@<TRIPOS>MOLECULE
guest-7_confgen4.mol2 : confsearch ligand conformer 1
          19          18           1
SMALL
USER_CHARGES
 
@<TRIPOS>ATOM
       1    C1      20.007852   19.223774   25.534924 C.2        1 MOL1         0.6115
       2    O1      19.946204   18.559207   26.549917 O.co2      1 MOL1        -0.6776
       3    O2      20.119965   20.434371   25.540334 O.co2      1 MOL1        -0.6776
       4    C2      19.938180   18.473461   24.203814 C.3        1 MOL1        -0.2013
       5    H1      19.000228   17.905792   24.196971 H          1 MOL1         0.0727
       6    H2      20.755492   17.742704   24.197031 H          1 MOL1         0.0727
       7    C3      20.020978   19.364047   22.935574 C.3        1 MOL1        -0.1910
       8    H3      19.203001   20.097621   22.951374 H          1 MOL1         0.0729
       9    H4      20.960080   19.934401   22.951464 H          1 MOL1         0.0729
      10    C4      19.943300   18.527158   21.640258 C.3        1 MOL1        -0.1909
      11    H5      19.003812   17.957663   21.626540 H          1 MOL1         0.0729
      12    H6      20.761846   17.794391   21.626595 H          1 MOL1         0.0729
      13    C5      20.025736   19.414381   20.380721 C.3        1 MOL1        -0.1884
      14    H7      19.207348   20.147628   20.389719 H          1 MOL1         0.0729
      15    H8      20.965217   19.984282   20.389710 H          1 MOL1         0.0729
      16    C6      19.947783   18.575602   19.089457 C.3        1 MOL1        -0.2899
      17    H9      19.002839   18.018849   19.039176 H          1 MOL1         0.0741
      18    H10     20.007849   19.221941   18.204162 H          1 MOL1         0.0741
      19    H11     20.773944   17.854249   19.039172 H          1 MOL1         0.0741
@<TRIPOS>BOND
    1     1     2    1
    2     1     3    2
    3     1     4    1
    4     4     5    1
    5     4     6    1
    6     4     7    1
    7     7     8    1
    8     7     9    1
    9     7    10    1
   10    10    11    1
   11    10    12    1
   12    10    13    1
   13    13    14    1
   14    13    15    1
   15    13    16    1
   16    16    17    1
   17    16    18    1
   18    16    19    1
@<TRIPOS>SUBSTRUCTURE
       1 MOL1            1 RESIDUE      1      MOL     
@<SCITEGIC>MOL_PROPERTY
VConf Rank
SciTegic.value.IntegerValue
1

@<SCITEGIC>MOL_PROPERTY
Conf_Id
SciTegic.value.IntegerValue
0

@<SCITEGIC>MOL_PROPERTY
Delta U+W
SciTegic.value.DoubleValue
0.000

@<SCITEGIC>MOL_PROPERTY
U+W
SciTegic.value.DoubleValue
-54.891

@<SCITEGIC>MOL_PROPERTY
Grad RMS
SciTegic.value.DoubleValue
0.000000

@<SCITEGIC>MOL_PROPERTY
U
SciTegic.value.DoubleValue
6.966

@<SCITEGIC>MOL_PROPERTY
W
SciTegic.value.DoubleValue
-61.857

@<SCITEGIC>MOL_PROPERTY
W(PB)
SciTegic.value.DoubleValue
-63.965

@<SCITEGIC>MOL_PROPERTY
W(SA)
SciTegic.value.DoubleValue
2.108

@<SCITEGIC>MOL_PROPERTY
Valence
SciTegic.value.DoubleValue
7.175

@<SCITEGIC>MOL_PROPERTY
Coulomb
SciTegic.value.DoubleValue
-1.360

@<SCITEGIC>MOL_PROPERTY
VdW
SciTegic.value.DoubleValue
1.151

@<SCITEGIC>MOL_PROPERTY
VdW6
SciTegic.value.DoubleValue
-5.641

@<SCITEGIC>MOL_PROPERTY
VdW12
SciTegic.value.DoubleValue
6.792

@<SCITEGIC>MOL_PROPERTY
Bond
SciTegic.value.DoubleValue
0.119

@<SCITEGIC>MOL_PROPERTY
Angle
SciTegic.value.DoubleValue
2.715

@<SCITEGIC>MOL_PROPERTY
Pdih
SciTegic.value.DoubleValue
4.340

@<SCITEGIC>MOL_PROPERTY
Idih
SciTegic.value.DoubleValue
0.000

@<SCITEGIC>MOL_PROPERTY
Tether
SciTegic.value.DoubleValue
0.000

@<TRIPOS>MOLECULE
guest-7_confgen4.mol2 : confsearch ligand conformer 2
          19          18           1
SMALL
USER_CHARGES
 
@<TRIPOS>ATOM
       1    C1      19.955308   19.277980   25.514442 C.2        1 MOL1         0.6115
       2    O1      20.638672   18.466788   26.107033 O.co2      1 MOL1        -0.6776
       3    O2      19.750221   20.406116   25.916226 O.co2      1 MOL1        -0.6776
       4    C2      19.337959   18.864180   24.183270 C.3        1 MOL1        -0.2013
       5    H1      18.381827   19.389879   24.072850 H          1 MOL1         0.0727
       6    H2      19.114494   17.791505   24.229918 H          1 MOL1         0.0727
       7    C3      20.256500   19.166364   22.973691 C.3        1 MOL1        -0.1910
       8    H3      20.481103   20.241754   22.948410 H          1 MOL1         0.0729
       9    H4      21.213917   18.643387   23.105582 H          1 MOL1         0.0729
      10    C4      19.608893   18.738224   21.639177 C.3        1 MOL1        -0.1909
      11    H5      18.651420   19.261662   21.510919 H          1 MOL1         0.0729
      12    H6      19.384440   17.663060   21.668071 H          1 MOL1         0.0729
      13    C5      20.526110   19.040518   20.435971 C.3        1 MOL1        -0.1884
      14    H7      20.751405   20.115514   20.402526 H          1 MOL1         0.0729
      15    H8      21.484309   18.517011   20.559612 H          1 MOL1         0.0729
      16    C6      19.876337   18.611829   19.105190 C.3        1 MOL1        -0.2899
      17    H9      20.541635   18.833905   18.260696 H          1 MOL1         0.0741
      18    H10     19.668765   17.533731   19.098779 H          1 MOL1         0.0741
      19    H11     18.930344   19.144195   18.940545 H          1 MOL1         0.0741
@<TRIPOS>BOND
    1     1     2    1
    2     1     3    2
    3     1     4    1
    4     4     5    1
    5     4     6    1
    6     4     7    1
    7     7     8    1
    8     7     9    1
    9     7    10    1
   10    10    11    1
   11    10    12    1
   12    10    13    1
   13    13    14    1
   14    13    15    1
   15    13    16    1
   16    16    17    1
   17    16    18    1
   18    16    19    1
@<TRIPOS>SUBSTRUCTURE
       1 MOL1            1 RESIDUE      1      MOL     
@<SCITEGIC>MOL_PROPERTY
VConf Rank
SciTegic.value.IntegerValue
2

@<SCITEGIC>MOL_PROPERTY
Conf_Id
SciTegic.value.IntegerValue
18

@<SCITEGIC>MOL_PROPERTY
Delta U+W
SciTegic.value.DoubleValue
-1.199

@<SCITEGIC>MOL_PROPERTY
U+W
SciTegic.value.DoubleValue
-56.090

@<SCITEGIC>MOL_PROPERTY
Grad RMS
SciTegic.value.DoubleValue
0.000000

@<SCITEGIC>MOL_PROPERTY
U
SciTegic.value.DoubleValue
5.975

@<SCITEGIC>MOL_PROPERTY
W
SciTegic.value.DoubleValue
-62.066

@<SCITEGIC>MOL_PROPERTY
W(PB)
SciTegic.value.DoubleValue
-64.219

@<SCITEGIC>MOL_PROPERTY
W(SA)
SciTegic.value.DoubleValue
2.153

@<SCITEGIC>MOL_PROPERTY
Valence
SciTegic.value.DoubleValue
6.673

@<SCITEGIC>MOL_PROPERTY
Coulomb
SciTegic.value.DoubleValue
-1.307

@<SCITEGIC>MOL_PROPERTY
VdW
SciTegic.value.DoubleValue
0.610

@<SCITEGIC>MOL_PROPERTY
VdW6
SciTegic.value.DoubleValue
-5.351

@<SCITEGIC>MOL_PROPERTY
VdW12
SciTegic.value.DoubleValue
5.961

@<SCITEGIC>MOL_PROPERTY
Bond
SciTegic.value.DoubleValue
0.086

@<SCITEGIC>MOL_PROPERTY
Angle
SciTegic.value.DoubleValue
2.253

@<SCITEGIC>MOL_PROPERTY
Pdih
SciTegic.value.DoubleValue
4.333

@<SCITEGIC>MOL_PROPERTY
Idih
SciTegic.value.DoubleValue
0.001

@<SCITEGIC>MOL_PROPERTY
Tether
SciTegic.value.DoubleValue
0.000

@<TRIPOS>MOLECULE
guest-7_confgen4.mol2 : confsearch ligand conformer 3
          19          18           1
SMALL
USER_CHARGES
 
@<TRIPOS>ATOM
       1    C1      19.836620   19.361093   25.364245 C.2        1 MOL1         0.6115
       2    O1      19.972460   18.466027   26.174610 O.co2      1 MOL1        -0.6776
       3    O2      19.948841   20.539340   25.638842 O.co2      1 MOL1        -0.6776
       4    C2      19.529592   18.983963   23.919299 C.3        1 MOL1        -0.2013
       5    H1      18.899750   19.774084   23.495210 H          1 MOL1         0.0727
       6    H2      18.935092   18.062541   23.927042 H          1 MOL1         0.0727
       7    C3      20.809199   18.787512   23.065371 C.3        1 MOL1        -0.1910
       8    H3      21.373797   19.729405   23.028267 H          1 MOL1         0.0729
       9    H4      21.458481   18.056310   23.566568 H          1 MOL1         0.0729
      10    C4      20.522732   18.292514   21.627857 C.3        1 MOL1        -0.1909
      11    H5      19.965645   17.346462   21.668456 H          1 MOL1         0.0729
      12    H6      21.480714   18.068269   21.138984 H          1 MOL1         0.0729
      13    C5      19.748147   19.316609   20.768346 C.3        1 MOL1        -0.1884
      14    H7      18.754758   19.498216   21.199110 H          1 MOL1         0.0729
      15    H8      20.279277   20.278465   20.769290 H          1 MOL1         0.0729
      16    C6      19.582409   18.824941   19.316429 C.3        1 MOL1        -0.2899
      17    H9      19.028233   19.561117   18.719751 H          1 MOL1         0.0741
      18    H10     20.559217   18.669121   18.840034 H          1 MOL1         0.0741
      19    H11     19.029684   17.876871   19.283841 H          1 MOL1         0.0741
@<TRIPOS>BOND
    1     1     2    1
    2     1     3    2
    3     1     4    1
    4     4     5    1
    5     4     6    1
    6     4     7    1
    7     7     8    1
    8     7     9    1
    9     7    10    1
   10    10    11    1
   11    10    12    1
   12    10    13    1
   13    13    14    1
   14    13    15    1
   15    13    16    1
   16    16    17    1
   17    16    18    1
   18    16    19    1
@<TRIPOS>SUBSTRUCTURE
       1 MOL1            1 RESIDUE      1      MOL     
@<SCITEGIC>MOL_PROPERTY
VConf Rank
SciTegic.value.IntegerValue
3

@<SCITEGIC>MOL_PROPERTY
Conf_Id
SciTegic.value.IntegerValue
34

@<SCITEGIC>MOL_PROPERTY
Delta U+W
SciTegic.value.DoubleValue
-0.563

@<SCITEGIC>MOL_PROPERTY
U+W
SciTegic.value.DoubleValue
-55.455

@<SCITEGIC>MOL_PROPERTY
Grad RMS
SciTegic.value.DoubleValue
0.000000

@<SCITEGIC>MOL_PROPERTY
U
SciTegic.value.DoubleValue
6.914

@<SCITEGIC>MOL_PROPERTY
W
SciTegic.value.DoubleValue
-62.369

@<SCITEGIC>MOL_PROPERTY
W(PB)
SciTegic.value.DoubleValue
-64.446

@<SCITEGIC>MOL_PROPERTY
W(SA)
SciTegic.value.DoubleValue
2.077

@<SCITEGIC>MOL_PROPERTY
Valence
SciTegic.value.DoubleValue
7.196

@<SCITEGIC>MOL_PROPERTY
Coulomb
SciTegic.value.DoubleValue
-1.020

@<SCITEGIC>MOL_PROPERTY
VdW
SciTegic.value.DoubleValue
0.738

@<SCITEGIC>MOL_PROPERTY
VdW6
SciTegic.value.DoubleValue
-6.010

@<SCITEGIC>MOL_PROPERTY
VdW12
SciTegic.value.DoubleValue
6.748

@<SCITEGIC>MOL_PROPERTY
Bond
SciTegic.value.DoubleValue
0.126

@<SCITEGIC>MOL_PROPERTY
Angle
SciTegic.value.DoubleValue
2.499

@<SCITEGIC>MOL_PROPERTY
Pdih
SciTegic.value.DoubleValue
4.570

@<SCITEGIC>MOL_PROPERTY
Idih
SciTegic.value.DoubleValue
0.001

@<SCITEGIC>MOL_PROPERTY
Tether
SciTegic.value.DoubleValue
0.000

@<TRIPOS>MOLECULE
guest-7_confgen4.mol2 : confsearch ligand conformer 4
          19          18           1
SMALL
USER_CHARGES
 
@<TRIPOS>ATOM
       1    C1      20.201471   19.327187   25.364279 C.2        1 MOL1         0.6115
       2    O1      19.903277   18.472362   26.174615 O.co2      1 MOL1        -0.6776
       3    O2      20.307405   20.506032   25.638805 O.co2      1 MOL1        -0.6776
       4    C2      20.433892   18.900050   23.919324 C.3        1 MOL1        -0.2013
       5    H1      20.848558   17.884913   23.927033 H          1 MOL1         0.0727
       6    H2      21.198479   19.560709   23.495320 H          1 MOL1         0.0727
       7    C3      19.140041   18.942637   23.065323 C.3        1 MOL1        -0.1910
       8    H3      18.367141   18.343585   23.566507 H          1 MOL1         0.0729
       9    H4      18.758623   19.972417   23.028149 H          1 MOL1         0.0729
      10    C4      19.330496   18.403275   21.627846 C.3        1 MOL1        -0.1909
      11    H5      18.347625   18.359344   21.138920 H          1 MOL1         0.0729
      12    H6      19.703748   17.370784   21.668506 H          1 MOL1         0.0729
      13    C5      20.280547   19.267109   20.768366 C.3        1 MOL1        -0.1884
      14    H7      19.935754   20.310367   20.769319 H          1 MOL1         0.0729
      15    H8      21.290379   19.262543   21.199157 H          1 MOL1         0.0729
      16    C6      20.352872   18.753348   19.316442 C.3        1 MOL1        -0.2899
      17    H9      20.721433   17.719663   19.283839 H          1 MOL1         0.0741
      18    H10     19.364086   18.780202   18.840031 H          1 MOL1         0.0741
      19    H11     21.033221   19.374815   18.719790 H          1 MOL1         0.0741
@<TRIPOS>BOND
    1     1     2    1
    2     1     3    2
    3     1     4    1
    4     4     5    1
    5     4     6    1
    6     4     7    1
    7     7     8    1
    8     7     9    1
    9     7    10    1
   10    10    11    1
   11    10    12    1
   12    10    13    1
   13    13    14    1
   14    13    15    1
   15    13    16    1
   16    16    17    1
   17    16    18    1
   18    16    19    1
@<TRIPOS>SUBSTRUCTURE
       1 MOL1            1 RESIDUE      1      MOL     
@<SCITEGIC>MOL_PROPERTY
VConf Rank
SciTegic.value.IntegerValue
4

@<SCITEGIC>MOL_PROPERTY
Conf_Id
SciTegic.value.IntegerValue
33

@<SCITEGIC>MOL_PROPERTY
Delta U+W
SciTegic.value.DoubleValue
-0.526

@<SCITEGIC>MOL_PROPERTY
U+W
SciTegic.value.DoubleValue
-55.418

@<SCITEGIC>MOL_PROPERTY
Grad RMS
SciTegic.value.DoubleValue
0.000000

@<SCITEGIC>MOL_PROPERTY
U
SciTegic.value.DoubleValue
6.914

@<SCITEGIC>MOL_PROPERTY
W
SciTegic.value.DoubleValue
-62.332

@<SCITEGIC>MOL_PROPERTY
W(PB)
SciTegic.value.DoubleValue
-64.421

@<SCITEGIC>MOL_PROPERTY
W(SA)
SciTegic.value.DoubleValue
2.090

@<SCITEGIC>MOL_PROPERTY
Valence
SciTegic.value.DoubleValue
7.196

@<SCITEGIC>MOL_PROPERTY
Coulomb
SciTegic.value.DoubleValue
-1.020

@<SCITEGIC>MOL_PROPERTY
VdW
SciTegic.value.DoubleValue
0.738

@<SCITEGIC>MOL_PROPERTY
VdW6
SciTegic.value.DoubleValue
-6.010

@<SCITEGIC>MOL_PROPERTY
VdW12
SciTegic.value.DoubleValue
6.748

@<SCITEGIC>MOL_PROPERTY
Bond
SciTegic.value.DoubleValue
0.126

@<SCITEGIC>MOL_PROPERTY
Angle
SciTegic.value.DoubleValue
2.499

@<SCITEGIC>MOL_PROPERTY
Pdih
SciTegic.value.DoubleValue
4.570

@<SCITEGIC>MOL_PROPERTY
Idih
SciTegic.value.DoubleValue
0.001

@<SCITEGIC>MOL_PROPERTY
Tether
SciTegic.value.DoubleValue
0.000

@<TRIPOS>MOLECULE
guest-7_confgen4.mol2 : confsearch ligand conformer 5
          19          18           1
SMALL
USER_CHARGES
 
@<TRIPOS>ATOM
       1    C1      20.092155   19.225490   25.388154 C.2        1 MOL1         0.6115
       2    O1      20.709323   18.284264   25.845775 O.co2      1 MOL1        -0.6776
       3    O2      20.142017   20.349396   25.847058 O.co2      1 MOL1        -0.6776
       4    C2      19.220888   18.987036   24.159930 C.3        1 MOL1        -0.2013
       5    H1      18.359201   19.662973   24.217233 H          1 MOL1         0.0727
       6    H2      18.833163   17.962421   24.210536 H          1 MOL1         0.0727
       7    C3      19.983295   19.203862   22.829456 C.3        1 MOL1        -0.1910
       8    H3      20.373220   20.230609   22.798010 H          1 MOL1         0.0729
       9    H4      20.850515   18.530916   22.803117 H          1 MOL1         0.0729
      10    C4      19.077447   18.952120   21.601968 C.3        1 MOL1        -0.1909
      11    H5      18.181430   19.582589   21.683549 H          1 MOL1         0.0729
      12    H6      18.727096   17.910855   21.607369 H          1 MOL1         0.0729
      13    C5      19.771159   19.257108   20.254254 C.3        1 MOL1        -0.1884
      14    H7      19.029928   19.167950   19.448108 H          1 MOL1         0.0729
      15    H8      20.118129   20.299609   20.242840 H          1 MOL1         0.0729
      16    C6      20.953716   18.312722   19.948404 C.3        1 MOL1        -0.2899
      17    H9      20.636813   17.262237   19.983173 H          1 MOL1         0.0741
      18    H10     21.354350   18.511811   18.946008 H          1 MOL1         0.0741
      19    H11     21.772145   18.449842   20.666120 H          1 MOL1         0.0741
@<TRIPOS>BOND
    1     1     2    1
    2     1     3    2
    3     1     4    1
    4     4     5    1
    5     4     6    1
    6     4     7    1
    7     7     8    1
    8     7     9    1
    9     7    10    1
   10    10    11    1
   11    10    12    1
   12    10    13    1
   13    13    14    1
   14    13    15    1
   15    13    16    1
   16    16    17    1
   17    16    18    1
   18    16    19    1
@<TRIPOS>SUBSTRUCTURE
       1 MOL1            1 RESIDUE      1      MOL     
@<SCITEGIC>MOL_PROPERTY
VConf Rank
SciTegic.value.IntegerValue
5

@<SCITEGIC>MOL_PROPERTY
Conf_Id
SciTegic.value.IntegerValue
42

@<SCITEGIC>MOL_PROPERTY
Delta U+W
SciTegic.value.DoubleValue
-0.344

@<SCITEGIC>MOL_PROPERTY
U+W
SciTegic.value.DoubleValue
-55.236

@<SCITEGIC>MOL_PROPERTY
Grad RMS
SciTegic.value.DoubleValue
0.000000

@<SCITEGIC>MOL_PROPERTY
U
SciTegic.value.DoubleValue
7.244

@<SCITEGIC>MOL_PROPERTY
W
SciTegic.value.DoubleValue
-62.479

@<SCITEGIC>MOL_PROPERTY
W(PB)
SciTegic.value.DoubleValue
-64.610

@<SCITEGIC>MOL_PROPERTY
W(SA)
SciTegic.value.DoubleValue
2.130

@<SCITEGIC>MOL_PROPERTY
Valence
SciTegic.value.DoubleValue
7.174

@<SCITEGIC>MOL_PROPERTY
Coulomb
SciTegic.value.DoubleValue
-0.669

@<SCITEGIC>MOL_PROPERTY
VdW
SciTegic.value.DoubleValue
0.739

@<SCITEGIC>MOL_PROPERTY
VdW6
SciTegic.value.DoubleValue
-5.969

@<SCITEGIC>MOL_PROPERTY
VdW12
SciTegic.value.DoubleValue
6.708

@<SCITEGIC>MOL_PROPERTY
Bond
SciTegic.value.DoubleValue
0.116

@<SCITEGIC>MOL_PROPERTY
Angle
SciTegic.value.DoubleValue
2.481

@<SCITEGIC>MOL_PROPERTY
Pdih
SciTegic.value.DoubleValue
4.576

@<SCITEGIC>MOL_PROPERTY
Idih
SciTegic.value.DoubleValue
0.000

@<SCITEGIC>MOL_PROPERTY
Tether
SciTegic.value.DoubleValue
0.000

@<TRIPOS>MOLECULE
guest-7_confgen4.mol2 : confsearch ligand conformer 6
          19          18           1
SMALL
USER_CHARGES
 
@<TRIPOS>ATOM
       1    C1      19.925279   19.240950   25.388185 C.2        1 MOL1         0.6115
       2    O1      19.145462   18.429382   25.845855 O.co2      1 MOL1        -0.6776
       3    O2      20.082653   20.355072   25.846673 O.co2      1 MOL1        -0.6776
       4    C2      20.737851   18.846146   24.160033 C.3        1 MOL1        -0.2013
       5    H1      20.930295   17.767661   24.210664 H          1 MOL1         0.0727
       6    H2      21.709253   19.351877   24.217420 H          1 MOL1         0.0727
       7    C3      20.028511   19.199630   22.829495 C.3        1 MOL1        -0.1910
       8    H3      19.052173   18.697944   22.803122 H          1 MOL1         0.0729
       9    H4      19.834394   20.280632   22.797984 H          1 MOL1         0.0729
      10    C4      20.872546   18.785270   21.602071 C.3        1 MOL1        -0.1909
      11    H5      21.025001   17.697274   21.607478 H          1 MOL1         0.0729
      12    H6      21.869400   19.239809   21.683730 H          1 MOL1         0.0729
      13    C5      20.247021   19.212891   20.254315 C.3        1 MOL1        -0.1884
      14    H7      20.098144   20.301483   20.242895 H          1 MOL1         0.0729
      15    H8      20.959173   18.988644   19.448214 H          1 MOL1         0.0729
      16    C6      18.910675   18.502659   19.948373 C.3        1 MOL1        -0.2899
      17    H9      18.131491   18.788291   20.666030 H          1 MOL1         0.0741
      18    H10     18.553680   18.772179   18.945948 H          1 MOL1         0.0741
      19    H11     19.028514   17.411759   19.983152 H          1 MOL1         0.0741
@<TRIPOS>BOND
    1     1     2    1
    2     1     3    2
    3     1     4    1
    4     4     5    1
    5     4     6    1
    6     4     7    1
    7     7     8    1
    8     7     9    1
    9     7    10    1
   10    10    11    1
   11    10    12    1
   12    10    13    1
   13    13    14    1
   14    13    15    1
   15    13    16    1
   16    16    17    1
   17    16    18    1
   18    16    19    1
@<TRIPOS>SUBSTRUCTURE
       1 MOL1            1 RESIDUE      1      MOL     
@<SCITEGIC>MOL_PROPERTY
VConf Rank
SciTegic.value.IntegerValue
6

@<SCITEGIC>MOL_PROPERTY
Conf_Id
SciTegic.value.IntegerValue
41

@<SCITEGIC>MOL_PROPERTY
Delta U+W
SciTegic.value.DoubleValue
-0.361

@<SCITEGIC>MOL_PROPERTY
U+W
SciTegic.value.DoubleValue
-55.252

@<SCITEGIC>MOL_PROPERTY
Grad RMS
SciTegic.value.DoubleValue
0.000000

@<SCITEGIC>MOL_PROPERTY
U
SciTegic.value.DoubleValue
7.244

@<SCITEGIC>MOL_PROPERTY
W
SciTegic.value.DoubleValue
-62.496

@<SCITEGIC>MOL_PROPERTY
W(PB)
SciTegic.value.DoubleValue
-64.596

@<SCITEGIC>MOL_PROPERTY
W(SA)
SciTegic.value.DoubleValue
2.099

@<SCITEGIC>MOL_PROPERTY
Valence
SciTegic.value.DoubleValue
7.174

@<SCITEGIC>MOL_PROPERTY
Coulomb
SciTegic.value.DoubleValue
-0.669

@<SCITEGIC>MOL_PROPERTY
VdW
SciTegic.value.DoubleValue
0.739

@<SCITEGIC>MOL_PROPERTY
VdW6
SciTegic.value.DoubleValue
-5.969

@<SCITEGIC>MOL_PROPERTY
VdW12
SciTegic.value.DoubleValue
6.708

@<SCITEGIC>MOL_PROPERTY
Bond
SciTegic.value.DoubleValue
0.116

@<SCITEGIC>MOL_PROPERTY
Angle
SciTegic.value.DoubleValue
2.481

@<SCITEGIC>MOL_PROPERTY
Pdih
SciTegic.value.DoubleValue
4.576

@<SCITEGIC>MOL_PROPERTY
Idih
SciTegic.value.DoubleValue
0.000

@<SCITEGIC>MOL_PROPERTY
Tether
SciTegic.value.DoubleValue
0.000

@<TRIPOS>MOLECULE
guest-7_confgen4.mol2 : confsearch ligand conformer 7
          19          18           1
SMALL
USER_CHARGES
 
@<TRIPOS>ATOM
       1    C1      20.167610   19.186758   25.179691 C.2        1 MOL1         0.6115
       2    O1      20.815314   18.179469   25.385600 O.co2      1 MOL1        -0.6776
       3    O2      20.494010   20.288115   25.576121 O.co2      1 MOL1        -0.6776
       4    C2      18.861625   19.060814   24.400020 C.3        1 MOL1        -0.2013
       5    H1      18.098969   19.630980   24.943506 H          1 MOL1         0.0727
       6    H2      18.544070   18.011098   24.415523 H          1 MOL1         0.0727
       7    C3      18.946813   19.572631   22.938556 C.3        1 MOL1        -0.1910
       8    H3      17.938772   19.573995   22.502225 H          1 MOL1         0.0729
       9    H4      19.293301   20.615501   22.937822 H          1 MOL1         0.0729
      10    C4      19.880727   18.710171   22.060331 C.3        1 MOL1        -0.1909
      11    H5      19.537902   17.666480   22.074794 H          1 MOL1         0.0729
      12    H6      20.895809   18.717569   22.481018 H          1 MOL1         0.0729
      13    C5      19.925689   19.218315   20.604181 C.3        1 MOL1        -0.1884
      14    H7      18.913466   19.209165   20.176688 H          1 MOL1         0.0729
      15    H8      20.270652   20.261467   20.586597 H          1 MOL1         0.0729
      16    C6      20.858212   18.355726   19.730501 C.3        1 MOL1        -0.2899
      17    H9      20.518139   17.312126   19.704912 H          1 MOL1         0.0741
      18    H10     20.878728   18.731041   18.699092 H          1 MOL1         0.0741
      19    H11     21.885413   18.372187   20.117839 H          1 MOL1         0.0741
@<TRIPOS>BOND
    1     1     2    1
    2     1     3    2
    3     1     4    1
    4     4     5    1
    5     4     6    1
    6     4     7    1
    7     7     8    1
    8     7     9    1
    9     7    10    1
   10    10    11    1
   11    10    12    1
   12    10    13    1
   13    13    14    1
   14    13    15    1
   15    13    16    1
   16    16    17    1
   17    16    18    1
   18    16    19    1
@<TRIPOS>SUBSTRUCTURE
       1 MOL1            1 RESIDUE      1      MOL     
@<SCITEGIC>MOL_PROPERTY
VConf Rank
SciTegic.value.IntegerValue
7

@<SCITEGIC>MOL_PROPERTY
Conf_Id
SciTegic.value.IntegerValue
36

@<SCITEGIC>MOL_PROPERTY
Delta U+W
SciTegic.value.DoubleValue
-0.079

@<SCITEGIC>MOL_PROPERTY
U+W
SciTegic.value.DoubleValue
-54.971

@<SCITEGIC>MOL_PROPERTY
Grad RMS
SciTegic.value.DoubleValue
0.000000

@<SCITEGIC>MOL_PROPERTY
U
SciTegic.value.DoubleValue
8.266

@<SCITEGIC>MOL_PROPERTY
W
SciTegic.value.DoubleValue
-63.237

@<SCITEGIC>MOL_PROPERTY
W(PB)
SciTegic.value.DoubleValue
-65.340

@<SCITEGIC>MOL_PROPERTY
W(SA)
SciTegic.value.DoubleValue
2.103

@<SCITEGIC>MOL_PROPERTY
Valence
SciTegic.value.DoubleValue
6.935

@<SCITEGIC>MOL_PROPERTY
Coulomb
SciTegic.value.DoubleValue
0.874

@<SCITEGIC>MOL_PROPERTY
VdW
SciTegic.value.DoubleValue
0.457

@<SCITEGIC>MOL_PROPERTY
VdW6
SciTegic.value.DoubleValue
-6.205

@<SCITEGIC>MOL_PROPERTY
VdW12
SciTegic.value.DoubleValue
6.662

@<SCITEGIC>MOL_PROPERTY
Bond
SciTegic.value.DoubleValue
0.107

@<SCITEGIC>MOL_PROPERTY
Angle
SciTegic.value.DoubleValue
2.420

@<SCITEGIC>MOL_PROPERTY
Pdih
SciTegic.value.DoubleValue
4.407

@<SCITEGIC>MOL_PROPERTY
Idih
SciTegic.value.DoubleValue
0.001

@<SCITEGIC>MOL_PROPERTY
Tether
SciTegic.value.DoubleValue
0.000

@<TRIPOS>MOLECULE
guest-7_confgen4.mol2 : confsearch ligand conformer 8
          19          18           1
SMALL
USER_CHARGES
 
@<TRIPOS>ATOM
       1    C1      19.843974   19.216735   25.179725 C.2        1 MOL1         0.6115
       2    O1      19.022008   18.345791   25.385592 O.co2      1 MOL1        -0.6776
       3    O2      19.725492   20.359468   25.575711 O.co2      1 MOL1        -0.6776
       4    C2      21.104552   18.852683   24.400137 C.3        1 MOL1        -0.2013
       5    H1      21.223566   17.762461   24.415644 H          1 MOL1         0.0727
       6    H2      21.959041   19.272806   24.943693 H          1 MOL1         0.0727
       7    C3      21.115095   19.371444   22.938676 C.3        1 MOL1        -0.1910
       8    H3      20.966404   20.460261   22.937944 H          1 MOL1         0.0729
       9    H4      22.106209   19.187315   22.502412 H          1 MOL1         0.0729
      10    C4      20.038491   18.695546   22.060385 C.3        1 MOL1        -0.1909
      11    H5      19.042079   18.889581   22.481022 H          1 MOL1         0.0729
      12    H6      20.183431   17.606596   22.074856 H          1 MOL1         0.0729
      13    C5      20.087856   19.203287   20.604237 C.3        1 MOL1        -0.1884
      14    H7      19.940755   20.292105   20.586648 H          1 MOL1         0.0729
      15    H8      21.081121   19.008016   20.176772 H          1 MOL1         0.0729
      16    C6      19.012531   18.527046   19.730536 C.3        1 MOL1        -0.2899
      17    H9      18.005901   18.732255   20.117870 H          1 MOL1         0.0741
      18    H10     19.061438   18.899735   18.699130 H          1 MOL1         0.0741
      19    H11     19.154742   17.438686   19.704937 H          1 MOL1         0.0741
@<TRIPOS>BOND
    1     1     2    1
    2     1     3    2
    3     1     4    1
    4     4     5    1
    5     4     6    1
    6     4     7    1
    7     7     8    1
    8     7     9    1
    9     7    10    1
   10    10    11    1
   11    10    12    1
   12    10    13    1
   13    13    14    1
   14    13    15    1
   15    13    16    1
   16    16    17    1
   17    16    18    1
   18    16    19    1
@<TRIPOS>SUBSTRUCTURE
       1 MOL1            1 RESIDUE      1      MOL     
@<SCITEGIC>MOL_PROPERTY
VConf Rank
SciTegic.value.IntegerValue
8

@<SCITEGIC>MOL_PROPERTY
Conf_Id
SciTegic.value.IntegerValue
35

@<SCITEGIC>MOL_PROPERTY
Delta U+W
SciTegic.value.DoubleValue
-0.030

@<SCITEGIC>MOL_PROPERTY
U+W
SciTegic.value.DoubleValue
-54.921

@<SCITEGIC>MOL_PROPERTY
Grad RMS
SciTegic.value.DoubleValue
0.000000

@<SCITEGIC>MOL_PROPERTY
U
SciTegic.value.DoubleValue
8.267

@<SCITEGIC>MOL_PROPERTY
W
SciTegic.value.DoubleValue
-63.188

@<SCITEGIC>MOL_PROPERTY
W(PB)
SciTegic.value.DoubleValue
-65.294

@<SCITEGIC>MOL_PROPERTY
W(SA)
SciTegic.value.DoubleValue
2.106

@<SCITEGIC>MOL_PROPERTY
Valence
SciTegic.value.DoubleValue
6.935

@<SCITEGIC>MOL_PROPERTY
Coulomb
SciTegic.value.DoubleValue
0.875

@<SCITEGIC>MOL_PROPERTY
VdW
SciTegic.value.DoubleValue
0.457

@<SCITEGIC>MOL_PROPERTY
VdW6
SciTegic.value.DoubleValue
-6.205

@<SCITEGIC>MOL_PROPERTY
VdW12
SciTegic.value.DoubleValue
6.662

@<SCITEGIC>MOL_PROPERTY
Bond
SciTegic.value.DoubleValue
0.107

@<SCITEGIC>MOL_PROPERTY
Angle
SciTegic.value.DoubleValue
2.420

@<SCITEGIC>MOL_PROPERTY
Pdih
SciTegic.value.DoubleValue
4.407

@<SCITEGIC>MOL_PROPERTY
Idih
SciTegic.value.DoubleValue
0.001

@<SCITEGIC>MOL_PROPERTY
Tether
SciTegic.value.DoubleValue
0.000

@<TRIPOS>MOLECULE
guest-7_confgen4.mol2 : confsearch ligand conformer 9
          19          18           1
SMALL
USER_CHARGES
 
@<TRIPOS>ATOM
       1    C1      20.032377   19.274622   25.207931 C.2        1 MOL1         0.6115
       2    O1      19.084800   18.739955   25.749168 O.co2      1 MOL1        -0.6776
       3    O2      20.366823   20.423386   25.420372 O.co2      1 MOL1        -0.6776
       4    C2      20.858832   18.450079   24.224783 C.3        1 MOL1        -0.2013
       5    H1      21.046274   17.475862   24.691540 H          1 MOL1         0.0727
       6    H2      21.835056   18.933077   24.095717 H          1 MOL1         0.0727
       7    C3      20.179314   18.240655   22.846336 C.3        1 MOL1        -0.1910
       8    H3      20.771810   17.516739   22.272538 H          1 MOL1         0.0729
       9    H4      19.186902   17.792770   22.994145 H          1 MOL1         0.0729
      10    C4      20.046624   19.556913   22.043501 C.3        1 MOL1        -0.1909
      11    H5      21.043032   19.983110   21.863657 H          1 MOL1         0.0729
      12    H6      19.498948   20.293987   22.646657 H          1 MOL1         0.0729
      13    C5      19.307010   19.383042   20.696812 C.3        1 MOL1        -0.1884
      14    H7      18.309002   18.958787   20.873726 H          1 MOL1         0.0729
      15    H8      19.147927   20.375053   20.252035 H          1 MOL1         0.0729
      16    C6      20.074220   18.503349   19.686096 C.3        1 MOL1        -0.2899
      17    H9      20.155257   17.466999   20.036859 H          1 MOL1         0.0741
      18    H10     19.553818   18.486742   18.719741 H          1 MOL1         0.0741
      19    H11     21.087400   18.890927   19.517584 H          1 MOL1         0.0741
@<TRIPOS>BOND
    1     1     2    1
    2     1     3    2
    3     1     4    1
    4     4     5    1
    5     4     6    1
    6     4     7    1
    7     7     8    1
    8     7     9    1
    9     7    10    1
   10    10    11    1
   11    10    12    1
   12    10    13    1
   13    13    14    1
   14    13    15    1
   15    13    16    1
   16    16    17    1
   17    16    18    1
   18    16    19    1
@<TRIPOS>SUBSTRUCTURE
       1 MOL1            1 RESIDUE      1      MOL     
@<SCITEGIC>MOL_PROPERTY
VConf Rank
SciTegic.value.IntegerValue
9

@<SCITEGIC>MOL_PROPERTY
Conf_Id
SciTegic.value.IntegerValue
74

@<SCITEGIC>MOL_PROPERTY
Delta U+W
SciTegic.value.DoubleValue
0.797

@<SCITEGIC>MOL_PROPERTY
U+W
SciTegic.value.DoubleValue
-54.095

@<SCITEGIC>MOL_PROPERTY
Grad RMS
SciTegic.value.DoubleValue
0.000000

@<SCITEGIC>MOL_PROPERTY
U
SciTegic.value.DoubleValue
8.869

@<SCITEGIC>MOL_PROPERTY
W
SciTegic.value.DoubleValue
-62.964

@<SCITEGIC>MOL_PROPERTY
W(PB)
SciTegic.value.DoubleValue
-65.046

@<SCITEGIC>MOL_PROPERTY
W(SA)
SciTegic.value.DoubleValue
2.082

@<SCITEGIC>MOL_PROPERTY
Valence
SciTegic.value.DoubleValue
7.469

@<SCITEGIC>MOL_PROPERTY
Coulomb
SciTegic.value.DoubleValue
0.762

@<SCITEGIC>MOL_PROPERTY
VdW
SciTegic.value.DoubleValue
0.639

@<SCITEGIC>MOL_PROPERTY
VdW6
SciTegic.value.DoubleValue
-6.782

@<SCITEGIC>MOL_PROPERTY
VdW12
SciTegic.value.DoubleValue
7.421

@<SCITEGIC>MOL_PROPERTY
Bond
SciTegic.value.DoubleValue
0.141

@<SCITEGIC>MOL_PROPERTY
Angle
SciTegic.value.DoubleValue
2.667

@<SCITEGIC>MOL_PROPERTY
Pdih
SciTegic.value.DoubleValue
4.660

@<SCITEGIC>MOL_PROPERTY
Idih
SciTegic.value.DoubleValue
0.001

@<SCITEGIC>MOL_PROPERTY
Tether
SciTegic.value.DoubleValue
0.000

@<TRIPOS>MOLECULE
guest-7_confgen4.mol2 : confsearch ligand conformer 10
          19          18           1
SMALL
USER_CHARGES
 
@<TRIPOS>ATOM
       1    C1      19.896510   19.451095   25.182609 C.2        1 MOL1         0.6115
       2    O1      20.022092   18.675152   26.109196 O.co2      1 MOL1        -0.6776
       3    O2      20.102345   20.645132   25.273329 O.co2      1 MOL1        -0.6776
       4    C2      19.475905   18.892642   23.827825 C.3        1 MOL1        -0.2013
       5    H1      18.879269   19.659829   23.321261 H          1 MOL1         0.0727
       6    H2      18.819778   18.031644   24.002572 H          1 MOL1         0.0727
       7    C3      20.683443   18.475315   22.949030 C.3        1 MOL1        -0.1910
       8    H3      21.312641   19.352713   22.748878 H          1 MOL1         0.0729
       9    H4      21.309992   17.776349   23.520065 H          1 MOL1         0.0729
      10    C4      20.275054   17.796170   21.617599 C.3        1 MOL1        -0.1909
      11    H5      19.734800   16.866700   21.843445 H          1 MOL1         0.0729
      12    H6      21.185521   17.494977   21.081770 H          1 MOL1         0.0729
      13    C5      19.403448   18.662295   20.675245 C.3        1 MOL1        -0.1884
      14    H7      19.166911   18.073339   19.778439 H          1 MOL1         0.0729
      15    H8      18.440415   18.889316   21.151312 H          1 MOL1         0.0729
      16    C6      20.091203   19.974199   20.240165 C.3        1 MOL1        -0.2899
      17    H9      21.067861   19.772421   19.781410 H          1 MOL1         0.0741
      18    H10     19.474388   20.505483   19.503896 H          1 MOL1         0.0741
      19    H11     20.243210   20.646795   21.093848 H          1 MOL1         0.0741
@<TRIPOS>BOND
    1     1     2    1
    2     1     3    2
    3     1     4    1
    4     4     5    1
    5     4     6    1
    6     4     7    1
    7     7     8    1
    8     7     9    1
    9     7    10    1
   10    10    11    1
   11    10    12    1
   12    10    13    1
   13    13    14    1
   14    13    15    1
   15    13    16    1
   16    16    17    1
   17    16    18    1
   18    16    19    1
@<TRIPOS>SUBSTRUCTURE
       1 MOL1            1 RESIDUE      1      MOL     
@<SCITEGIC>MOL_PROPERTY
VConf Rank
SciTegic.value.IntegerValue
10

@<SCITEGIC>MOL_PROPERTY
Conf_Id
SciTegic.value.IntegerValue
67

@<SCITEGIC>MOL_PROPERTY
Delta U+W
SciTegic.value.DoubleValue
0.308

@<SCITEGIC>MOL_PROPERTY
U+W
SciTegic.value.DoubleValue
-54.583

@<SCITEGIC>MOL_PROPERTY
Grad RMS
SciTegic.value.DoubleValue
0.000000

@<SCITEGIC>MOL_PROPERTY
U
SciTegic.value.DoubleValue
8.219

@<SCITEGIC>MOL_PROPERTY
W
SciTegic.value.DoubleValue
-62.802

@<SCITEGIC>MOL_PROPERTY
W(PB)
SciTegic.value.DoubleValue
-64.859

@<SCITEGIC>MOL_PROPERTY
W(SA)
SciTegic.value.DoubleValue
2.057

@<SCITEGIC>MOL_PROPERTY
Valence
SciTegic.value.DoubleValue
7.609

@<SCITEGIC>MOL_PROPERTY
Coulomb
SciTegic.value.DoubleValue
-0.089

@<SCITEGIC>MOL_PROPERTY
VdW
SciTegic.value.DoubleValue
0.699

@<SCITEGIC>MOL_PROPERTY
VdW6
SciTegic.value.DoubleValue
-6.924

@<SCITEGIC>MOL_PROPERTY
VdW12
SciTegic.value.DoubleValue
7.623

@<SCITEGIC>MOL_PROPERTY
Bond
SciTegic.value.DoubleValue
0.163

@<SCITEGIC>MOL_PROPERTY
Angle
SciTegic.value.DoubleValue
2.870

@<SCITEGIC>MOL_PROPERTY
Pdih
SciTegic.value.DoubleValue
4.576

@<SCITEGIC>MOL_PROPERTY
Idih
SciTegic.value.DoubleValue
0.001

@<SCITEGIC>MOL_PROPERTY
Tether
SciTegic.value.DoubleValue
0.000

@<TRIPOS>MOLECULE
guest-7_confgen4.mol2 : confsearch ligand conformer 11
          19          18           1
SMALL
USER_CHARGES
 
@<TRIPOS>ATOM
       1    C1      20.159147   19.426739   25.182613 C.2        1 MOL1         0.6115
       2    O1      19.892987   18.687142   26.109209 O.co2      1 MOL1        -0.6776
       3    O2      20.175878   20.638283   25.273175 O.co2      1 MOL1        -0.6776
       4    C2      20.469922   18.800431   23.827853 C.3        1 MOL1        -0.2013
       5    H1      20.956505   17.833454   24.002634 H          1 MOL1         0.0727
       6    H2      21.197497   19.444795   23.321308 H          1 MOL1         0.0727
       7    C3      19.206260   18.612288   22.949020 C.3        1 MOL1        -0.1910
       8    H3      18.461837   18.040467   23.520031 H          1 MOL1         0.0729
       9    H4      18.749153   19.590432   22.748854 H          1 MOL1         0.0729
      10    C4      19.482830   17.869629   21.617596 C.3        1 MOL1        -0.1909
      11    H5      18.532512   17.740987   21.081753 H          1 MOL1         0.0729
      12    H6      19.842958   16.856667   21.843447 H          1 MOL1         0.0729
      13    C5      20.498850   18.560718   20.675259 C.3        1 MOL1        -0.1884
      14    H7      21.487218   18.606705   21.151309 H          1 MOL1         0.0729
      15    H8      20.623004   17.938357   19.778412 H          1 MOL1         0.0729
      16    C6      20.064126   19.976770   20.240275 C.3        1 MOL1        -0.2899
      17    H9      20.038488   20.665807   21.093995 H          1 MOL1         0.0741
      18    H10     20.768101   20.385563   19.503985 H          1 MOL1         0.0741
      19    H11     19.066990   19.958114   19.781580 H          1 MOL1         0.0741
@<TRIPOS>BOND
    1     1     2    1
    2     1     3    2
    3     1     4    1
    4     4     5    1
    5     4     6    1
    6     4     7    1
    7     7     8    1
    8     7     9    1
    9     7    10    1
   10    10    11    1
   11    10    12    1
   12    10    13    1
   13    13    14    1
   14    13    15    1
   15    13    16    1
   16    16    17    1
   17    16    18    1
   18    16    19    1
@<TRIPOS>SUBSTRUCTURE
       1 MOL1            1 RESIDUE      1      MOL     
@<SCITEGIC>MOL_PROPERTY
VConf Rank
SciTegic.value.IntegerValue
11

@<SCITEGIC>MOL_PROPERTY
Conf_Id
SciTegic.value.IntegerValue
21

@<SCITEGIC>MOL_PROPERTY
Delta U+W
SciTegic.value.DoubleValue
0.319

@<SCITEGIC>MOL_PROPERTY
U+W
SciTegic.value.DoubleValue
-54.572

@<SCITEGIC>MOL_PROPERTY
Grad RMS
SciTegic.value.DoubleValue
0.000000

@<SCITEGIC>MOL_PROPERTY
U
SciTegic.value.DoubleValue
8.220

@<SCITEGIC>MOL_PROPERTY
W
SciTegic.value.DoubleValue
-62.792

@<SCITEGIC>MOL_PROPERTY
W(PB)
SciTegic.value.DoubleValue
-64.830

@<SCITEGIC>MOL_PROPERTY
W(SA)
SciTegic.value.DoubleValue
2.038

@<SCITEGIC>MOL_PROPERTY
Valence
SciTegic.value.DoubleValue
7.609

@<SCITEGIC>MOL_PROPERTY
Coulomb
SciTegic.value.DoubleValue
-0.088

@<SCITEGIC>MOL_PROPERTY
VdW
SciTegic.value.DoubleValue
0.699

@<SCITEGIC>MOL_PROPERTY
VdW6
SciTegic.value.DoubleValue
-6.924

@<SCITEGIC>MOL_PROPERTY
VdW12
SciTegic.value.DoubleValue
7.623

@<SCITEGIC>MOL_PROPERTY
Bond
SciTegic.value.DoubleValue
0.163

@<SCITEGIC>MOL_PROPERTY
Angle
SciTegic.value.DoubleValue
2.870

@<SCITEGIC>MOL_PROPERTY
Pdih
SciTegic.value.DoubleValue
4.576

@<SCITEGIC>MOL_PROPERTY
Idih
SciTegic.value.DoubleValue
0.000

@<SCITEGIC>MOL_PROPERTY
Tether
SciTegic.value.DoubleValue
0.000

@<TRIPOS>MOLECULE
guest-7_confgen4.mol2 : confsearch ligand conformer 12
          19          18           1
SMALL
USER_CHARGES
 
@<TRIPOS>ATOM
       1    C1      19.786004   19.396522   25.168946 C.2        1 MOL1         0.6115
       2    O1      20.102152   18.695204   26.109499 O.co2      1 MOL1        -0.6776
       3    O2      19.673583   20.604295   25.238933 O.co2      1 MOL1        -0.6776
       4    C2      19.534699   18.725709   23.823235 C.3        1 MOL1        -0.2013
       5    H1      18.768734   19.304291   23.297532 H          1 MOL1         0.0727
       6    H2      19.109674   17.733121   24.014306 H          1 MOL1         0.0727
       7    C3      20.822084   18.596263   22.966802 C.3        1 MOL1        -0.1910
       8    H3      21.281912   19.583800   22.823233 H          1 MOL1         0.0729
       9    H4      21.548462   18.000825   23.537085 H          1 MOL1         0.0729
      10    C4      20.585531   17.910388   21.597290 C.3        1 MOL1        -0.1909
      11    H5      19.751578   17.198628   21.666704 H          1 MOL1         0.0729
      12    H6      21.473015   17.308082   21.359440 H          1 MOL1         0.0729
      13    C5      20.355640   18.885926   20.416872 C.3        1 MOL1        -0.1884
      14    H7      21.234247   19.535131   20.299230 H          1 MOL1         0.0729
      15    H8      20.280584   18.299977   19.490469 H          1 MOL1         0.0729
      16    C6      19.090306   19.757693   20.553424 C.3        1 MOL1        -0.2899
      17    H9      18.915379   20.326729   19.631245 H          1 MOL1         0.0741
      18    H10     18.203603   19.139052   20.743205 H          1 MOL1         0.0741
      19    H11     19.194684   20.480645   21.372107 H          1 MOL1         0.0741
@<TRIPOS>BOND
    1     1     2    1
    2     1     3    2
    3     1     4    1
    4     4     5    1
    5     4     6    1
    6     4     7    1
    7     7     8    1
    8     7     9    1
    9     7    10    1
   10    10    11    1
   11    10    12    1
   12    10    13    1
   13    13    14    1
   14    13    15    1
   15    13    16    1
   16    16    17    1
   17    16    18    1
   18    16    19    1
@<TRIPOS>SUBSTRUCTURE
       1 MOL1            1 RESIDUE      1      MOL     
@<SCITEGIC>MOL_PROPERTY
VConf Rank
SciTegic.value.IntegerValue
12

@<SCITEGIC>MOL_PROPERTY
Conf_Id
SciTegic.value.IntegerValue
24

@<SCITEGIC>MOL_PROPERTY
Delta U+W
SciTegic.value.DoubleValue
2.477

@<SCITEGIC>MOL_PROPERTY
U+W
SciTegic.value.DoubleValue
-52.414

@<SCITEGIC>MOL_PROPERTY
Grad RMS
SciTegic.value.DoubleValue
0.000000

@<SCITEGIC>MOL_PROPERTY
U
SciTegic.value.DoubleValue
10.422

@<SCITEGIC>MOL_PROPERTY
W
SciTegic.value.DoubleValue
-62.836

@<SCITEGIC>MOL_PROPERTY
W(PB)
SciTegic.value.DoubleValue
-64.906

@<SCITEGIC>MOL_PROPERTY
W(SA)
SciTegic.value.DoubleValue
2.070

@<SCITEGIC>MOL_PROPERTY
Valence
SciTegic.value.DoubleValue
9.628

@<SCITEGIC>MOL_PROPERTY
Coulomb
SciTegic.value.DoubleValue
0.101

@<SCITEGIC>MOL_PROPERTY
VdW
SciTegic.value.DoubleValue
0.693

@<SCITEGIC>MOL_PROPERTY
VdW6
SciTegic.value.DoubleValue
-6.927

@<SCITEGIC>MOL_PROPERTY
VdW12
SciTegic.value.DoubleValue
7.620

@<SCITEGIC>MOL_PROPERTY
Bond
SciTegic.value.DoubleValue
0.173

@<SCITEGIC>MOL_PROPERTY
Angle
SciTegic.value.DoubleValue
2.989

@<SCITEGIC>MOL_PROPERTY
Pdih
SciTegic.value.DoubleValue
6.465

@<SCITEGIC>MOL_PROPERTY
Idih
SciTegic.value.DoubleValue
0.001

@<SCITEGIC>MOL_PROPERTY
Tether
SciTegic.value.DoubleValue
0.000

@<TRIPOS>MOLECULE
guest-7_confgen4.mol2 : confsearch ligand conformer 13
          19          18           1
SMALL
USER_CHARGES
 
@<TRIPOS>ATOM
       1    C1      19.962963   19.024430   25.009292 C.2        1 MOL1         0.6115
       2    O1      20.543398   17.962053   25.114844 O.co2      1 MOL1        -0.6776
       3    O2      20.080232   19.934815   25.805861 O.co2      1 MOL1        -0.6776
       4    C2      19.012908   19.218203   23.830276 C.3        1 MOL1        -0.2013
       5    H1      18.073025   19.612832   24.233569 H          1 MOL1         0.0727
       6    H2      18.783768   18.235354   23.406325 H          1 MOL1         0.0727
       7    C3      19.549803   20.185814   22.739217 C.3        1 MOL1        -0.1910
       8    H3      18.744589   20.436838   22.035761 H          1 MOL1         0.0729
       9    H4      19.827608   21.129397   23.229125 H          1 MOL1         0.0729
      10    C4      20.777718   19.647399   21.959594 C.3        1 MOL1        -0.1909
      11    H5      21.376072   18.981295   22.596056 H          1 MOL1         0.0729
      12    H6      21.430862   20.498423   21.723067 H          1 MOL1         0.0729
      13    C5      20.435837   18.938472   20.626011 C.3        1 MOL1        -0.1884
      14    H7      19.915693   19.639044   19.958290 H          1 MOL1         0.0729
      15    H8      21.375504   18.673832   20.121883 H          1 MOL1         0.0729
      16    C6      19.587140   17.660815   20.789905 C.3        1 MOL1        -0.2899
      17    H9      18.573475   17.900827   21.133756 H          1 MOL1         0.0741
      18    H10     19.494983   17.135400   19.830622 H          1 MOL1         0.0741
      19    H11     20.047226   16.972620   21.511150 H          1 MOL1         0.0741
@<TRIPOS>BOND
    1     1     2    1
    2     1     3    2
    3     1     4    1
    4     4     5    1
    5     4     6    1
    6     4     7    1
    7     7     8    1
    8     7     9    1
    9     7    10    1
   10    10    11    1
   11    10    12    1
   12    10    13    1
   13    13    14    1
   14    13    15    1
   15    13    16    1
   16    16    17    1
   17    16    18    1
   18    16    19    1
@<TRIPOS>SUBSTRUCTURE
       1 MOL1            1 RESIDUE      1      MOL     
@<SCITEGIC>MOL_PROPERTY
VConf Rank
SciTegic.value.IntegerValue
13

@<SCITEGIC>MOL_PROPERTY
Conf_Id
SciTegic.value.IntegerValue
4

@<SCITEGIC>MOL_PROPERTY
Delta U+W
SciTegic.value.DoubleValue
3.753

@<SCITEGIC>MOL_PROPERTY
U+W
SciTegic.value.DoubleValue
-51.138

@<SCITEGIC>MOL_PROPERTY
Grad RMS
SciTegic.value.DoubleValue
0.000000

@<SCITEGIC>MOL_PROPERTY
U
SciTegic.value.DoubleValue
12.334

@<SCITEGIC>MOL_PROPERTY
W
SciTegic.value.DoubleValue
-63.472

@<SCITEGIC>MOL_PROPERTY
W(PB)
SciTegic.value.DoubleValue
-65.500

@<SCITEGIC>MOL_PROPERTY
W(SA)
SciTegic.value.DoubleValue
2.028

@<SCITEGIC>MOL_PROPERTY
Valence
SciTegic.value.DoubleValue
9.984

@<SCITEGIC>MOL_PROPERTY
Coulomb
SciTegic.value.DoubleValue
1.767

@<SCITEGIC>MOL_PROPERTY
VdW
SciTegic.value.DoubleValue
0.583

@<SCITEGIC>MOL_PROPERTY
VdW6
SciTegic.value.DoubleValue
-7.767

@<SCITEGIC>MOL_PROPERTY
VdW12
SciTegic.value.DoubleValue
8.349

@<SCITEGIC>MOL_PROPERTY
Bond
SciTegic.value.DoubleValue
0.203

@<SCITEGIC>MOL_PROPERTY
Angle
SciTegic.value.DoubleValue
3.191

@<SCITEGIC>MOL_PROPERTY
Pdih
SciTegic.value.DoubleValue
6.589

@<SCITEGIC>MOL_PROPERTY
Idih
SciTegic.value.DoubleValue
0.001

@<SCITEGIC>MOL_PROPERTY
Tether
SciTegic.value.DoubleValue
0.000

@<TRIPOS>MOLECULE
guest-7_confgen4.mol2 : confsearch ligand conformer 14
          19          18           1
SMALL
USER_CHARGES
 
@<TRIPOS>ATOM
       1    C1      19.840581   19.402010   24.972324 C.2        1 MOL1         0.6115
       2    O1      20.322994   18.805681   25.915056 O.co2      1 MOL1        -0.6776
       3    O2      19.849598   20.612772   24.869048 O.co2      1 MOL1        -0.6776
       4    C2      19.162288   18.585229   23.875503 C.3        1 MOL1        -0.2013
       5    H1      18.525406   19.255566   23.289621 H          1 MOL1         0.0727
       6    H2      18.494248   17.870699   24.370402 H          1 MOL1         0.0727
       7    C3      20.152166   17.813030   22.959648 C.3        1 MOL1        -0.1910
       8    H3      20.809640   17.210760   23.601936 H          1 MOL1         0.0729
       9    H4      19.600521   17.096479   22.336371 H          1 MOL1         0.0729
      10    C4      21.029205   18.722958   22.060590 C.3        1 MOL1        -0.1909
      11    H5      22.016982   18.252729   21.960768 H          1 MOL1         0.0729
      12    H6      21.208395   19.690035   22.549935 H          1 MOL1         0.0729
      13    C5      20.474285   18.947508   20.632464 C.3        1 MOL1        -0.1884
      14    H7      21.208979   19.532009   20.061730 H          1 MOL1         0.0729
      15    H8      20.381968   17.981999   20.116256 H          1 MOL1         0.0729
      16    C6      19.118882   19.682811   20.590367 C.3        1 MOL1        -0.2899
      17    H9      19.160838   20.618485   21.163290 H          1 MOL1         0.0741
      18    H10     18.848191   19.930117   19.555793 H          1 MOL1         0.0741
      19    H11     18.316759   19.057338   21.001142 H          1 MOL1         0.0741
@<TRIPOS>BOND
    1     1     2    1
    2     1     3    2
    3     1     4    1
    4     4     5    1
    5     4     6    1
    6     4     7    1
    7     7     8    1
    8     7     9    1
    9     7    10    1
   10    10    11    1
   11    10    12    1
   12    10    13    1
   13    13    14    1
   14    13    15    1
   15    13    16    1
   16    16    17    1
   17    16    18    1
   18    16    19    1
@<TRIPOS>SUBSTRUCTURE
       1 MOL1            1 RESIDUE      1      MOL     
@<SCITEGIC>MOL_PROPERTY
VConf Rank
SciTegic.value.IntegerValue
14

@<SCITEGIC>MOL_PROPERTY
Conf_Id
SciTegic.value.IntegerValue
73

@<SCITEGIC>MOL_PROPERTY
Delta U+W
SciTegic.value.DoubleValue
3.707

@<SCITEGIC>MOL_PROPERTY
U+W
SciTegic.value.DoubleValue
-51.184

@<SCITEGIC>MOL_PROPERTY
Grad RMS
SciTegic.value.DoubleValue
0.000000

@<SCITEGIC>MOL_PROPERTY
U
SciTegic.value.DoubleValue
12.334

@<SCITEGIC>MOL_PROPERTY
W
SciTegic.value.DoubleValue
-63.519

@<SCITEGIC>MOL_PROPERTY
W(PB)
SciTegic.value.DoubleValue
-65.541

@<SCITEGIC>MOL_PROPERTY
W(SA)
SciTegic.value.DoubleValue
2.022

@<SCITEGIC>MOL_PROPERTY
Valence
SciTegic.value.DoubleValue
9.984

@<SCITEGIC>MOL_PROPERTY
Coulomb
SciTegic.value.DoubleValue
1.768

@<SCITEGIC>MOL_PROPERTY
VdW
SciTegic.value.DoubleValue
0.583

@<SCITEGIC>MOL_PROPERTY
VdW6
SciTegic.value.DoubleValue
-7.767

@<SCITEGIC>MOL_PROPERTY
VdW12
SciTegic.value.DoubleValue
8.350

@<SCITEGIC>MOL_PROPERTY
Bond
SciTegic.value.DoubleValue
0.203

@<SCITEGIC>MOL_PROPERTY
Angle
SciTegic.value.DoubleValue
3.192

@<SCITEGIC>MOL_PROPERTY
Pdih
SciTegic.value.DoubleValue
6.589

@<SCITEGIC>MOL_PROPERTY
Idih
SciTegic.value.DoubleValue
0.001

@<SCITEGIC>MOL_PROPERTY
Tether
SciTegic.value.DoubleValue
0.000

@<TRIPOS>MOLECULE
guest-7_confgen4.mol2 : confsearch ligand conformer 15
          19          18           1
SMALL
USER_CHARGES
 
@<TRIPOS>ATOM
       1    C1      20.009030   19.072931   24.975340 C.2        1 MOL1         0.6115
       2    O1      20.748701   18.115964   25.092875 O.co2      1 MOL1        -0.6776
       3    O2      20.039075   20.038803   25.712461 O.co2      1 MOL1        -0.6776
       4    C2      18.963985   19.049179   23.863296 C.3        1 MOL1        -0.2013
       5    H1      17.997069   19.292662   24.318773 H          1 MOL1         0.0727
       6    H2      18.878510   18.024932   23.482629 H          1 MOL1         0.0727
       7    C3      19.249187   20.040911   22.702521 C.3        1 MOL1        -0.1910
       8    H3      18.415739   20.011573   21.988820 H          1 MOL1         0.0729
       9    H4      19.263026   21.061987   23.107887 H          1 MOL1         0.0729
      10    C4      20.583917   19.786104   21.955753 C.3        1 MOL1        -0.1909
      11    H5      21.419202   19.937559   22.653208 H          1 MOL1         0.0729
      12    H6      20.701560   20.548854   21.174110 H          1 MOL1         0.0729
      13    C5      20.722485   18.384567   21.312551 C.3        1 MOL1        -0.1884
      14    H7      21.707694   18.316911   20.831216 H          1 MOL1         0.0729
      15    H8      20.712310   17.609616   22.090878 H          1 MOL1         0.0729
      16    C6      19.633621   18.083542   20.260204 C.3        1 MOL1        -0.2899
      17    H9      18.638942   18.028558   20.720098 H          1 MOL1         0.0741
      18    H10     19.612685   18.859257   19.483776 H          1 MOL1         0.0741
      19    H11     19.827893   17.120137   19.771428 H          1 MOL1         0.0741
@<TRIPOS>BOND
    1     1     2    1
    2     1     3    2
    3     1     4    1
    4     4     5    1
    5     4     6    1
    6     4     7    1
    7     7     8    1
    8     7     9    1
    9     7    10    1
   10    10    11    1
   11    10    12    1
   12    10    13    1
   13    13    14    1
   14    13    15    1
   15    13    16    1
   16    16    17    1
   17    16    18    1
   18    16    19    1
@<TRIPOS>SUBSTRUCTURE
       1 MOL1            1 RESIDUE      1      MOL     
@<SCITEGIC>MOL_PROPERTY
VConf Rank
SciTegic.value.IntegerValue
15

@<SCITEGIC>MOL_PROPERTY
Conf_Id
SciTegic.value.IntegerValue
56

@<SCITEGIC>MOL_PROPERTY
Delta U+W
SciTegic.value.DoubleValue
1.735

@<SCITEGIC>MOL_PROPERTY
U+W
SciTegic.value.DoubleValue
-53.156

@<SCITEGIC>MOL_PROPERTY
Grad RMS
SciTegic.value.DoubleValue
0.000000

@<SCITEGIC>MOL_PROPERTY
U
SciTegic.value.DoubleValue
10.214

@<SCITEGIC>MOL_PROPERTY
W
SciTegic.value.DoubleValue
-63.370

@<SCITEGIC>MOL_PROPERTY
W(PB)
SciTegic.value.DoubleValue
-65.388

@<SCITEGIC>MOL_PROPERTY
W(SA)
SciTegic.value.DoubleValue
2.018

@<SCITEGIC>MOL_PROPERTY
Valence
SciTegic.value.DoubleValue
7.868

@<SCITEGIC>MOL_PROPERTY
Coulomb
SciTegic.value.DoubleValue
1.968

@<SCITEGIC>MOL_PROPERTY
VdW
SciTegic.value.DoubleValue
0.378

@<SCITEGIC>MOL_PROPERTY
VdW6
SciTegic.value.DoubleValue
-8.067

@<SCITEGIC>MOL_PROPERTY
VdW12
SciTegic.value.DoubleValue
8.445

@<SCITEGIC>MOL_PROPERTY
Bond
SciTegic.value.DoubleValue
0.191

@<SCITEGIC>MOL_PROPERTY
Angle
SciTegic.value.DoubleValue
3.117

@<SCITEGIC>MOL_PROPERTY
Pdih
SciTegic.value.DoubleValue
4.559

@<SCITEGIC>MOL_PROPERTY
Idih
SciTegic.value.DoubleValue
0.001

@<SCITEGIC>MOL_PROPERTY
Tether
SciTegic.value.DoubleValue
0.000

@<TRIPOS>MOLECULE
guest-7_confgen4.mol2 : confsearch ligand conformer 16
          19          18           1
SMALL
USER_CHARGES
 
@<TRIPOS>ATOM
       1    C1      20.302028   19.254123   25.183088 C.2        1 MOL1         0.6115
       2    O1      20.032970   18.376355   25.979011 O.co2      1 MOL1        -0.6776
       3    O2      20.546616   20.400263   25.503892 O.co2      1 MOL1        -0.6776
       4    C2      20.312111   18.902928   23.699580 C.3        1 MOL1        -0.2013
       5    H1      20.622308   17.856049   23.598579 H          1 MOL1         0.0727
       6    H2      21.076847   19.522179   23.217691 H          1 MOL1         0.0727
       7    C3      18.936515   19.122276   23.020907 C.3        1 MOL1        -0.1910
       8    H3      18.167368   18.603722   23.609903 H          1 MOL1         0.0729
       9    H4      18.682213   20.190585   23.056142 H          1 MOL1         0.0729
      10    C4      18.857782   18.617000   21.558379 C.3        1 MOL1        -0.1909
      11    H5      17.828850   18.777853   21.208525 H          1 MOL1         0.0729
      12    H6      19.017676   17.530565   21.525303 H          1 MOL1         0.0729
      13    C5      19.818096   19.330628   20.574692 C.3        1 MOL1        -0.1884
      14    H7      19.316672   19.424662   19.601515 H          1 MOL1         0.0729
      15    H8      20.019476   20.355901   20.914645 H          1 MOL1         0.0729
      16    C6      21.143883   18.568427   20.355451 C.3        1 MOL1        -0.2899
      17    H9      21.780232   19.104202   19.639294 H          1 MOL1         0.0741
      18    H10     21.710199   18.456314   21.286759 H          1 MOL1         0.0741
      19    H11     20.954982   17.565466   19.951079 H          1 MOL1         0.0741
@<TRIPOS>BOND
    1     1     2    1
    2     1     3    2
    3     1     4    1
    4     4     5    1
    5     4     6    1
    6     4     7    1
    7     7     8    1
    8     7     9    1
    9     7    10    1
   10    10    11    1
   11    10    12    1
   12    10    13    1
   13    13    14    1
   14    13    15    1
   15    13    16    1
   16    16    17    1
   17    16    18    1
   18    16    19    1
@<TRIPOS>SUBSTRUCTURE
       1 MOL1            1 RESIDUE      1      MOL     
@<SCITEGIC>MOL_PROPERTY
VConf Rank
SciTegic.value.IntegerValue
16

@<SCITEGIC>MOL_PROPERTY
Conf_Id
SciTegic.value.IntegerValue
53

@<SCITEGIC>MOL_PROPERTY
Delta U+W
SciTegic.value.DoubleValue
2.279

@<SCITEGIC>MOL_PROPERTY
U+W
SciTegic.value.DoubleValue
-52.612

@<SCITEGIC>MOL_PROPERTY
Grad RMS
SciTegic.value.DoubleValue
0.000000

@<SCITEGIC>MOL_PROPERTY
U
SciTegic.value.DoubleValue
10.231

@<SCITEGIC>MOL_PROPERTY
W
SciTegic.value.DoubleValue
-62.843

@<SCITEGIC>MOL_PROPERTY
W(PB)
SciTegic.value.DoubleValue
-64.893

@<SCITEGIC>MOL_PROPERTY
W(SA)
SciTegic.value.DoubleValue
2.050

@<SCITEGIC>MOL_PROPERTY
Valence
SciTegic.value.DoubleValue
9.644

@<SCITEGIC>MOL_PROPERTY
Coulomb
SciTegic.value.DoubleValue
-0.164

@<SCITEGIC>MOL_PROPERTY
VdW
SciTegic.value.DoubleValue
0.751

@<SCITEGIC>MOL_PROPERTY
VdW6
SciTegic.value.DoubleValue
-6.881

@<SCITEGIC>MOL_PROPERTY
VdW12
SciTegic.value.DoubleValue
7.631

@<SCITEGIC>MOL_PROPERTY
Bond
SciTegic.value.DoubleValue
0.163

@<SCITEGIC>MOL_PROPERTY
Angle
SciTegic.value.DoubleValue
2.998

@<SCITEGIC>MOL_PROPERTY
Pdih
SciTegic.value.DoubleValue
6.482

@<SCITEGIC>MOL_PROPERTY
Idih
SciTegic.value.DoubleValue
0.001

@<SCITEGIC>MOL_PROPERTY
Tether
SciTegic.value.DoubleValue
0.000

@<TRIPOS>MOLECULE
guest-7_confgen4.mol2 : confsearch ligand conformer 17
          19          18           1
SMALL
USER_CHARGES
 
@<TRIPOS>ATOM
       1    C1      19.732918   19.269612   24.851686 C.2        1 MOL1         0.6115
       2    O1      18.698551   18.661389   25.044052 O.co2      1 MOL1        -0.6776
       3    O2      19.867611   20.453781   25.090117 O.co2      1 MOL1        -0.6776
       4    C2      20.945699   18.487780   24.350309 C.3        1 MOL1        -0.2013
       5    H1      20.669252   17.432088   24.240696 H          1 MOL1         0.0727
       6    H2      21.694419   18.534275   25.149609 H          1 MOL1         0.0727
       7    C3      21.579231   19.017708   23.033138 C.3        1 MOL1        -0.1910
       8    H3      21.662509   20.112757   23.071538 H          1 MOL1         0.0729
       9    H4      22.608472   18.638506   22.975819 H          1 MOL1         0.0729
      10    C4      20.845192   18.585839   21.739557 C.3        1 MOL1        -0.1909
      11    H5      20.771836   17.490305   21.704085 H          1 MOL1         0.0729
      12    H6      21.463130   18.881595   20.880668 H          1 MOL1         0.0729
      13    C5      19.440054   19.205772   21.575715 C.3        1 MOL1        -0.1884
      14    H7      18.765105   18.819144   22.349905 H          1 MOL1         0.0729
      15    H8      19.495227   20.294752   21.711639 H          1 MOL1         0.0729
      16    C6      18.840744   18.890120   20.190426 C.3        1 MOL1        -0.2899
      17    H9      18.750911   17.806335   20.039763 H          1 MOL1         0.0741
      18    H10     17.839694   19.330037   20.093384 H          1 MOL1         0.0741
      19    H11     19.469041   19.297563   19.387587 H          1 MOL1         0.0741
@<TRIPOS>BOND
    1     1     2    1
    2     1     3    2
    3     1     4    1
    4     4     5    1
    5     4     6    1
    6     4     7    1
    7     7     8    1
    8     7     9    1
    9     7    10    1
   10    10    11    1
   11    10    12    1
   12    10    13    1
   13    13    14    1
   14    13    15    1
   15    13    16    1
   16    16    17    1
   17    16    18    1
   18    16    19    1
@<TRIPOS>SUBSTRUCTURE
       1 MOL1            1 RESIDUE      1      MOL     
@<SCITEGIC>MOL_PROPERTY
VConf Rank
SciTegic.value.IntegerValue
17

@<SCITEGIC>MOL_PROPERTY
Conf_Id
SciTegic.value.IntegerValue
25

@<SCITEGIC>MOL_PROPERTY
Delta U+W
SciTegic.value.DoubleValue
2.065

@<SCITEGIC>MOL_PROPERTY
U+W
SciTegic.value.DoubleValue
-52.826

@<SCITEGIC>MOL_PROPERTY
Grad RMS
SciTegic.value.DoubleValue
0.000000

@<SCITEGIC>MOL_PROPERTY
U
SciTegic.value.DoubleValue
10.967

@<SCITEGIC>MOL_PROPERTY
W
SciTegic.value.DoubleValue
-63.794

@<SCITEGIC>MOL_PROPERTY
W(PB)
SciTegic.value.DoubleValue
-65.830

@<SCITEGIC>MOL_PROPERTY
W(SA)
SciTegic.value.DoubleValue
2.036

@<SCITEGIC>MOL_PROPERTY
Valence
SciTegic.value.DoubleValue
8.609

@<SCITEGIC>MOL_PROPERTY
Coulomb
SciTegic.value.DoubleValue
1.892

@<SCITEGIC>MOL_PROPERTY
VdW
SciTegic.value.DoubleValue
0.467

@<SCITEGIC>MOL_PROPERTY
VdW6
SciTegic.value.DoubleValue
-7.569

@<SCITEGIC>MOL_PROPERTY
VdW12
SciTegic.value.DoubleValue
8.036

@<SCITEGIC>MOL_PROPERTY
Bond
SciTegic.value.DoubleValue
0.170

@<SCITEGIC>MOL_PROPERTY
Angle
SciTegic.value.DoubleValue
3.195

@<SCITEGIC>MOL_PROPERTY
Pdih
SciTegic.value.DoubleValue
5.237

@<SCITEGIC>MOL_PROPERTY
Idih
SciTegic.value.DoubleValue
0.007

@<SCITEGIC>MOL_PROPERTY
Tether
SciTegic.value.DoubleValue
0.000

@<TRIPOS>MOLECULE
guest-7_confgen4.mol2 : confsearch ligand conformer 18
          19          18           1
SMALL
USER_CHARGES
 
@<TRIPOS>ATOM
       1    C1      19.921655   19.500821   24.826080 C.2        1 MOL1         0.6115
       2    O1      18.873576   19.067390   25.263019 O.co2      1 MOL1        -0.6776
       3    O2      20.202021   20.683176   24.809186 O.co2      1 MOL1        -0.6776
       4    C2      20.971178   18.504523   24.336820 C.3        1 MOL1        -0.2013
       5    H1      21.253131   17.901254   25.207562 H          1 MOL1         0.0727
       6    H2      21.870006   19.054071   24.031816 H          1 MOL1         0.0727
       7    C3      20.506253   17.557266   23.195033 C.3        1 MOL1        -0.1910
       8    H3      21.172863   16.684353   23.186578 H          1 MOL1         0.0729
       9    H4      19.502453   17.168590   23.416076 H          1 MOL1         0.0729
      10    C4      20.533139   18.184451   21.779196 C.3        1 MOL1        -0.1909
      11    H5      20.339744   17.387347   21.048284 H          1 MOL1         0.0729
      12    H6      21.540802   18.564281   21.561982 H          1 MOL1         0.0729
      13    C5      19.497391   19.310858   21.569408 C.3        1 MOL1        -0.1884
      14    H7      18.502450   18.965001   21.882253 H          1 MOL1         0.0729
      15    H8      19.748894   20.175526   22.196706 H          1 MOL1         0.0729
      16    C6      19.444789   19.763515   20.096257 C.3        1 MOL1        -0.2899
      17    H9      18.710910   20.569405   19.965847 H          1 MOL1         0.0741
      18    H10     20.422419   20.138485   19.766115 H          1 MOL1         0.0741
      19    H11     19.155871   18.932739   19.439252 H          1 MOL1         0.0741
@<TRIPOS>BOND
    1     1     2    1
    2     1     3    2
    3     1     4    1
    4     4     5    1
    5     4     6    1
    6     4     7    1
    7     7     8    1
    8     7     9    1
    9     7    10    1
   10    10    11    1
   11    10    12    1
   12    10    13    1
   13    13    14    1
   14    13    15    1
   15    13    16    1
   16    16    17    1
   17    16    18    1
   18    16    19    1
@<TRIPOS>SUBSTRUCTURE
       1 MOL1            1 RESIDUE      1      MOL     
@<SCITEGIC>MOL_PROPERTY
VConf Rank
SciTegic.value.IntegerValue
18

@<SCITEGIC>MOL_PROPERTY
Conf_Id
SciTegic.value.IntegerValue
52

@<SCITEGIC>MOL_PROPERTY
Delta U+W
SciTegic.value.DoubleValue
2.070

@<SCITEGIC>MOL_PROPERTY
U+W
SciTegic.value.DoubleValue
-52.822

@<SCITEGIC>MOL_PROPERTY
Grad RMS
SciTegic.value.DoubleValue
0.000000

@<SCITEGIC>MOL_PROPERTY
U
SciTegic.value.DoubleValue
10.967

@<SCITEGIC>MOL_PROPERTY
W
SciTegic.value.DoubleValue
-63.789

@<SCITEGIC>MOL_PROPERTY
W(PB)
SciTegic.value.DoubleValue
-65.837

@<SCITEGIC>MOL_PROPERTY
W(SA)
SciTegic.value.DoubleValue
2.048

@<SCITEGIC>MOL_PROPERTY
Valence
SciTegic.value.DoubleValue
8.609

@<SCITEGIC>MOL_PROPERTY
Coulomb
SciTegic.value.DoubleValue
1.892

@<SCITEGIC>MOL_PROPERTY
VdW
SciTegic.value.DoubleValue
0.467

@<SCITEGIC>MOL_PROPERTY
VdW6
SciTegic.value.DoubleValue
-7.569

@<SCITEGIC>MOL_PROPERTY
VdW12
SciTegic.value.DoubleValue
8.035

@<SCITEGIC>MOL_PROPERTY
Bond
SciTegic.value.DoubleValue
0.170

@<SCITEGIC>MOL_PROPERTY
Angle
SciTegic.value.DoubleValue
3.196

@<SCITEGIC>MOL_PROPERTY
Pdih
SciTegic.value.DoubleValue
5.237

@<SCITEGIC>MOL_PROPERTY
Idih
SciTegic.value.DoubleValue
0.007

@<SCITEGIC>MOL_PROPERTY
Tether
SciTegic.value.DoubleValue
0.000

@<TRIPOS>MOLECULE
guest-7_confgen4.mol2 : confsearch ligand conformer 19
          19          18           1
SMALL
USER_CHARGES
 
@<TRIPOS>ATOM
       1    C1      20.090401   19.539023   24.634920 C.2        1 MOL1         0.6115
       2    O1      21.059075   18.967143   25.096157 O.co2      1 MOL1        -0.6776
       3    O2      19.946883   20.744927   24.678486 O.co2      1 MOL1        -0.6776
       4    C2      18.935225   18.700393   24.085693 C.3        1 MOL1        -0.2013
       5    H1      18.223109   19.361938   23.577967 H          1 MOL1         0.0727
       6    H2      18.414371   18.293417   24.959967 H          1 MOL1         0.0727
       7    C3      19.338293   17.525380   23.149610 C.3        1 MOL1        -0.1910
       8    H3      20.232806   17.022361   23.542165 H          1 MOL1         0.0729
       9    H4      18.536297   16.775779   23.185058 H          1 MOL1         0.0729
      10    C4      19.555765   17.904556   21.662294 C.3        1 MOL1        -0.1909
      11    H5      18.628417   18.315762   21.240425 H          1 MOL1         0.0729
      12    H6      19.744853   16.974183   21.109467 H          1 MOL1         0.0729
      13    C5      20.739391   18.866603   21.398692 C.3        1 MOL1        -0.1884
      14    H7      21.464894   18.817915   22.222482 H          1 MOL1         0.0729
      15    H8      21.276116   18.530773   20.500755 H          1 MOL1         0.0729
      16    C6      20.284967   20.323974   21.169147 C.3        1 MOL1        -0.2899
      17    H9      19.637631   20.397520   20.285697 H          1 MOL1         0.0741
      18    H10     19.728003   20.711568   22.030130 H          1 MOL1         0.0741
      19    H11     21.152234   20.977010   21.007868 H          1 MOL1         0.0741
@<TRIPOS>BOND
    1     1     2    1
    2     1     3    2
    3     1     4    1
    4     4     5    1
    5     4     6    1
    6     4     7    1
    7     7     8    1
    8     7     9    1
    9     7    10    1
   10    10    11    1
   11    10    12    1
   12    10    13    1
   13    13    14    1
   14    13    15    1
   15    13    16    1
   16    16    17    1
   17    16    18    1
   18    16    19    1
@<TRIPOS>SUBSTRUCTURE
       1 MOL1            1 RESIDUE      1      MOL     
@<SCITEGIC>MOL_PROPERTY
VConf Rank
SciTegic.value.IntegerValue
19

@<SCITEGIC>MOL_PROPERTY
Conf_Id
SciTegic.value.IntegerValue
66

@<SCITEGIC>MOL_PROPERTY
Delta U+W
SciTegic.value.DoubleValue
5.819

@<SCITEGIC>MOL_PROPERTY
U+W
SciTegic.value.DoubleValue
-49.072

@<SCITEGIC>MOL_PROPERTY
Grad RMS
SciTegic.value.DoubleValue
0.000000

@<SCITEGIC>MOL_PROPERTY
U
SciTegic.value.DoubleValue
15.324

@<SCITEGIC>MOL_PROPERTY
W
SciTegic.value.DoubleValue
-64.396

@<SCITEGIC>MOL_PROPERTY
W(PB)
SciTegic.value.DoubleValue
-66.382

@<SCITEGIC>MOL_PROPERTY
W(SA)
SciTegic.value.DoubleValue
1.986

@<SCITEGIC>MOL_PROPERTY
Valence
SciTegic.value.DoubleValue
11.748

@<SCITEGIC>MOL_PROPERTY
Coulomb
SciTegic.value.DoubleValue
3.201

@<SCITEGIC>MOL_PROPERTY
VdW
SciTegic.value.DoubleValue
0.375

@<SCITEGIC>MOL_PROPERTY
VdW6
SciTegic.value.DoubleValue
-8.854

@<SCITEGIC>MOL_PROPERTY
VdW12
SciTegic.value.DoubleValue
9.229

@<SCITEGIC>MOL_PROPERTY
Bond
SciTegic.value.DoubleValue
0.216

@<SCITEGIC>MOL_PROPERTY
Angle
SciTegic.value.DoubleValue
3.812

@<SCITEGIC>MOL_PROPERTY
Pdih
SciTegic.value.DoubleValue
7.699

@<SCITEGIC>MOL_PROPERTY
Idih
SciTegic.value.DoubleValue
0.022

@<SCITEGIC>MOL_PROPERTY
Tether
SciTegic.value.DoubleValue
0.000

@<TRIPOS>MOLECULE
guest-7_confgen4.mol2 : confsearch ligand conformer 20
          19          18           1
SMALL
USER_CHARGES
 
@<TRIPOS>ATOM
       1    C1      20.294035   18.218445   25.464828 C.2        1 MOL1         0.6115
       2    O1      20.662456   18.722775   26.506739 O.co2      1 MOL1        -0.6776
       3    O2      19.857333   17.086013   25.393869 O.co2      1 MOL1        -0.6776
       4    C2      20.397149   19.073261   24.200576 C.3        1 MOL1        -0.2013
       5    H1      21.445762   19.375273   24.094509 H          1 MOL1         0.0727
       6    H2      19.816309   19.986637   24.374983 H          1 MOL1         0.0727
       7    C3      19.914870   18.386859   22.894938 C.3        1 MOL1        -0.1910
       8    H3      20.496716   17.469570   22.729095 H          1 MOL1         0.0729
       9    H4      18.865571   18.081528   23.009887 H          1 MOL1         0.0729
      10    C4      20.053775   19.318496   21.671410 C.3        1 MOL1        -0.1909
      11    H5      21.103482   19.622653   21.558475 H          1 MOL1         0.0729
      12    H6      19.471437   20.234912   21.839381 H          1 MOL1         0.0729
      13    C5      19.573858   18.634224   20.374550 C.3        1 MOL1        -0.1884
      14    H7      20.155325   17.717924   20.201969 H          1 MOL1         0.0729
      15    H8      18.523450   18.330220   20.482793 H          1 MOL1         0.0729
      16    C6      19.714052   19.567134   19.155118 C.3        1 MOL1        -0.2899
      17    H9      20.760866   19.861871   19.004344 H          1 MOL1         0.0741
      18    H10     19.368502   19.064927   18.242161 H          1 MOL1         0.0741
      19    H11     19.116710   20.478799   19.287289 H          1 MOL1         0.0741
@<TRIPOS>BOND
    1     1     2    1
    2     1     3    2
    3     1     4    1
    4     4     5    1
    5     4     6    1
    6     4     7    1
    7     7     8    1
    8     7     9    1
    9     7    10    1
   10    10    11    1
   11    10    12    1
   12    10    13    1
   13    13    14    1
   14    13    15    1
   15    13    16    1
   16    16    17    1
   17    16    18    1
   18    16    19    1
@<TRIPOS>SUBSTRUCTURE
       1 MOL1            1 RESIDUE      1      MOL     
@<SCITEGIC>MOL_PROPERTY
VConf Rank
SciTegic.value.IntegerValue
20

@<SCITEGIC>MOL_PROPERTY
Conf_Id
SciTegic.value.IntegerValue
0

@<SCITEGIC>MOL_PROPERTY
Delta U+W
SciTegic.value.DoubleValue
0.000

@<SCITEGIC>MOL_PROPERTY
U+W
SciTegic.value.DoubleValue
-54.891

@<SCITEGIC>MOL_PROPERTY
Grad RMS
SciTegic.value.DoubleValue
0.000000

@<SCITEGIC>MOL_PROPERTY
U
SciTegic.value.DoubleValue
6.966

@<SCITEGIC>MOL_PROPERTY
W
SciTegic.value.DoubleValue
-61.857

@<SCITEGIC>MOL_PROPERTY
W(PB)
SciTegic.value.DoubleValue
-63.965

@<SCITEGIC>MOL_PROPERTY
W(SA)
SciTegic.value.DoubleValue
2.108

@<SCITEGIC>MOL_PROPERTY
Valence
SciTegic.value.DoubleValue
7.175

@<SCITEGIC>MOL_PROPERTY
Coulomb
SciTegic.value.DoubleValue
-1.360

@<SCITEGIC>MOL_PROPERTY
VdW
SciTegic.value.DoubleValue
1.151

@<SCITEGIC>MOL_PROPERTY
VdW6
SciTegic.value.DoubleValue
-5.641

@<SCITEGIC>MOL_PROPERTY
VdW12
SciTegic.value.DoubleValue
6.792

@<SCITEGIC>MOL_PROPERTY
Bond
SciTegic.value.DoubleValue
0.119

@<SCITEGIC>MOL_PROPERTY
Angle
SciTegic.value.DoubleValue
2.715

@<SCITEGIC>MOL_PROPERTY
Pdih
SciTegic.value.DoubleValue
4.340

@<SCITEGIC>MOL_PROPERTY
Idih
SciTegic.value.DoubleValue
0.000

@<SCITEGIC>MOL_PROPERTY
Tether
SciTegic.value.DoubleValue
0.000

@<TRIPOS>MOLECULE
guest-7_confgen4.mol2 : confsearch ligand conformer 21
          19          18           1
SMALL
USER_CHARGES
 
@<TRIPOS>ATOM
       1    C1      20.834806   15.836599   23.185579 C.2        1 MOL1         0.6115
       2    O1      21.252889   15.782139   24.325062 O.co2      1 MOL1        -0.6776
       3    O2      20.257487   14.919380   22.636404 O.co2      1 MOL1        -0.6776
       4    C2      21.027081   17.134496   22.409135 C.3        1 MOL1        -0.2013
       5    H1      21.146048   16.882728   21.348380 H          1 MOL1         0.0727
       6    H2      21.966142   17.594011   22.740426 H          1 MOL1         0.0727
       7    C3      19.852488   18.126561   22.594208 C.3        1 MOL1        -0.1910
       8    H3      18.918270   17.647277   22.270057 H          1 MOL1         0.0729
       9    H4      19.738312   18.358483   23.662256 H          1 MOL1         0.0729
      10    C4      20.071532   19.431419   21.798600 C.3        1 MOL1        -0.1909
      11    H5      20.186675   19.196113   20.731564 H          1 MOL1         0.0729
      12    H6      21.006766   19.907469   22.124032 H          1 MOL1         0.0729
      13    C5      18.899855   20.417768   21.984773 C.3        1 MOL1        -0.1884
      14    H7      17.962665   19.945833   21.658513 H          1 MOL1         0.0729
      15    H8      18.782726   20.657188   23.050818 H          1 MOL1         0.0729
      16    C6      19.121857   21.719441   21.188960 C.3        1 MOL1        -0.2899
      17    H9      18.279830   22.408988   21.332574 H          1 MOL1         0.0741
      18    H10     20.037199   22.229207   21.517154 H          1 MOL1         0.0741
      19    H11     19.211030   21.512503   20.114415 H          1 MOL1         0.0741
@<TRIPOS>BOND
    1     1     2    1
    2     1     3    2
    3     1     4    1
    4     4     5    1
    5     4     6    1
    6     4     7    1
    7     7     8    1
    8     7     9    1
    9     7    10    1
   10    10    11    1
   11    10    12    1
   12    10    13    1
   13    13    14    1
   14    13    15    1
   15    13    16    1
   16    16    17    1
   17    16    18    1
   18    16    19    1
@<TRIPOS>SUBSTRUCTURE
       1 MOL1            1 RESIDUE      1      MOL     
@<SCITEGIC>MOL_PROPERTY
VConf Rank
SciTegic.value.IntegerValue
21

@<SCITEGIC>MOL_PROPERTY
Conf_Id
SciTegic.value.IntegerValue
18

@<SCITEGIC>MOL_PROPERTY
Delta U+W
SciTegic.value.DoubleValue
-1.199

@<SCITEGIC>MOL_PROPERTY
U+W
SciTegic.value.DoubleValue
-56.090

@<SCITEGIC>MOL_PROPERTY
Grad RMS
SciTegic.value.DoubleValue
0.000000

@<SCITEGIC>MOL_PROPERTY
U
SciTegic.value.DoubleValue
5.975

@<SCITEGIC>MOL_PROPERTY
W
SciTegic.value.DoubleValue
-62.066

@<SCITEGIC>MOL_PROPERTY
W(PB)
SciTegic.value.DoubleValue
-64.219

@<SCITEGIC>MOL_PROPERTY
W(SA)
SciTegic.value.DoubleValue
2.153

@<SCITEGIC>MOL_PROPERTY
Valence
SciTegic.value.DoubleValue
6.673

@<SCITEGIC>MOL_PROPERTY
Coulomb
SciTegic.value.DoubleValue
-1.307

@<SCITEGIC>MOL_PROPERTY
VdW
SciTegic.value.DoubleValue
0.610

@<SCITEGIC>MOL_PROPERTY
VdW6
SciTegic.value.DoubleValue
-5.351

@<SCITEGIC>MOL_PROPERTY
VdW12
SciTegic.value.DoubleValue
5.961

@<SCITEGIC>MOL_PROPERTY
Bond
SciTegic.value.DoubleValue
0.086

@<SCITEGIC>MOL_PROPERTY
Angle
SciTegic.value.DoubleValue
2.253

@<SCITEGIC>MOL_PROPERTY
Pdih
SciTegic.value.DoubleValue
4.333

@<SCITEGIC>MOL_PROPERTY
Idih
SciTegic.value.DoubleValue
0.001

@<SCITEGIC>MOL_PROPERTY
Tether
SciTegic.value.DoubleValue
0.000

@<TRIPOS>MOLECULE
guest-7_confgen4.mol2 : confsearch ligand conformer 22
          19          18           1
SMALL
USER_CHARGES
 
@<TRIPOS>ATOM
       1    C1      20.353432   21.656118   20.539725 C.2        1 MOL1         0.6115
       2    O1      19.506539   22.525389   20.481164 O.co2      1 MOL1        -0.6776
       3    O2      21.523774   21.838404   20.268928 O.co2      1 MOL1        -0.6776
       4    C2      19.928010   20.265879   20.998651 C.3        1 MOL1        -0.2013
       5    H1      20.556488   19.535659   20.476505 H          1 MOL1         0.0727
       6    H2      18.894950   20.100367   20.670166 H          1 MOL1         0.0727
       7    C3      20.036709   20.081439   22.534668 C.3        1 MOL1        -0.1910
       8    H3      21.083094   20.205659   22.846047 H          1 MOL1         0.0729
       9    H4      19.469394   20.883488   23.026903 H          1 MOL1         0.0729
      10    C4      19.501196   18.718084   23.032685 C.3        1 MOL1        -0.1909
      11    H5      18.452453   18.600673   22.727138 H          1 MOL1         0.0729
      12    H6      19.506209   18.721837   24.131309 H          1 MOL1         0.0729
      13    C5      20.327906   17.512920   22.531044 C.3        1 MOL1        -0.1884
      14    H7      20.273766   17.445781   21.436548 H          1 MOL1         0.0729
      15    H8      21.385750   17.654600   22.792121 H          1 MOL1         0.0729
      16    C6      19.823386   16.189228   23.139788 C.3        1 MOL1        -0.2899
      17    H9      20.418099   15.342986   22.771982 H          1 MOL1         0.0741
      18    H10     19.899210   16.205856   24.234940 H          1 MOL1         0.0741
      19    H11     18.774281   16.008491   22.871240 H          1 MOL1         0.0741
@<TRIPOS>BOND
    1     1     2    1
    2     1     3    2
    3     1     4    1
    4     4     5    1
    5     4     6    1
    6     4     7    1
    7     7     8    1
    8     7     9    1
    9     7    10    1
   10    10    11    1
   11    10    12    1
   12    10    13    1
   13    13    14    1
   14    13    15    1
   15    13    16    1
   16    16    17    1
   17    16    18    1
   18    16    19    1
@<TRIPOS>SUBSTRUCTURE
       1 MOL1            1 RESIDUE      1      MOL     
@<SCITEGIC>MOL_PROPERTY
VConf Rank
SciTegic.value.IntegerValue
22

@<SCITEGIC>MOL_PROPERTY
Conf_Id
SciTegic.value.IntegerValue
34

@<SCITEGIC>MOL_PROPERTY
Delta U+W
SciTegic.value.DoubleValue
-0.563

@<SCITEGIC>MOL_PROPERTY
U+W
SciTegic.value.DoubleValue
-55.455

@<SCITEGIC>MOL_PROPERTY
Grad RMS
SciTegic.value.DoubleValue
0.000000

@<SCITEGIC>MOL_PROPERTY
U
SciTegic.value.DoubleValue
6.914

@<SCITEGIC>MOL_PROPERTY
W
SciTegic.value.DoubleValue
-62.369

@<SCITEGIC>MOL_PROPERTY
W(PB)
SciTegic.value.DoubleValue
-64.446

@<SCITEGIC>MOL_PROPERTY
W(SA)
SciTegic.value.DoubleValue
2.077

@<SCITEGIC>MOL_PROPERTY
Valence
SciTegic.value.DoubleValue
7.196

@<SCITEGIC>MOL_PROPERTY
Coulomb
SciTegic.value.DoubleValue
-1.020

@<SCITEGIC>MOL_PROPERTY
VdW
SciTegic.value.DoubleValue
0.738

@<SCITEGIC>MOL_PROPERTY
VdW6
SciTegic.value.DoubleValue
-6.010

@<SCITEGIC>MOL_PROPERTY
VdW12
SciTegic.value.DoubleValue
6.748

@<SCITEGIC>MOL_PROPERTY
Bond
SciTegic.value.DoubleValue
0.126

@<SCITEGIC>MOL_PROPERTY
Angle
SciTegic.value.DoubleValue
2.499

@<SCITEGIC>MOL_PROPERTY
Pdih
SciTegic.value.DoubleValue
4.570

@<SCITEGIC>MOL_PROPERTY
Idih
SciTegic.value.DoubleValue
0.001

@<SCITEGIC>MOL_PROPERTY
Tether
SciTegic.value.DoubleValue
0.000

@<TRIPOS>MOLECULE
guest-7_confgen4.mol2 : confsearch ligand conformer 23
          19          18           1
SMALL
USER_CHARGES
 
@<TRIPOS>ATOM
       1    C1      17.450417   19.227871   24.149290 C.2        1 MOL1         0.6115
       2    O1      17.108958   20.282491   24.646757 O.co2      1 MOL1        -0.6776
       3    O2      17.099630   18.142426   24.567642 O.co2      1 MOL1        -0.6776
       4    C2      18.388044   19.268438   22.947804 C.3        1 MOL1        -0.2013
       5    H1      18.170089   20.178798   22.376620 H          1 MOL1         0.0727
       6    H2      18.143804   18.414894   22.305422 H          1 MOL1         0.0727
       7    C3      19.884688   19.236975   23.353079 C.3        1 MOL1        -0.1910
       8    H3      20.073553   20.050456   24.067223 H          1 MOL1         0.0729
       9    H4      20.101078   18.300485   23.885499 H          1 MOL1         0.0729
      10    C4      20.852340   19.393685   22.156159 C.3        1 MOL1        -0.1909
      11    H5      21.876362   19.479796   22.544714 H          1 MOL1         0.0729
      12    H6      20.639043   20.334880   21.631121 H          1 MOL1         0.0729
      13    C5      20.791412   18.215349   21.158500 C.3        1 MOL1        -0.1884
      14    H7      20.954184   17.268864   21.692297 H          1 MOL1         0.0729
      15    H8      19.795326   18.158129   20.700349 H          1 MOL1         0.0729
      16    C6      21.847429   18.362959   20.044810 C.3        1 MOL1        -0.2899
      17    H9      21.691406   19.289189   19.476336 H          1 MOL1         0.0741
      18    H10     22.861566   18.384935   20.464846 H          1 MOL1         0.0741
      19    H11     21.789716   17.520721   19.343103 H          1 MOL1         0.0741
@<TRIPOS>BOND
    1     1     2    1
    2     1     3    2
    3     1     4    1
    4     4     5    1
    5     4     6    1
    6     4     7    1
    7     7     8    1
    8     7     9    1
    9     7    10    1
   10    10    11    1
   11    10    12    1
   12    10    13    1
   13    13    14    1
   14    13    15    1
   15    13    16    1
   16    16    17    1
   17    16    18    1
   18    16    19    1
@<TRIPOS>SUBSTRUCTURE
       1 MOL1            1 RESIDUE      1      MOL     
@<SCITEGIC>MOL_PROPERTY
VConf Rank
SciTegic.value.IntegerValue
23

@<SCITEGIC>MOL_PROPERTY
Conf_Id
SciTegic.value.IntegerValue
33

@<SCITEGIC>MOL_PROPERTY
Delta U+W
SciTegic.value.DoubleValue
-0.526

@<SCITEGIC>MOL_PROPERTY
U+W
SciTegic.value.DoubleValue
-55.418

@<SCITEGIC>MOL_PROPERTY
Grad RMS
SciTegic.value.DoubleValue
0.000000

@<SCITEGIC>MOL_PROPERTY
U
SciTegic.value.DoubleValue
6.914

@<SCITEGIC>MOL_PROPERTY
W
SciTegic.value.DoubleValue
-62.332

@<SCITEGIC>MOL_PROPERTY
W(PB)
SciTegic.value.DoubleValue
-64.421

@<SCITEGIC>MOL_PROPERTY
W(SA)
SciTegic.value.DoubleValue
2.090

@<SCITEGIC>MOL_PROPERTY
Valence
SciTegic.value.DoubleValue
7.196

@<SCITEGIC>MOL_PROPERTY
Coulomb
SciTegic.value.DoubleValue
-1.020

@<SCITEGIC>MOL_PROPERTY
VdW
SciTegic.value.DoubleValue
0.738

@<SCITEGIC>MOL_PROPERTY
VdW6
SciTegic.value.DoubleValue
-6.010

@<SCITEGIC>MOL_PROPERTY
VdW12
SciTegic.value.DoubleValue
6.748

@<SCITEGIC>MOL_PROPERTY
Bond
SciTegic.value.DoubleValue
0.126

@<SCITEGIC>MOL_PROPERTY
Angle
SciTegic.value.DoubleValue
2.499

@<SCITEGIC>MOL_PROPERTY
Pdih
SciTegic.value.DoubleValue
4.570

@<SCITEGIC>MOL_PROPERTY
Idih
SciTegic.value.DoubleValue
0.001

@<SCITEGIC>MOL_PROPERTY
Tether
SciTegic.value.DoubleValue
0.000

@<TRIPOS>MOLECULE
guest-7_confgen4.mol2 : confsearch ligand conformer 24
          19          18           1
SMALL
USER_CHARGES
 
@<TRIPOS>ATOM
       1    C1      21.531173   20.697242   20.146863 C.2        1 MOL1         0.6115
       2    O1      22.475807   20.059292   19.726263 O.co2      1 MOL1        -0.6776
       3    O2      20.901186   21.488812   19.473976 O.co2      1 MOL1        -0.6776
       4    C2      21.101673   20.479631   21.593472 C.3        1 MOL1        -0.2013
       5    H1      20.703194   21.426806   21.976554 H          1 MOL1         0.0727
       6    H2      21.995654   20.242049   22.182605 H          1 MOL1         0.0727
       7    C3      20.047766   19.355165   21.746109 C.3        1 MOL1        -0.1910
       8    H3      19.163152   19.602882   21.143338 H          1 MOL1         0.0729
       9    H4      20.461503   18.422827   21.339674 H          1 MOL1         0.0729
      10    C4      19.633546   19.154105   23.222137 C.3        1 MOL1        -0.1909
      11    H5      19.289885   20.114172   23.630991 H          1 MOL1         0.0729
      12    H6      20.509441   18.858471   23.815783 H          1 MOL1         0.0729
      13    C5      18.507662   18.110663   23.407071 C.3        1 MOL1        -0.1884
      14    H7      18.192960   18.114437   24.459778 H          1 MOL1         0.0729
      15    H8      17.627640   18.405869   22.819073 H          1 MOL1         0.0729
      16    C6      18.933420   16.677642   23.021025 C.3        1 MOL1        -0.2899
      17    H9      19.829920   16.371243   23.575610 H          1 MOL1         0.0741
      18    H10     18.132330   15.963855   23.252765 H          1 MOL1         0.0741
      19    H11     19.148079   16.598652   21.947979 H          1 MOL1         0.0741
@<TRIPOS>BOND
    1     1     2    1
    2     1     3    2
    3     1     4    1
    4     4     5    1
    5     4     6    1
    6     4     7    1
    7     7     8    1
    8     7     9    1
    9     7    10    1
   10    10    11    1
   11    10    12    1
   12    10    13    1
   13    13    14    1
   14    13    15    1
   15    13    16    1
   16    16    17    1
   17    16    18    1
   18    16    19    1
@<TRIPOS>SUBSTRUCTURE
       1 MOL1            1 RESIDUE      1      MOL     
@<SCITEGIC>MOL_PROPERTY
VConf Rank
SciTegic.value.IntegerValue
24

@<SCITEGIC>MOL_PROPERTY
Conf_Id
SciTegic.value.IntegerValue
42

@<SCITEGIC>MOL_PROPERTY
Delta U+W
SciTegic.value.DoubleValue
-0.344

@<SCITEGIC>MOL_PROPERTY
U+W
SciTegic.value.DoubleValue
-55.236

@<SCITEGIC>MOL_PROPERTY
Grad RMS
SciTegic.value.DoubleValue
0.000000

@<SCITEGIC>MOL_PROPERTY
U
SciTegic.value.DoubleValue
7.244

@<SCITEGIC>MOL_PROPERTY
W
SciTegic.value.DoubleValue
-62.479

@<SCITEGIC>MOL_PROPERTY
W(PB)
SciTegic.value.DoubleValue
-64.610

@<SCITEGIC>MOL_PROPERTY
W(SA)
SciTegic.value.DoubleValue
2.130

@<SCITEGIC>MOL_PROPERTY
Valence
SciTegic.value.DoubleValue
7.174

@<SCITEGIC>MOL_PROPERTY
Coulomb
SciTegic.value.DoubleValue
-0.669

@<SCITEGIC>MOL_PROPERTY
VdW
SciTegic.value.DoubleValue
0.739

@<SCITEGIC>MOL_PROPERTY
VdW6
SciTegic.value.DoubleValue
-5.969

@<SCITEGIC>MOL_PROPERTY
VdW12
SciTegic.value.DoubleValue
6.708

@<SCITEGIC>MOL_PROPERTY
Bond
SciTegic.value.DoubleValue
0.116

@<SCITEGIC>MOL_PROPERTY
Angle
SciTegic.value.DoubleValue
2.481

@<SCITEGIC>MOL_PROPERTY
Pdih
SciTegic.value.DoubleValue
4.576

@<SCITEGIC>MOL_PROPERTY
Idih
SciTegic.value.DoubleValue
0.000

@<SCITEGIC>MOL_PROPERTY
Tether
SciTegic.value.DoubleValue
0.000

@<TRIPOS>MOLECULE
guest-7_confgen4.mol2 : confsearch ligand conformer 25
          19          18           1
SMALL
USER_CHARGES
 
@<TRIPOS>ATOM
       1    C1      22.642727   18.891381   20.399299 C.2        1 MOL1         0.6115
       2    O1      23.522551   18.254267   20.943554 O.co2      1 MOL1        -0.6776
       3    O2      22.849687   19.867864   19.706554 O.co2      1 MOL1        -0.6776
       4    C2      21.198272   18.452301   20.612042 C.3        1 MOL1        -0.2013
       5    H1      21.186955   17.361919   20.728944 H          1 MOL1         0.0727
       6    H2      20.633512   18.686663   19.701658 H          1 MOL1         0.0727
       7    C3      20.538234   19.127370   21.839672 C.3        1 MOL1        -0.1910
       8    H3      21.130499   18.894481   22.734438 H          1 MOL1         0.0729
       9    H4      20.565687   20.218337   21.712094 H          1 MOL1         0.0729
      10    C4      19.076693   18.661495   22.033364 C.3        1 MOL1        -0.1909
      11    H5      19.053701   17.577380   22.209924 H          1 MOL1         0.0729
      12    H6      18.519116   18.837412   21.103227 H          1 MOL1         0.0729
      13    C5      18.348414   19.388697   23.187216 C.3        1 MOL1        -0.1884
      14    H7      18.364425   20.473192   23.011315 H          1 MOL1         0.0729
      15    H8      17.291354   19.088977   23.181314 H          1 MOL1         0.0729
      16    C6      18.944761   19.079120   24.577319 C.3        1 MOL1        -0.2899
      17    H9      19.967614   19.465115   24.669653 H          1 MOL1         0.0741
      18    H10     18.341196   19.546111   25.366350 H          1 MOL1         0.0741
      19    H11     18.966119   17.997472   24.763699 H          1 MOL1         0.0741
@<TRIPOS>BOND
    1     1     2    1
    2     1     3    2
    3     1     4    1
    4     4     5    1
    5     4     6    1
    6     4     7    1
    7     7     8    1
    8     7     9    1
    9     7    10    1
   10    10    11    1
   11    10    12    1
   12    10    13    1
   13    13    14    1
   14    13    15    1
   15    13    16    1
   16    16    17    1
   17    16    18    1
   18    16    19    1
@<TRIPOS>SUBSTRUCTURE
       1 MOL1            1 RESIDUE      1      MOL     
@<SCITEGIC>MOL_PROPERTY
VConf Rank
SciTegic.value.IntegerValue
25

@<SCITEGIC>MOL_PROPERTY
Conf_Id
SciTegic.value.IntegerValue
41

@<SCITEGIC>MOL_PROPERTY
Delta U+W
SciTegic.value.DoubleValue
-0.361

@<SCITEGIC>MOL_PROPERTY
U+W
SciTegic.value.DoubleValue
-55.252

@<SCITEGIC>MOL_PROPERTY
Grad RMS
SciTegic.value.DoubleValue
0.000000

@<SCITEGIC>MOL_PROPERTY
U
SciTegic.value.DoubleValue
7.244

@<SCITEGIC>MOL_PROPERTY
W
SciTegic.value.DoubleValue
-62.496

@<SCITEGIC>MOL_PROPERTY
W(PB)
SciTegic.value.DoubleValue
-64.596

@<SCITEGIC>MOL_PROPERTY
W(SA)
SciTegic.value.DoubleValue
2.099

@<SCITEGIC>MOL_PROPERTY
Valence
SciTegic.value.DoubleValue
7.174

@<SCITEGIC>MOL_PROPERTY
Coulomb
SciTegic.value.DoubleValue
-0.669

@<SCITEGIC>MOL_PROPERTY
VdW
SciTegic.value.DoubleValue
0.739

@<SCITEGIC>MOL_PROPERTY
VdW6
SciTegic.value.DoubleValue
-5.969

@<SCITEGIC>MOL_PROPERTY
VdW12
SciTegic.value.DoubleValue
6.708

@<SCITEGIC>MOL_PROPERTY
Bond
SciTegic.value.DoubleValue
0.116

@<SCITEGIC>MOL_PROPERTY
Angle
SciTegic.value.DoubleValue
2.481

@<SCITEGIC>MOL_PROPERTY
Pdih
SciTegic.value.DoubleValue
4.576

@<SCITEGIC>MOL_PROPERTY
Idih
SciTegic.value.DoubleValue
0.000

@<SCITEGIC>MOL_PROPERTY
Tether
SciTegic.value.DoubleValue
0.000

@<TRIPOS>MOLECULE
guest-7_confgen4.mol2 : confsearch ligand conformer 26
          19          18           1
SMALL
USER_CHARGES
 
@<TRIPOS>ATOM
       1    C1      19.158752   16.865832   20.533057 C.2        1 MOL1         0.6115
       2    O1      19.805546   15.960689   21.021856 O.co2      1 MOL1        -0.6776
       3    O2      17.976642   16.778458   20.265360 O.co2      1 MOL1        -0.6776
       4    C2      19.872838   18.177119   20.216905 C.3        1 MOL1        -0.2013
       5    H1      19.577221   18.475593   19.204168 H          1 MOL1         0.0727
       6    H2      20.953253   17.990134   20.189952 H          1 MOL1         0.0727
       7    C3      19.553038   19.325425   21.208981 C.3        1 MOL1        -0.1910
       8    H3      19.993535   20.257273   20.829303 H          1 MOL1         0.0729
       9    H4      18.465929   19.481673   21.246547 H          1 MOL1         0.0729
      10    C4      20.091653   19.049759   22.630674 C.3        1 MOL1        -0.1909
      11    H5      21.176404   18.881366   22.586071 H          1 MOL1         0.0729
      12    H6      19.642373   18.127559   23.024523 H          1 MOL1         0.0729
      13    C5      19.790025   20.218076   23.592267 C.3        1 MOL1        -0.1884
      14    H7      20.240652   21.142620   23.205507 H          1 MOL1         0.0729
      15    H8      18.705333   20.387124   23.640635 H          1 MOL1         0.0729
      16    C6      20.328730   19.940062   25.009828 C.3        1 MOL1        -0.2899
      17    H9      21.417303   19.797918   24.995360 H          1 MOL1         0.0741
      18    H10     20.105362   20.780124   25.680268 H          1 MOL1         0.0741
      19    H11     19.870631   19.036804   25.433754 H          1 MOL1         0.0741
@<TRIPOS>BOND
    1     1     2    1
    2     1     3    2
    3     1     4    1
    4     4     5    1
    5     4     6    1
    6     4     7    1
    7     7     8    1
    8     7     9    1
    9     7    10    1
   10    10    11    1
   11    10    12    1
   12    10    13    1
   13    13    14    1
   14    13    15    1
   15    13    16    1
   16    16    17    1
   17    16    18    1
   18    16    19    1
@<TRIPOS>SUBSTRUCTURE
       1 MOL1            1 RESIDUE      1      MOL     
@<SCITEGIC>MOL_PROPERTY
VConf Rank
SciTegic.value.IntegerValue
26

@<SCITEGIC>MOL_PROPERTY
Conf_Id
SciTegic.value.IntegerValue
36

@<SCITEGIC>MOL_PROPERTY
Delta U+W
SciTegic.value.DoubleValue
-0.079

@<SCITEGIC>MOL_PROPERTY
U+W
SciTegic.value.DoubleValue
-54.971

@<SCITEGIC>MOL_PROPERTY
Grad RMS
SciTegic.value.DoubleValue
0.000000

@<SCITEGIC>MOL_PROPERTY
U
SciTegic.value.DoubleValue
8.266

@<SCITEGIC>MOL_PROPERTY
W
SciTegic.value.DoubleValue
-63.237

@<SCITEGIC>MOL_PROPERTY
W(PB)
SciTegic.value.DoubleValue
-65.340

@<SCITEGIC>MOL_PROPERTY
W(SA)
SciTegic.value.DoubleValue
2.103

@<SCITEGIC>MOL_PROPERTY
Valence
SciTegic.value.DoubleValue
6.935

@<SCITEGIC>MOL_PROPERTY
Coulomb
SciTegic.value.DoubleValue
0.874

@<SCITEGIC>MOL_PROPERTY
VdW
SciTegic.value.DoubleValue
0.457

@<SCITEGIC>MOL_PROPERTY
VdW6
SciTegic.value.DoubleValue
-6.205

@<SCITEGIC>MOL_PROPERTY
VdW12
SciTegic.value.DoubleValue
6.662

@<SCITEGIC>MOL_PROPERTY
Bond
SciTegic.value.DoubleValue
0.107

@<SCITEGIC>MOL_PROPERTY
Angle
SciTegic.value.DoubleValue
2.420

@<SCITEGIC>MOL_PROPERTY
Pdih
SciTegic.value.DoubleValue
4.407

@<SCITEGIC>MOL_PROPERTY
Idih
SciTegic.value.DoubleValue
0.001

@<SCITEGIC>MOL_PROPERTY
Tether
SciTegic.value.DoubleValue
0.000

@<TRIPOS>MOLECULE
guest-7_confgen4.mol2 : confsearch ligand conformer 27
          19          18           1
SMALL
USER_CHARGES
 
@<TRIPOS>ATOM
       1    C1      17.769094   19.802782   23.706358 C.2        1 MOL1         0.6115
       2    O1      17.869260   19.150021   24.726369 O.co2      1 MOL1        -0.6776
       3    O2      16.767134   19.825833   23.019172 O.co2      1 MOL1        -0.6776
       4    C2      18.957376   20.657623   23.274409 C.3        1 MOL1        -0.2013
       5    H1      19.620429   20.797387   24.136856 H          1 MOL1         0.0727
       6    H2      18.569430   21.648097   23.008762 H          1 MOL1         0.0727
       7    C3      19.752348   20.074975   22.077064 C.3        1 MOL1        -0.1910
       8    H3      19.069838   19.913887   21.230978 H          1 MOL1         0.0729
       9    H4      20.494499   20.814997   21.748255 H          1 MOL1         0.0729
      10    C4      20.471833   18.753458   22.428125 C.3        1 MOL1        -0.1909
      11    H5      19.733954   18.002144   22.741946 H          1 MOL1         0.0729
      12    H6      21.142962   18.916566   23.282533 H          1 MOL1         0.0729
      13    C5      21.281316   18.208783   21.232855 C.3        1 MOL1        -0.1884
      14    H7      20.611929   18.042457   20.377442 H          1 MOL1         0.0729
      15    H8      22.024058   18.954525   20.917204 H          1 MOL1         0.0729
      16    C6      21.997959   16.890271   21.586307 C.3        1 MOL1        -0.2899
      17    H9      21.275329   16.116100   21.875974 H          1 MOL1         0.0741
      18    H10     22.568016   16.516969   20.725629 H          1 MOL1         0.0741
      19    H11     22.697922   17.034941   22.419691 H          1 MOL1         0.0741
@<TRIPOS>BOND
    1     1     2    1
    2     1     3    2
    3     1     4    1
    4     4     5    1
    5     4     6    1
    6     4     7    1
    7     7     8    1
    8     7     9    1
    9     7    10    1
   10    10    11    1
   11    10    12    1
   12    10    13    1
   13    13    14    1
   14    13    15    1
   15    13    16    1
   16    16    17    1
   17    16    18    1
   18    16    19    1
@<TRIPOS>SUBSTRUCTURE
       1 MOL1            1 RESIDUE      1      MOL     
@<SCITEGIC>MOL_PROPERTY
VConf Rank
SciTegic.value.IntegerValue
27

@<SCITEGIC>MOL_PROPERTY
Conf_Id
SciTegic.value.IntegerValue
35

@<SCITEGIC>MOL_PROPERTY
Delta U+W
SciTegic.value.DoubleValue
-0.030

@<SCITEGIC>MOL_PROPERTY
U+W
SciTegic.value.DoubleValue
-54.921

@<SCITEGIC>MOL_PROPERTY
Grad RMS
SciTegic.value.DoubleValue
0.000000

@<SCITEGIC>MOL_PROPERTY
U
SciTegic.value.DoubleValue
8.267

@<SCITEGIC>MOL_PROPERTY
W
SciTegic.value.DoubleValue
-63.188

@<SCITEGIC>MOL_PROPERTY
W(PB)
SciTegic.value.DoubleValue
-65.294

@<SCITEGIC>MOL_PROPERTY
W(SA)
SciTegic.value.DoubleValue
2.106

@<SCITEGIC>MOL_PROPERTY
Valence
SciTegic.value.DoubleValue
6.935

@<SCITEGIC>MOL_PROPERTY
Coulomb
SciTegic.value.DoubleValue
0.875

@<SCITEGIC>MOL_PROPERTY
VdW
SciTegic.value.DoubleValue
0.457

@<SCITEGIC>MOL_PROPERTY
VdW6
SciTegic.value.DoubleValue
-6.205

@<SCITEGIC>MOL_PROPERTY
VdW12
SciTegic.value.DoubleValue
6.662

@<SCITEGIC>MOL_PROPERTY
Bond
SciTegic.value.DoubleValue
0.107

@<SCITEGIC>MOL_PROPERTY
Angle
SciTegic.value.DoubleValue
2.420

@<SCITEGIC>MOL_PROPERTY
Pdih
SciTegic.value.DoubleValue
4.407

@<SCITEGIC>MOL_PROPERTY
Idih
SciTegic.value.DoubleValue
0.001

@<SCITEGIC>MOL_PROPERTY
Tether
SciTegic.value.DoubleValue
0.000

@<TRIPOS>MOLECULE
guest-7_confgen4.mol2 : confsearch ligand conformer 28
          19          18           1
SMALL
USER_CHARGES
 
@<TRIPOS>ATOM
       1    C1      19.522371   19.373931   25.138112 C.2        1 MOL1         0.6115
       2    O1      19.100406   20.492239   25.357295 O.co2      1 MOL1        -0.6776
       3    O2      20.417504   18.856717   25.776759 O.co2      1 MOL1        -0.6776
       4    C2      18.876974   18.568957   24.013407 C.3        1 MOL1        -0.2013
       5    H1      17.790536   18.671005   24.119864 H          1 MOL1         0.0727
       6    H2      19.111993   17.507971   24.161839 H          1 MOL1         0.0727
       7    C3      19.301241   19.016729   22.590305 C.3        1 MOL1        -0.1910
       8    H3      18.675251   18.490293   21.858627 H          1 MOL1         0.0729
       9    H4      19.096330   20.089532   22.470160 H          1 MOL1         0.0729
      10    C4      20.793973   18.731761   22.298366 C.3        1 MOL1        -0.1909
      11    H5      20.988386   17.653744   22.381428 H          1 MOL1         0.0729
      12    H6      21.411180   19.217686   23.066453 H          1 MOL1         0.0729
      13    C5      21.255681   19.235861   20.911449 C.3        1 MOL1        -0.1884
      14    H7      21.064387   20.314494   20.826194 H          1 MOL1         0.0729
      15    H8      22.344106   19.106870   20.834555 H          1 MOL1         0.0729
      16    C6      20.583831   18.494145   19.735654 C.3        1 MOL1        -0.2899
      17    H9      19.504947   18.690296   19.701667 H          1 MOL1         0.0741
      18    H10     21.011213   18.823932   18.779870 H          1 MOL1         0.0741
      19    H11     20.735117   17.409890   19.817197 H          1 MOL1         0.0741
@<TRIPOS>BOND
    1     1     2    1
    2     1     3    2
    3     1     4    1
    4     4     5    1
    5     4     6    1
    6     4     7    1
    7     7     8    1
    8     7     9    1
    9     7    10    1
   10    10    11    1
   11    10    12    1
   12    10    13    1
   13    13    14    1
   14    13    15    1
   15    13    16    1
   16    16    17    1
   17    16    18    1
   18    16    19    1
@<TRIPOS>SUBSTRUCTURE
       1 MOL1            1 RESIDUE      1      MOL     
@<SCITEGIC>MOL_PROPERTY
VConf Rank
SciTegic.value.IntegerValue
28

@<SCITEGIC>MOL_PROPERTY
Conf_Id
SciTegic.value.IntegerValue
74

@<SCITEGIC>MOL_PROPERTY
Delta U+W
SciTegic.value.DoubleValue
0.797

@<SCITEGIC>MOL_PROPERTY
U+W
SciTegic.value.DoubleValue
-54.095

@<SCITEGIC>MOL_PROPERTY
Grad RMS
SciTegic.value.DoubleValue
0.000000

@<SCITEGIC>MOL_PROPERTY
U
SciTegic.value.DoubleValue
8.869

@<SCITEGIC>MOL_PROPERTY
W
SciTegic.value.DoubleValue
-62.964

@<SCITEGIC>MOL_PROPERTY
W(PB)
SciTegic.value.DoubleValue
-65.046

@<SCITEGIC>MOL_PROPERTY
W(SA)
SciTegic.value.DoubleValue
2.082

@<SCITEGIC>MOL_PROPERTY
Valence
SciTegic.value.DoubleValue
7.469

@<SCITEGIC>MOL_PROPERTY
Coulomb
SciTegic.value.DoubleValue
0.762

@<SCITEGIC>MOL_PROPERTY
VdW
SciTegic.value.DoubleValue
0.639

@<SCITEGIC>MOL_PROPERTY
VdW6
SciTegic.value.DoubleValue
-6.782

@<SCITEGIC>MOL_PROPERTY
VdW12
SciTegic.value.DoubleValue
7.421

@<SCITEGIC>MOL_PROPERTY
Bond
SciTegic.value.DoubleValue
0.141

@<SCITEGIC>MOL_PROPERTY
Angle
SciTegic.value.DoubleValue
2.667

@<SCITEGIC>MOL_PROPERTY
Pdih
SciTegic.value.DoubleValue
4.660

@<SCITEGIC>MOL_PROPERTY
Idih
SciTegic.value.DoubleValue
0.001

@<SCITEGIC>MOL_PROPERTY
Tether
SciTegic.value.DoubleValue
0.000

@<TRIPOS>MOLECULE
guest-7_confgen4.mol2 : confsearch ligand conformer 29
          19          18           1
SMALL
USER_CHARGES
 
@<TRIPOS>ATOM
       1    C1      21.418874   21.167242   23.525245 C.2        1 MOL1         0.6115
       2    O1      20.986229   22.219399   23.952102 O.co2      1 MOL1        -0.6776
       3    O2      22.475121   20.681936   23.878999 O.co2      1 MOL1        -0.6776
       4    C2      20.581332   20.405674   22.504091 C.3        1 MOL1        -0.2013
       5    H1      21.270040   19.877161   21.835125 H          1 MOL1         0.0727
       6    H2      20.034514   21.137434   21.897566 H          1 MOL1         0.0727
       7    C3      19.591462   19.409719   23.161981 C.3        1 MOL1        -0.1910
       8    H3      20.152019   18.659426   23.735229 H          1 MOL1         0.0729
       9    H4      18.977684   19.953923   23.892952 H          1 MOL1         0.0729
      10    C4      18.648974   18.712852   22.148659 C.3        1 MOL1        -0.1909
      11    H5      18.025838   19.474545   21.660481 H          1 MOL1         0.0729
      12    H6      17.956403   18.062996   22.700759 H          1 MOL1         0.0729
      13    C5      19.358053   17.874849   21.056479 C.3        1 MOL1        -0.1884
      14    H7      18.593770   17.445627   20.394120 H          1 MOL1         0.0729
      15    H8      19.977918   18.523433   20.423458 H          1 MOL1         0.0729
      16    C6      20.219474   16.728454   21.628432 C.3        1 MOL1        -0.2899
      17    H9      19.624503   16.079268   22.283869 H          1 MOL1         0.0741
      18    H10     20.624546   16.110493   20.816734 H          1 MOL1         0.0741
      19    H11     21.068033   17.117137   22.205615 H          1 MOL1         0.0741
@<TRIPOS>BOND
    1     1     2    1
    2     1     3    2
    3     1     4    1
    4     4     5    1
    5     4     6    1
    6     4     7    1
    7     7     8    1
    8     7     9    1
    9     7    10    1
   10    10    11    1
   11    10    12    1
   12    10    13    1
   13    13    14    1
   14    13    15    1
   15    13    16    1
   16    16    17    1
   17    16    18    1
   18    16    19    1
@<TRIPOS>SUBSTRUCTURE
       1 MOL1            1 RESIDUE      1      MOL     
@<SCITEGIC>MOL_PROPERTY
VConf Rank
SciTegic.value.IntegerValue
29

@<SCITEGIC>MOL_PROPERTY
Conf_Id
SciTegic.value.IntegerValue
67

@<SCITEGIC>MOL_PROPERTY
Delta U+W
SciTegic.value.DoubleValue
0.308

@<SCITEGIC>MOL_PROPERTY
U+W
SciTegic.value.DoubleValue
-54.583

@<SCITEGIC>MOL_PROPERTY
Grad RMS
SciTegic.value.DoubleValue
0.000000

@<SCITEGIC>MOL_PROPERTY
U
SciTegic.value.DoubleValue
8.219

@<SCITEGIC>MOL_PROPERTY
W
SciTegic.value.DoubleValue
-62.802

@<SCITEGIC>MOL_PROPERTY
W(PB)
SciTegic.value.DoubleValue
-64.859

@<SCITEGIC>MOL_PROPERTY
W(SA)
SciTegic.value.DoubleValue
2.057

@<SCITEGIC>MOL_PROPERTY
Valence
SciTegic.value.DoubleValue
7.609

@<SCITEGIC>MOL_PROPERTY
Coulomb
SciTegic.value.DoubleValue
-0.089

@<SCITEGIC>MOL_PROPERTY
VdW
SciTegic.value.DoubleValue
0.699

@<SCITEGIC>MOL_PROPERTY
VdW6
SciTegic.value.DoubleValue
-6.924

@<SCITEGIC>MOL_PROPERTY
VdW12
SciTegic.value.DoubleValue
7.623

@<SCITEGIC>MOL_PROPERTY
Bond
SciTegic.value.DoubleValue
0.163

@<SCITEGIC>MOL_PROPERTY
Angle
SciTegic.value.DoubleValue
2.870

@<SCITEGIC>MOL_PROPERTY
Pdih
SciTegic.value.DoubleValue
4.576

@<SCITEGIC>MOL_PROPERTY
Idih
SciTegic.value.DoubleValue
0.001

@<SCITEGIC>MOL_PROPERTY
Tether
SciTegic.value.DoubleValue
0.000

@<TRIPOS>MOLECULE
guest-7_confgen4.mol2 : confsearch ligand conformer 30
          19          18           1
SMALL
USER_CHARGES
 
@<TRIPOS>ATOM
       1    C1      17.634336   20.672183   22.476280 C.2        1 MOL1         0.6115
       2    O1      16.914281   21.085239   21.588965 O.co2      1 MOL1        -0.6776
       3    O2      17.750296   21.217026   23.556105 O.co2      1 MOL1        -0.6776
       4    C2      18.451424   19.412383   22.212676 C.3        1 MOL1        -0.2013
       5    H1      17.876586   18.768182   21.536715 H          1 MOL1         0.0727
       6    H2      18.555477   18.877083   23.163353 H          1 MOL1         0.0727
       7    C3      19.845278   19.716666   21.605083 C.3        1 MOL1        -0.1910
       8    H3      19.710515   20.331158   20.704284 H          1 MOL1         0.0729
       9    H4      20.425814   20.330159   22.306783 H          1 MOL1         0.0729
      10    C4      20.643751   18.445925   21.219880 C.3        1 MOL1        -0.1909
      11    H5      21.592957   18.752155   20.759435 H          1 MOL1         0.0729
      12    H6      20.091541   17.900948   20.442154 H          1 MOL1         0.0729
      13    C5      20.944822   17.476140   22.388971 C.3        1 MOL1        -0.1884
      14    H7      20.008906   17.074286   22.799076 H          1 MOL1         0.0729
      15    H8      21.497771   16.613041   21.993511 H          1 MOL1         0.0729
      16    C6      21.774370   18.120947   23.520108 C.3        1 MOL1        -0.2899
      17    H9      21.211550   18.917666   24.022841 H          1 MOL1         0.0741
      18    H10     22.038899   17.371818   24.277502 H          1 MOL1         0.0741
      19    H11     22.705689   18.550345   23.128585 H          1 MOL1         0.0741
@<TRIPOS>BOND
    1     1     2    1
    2     1     3    2
    3     1     4    1
    4     4     5    1
    5     4     6    1
    6     4     7    1
    7     7     8    1
    8     7     9    1
    9     7    10    1
   10    10    11    1
   11    10    12    1
   12    10    13    1
   13    13    14    1
   14    13    15    1
   15    13    16    1
   16    16    17    1
   17    16    18    1
   18    16    19    1
@<TRIPOS>SUBSTRUCTURE
       1 MOL1            1 RESIDUE      1      MOL     
@<SCITEGIC>MOL_PROPERTY
VConf Rank
SciTegic.value.IntegerValue
30

@<SCITEGIC>MOL_PROPERTY
Conf_Id
SciTegic.value.IntegerValue
21

@<SCITEGIC>MOL_PROPERTY
Delta U+W
SciTegic.value.DoubleValue
0.319

@<SCITEGIC>MOL_PROPERTY
U+W
SciTegic.value.DoubleValue
-54.572

@<SCITEGIC>MOL_PROPERTY
Grad RMS
SciTegic.value.DoubleValue
0.000000

@<SCITEGIC>MOL_PROPERTY
U
SciTegic.value.DoubleValue
8.220

@<SCITEGIC>MOL_PROPERTY
W
SciTegic.value.DoubleValue
-62.792

@<SCITEGIC>MOL_PROPERTY
W(PB)
SciTegic.value.DoubleValue
-64.830

@<SCITEGIC>MOL_PROPERTY
W(SA)
SciTegic.value.DoubleValue
2.038

@<SCITEGIC>MOL_PROPERTY
Valence
SciTegic.value.DoubleValue
7.609

@<SCITEGIC>MOL_PROPERTY
Coulomb
SciTegic.value.DoubleValue
-0.088

@<SCITEGIC>MOL_PROPERTY
VdW
SciTegic.value.DoubleValue
0.699

@<SCITEGIC>MOL_PROPERTY
VdW6
SciTegic.value.DoubleValue
-6.924

@<SCITEGIC>MOL_PROPERTY
VdW12
SciTegic.value.DoubleValue
7.623

@<SCITEGIC>MOL_PROPERTY
Bond
SciTegic.value.DoubleValue
0.163

@<SCITEGIC>MOL_PROPERTY
Angle
SciTegic.value.DoubleValue
2.870

@<SCITEGIC>MOL_PROPERTY
Pdih
SciTegic.value.DoubleValue
4.576

@<SCITEGIC>MOL_PROPERTY
Idih
SciTegic.value.DoubleValue
0.000

@<SCITEGIC>MOL_PROPERTY
Tether
SciTegic.value.DoubleValue
0.000

@<TRIPOS>MOLECULE
guest-7_confgen4.mol2 : confsearch ligand conformer 31
          19          18           1
SMALL
USER_CHARGES
 
@<TRIPOS>ATOM
       1    C1      17.092700   18.843091   22.382700 C.2        1 MOL1         0.6115
       2    O1      16.291719   18.602799   21.501152 O.co2      1 MOL1        -0.6776
       3    O2      16.845302   18.724430   23.566324 O.co2      1 MOL1        -0.6776
       4    C2      18.490117   19.300823   21.980471 C.3        1 MOL1        -0.2013
       5    H1      18.858104   19.978221   22.757350 H          1 MOL1         0.0727
       6    H2      18.401135   19.889639   21.059730 H          1 MOL1         0.0727
       7    C3      19.470011   18.117805   21.761682 C.3        1 MOL1        -0.1910
       8    H3      19.516029   17.492744   22.664158 H          1 MOL1         0.0729
       9    H4      19.056802   17.479480   20.968464 H          1 MOL1         0.0729
      10    C4      20.894340   18.565406   21.345884 C.3        1 MOL1        -0.1909
      11    H5      20.848938   19.510833   20.788207 H          1 MOL1         0.0729
      12    H6      21.293641   17.822469   20.641912 H          1 MOL1         0.0729
      13    C5      21.901530   18.685637   22.515936 C.3        1 MOL1        -0.1884
      14    H7      22.007267   17.711156   23.012387 H          1 MOL1         0.0729
      15    H8      22.889743   18.927777   22.101211 H          1 MOL1         0.0729
      16    C6      21.530150   19.755514   23.563377 C.3        1 MOL1        -0.2899
      17    H9      22.344304   19.880734   24.288834 H          1 MOL1         0.0741
      18    H10     21.348287   20.727607   23.086997 H          1 MOL1         0.0741
      19    H11     20.631757   19.466114   24.122782 H          1 MOL1         0.0741
@<TRIPOS>BOND
    1     1     2    1
    2     1     3    2
    3     1     4    1
    4     4     5    1
    5     4     6    1
    6     4     7    1
    7     7     8    1
    8     7     9    1
    9     7    10    1
   10    10    11    1
   11    10    12    1
   12    10    13    1
   13    13    14    1
   14    13    15    1
   15    13    16    1
   16    16    17    1
   17    16    18    1
   18    16    19    1
@<TRIPOS>SUBSTRUCTURE
       1 MOL1            1 RESIDUE      1      MOL     
@<SCITEGIC>MOL_PROPERTY
VConf Rank
SciTegic.value.IntegerValue
31

@<SCITEGIC>MOL_PROPERTY
Conf_Id
SciTegic.value.IntegerValue
24

@<SCITEGIC>MOL_PROPERTY
Delta U+W
SciTegic.value.DoubleValue
2.477

@<SCITEGIC>MOL_PROPERTY
U+W
SciTegic.value.DoubleValue
-52.414

@<SCITEGIC>MOL_PROPERTY
Grad RMS
SciTegic.value.DoubleValue
0.000000

@<SCITEGIC>MOL_PROPERTY
U
SciTegic.value.DoubleValue
10.422

@<SCITEGIC>MOL_PROPERTY
W
SciTegic.value.DoubleValue
-62.836

@<SCITEGIC>MOL_PROPERTY
W(PB)
SciTegic.value.DoubleValue
-64.906

@<SCITEGIC>MOL_PROPERTY
W(SA)
SciTegic.value.DoubleValue
2.070

@<SCITEGIC>MOL_PROPERTY
Valence
SciTegic.value.DoubleValue
9.628

@<SCITEGIC>MOL_PROPERTY
Coulomb
SciTegic.value.DoubleValue
0.101

@<SCITEGIC>MOL_PROPERTY
VdW
SciTegic.value.DoubleValue
0.693

@<SCITEGIC>MOL_PROPERTY
VdW6
SciTegic.value.DoubleValue
-6.927

@<SCITEGIC>MOL_PROPERTY
VdW12
SciTegic.value.DoubleValue
7.620

@<SCITEGIC>MOL_PROPERTY
Bond
SciTegic.value.DoubleValue
0.173

@<SCITEGIC>MOL_PROPERTY
Angle
SciTegic.value.DoubleValue
2.989

@<SCITEGIC>MOL_PROPERTY
Pdih
SciTegic.value.DoubleValue
6.465

@<SCITEGIC>MOL_PROPERTY
Idih
SciTegic.value.DoubleValue
0.001

@<SCITEGIC>MOL_PROPERTY
Tether
SciTegic.value.DoubleValue
0.000

@<TRIPOS>MOLECULE
guest-7_confgen4.mol2 : confsearch ligand conformer 32
          19          18           1
SMALL
USER_CHARGES
 
@<TRIPOS>ATOM
       1    C1      19.291432   16.620434   21.627134 C.2        1 MOL1         0.6115
       2    O1      18.142076   16.855583   21.310310 O.co2      1 MOL1        -0.6776
       3    O2      19.975882   15.773237   21.087821 O.co2      1 MOL1        -0.6776
       4    C2      19.901422   17.409351   22.782882 C.3        1 MOL1        -0.2013
       5    H1      20.369085   16.683833   23.458656 H          1 MOL1         0.0727
       6    H2      19.089620   17.882519   23.344417 H          1 MOL1         0.0727
       7    C3      20.960771   18.457468   22.342236 C.3        1 MOL1        -0.1910
       8    H3      21.498778   18.835151   23.222086 H          1 MOL1         0.0729
       9    H4      21.711991   17.942977   21.727011 H          1 MOL1         0.0729
      10    C4      20.381085   19.646362   21.532314 C.3        1 MOL1        -0.1909
      11    H5      19.496992   19.329387   20.962479 H          1 MOL1         0.0729
      12    H6      21.127050   19.943702   20.782708 H          1 MOL1         0.0729
      13    C5      20.044653   20.900027   22.376732 C.3        1 MOL1        -0.1884
      14    H7      20.953955   21.265299   22.873671 H          1 MOL1         0.0729
      15    H8      19.723045   21.701160   21.697093 H          1 MOL1         0.0729
      16    C6      18.940608   20.673866   23.430057 C.3        1 MOL1        -0.2899
      17    H9      19.286013   20.004396   24.227466 H          1 MOL1         0.0741
      18    H10     18.655327   21.625082   23.897583 H          1 MOL1         0.0741
      19    H11     18.043020   20.238026   22.971949 H          1 MOL1         0.0741
@<TRIPOS>BOND
    1     1     2    1
    2     1     3    2
    3     1     4    1
    4     4     5    1
    5     4     6    1
    6     4     7    1
    7     7     8    1
    8     7     9    1
    9     7    10    1
   10    10    11    1
   11    10    12    1
   12    10    13    1
   13    13    14    1
   14    13    15    1
   15    13    16    1
   16    16    17    1
   17    16    18    1
   18    16    19    1
@<TRIPOS>SUBSTRUCTURE
       1 MOL1            1 RESIDUE      1      MOL     
@<SCITEGIC>MOL_PROPERTY
VConf Rank
SciTegic.value.IntegerValue
32

@<SCITEGIC>MOL_PROPERTY
Conf_Id
SciTegic.value.IntegerValue
4

@<SCITEGIC>MOL_PROPERTY
Delta U+W
SciTegic.value.DoubleValue
3.753

@<SCITEGIC>MOL_PROPERTY
U+W
SciTegic.value.DoubleValue
-51.138

@<SCITEGIC>MOL_PROPERTY
Grad RMS
SciTegic.value.DoubleValue
0.000000

@<SCITEGIC>MOL_PROPERTY
U
SciTegic.value.DoubleValue
12.334

@<SCITEGIC>MOL_PROPERTY
W
SciTegic.value.DoubleValue
-63.472

@<SCITEGIC>MOL_PROPERTY
W(PB)
SciTegic.value.DoubleValue
-65.500

@<SCITEGIC>MOL_PROPERTY
W(SA)
SciTegic.value.DoubleValue
2.028

@<SCITEGIC>MOL_PROPERTY
Valence
SciTegic.value.DoubleValue
9.984

@<SCITEGIC>MOL_PROPERTY
Coulomb
SciTegic.value.DoubleValue
1.767

@<SCITEGIC>MOL_PROPERTY
VdW
SciTegic.value.DoubleValue
0.583

@<SCITEGIC>MOL_PROPERTY
VdW6
SciTegic.value.DoubleValue
-7.767

@<SCITEGIC>MOL_PROPERTY
VdW12
SciTegic.value.DoubleValue
8.349

@<SCITEGIC>MOL_PROPERTY
Bond
SciTegic.value.DoubleValue
0.203

@<SCITEGIC>MOL_PROPERTY
Angle
SciTegic.value.DoubleValue
3.191

@<SCITEGIC>MOL_PROPERTY
Pdih
SciTegic.value.DoubleValue
6.589

@<SCITEGIC>MOL_PROPERTY
Idih
SciTegic.value.DoubleValue
0.001

@<SCITEGIC>MOL_PROPERTY
Tether
SciTegic.value.DoubleValue
0.000

@<TRIPOS>MOLECULE
guest-7_confgen4.mol2 : confsearch ligand conformer 33
          19          18           1
SMALL
USER_CHARGES
 
@<TRIPOS>ATOM
       1    C1      18.482744   17.479699   20.766690 C.2        1 MOL1         0.6115
       2    O1      18.682448   16.385136   20.277686 O.co2      1 MOL1        -0.6776
       3    O2      17.402466   17.836370   21.193866 O.co2      1 MOL1        -0.6776
       4    C2      19.645704   18.467127   20.819045 C.3        1 MOL1        -0.2013
       5    H1      19.239703   19.470410   20.982794 H          1 MOL1         0.0727
       6    H2      20.108962   18.474409   19.825518 H          1 MOL1         0.0727
       7    C3      20.721895   18.119209   21.884738 C.3        1 MOL1        -0.1910
       8    H3      21.043787   17.082135   21.716224 H          1 MOL1         0.0729
       9    H4      21.613858   18.740908   21.729411 H          1 MOL1         0.0729
      10    C4      20.234546   18.259000   23.350488 C.3        1 MOL1        -0.1909
      11    H5      20.721142   17.475569   23.947349 H          1 MOL1         0.0729
      12    H6      19.156639   18.058314   23.418653 H          1 MOL1         0.0729
      13    C5      20.562222   19.619738   24.013002 C.3        1 MOL1        -0.1884
      14    H7      20.248979   19.578663   25.065307 H          1 MOL1         0.0729
      15    H8      21.650107   19.773445   24.022065 H          1 MOL1         0.0729
      16    C6      19.879332   20.829205   23.341878 C.3        1 MOL1        -0.2899
      17    H9      18.796768   20.669808   23.251683 H          1 MOL1         0.0741
      18    H10     20.040273   21.738788   23.934783 H          1 MOL1         0.0741
      19    H11     20.290352   21.010283   22.341064 H          1 MOL1         0.0741
@<TRIPOS>BOND
    1     1     2    1
    2     1     3    2
    3     1     4    1
    4     4     5    1
    5     4     6    1
    6     4     7    1
    7     7     8    1
    8     7     9    1
    9     7    10    1
   10    10    11    1
   11    10    12    1
   12    10    13    1
   13    13    14    1
   14    13    15    1
   15    13    16    1
   16    16    17    1
   17    16    18    1
   18    16    19    1
@<TRIPOS>SUBSTRUCTURE
       1 MOL1            1 RESIDUE      1      MOL     
@<SCITEGIC>MOL_PROPERTY
VConf Rank
SciTegic.value.IntegerValue
33

@<SCITEGIC>MOL_PROPERTY
Conf_Id
SciTegic.value.IntegerValue
73

@<SCITEGIC>MOL_PROPERTY
Delta U+W
SciTegic.value.DoubleValue
3.707

@<SCITEGIC>MOL_PROPERTY
U+W
SciTegic.value.DoubleValue
-51.184

@<SCITEGIC>MOL_PROPERTY
Grad RMS
SciTegic.value.DoubleValue
0.000000

@<SCITEGIC>MOL_PROPERTY
U
SciTegic.value.DoubleValue
12.334

@<SCITEGIC>MOL_PROPERTY
W
SciTegic.value.DoubleValue
-63.519

@<SCITEGIC>MOL_PROPERTY
W(PB)
SciTegic.value.DoubleValue
-65.541

@<SCITEGIC>MOL_PROPERTY
W(SA)
SciTegic.value.DoubleValue
2.022

@<SCITEGIC>MOL_PROPERTY
Valence
SciTegic.value.DoubleValue
9.984

@<SCITEGIC>MOL_PROPERTY
Coulomb
SciTegic.value.DoubleValue
1.768

@<SCITEGIC>MOL_PROPERTY
VdW
SciTegic.value.DoubleValue
0.583

@<SCITEGIC>MOL_PROPERTY
VdW6
SciTegic.value.DoubleValue
-7.767

@<SCITEGIC>MOL_PROPERTY
VdW12
SciTegic.value.DoubleValue
8.350

@<SCITEGIC>MOL_PROPERTY
Bond
SciTegic.value.DoubleValue
0.203

@<SCITEGIC>MOL_PROPERTY
Angle
SciTegic.value.DoubleValue
3.192

@<SCITEGIC>MOL_PROPERTY
Pdih
SciTegic.value.DoubleValue
6.589

@<SCITEGIC>MOL_PROPERTY
Idih
SciTegic.value.DoubleValue
0.001

@<SCITEGIC>MOL_PROPERTY
Tether
SciTegic.value.DoubleValue
0.000

@<TRIPOS>MOLECULE
guest-7_confgen4.mol2 : confsearch ligand conformer 34
          19          18           1
SMALL
USER_CHARGES
 
@<TRIPOS>ATOM
       1    C1      20.773151   19.224878   24.801287 C.2        1 MOL1         0.6115
       2    O1      21.802563   19.801806   24.511151 O.co2      1 MOL1        -0.6776
       3    O2      20.161636   19.421455   25.833065 O.co2      1 MOL1        -0.6776
       4    C2      20.234266   18.173514   23.835078 C.3        1 MOL1        -0.2013
       5    H1      20.038081   17.265458   24.416983 H          1 MOL1         0.0727
       6    H2      21.022531   17.918043   23.117673 H          1 MOL1         0.0727
       7    C3      18.937593   18.598168   23.093068 C.3        1 MOL1        -0.1910
       8    H3      18.581094   17.760544   22.479749 H          1 MOL1         0.0729
       9    H4      18.150945   18.782804   23.837517 H          1 MOL1         0.0729
      10    C4      19.090306   19.863055   22.209420 C.3        1 MOL1        -0.1909
      11    H5      19.328932   20.721989   22.851581 H          1 MOL1         0.0729
      12    H6      18.119169   20.090933   21.749464 H          1 MOL1         0.0729
      13    C5      20.160966   19.763824   21.095393 C.3        1 MOL1        -0.1884
      14    H7      20.188796   20.717968   20.551582 H          1 MOL1         0.0729
      15    H8      21.157666   19.639969   21.540020 H          1 MOL1         0.0729
      16    C6      19.892361   18.625286   20.087794 C.3        1 MOL1        -0.2899
      17    H9      19.967909   17.641661   20.568091 H          1 MOL1         0.0741
      18    H10     18.891148   18.718593   19.647478 H          1 MOL1         0.0741
      19    H11     20.625515   18.654098   19.271429 H          1 MOL1         0.0741
@<TRIPOS>BOND
    1     1     2    1
    2     1     3    2
    3     1     4    1
    4     4     5    1
    5     4     6    1
    6     4     7    1
    7     7     8    1
    8     7     9    1
    9     7    10    1
   10    10    11    1
   11    10    12    1
   12    10    13    1
   13    13    14    1
   14    13    15    1
   15    13    16    1
   16    16    17    1
   17    16    18    1
   18    16    19    1
@<TRIPOS>SUBSTRUCTURE
       1 MOL1            1 RESIDUE      1      MOL     
@<SCITEGIC>MOL_PROPERTY
VConf Rank
SciTegic.value.IntegerValue
34

@<SCITEGIC>MOL_PROPERTY
Conf_Id
SciTegic.value.IntegerValue
56

@<SCITEGIC>MOL_PROPERTY
Delta U+W
SciTegic.value.DoubleValue
1.735

@<SCITEGIC>MOL_PROPERTY
U+W
SciTegic.value.DoubleValue
-53.156

@<SCITEGIC>MOL_PROPERTY
Grad RMS
SciTegic.value.DoubleValue
0.000000

@<SCITEGIC>MOL_PROPERTY
U
SciTegic.value.DoubleValue
10.214

@<SCITEGIC>MOL_PROPERTY
W
SciTegic.value.DoubleValue
-63.370

@<SCITEGIC>MOL_PROPERTY
W(PB)
SciTegic.value.DoubleValue
-65.388

@<SCITEGIC>MOL_PROPERTY
W(SA)
SciTegic.value.DoubleValue
2.018

@<SCITEGIC>MOL_PROPERTY
Valence
SciTegic.value.DoubleValue
7.868

@<SCITEGIC>MOL_PROPERTY
Coulomb
SciTegic.value.DoubleValue
1.968

@<SCITEGIC>MOL_PROPERTY
VdW
SciTegic.value.DoubleValue
0.378

@<SCITEGIC>MOL_PROPERTY
VdW6
SciTegic.value.DoubleValue
-8.067

@<SCITEGIC>MOL_PROPERTY
VdW12
SciTegic.value.DoubleValue
8.445

@<SCITEGIC>MOL_PROPERTY
Bond
SciTegic.value.DoubleValue
0.191

@<SCITEGIC>MOL_PROPERTY
Angle
SciTegic.value.DoubleValue
3.117

@<SCITEGIC>MOL_PROPERTY
Pdih
SciTegic.value.DoubleValue
4.559

@<SCITEGIC>MOL_PROPERTY
Idih
SciTegic.value.DoubleValue
0.001

@<SCITEGIC>MOL_PROPERTY
Tether
SciTegic.value.DoubleValue
0.000

@<TRIPOS>MOLECULE
guest-7_confgen4.mol2 : confsearch ligand conformer 35
          19          18           1
SMALL
USER_CHARGES
 
@<TRIPOS>ATOM
       1    C1      20.635193   17.380869   19.904742 C.2        1 MOL1         0.6115
       2    O1      20.064804   16.350953   19.604253 O.co2      1 MOL1        -0.6776
       3    O2      21.661087   17.759953   19.375392 O.co2      1 MOL1        -0.6776
       4    C2      20.042815   18.232856   21.021632 C.3        1 MOL1        -0.2013
       5    H1      18.953575   18.107654   21.005562 H          1 MOL1         0.0727
       6    H2      20.258425   19.281472   20.788335 H          1 MOL1         0.0727
       7    C3      20.603943   17.866530   22.418742 C.3        1 MOL1        -0.1910
       8    H3      20.501671   16.782345   22.565315 H          1 MOL1         0.0729
       9    H4      21.681554   18.079539   22.442783 H          1 MOL1         0.0729
      10    C4      19.904703   18.588878   23.597626 C.3        1 MOL1        -0.1909
      11    H5      20.349745   18.209689   24.527747 H          1 MOL1         0.0729
      12    H6      18.843828   18.306133   23.637637 H          1 MOL1         0.0729
      13    C5      20.048753   20.131043   23.588489 C.3        1 MOL1        -0.1884
      14    H7      20.136144   20.481056   24.626368 H          1 MOL1         0.0729
      15    H8      20.982048   20.423897   23.087983 H          1 MOL1         0.0729
      16    C6      18.844920   20.852380   22.942589 C.3        1 MOL1        -0.2899
      17    H9      18.986677   21.940332   22.976372 H          1 MOL1         0.0741
      18    H10     18.710706   20.565425   21.893655 H          1 MOL1         0.0741
      19    H11     17.916231   20.618496   23.479215 H          1 MOL1         0.0741
@<TRIPOS>BOND
    1     1     2    1
    2     1     3    2
    3     1     4    1
    4     4     5    1
    5     4     6    1
    6     4     7    1
    7     7     8    1
    8     7     9    1
    9     7    10    1
   10    10    11    1
   11    10    12    1
   12    10    13    1
   13    13    14    1
   14    13    15    1
   15    13    16    1
   16    16    17    1
   17    16    18    1
   18    16    19    1
@<TRIPOS>SUBSTRUCTURE
       1 MOL1            1 RESIDUE      1      MOL     
@<SCITEGIC>MOL_PROPERTY
VConf Rank
SciTegic.value.IntegerValue
35

@<SCITEGIC>MOL_PROPERTY
Conf_Id
SciTegic.value.IntegerValue
53

@<SCITEGIC>MOL_PROPERTY
Delta U+W
SciTegic.value.DoubleValue
2.279

@<SCITEGIC>MOL_PROPERTY
U+W
SciTegic.value.DoubleValue
-52.612

@<SCITEGIC>MOL_PROPERTY
Grad RMS
SciTegic.value.DoubleValue
0.000000

@<SCITEGIC>MOL_PROPERTY
U
SciTegic.value.DoubleValue
10.231

@<SCITEGIC>MOL_PROPERTY
W
SciTegic.value.DoubleValue
-62.843

@<SCITEGIC>MOL_PROPERTY
W(PB)
SciTegic.value.DoubleValue
-64.893

@<SCITEGIC>MOL_PROPERTY
W(SA)
SciTegic.value.DoubleValue
2.050

@<SCITEGIC>MOL_PROPERTY
Valence
SciTegic.value.DoubleValue
9.644

@<SCITEGIC>MOL_PROPERTY
Coulomb
SciTegic.value.DoubleValue
-0.164

@<SCITEGIC>MOL_PROPERTY
VdW
SciTegic.value.DoubleValue
0.751

@<SCITEGIC>MOL_PROPERTY
VdW6
SciTegic.value.DoubleValue
-6.881

@<SCITEGIC>MOL_PROPERTY
VdW12
SciTegic.value.DoubleValue
7.631

@<SCITEGIC>MOL_PROPERTY
Bond
SciTegic.value.DoubleValue
0.163

@<SCITEGIC>MOL_PROPERTY
Angle
SciTegic.value.DoubleValue
2.998

@<SCITEGIC>MOL_PROPERTY
Pdih
SciTegic.value.DoubleValue
6.482

@<SCITEGIC>MOL_PROPERTY
Idih
SciTegic.value.DoubleValue
0.001

@<SCITEGIC>MOL_PROPERTY
Tether
SciTegic.value.DoubleValue
0.000

@<TRIPOS>MOLECULE
guest-7_confgen4.mol2 : confsearch ligand conformer 36
          19          18           1
SMALL
USER_CHARGES
 
@<TRIPOS>ATOM
       1    C1      20.095702   21.149081   21.594826 C.2        1 MOL1         0.6115
       2    O1      18.906071   21.389151   21.531576 O.co2      1 MOL1        -0.6776
       3    O2      20.841351   21.202130   20.636473 O.co2      1 MOL1        -0.6776
       4    C2      20.694979   20.833074   22.963945 C.3        1 MOL1        -0.2013
       5    H1      19.901924   20.880320   23.720089 H          1 MOL1         0.0727
       6    H2      21.392820   21.647531   23.190444 H          1 MOL1         0.0727
       7    C3      21.451154   19.478129   23.061153 C.3        1 MOL1        -0.1910
       8    H3      22.097239   19.345750   22.182181 H          1 MOL1         0.0729
       9    H4      22.125482   19.527906   23.926728 H          1 MOL1         0.0729
      10    C4      20.541359   18.238056   23.243270 C.3        1 MOL1        -0.1909
      11    H5      19.903595   18.373845   24.127381 H          1 MOL1         0.0729
      12    H6      21.182604   17.371614   23.455622 H          1 MOL1         0.0729
      13    C5      19.663219   17.915082   22.014396 C.3        1 MOL1        -0.1884
      14    H7      18.922012   18.709873   21.861670 H          1 MOL1         0.0729
      15    H8      20.286681   17.878595   21.110316 H          1 MOL1         0.0729
      16    C6      18.924701   16.572123   22.184360 C.3        1 MOL1        -0.2899
      17    H9      18.273802   16.591698   23.068275 H          1 MOL1         0.0741
      18    H10     18.299087   16.361718   21.307215 H          1 MOL1         0.0741
      19    H11     19.635814   15.743681   22.299772 H          1 MOL1         0.0741
@<TRIPOS>BOND
    1     1     2    1
    2     1     3    2
    3     1     4    1
    4     4     5    1
    5     4     6    1
    6     4     7    1
    7     7     8    1
    8     7     9    1
    9     7    10    1
   10    10    11    1
   11    10    12    1
   12    10    13    1
   13    13    14    1
   14    13    15    1
   15    13    16    1
   16    16    17    1
   17    16    18    1
   18    16    19    1
@<TRIPOS>SUBSTRUCTURE
       1 MOL1            1 RESIDUE      1      MOL     
@<SCITEGIC>MOL_PROPERTY
VConf Rank
SciTegic.value.IntegerValue
36

@<SCITEGIC>MOL_PROPERTY
Conf_Id
SciTegic.value.IntegerValue
25

@<SCITEGIC>MOL_PROPERTY
Delta U+W
SciTegic.value.DoubleValue
2.065

@<SCITEGIC>MOL_PROPERTY
U+W
SciTegic.value.DoubleValue
-52.826

@<SCITEGIC>MOL_PROPERTY
Grad RMS
SciTegic.value.DoubleValue
0.000000

@<SCITEGIC>MOL_PROPERTY
U
SciTegic.value.DoubleValue
10.967

@<SCITEGIC>MOL_PROPERTY
W
SciTegic.value.DoubleValue
-63.794

@<SCITEGIC>MOL_PROPERTY
W(PB)
SciTegic.value.DoubleValue
-65.830

@<SCITEGIC>MOL_PROPERTY
W(SA)
SciTegic.value.DoubleValue
2.036

@<SCITEGIC>MOL_PROPERTY
Valence
SciTegic.value.DoubleValue
8.609

@<SCITEGIC>MOL_PROPERTY
Coulomb
SciTegic.value.DoubleValue
1.892

@<SCITEGIC>MOL_PROPERTY
VdW
SciTegic.value.DoubleValue
0.467

@<SCITEGIC>MOL_PROPERTY
VdW6
SciTegic.value.DoubleValue
-7.569

@<SCITEGIC>MOL_PROPERTY
VdW12
SciTegic.value.DoubleValue
8.036

@<SCITEGIC>MOL_PROPERTY
Bond
SciTegic.value.DoubleValue
0.170

@<SCITEGIC>MOL_PROPERTY
Angle
SciTegic.value.DoubleValue
3.195

@<SCITEGIC>MOL_PROPERTY
Pdih
SciTegic.value.DoubleValue
5.237

@<SCITEGIC>MOL_PROPERTY
Idih
SciTegic.value.DoubleValue
0.007

@<SCITEGIC>MOL_PROPERTY
Tether
SciTegic.value.DoubleValue
0.000

@<TRIPOS>MOLECULE
guest-7_confgen4.mol2 : confsearch ligand conformer 37
          19          18           1
SMALL
USER_CHARGES
 
@<TRIPOS>ATOM
       1    C1      20.497696   19.504188   20.206845 C.2        1 MOL1         0.6115
       2    O1      20.329085   20.704360   20.115159 O.co2      1 MOL1        -0.6776
       3    O2      19.859412   18.688018   19.571777 O.co2      1 MOL1        -0.6776
       4    C2      21.616647   18.995855   21.114055 C.3        1 MOL1        -0.2013
       5    H1      22.552726   19.384085   20.696134 H          1 MOL1         0.0727
       6    H2      21.668854   17.902957   21.038087 H          1 MOL1         0.0727
       7    C3      21.511249   19.427286   22.603984 C.3        1 MOL1        -0.1910
       8    H3      22.507933   19.331840   23.055569 H          1 MOL1         0.0729
       9    H4      21.251507   20.493113   22.667930 H          1 MOL1         0.0729
      10    C4      20.526002   18.588451   23.455054 C.3        1 MOL1        -0.1909
      11    H5      20.651729   18.877178   24.507594 H          1 MOL1         0.0729
      12    H6      20.795669   17.525340   23.392509 H          1 MOL1         0.0729
      13    C5      19.042818   18.771601   23.064929 C.3        1 MOL1        -0.1884
      14    H7      18.796756   19.841882   23.028215 H          1 MOL1         0.0729
      15    H8      18.864593   18.366327   22.060740 H          1 MOL1         0.0729
      16    C6      18.104175   18.062012   24.061558 C.3        1 MOL1        -0.2899
      17    H9      17.055403   18.194422   23.765603 H          1 MOL1         0.0741
      18    H10     18.312855   16.984748   24.097798 H          1 MOL1         0.0741
      19    H11     18.224437   18.469386   25.073932 H          1 MOL1         0.0741
@<TRIPOS>BOND
    1     1     2    1
    2     1     3    2
    3     1     4    1
    4     4     5    1
    5     4     6    1
    6     4     7    1
    7     7     8    1
    8     7     9    1
    9     7    10    1
   10    10    11    1
   11    10    12    1
   12    10    13    1
   13    13    14    1
   14    13    15    1
   15    13    16    1
   16    16    17    1
   17    16    18    1
   18    16    19    1
@<TRIPOS>SUBSTRUCTURE
       1 MOL1            1 RESIDUE      1      MOL     
@<SCITEGIC>MOL_PROPERTY
VConf Rank
SciTegic.value.IntegerValue
37

@<SCITEGIC>MOL_PROPERTY
Conf_Id
SciTegic.value.IntegerValue
52

@<SCITEGIC>MOL_PROPERTY
Delta U+W
SciTegic.value.DoubleValue
2.070

@<SCITEGIC>MOL_PROPERTY
U+W
SciTegic.value.DoubleValue
-52.822

@<SCITEGIC>MOL_PROPERTY
Grad RMS
SciTegic.value.DoubleValue
0.000000

@<SCITEGIC>MOL_PROPERTY
U
SciTegic.value.DoubleValue
10.967

@<SCITEGIC>MOL_PROPERTY
W
SciTegic.value.DoubleValue
-63.789

@<SCITEGIC>MOL_PROPERTY
W(PB)
SciTegic.value.DoubleValue
-65.837

@<SCITEGIC>MOL_PROPERTY
W(SA)
SciTegic.value.DoubleValue
2.048

@<SCITEGIC>MOL_PROPERTY
Valence
SciTegic.value.DoubleValue
8.609

@<SCITEGIC>MOL_PROPERTY
Coulomb
SciTegic.value.DoubleValue
1.892

@<SCITEGIC>MOL_PROPERTY
VdW
SciTegic.value.DoubleValue
0.467

@<SCITEGIC>MOL_PROPERTY
VdW6
SciTegic.value.DoubleValue
-7.569

@<SCITEGIC>MOL_PROPERTY
VdW12
SciTegic.value.DoubleValue
8.035

@<SCITEGIC>MOL_PROPERTY
Bond
SciTegic.value.DoubleValue
0.170

@<SCITEGIC>MOL_PROPERTY
Angle
SciTegic.value.DoubleValue
3.196

@<SCITEGIC>MOL_PROPERTY
Pdih
SciTegic.value.DoubleValue
5.237

@<SCITEGIC>MOL_PROPERTY
Idih
SciTegic.value.DoubleValue
0.007

@<SCITEGIC>MOL_PROPERTY
Tether
SciTegic.value.DoubleValue
0.000

@<TRIPOS>MOLECULE
guest-7_confgen4.mol2 : confsearch ligand conformer 38
          19          18           1
SMALL
USER_CHARGES
 
@<TRIPOS>ATOM
       1    C1      19.644153   17.472492   21.000578 C.2        1 MOL1         0.6115
       2    O1      18.588904   17.693116   20.438538 O.co2      1 MOL1        -0.6776
       3    O2      20.705668   17.392003   20.414569 O.co2      1 MOL1        -0.6776
       4    C2      19.626894   17.154799   22.496624 C.3        1 MOL1        -0.2013
       5    H1      20.657985   17.133166   22.869346 H          1 MOL1         0.0727
       6    H2      19.241808   16.132412   22.584424 H          1 MOL1         0.0727
       7    C3      18.756869   18.096237   23.377601 C.3        1 MOL1        -0.1910
       8    H3      17.813946   18.326978   22.862882 H          1 MOL1         0.0729
       9    H4      18.473335   17.543541   24.283411 H          1 MOL1         0.0729
      10    C4      19.446387   19.408945   23.829865 C.3        1 MOL1        -0.1909
      11    H5      20.336116   19.177486   24.431401 H          1 MOL1         0.0729
      12    H6      18.756008   19.926126   24.510209 H          1 MOL1         0.0729
      13    C5      19.810347   20.384895   22.684858 C.3        1 MOL1        -0.1884
      14    H7      19.187868   20.189211   21.800786 H          1 MOL1         0.0729
      15    H8      19.572796   21.409308   23.003128 H          1 MOL1         0.0729
      16    C6      21.306885   20.333897   22.309498 C.3        1 MOL1        -0.2899
      17    H9      21.934259   20.625733   23.161655 H          1 MOL1         0.0741
      18    H10     21.608477   19.327670   21.996006 H          1 MOL1         0.0741
      19    H11     21.520026   21.022213   21.481602 H          1 MOL1         0.0741
@<TRIPOS>BOND
    1     1     2    1
    2     1     3    2
    3     1     4    1
    4     4     5    1
    5     4     6    1
    6     4     7    1
    7     7     8    1
    8     7     9    1
    9     7    10    1
   10    10    11    1
   11    10    12    1
   12    10    13    1
   13    13    14    1
   14    13    15    1
   15    13    16    1
   16    16    17    1
   17    16    18    1
   18    16    19    1
@<TRIPOS>SUBSTRUCTURE
       1 MOL1            1 RESIDUE      1      MOL     
@<SCITEGIC>MOL_PROPERTY
VConf Rank
SciTegic.value.IntegerValue
38

@<SCITEGIC>MOL_PROPERTY
Conf_Id
SciTegic.value.IntegerValue
66

@<SCITEGIC>MOL_PROPERTY
Delta U+W
SciTegic.value.DoubleValue
5.819

@<SCITEGIC>MOL_PROPERTY
U+W
SciTegic.value.DoubleValue
-49.072

@<SCITEGIC>MOL_PROPERTY
Grad RMS
SciTegic.value.DoubleValue
0.000000

@<SCITEGIC>MOL_PROPERTY
U
SciTegic.value.DoubleValue
15.324

@<SCITEGIC>MOL_PROPERTY
W
SciTegic.value.DoubleValue
-64.396

@<SCITEGIC>MOL_PROPERTY
W(PB)
SciTegic.value.DoubleValue
-66.382

@<SCITEGIC>MOL_PROPERTY
W(SA)
SciTegic.value.DoubleValue
1.986

@<SCITEGIC>MOL_PROPERTY
Valence
SciTegic.value.DoubleValue
11.748

@<SCITEGIC>MOL_PROPERTY
Coulomb
SciTegic.value.DoubleValue
3.201

@<SCITEGIC>MOL_PROPERTY
VdW
SciTegic.value.DoubleValue
0.375

@<SCITEGIC>MOL_PROPERTY
VdW6
SciTegic.value.DoubleValue
-8.854

@<SCITEGIC>MOL_PROPERTY
VdW12
SciTegic.value.DoubleValue
9.229

@<SCITEGIC>MOL_PROPERTY
Bond
SciTegic.value.DoubleValue
0.216

@<SCITEGIC>MOL_PROPERTY
Angle
SciTegic.value.DoubleValue
3.812

@<SCITEGIC>MOL_PROPERTY
Pdih
SciTegic.value.DoubleValue
7.699

@<SCITEGIC>MOL_PROPERTY
Idih
SciTegic.value.DoubleValue
0.022

@<SCITEGIC>MOL_PROPERTY
Tether
SciTegic.value.DoubleValue
0.000

@<TRIPOS>MOLECULE
guest-7_confgen4.mol2 : confsearch ligand conformer 39
          19          18           1
SMALL
USER_CHARGES
 
@<TRIPOS>ATOM
       1    C1      20.820749   21.991155   23.342023 C.2        1 MOL1         0.6115
       2    O1      21.754543   22.766234   23.396261 O.co2      1 MOL1        -0.6776
       3    O2      19.733829   22.226444   23.833338 O.co2      1 MOL1        -0.6776
       4    C2      21.054813   20.665758   22.615240 C.3        1 MOL1        -0.2013
       5    H1      21.898378   20.167395   23.107257 H          1 MOL1         0.0727
       6    H2      21.374581   20.904640   21.594097 H          1 MOL1         0.0727
       7    C3      19.833814   19.708838   22.571661 C.3        1 MOL1        -0.1910
       8    H3      19.514849   19.478099   23.597569 H          1 MOL1         0.0729
       9    H4      18.990489   20.216140   22.082871 H          1 MOL1         0.0729
      10    C4      20.157587   18.398760   21.821242 C.3        1 MOL1        -0.1909
      11    H5      21.001035   17.893348   22.311450 H          1 MOL1         0.0729
      12    H6      20.476346   18.631764   20.795936 H          1 MOL1         0.0729
      13    C5      18.942514   17.448908   21.779112 C.3        1 MOL1        -0.1884
      14    H7      18.621734   17.211900   22.803036 H          1 MOL1         0.0729
      15    H8      18.097151   17.950177   21.287600 H          1 MOL1         0.0729
      16    C6      19.269364   16.142026   21.029300 C.3        1 MOL1        -0.2899
      17    H9      20.091760   15.603681   21.518454 H          1 MOL1         0.0741
      18    H10     18.394871   15.478738   21.008868 H          1 MOL1         0.0741
      19    H11     19.563249   16.347518   19.991598 H          1 MOL1         0.0741
@<TRIPOS>BOND
    1     1     2    1
    2     1     3    2
    3     1     4    1
    4     4     5    1
    5     4     6    1
    6     4     7    1
    7     7     8    1
    8     7     9    1
    9     7    10    1
   10    10    11    1
   11    10    12    1
   12    10    13    1
   13    13    14    1
   14    13    15    1
   15    13    16    1
   16    16    17    1
   17    16    18    1
   18    16    19    1
@<TRIPOS>SUBSTRUCTURE
       1 MOL1            1 RESIDUE      1      MOL     
@<SCITEGIC>MOL_PROPERTY
VConf Rank
SciTegic.value.IntegerValue
39

@<SCITEGIC>MOL_PROPERTY
Conf_Id
SciTegic.value.IntegerValue
0

@<SCITEGIC>MOL_PROPERTY
Delta U+W
SciTegic.value.DoubleValue
0.000

@<SCITEGIC>MOL_PROPERTY
U+W
SciTegic.value.DoubleValue
-54.891

@<SCITEGIC>MOL_PROPERTY
Grad RMS
SciTegic.value.DoubleValue
0.000000

@<SCITEGIC>MOL_PROPERTY
U
SciTegic.value.DoubleValue
6.966

@<SCITEGIC>MOL_PROPERTY
W
SciTegic.value.DoubleValue
-61.857

@<SCITEGIC>MOL_PROPERTY
W(PB)
SciTegic.value.DoubleValue
-63.965

@<SCITEGIC>MOL_PROPERTY
W(SA)
SciTegic.value.DoubleValue
2.108

@<SCITEGIC>MOL_PROPERTY
Valence
SciTegic.value.DoubleValue
7.175

@<SCITEGIC>MOL_PROPERTY
Coulomb
SciTegic.value.DoubleValue
-1.360

@<SCITEGIC>MOL_PROPERTY
VdW
SciTegic.value.DoubleValue
1.151

@<SCITEGIC>MOL_PROPERTY
VdW6
SciTegic.value.DoubleValue
-5.641

@<SCITEGIC>MOL_PROPERTY
VdW12
SciTegic.value.DoubleValue
6.792

@<SCITEGIC>MOL_PROPERTY
Bond
SciTegic.value.DoubleValue
0.119

@<SCITEGIC>MOL_PROPERTY
Angle
SciTegic.value.DoubleValue
2.715

@<SCITEGIC>MOL_PROPERTY
Pdih
SciTegic.value.DoubleValue
4.340

@<SCITEGIC>MOL_PROPERTY
Idih
SciTegic.value.DoubleValue
0.000

@<SCITEGIC>MOL_PROPERTY
Tether
SciTegic.value.DoubleValue
0.000

@<TRIPOS>MOLECULE
guest-7_confgen4.mol2 : confsearch ligand conformer 40
          19          18           1
SMALL
USER_CHARGES
 
@<TRIPOS>ATOM
       1    C1      21.787281   18.237360   19.393279 C.2        1 MOL1         0.6115
       2    O1      22.729403   18.982471   19.210532 O.co2      1 MOL1        -0.6776
       3    O2      21.772599   17.073628   19.044432 O.co2      1 MOL1        -0.6776
       4    C2      20.564197   18.787329   20.118518 C.3        1 MOL1        -0.2013
       5    H1      19.676781   18.276128   19.726207 H          1 MOL1         0.0727
       6    H2      20.465609   19.849396   19.863494 H          1 MOL1         0.0727
       7    C3      20.645943   18.612261   21.655001 C.3        1 MOL1        -0.1910
       8    H3      20.757085   17.545273   21.893189 H          1 MOL1         0.0729
       9    H4      21.546092   19.118524   22.030473 H          1 MOL1         0.0729
      10    C4      19.396646   19.176845   22.365022 C.3        1 MOL1        -0.1909
      11    H5      18.498424   18.669746   21.986550 H          1 MOL1         0.0729
      12    H6      19.287606   20.243233   22.123943 H          1 MOL1         0.0729
      13    C5      19.480792   19.001006   23.895504 C.3        1 MOL1        -0.1884
      14    H7      19.588038   17.935257   24.140803 H          1 MOL1         0.0729
      15    H8      20.377081   19.508653   24.278196 H          1 MOL1         0.0729
      16    C6      18.231778   19.565748   24.601186 C.3        1 MOL1        -0.2899
      17    H9      18.308198   19.432477   25.688157 H          1 MOL1         0.0741
      18    H10     18.117531   20.638719   24.398442 H          1 MOL1         0.0741
      19    H11     17.322573   19.053548   24.259981 H          1 MOL1         0.0741
@<TRIPOS>BOND
    1     1     2    1
    2     1     3    2
    3     1     4    1
    4     4     5    1
    5     4     6    1
    6     4     7    1
    7     7     8    1
    8     7     9    1
    9     7    10    1
   10    10    11    1
   11    10    12    1
   12    10    13    1
   13    13    14    1
   14    13    15    1
   15    13    16    1
   16    16    17    1
   17    16    18    1
   18    16    19    1
@<TRIPOS>SUBSTRUCTURE
       1 MOL1            1 RESIDUE      1      MOL     
@<SCITEGIC>MOL_PROPERTY
VConf Rank
SciTegic.value.IntegerValue
40

@<SCITEGIC>MOL_PROPERTY
Conf_Id
SciTegic.value.IntegerValue
18

@<SCITEGIC>MOL_PROPERTY
Delta U+W
SciTegic.value.DoubleValue
-1.199

@<SCITEGIC>MOL_PROPERTY
U+W
SciTegic.value.DoubleValue
-56.090

@<SCITEGIC>MOL_PROPERTY
Grad RMS
SciTegic.value.DoubleValue
0.000000

@<SCITEGIC>MOL_PROPERTY
U
SciTegic.value.DoubleValue
5.975

@<SCITEGIC>MOL_PROPERTY
W
SciTegic.value.DoubleValue
-62.066

@<SCITEGIC>MOL_PROPERTY
W(PB)
SciTegic.value.DoubleValue
-64.219

@<SCITEGIC>MOL_PROPERTY
W(SA)
SciTegic.value.DoubleValue
2.153

@<SCITEGIC>MOL_PROPERTY
Valence
SciTegic.value.DoubleValue
6.673

@<SCITEGIC>MOL_PROPERTY
Coulomb
SciTegic.value.DoubleValue
-1.307

@<SCITEGIC>MOL_PROPERTY
VdW
SciTegic.value.DoubleValue
0.610

@<SCITEGIC>MOL_PROPERTY
VdW6
SciTegic.value.DoubleValue
-5.351

@<SCITEGIC>MOL_PROPERTY
VdW12
SciTegic.value.DoubleValue
5.961

@<SCITEGIC>MOL_PROPERTY
Bond
SciTegic.value.DoubleValue
0.086

@<SCITEGIC>MOL_PROPERTY
Angle
SciTegic.value.DoubleValue
2.253

@<SCITEGIC>MOL_PROPERTY
Pdih
SciTegic.value.DoubleValue
4.333

@<SCITEGIC>MOL_PROPERTY
Idih
SciTegic.value.DoubleValue
0.001

@<SCITEGIC>MOL_PROPERTY
Tether
SciTegic.value.DoubleValue
0.000

@<TRIPOS>MOLECULE
guest-7_confgen4.mol2 : confsearch ligand conformer 41
          19          18           1
SMALL
USER_CHARGES
 
@<TRIPOS>ATOM
       1    C1      22.736827   20.525133   21.763159 C.2        1 MOL1         0.6115
       2    O1      22.894790   21.686221   22.084422 O.co2      1 MOL1        -0.6776
       3    O2      23.652911   19.755528   21.551593 O.co2      1 MOL1        -0.6776
       4    C2      21.311016   19.999632   21.639569 C.3        1 MOL1        -0.2013
       5    H1      21.302832   19.240682   20.849145 H          1 MOL1         0.0727
       6    H2      20.671803   20.825380   21.304822 H          1 MOL1         0.0727
       7    C3      20.771143   19.410478   22.968710 C.3        1 MOL1        -0.1910
       8    H3      21.392858   18.556367   23.270829 H          1 MOL1         0.0729
       9    H4      20.878259   20.166784   23.758616 H          1 MOL1         0.0729
      10    C4      19.287703   18.977433   22.895137 C.3        1 MOL1        -0.1909
      11    H5      18.667861   19.835559   22.601160 H          1 MOL1         0.0729
      12    H6      18.958902   18.687195   23.902443 H          1 MOL1         0.0729
      13    C5      19.038911   17.799204   21.926946 C.3        1 MOL1        -0.1884
      14    H7      19.290081   18.093730   20.899557 H          1 MOL1         0.0729
      15    H8      19.695745   16.958474   22.189644 H          1 MOL1         0.0729
      16    C6      17.569692   17.333547   21.969684 C.3        1 MOL1        -0.2899
      17    H9      17.408214   16.498903   21.275145 H          1 MOL1         0.0741
      18    H10     17.293754   16.994347   22.976753 H          1 MOL1         0.0741
      19    H11     16.891347   18.148264   21.684220 H          1 MOL1         0.0741
@<TRIPOS>BOND
    1     1     2    1
    2     1     3    2
    3     1     4    1
    4     4     5    1
    5     4     6    1
    6     4     7    1
    7     7     8    1
    8     7     9    1
    9     7    10    1
   10    10    11    1
   11    10    12    1
   12    10    13    1
   13    13    14    1
   14    13    15    1
   15    13    16    1
   16    16    17    1
   17    16    18    1
   18    16    19    1
@<TRIPOS>SUBSTRUCTURE
       1 MOL1            1 RESIDUE      1      MOL     
@<SCITEGIC>MOL_PROPERTY
VConf Rank
SciTegic.value.IntegerValue
41

@<SCITEGIC>MOL_PROPERTY
Conf_Id
SciTegic.value.IntegerValue
34

@<SCITEGIC>MOL_PROPERTY
Delta U+W
SciTegic.value.DoubleValue
-0.563

@<SCITEGIC>MOL_PROPERTY
U+W
SciTegic.value.DoubleValue
-55.455

@<SCITEGIC>MOL_PROPERTY
Grad RMS
SciTegic.value.DoubleValue
0.000000

@<SCITEGIC>MOL_PROPERTY
U
SciTegic.value.DoubleValue
6.914

@<SCITEGIC>MOL_PROPERTY
W
SciTegic.value.DoubleValue
-62.369

@<SCITEGIC>MOL_PROPERTY
W(PB)
SciTegic.value.DoubleValue
-64.446

@<SCITEGIC>MOL_PROPERTY
W(SA)
SciTegic.value.DoubleValue
2.077

@<SCITEGIC>MOL_PROPERTY
Valence
SciTegic.value.DoubleValue
7.196

@<SCITEGIC>MOL_PROPERTY
Coulomb
SciTegic.value.DoubleValue
-1.020

@<SCITEGIC>MOL_PROPERTY
VdW
SciTegic.value.DoubleValue
0.738

@<SCITEGIC>MOL_PROPERTY
VdW6
SciTegic.value.DoubleValue
-6.010

@<SCITEGIC>MOL_PROPERTY
VdW12
SciTegic.value.DoubleValue
6.748

@<SCITEGIC>MOL_PROPERTY
Bond
SciTegic.value.DoubleValue
0.126

@<SCITEGIC>MOL_PROPERTY
Angle
SciTegic.value.DoubleValue
2.499

@<SCITEGIC>MOL_PROPERTY
Pdih
SciTegic.value.DoubleValue
4.570

@<SCITEGIC>MOL_PROPERTY
Idih
SciTegic.value.DoubleValue
0.001

@<SCITEGIC>MOL_PROPERTY
Tether
SciTegic.value.DoubleValue
0.000

@<TRIPOS>MOLECULE
guest-7_confgen4.mol2 : confsearch ligand conformer 42
          19          18           1
SMALL
USER_CHARGES
 
@<TRIPOS>ATOM
       1    C1      17.721540   21.211925   22.131701 C.2        1 MOL1         0.6115
       2    O1      17.869546   22.312994   22.623666 O.co2      1 MOL1        -0.6776
       3    O2      16.636749   20.738682   21.856869 O.co2      1 MOL1        -0.6776
       4    C2      18.963828   20.369323   21.865055 C.3        1 MOL1        -0.2013
       5    H1      19.789878   21.048357   21.622022 H          1 MOL1         0.0727
       6    H2      18.769396   19.761453   20.974249 H          1 MOL1         0.0727
       7    C3      19.348007   19.469035   23.067997 C.3        1 MOL1        -0.1910
       8    H3      19.445989   20.099339   23.962725 H          1 MOL1         0.0729
       9    H4      18.531329   18.763337   23.273758 H          1 MOL1         0.0729
      10    C4      20.670271   18.692858   22.861377 C.3        1 MOL1        -0.1909
      11    H5      20.923754   18.180136   23.799394 H          1 MOL1         0.0729
      12    H6      21.486257   19.401628   22.664350 H          1 MOL1         0.0729
      13    C5      20.599399   17.650596   21.722879 C.3        1 MOL1        -0.1884
      14    H7      19.751754   16.972553   21.893243 H          1 MOL1         0.0729
      15    H8      20.421923   18.150936   20.761877 H          1 MOL1         0.0729
      16    C6      21.900669   16.829119   21.627282 C.3        1 MOL1        -0.2899
      17    H9      22.762223   17.480322   21.429632 H          1 MOL1         0.0741
      18    H10     22.090436   16.282927   22.560582 H          1 MOL1         0.0741
      19    H11     21.836098   16.095820   20.812916 H          1 MOL1         0.0741
@<TRIPOS>BOND
    1     1     2    1
    2     1     3    2
    3     1     4    1
    4     4     5    1
    5     4     6    1
    6     4     7    1
    7     7     8    1
    8     7     9    1
    9     7    10    1
   10    10    11    1
   11    10    12    1
   12    10    13    1
   13    13    14    1
   14    13    15    1
   15    13    16    1
   16    16    17    1
   17    16    18    1
   18    16    19    1
@<TRIPOS>SUBSTRUCTURE
       1 MOL1            1 RESIDUE      1      MOL     
@<SCITEGIC>MOL_PROPERTY
VConf Rank
SciTegic.value.IntegerValue
42

@<SCITEGIC>MOL_PROPERTY
Conf_Id
SciTegic.value.IntegerValue
33

@<SCITEGIC>MOL_PROPERTY
Delta U+W
SciTegic.value.DoubleValue
-0.526

@<SCITEGIC>MOL_PROPERTY
U+W
SciTegic.value.DoubleValue
-55.418

@<SCITEGIC>MOL_PROPERTY
Grad RMS
SciTegic.value.DoubleValue
0.000000

@<SCITEGIC>MOL_PROPERTY
U
SciTegic.value.DoubleValue
6.914

@<SCITEGIC>MOL_PROPERTY
W
SciTegic.value.DoubleValue
-62.332

@<SCITEGIC>MOL_PROPERTY
W(PB)
SciTegic.value.DoubleValue
-64.421

@<SCITEGIC>MOL_PROPERTY
W(SA)
SciTegic.value.DoubleValue
2.090

@<SCITEGIC>MOL_PROPERTY
Valence
SciTegic.value.DoubleValue
7.196

@<SCITEGIC>MOL_PROPERTY
Coulomb
SciTegic.value.DoubleValue
-1.020

@<SCITEGIC>MOL_PROPERTY
VdW
SciTegic.value.DoubleValue
0.738

@<SCITEGIC>MOL_PROPERTY
VdW6
SciTegic.value.DoubleValue
-6.010

@<SCITEGIC>MOL_PROPERTY
VdW12
SciTegic.value.DoubleValue
6.748

@<SCITEGIC>MOL_PROPERTY
Bond
SciTegic.value.DoubleValue
0.126

@<SCITEGIC>MOL_PROPERTY
Angle
SciTegic.value.DoubleValue
2.499

@<SCITEGIC>MOL_PROPERTY
Pdih
SciTegic.value.DoubleValue
4.570

@<SCITEGIC>MOL_PROPERTY
Idih
SciTegic.value.DoubleValue
0.001

@<SCITEGIC>MOL_PROPERTY
Tether
SciTegic.value.DoubleValue
0.000

@<TRIPOS>MOLECULE
guest-7_confgen4.mol2 : confsearch ligand conformer 43
          19          18           1
SMALL
USER_CHARGES
 
@<TRIPOS>ATOM
       1    C1      20.838978   20.826102   19.854461 C.2        1 MOL1         0.6115
       2    O1      20.889485   20.185377   18.823374 O.co2      1 MOL1        -0.6776
       3    O2      20.510232   21.994715   19.904612 O.co2      1 MOL1        -0.6776
       4    C2      21.190509   20.120176   21.159296 C.3        1 MOL1        -0.2013
       5    H1      21.647793   20.855763   21.831964 H          1 MOL1         0.0727
       6    H2      21.952305   19.361707   20.942228 H          1 MOL1         0.0727
       7    C3      19.963089   19.464320   21.838805 C.3        1 MOL1        -0.1910
       8    H3      19.205894   20.234389   22.041015 H          1 MOL1         0.0729
       9    H4      19.511791   18.746772   21.140896 H          1 MOL1         0.0729
      10    C4      20.349000   18.753544   23.156579 C.3        1 MOL1        -0.1909
      11    H5      20.862663   19.470067   23.812123 H          1 MOL1         0.0729
      12    H6      21.069475   17.950942   22.947406 H          1 MOL1         0.0729
      13    C5      19.135627   18.173164   23.919123 C.3        1 MOL1        -0.1884
      14    H7      19.478894   17.794056   24.891588 H          1 MOL1         0.0729
      15    H8      18.415151   18.974156   24.135117 H          1 MOL1         0.0729
      16    C6      18.428379   17.028817   23.161415 C.3        1 MOL1        -0.2899
      17    H9      19.136141   16.228600   22.908664 H          1 MOL1         0.0741
      18    H10     17.632816   16.593409   23.779832 H          1 MOL1         0.0741
      19    H11     17.967767   17.387738   22.232568 H          1 MOL1         0.0741
@<TRIPOS>BOND
    1     1     2    1
    2     1     3    2
    3     1     4    1
    4     4     5    1
    5     4     6    1
    6     4     7    1
    7     7     8    1
    8     7     9    1
    9     7    10    1
   10    10    11    1
   11    10    12    1
   12    10    13    1
   13    13    14    1
   14    13    15    1
   15    13    16    1
   16    16    17    1
   17    16    18    1
   18    16    19    1
@<TRIPOS>SUBSTRUCTURE
       1 MOL1            1 RESIDUE      1      MOL     
@<SCITEGIC>MOL_PROPERTY
VConf Rank
SciTegic.value.IntegerValue
43

@<SCITEGIC>MOL_PROPERTY
Conf_Id
SciTegic.value.IntegerValue
42

@<SCITEGIC>MOL_PROPERTY
Delta U+W
SciTegic.value.DoubleValue
-0.344

@<SCITEGIC>MOL_PROPERTY
U+W
SciTegic.value.DoubleValue
-55.236

@<SCITEGIC>MOL_PROPERTY
Grad RMS
SciTegic.value.DoubleValue
0.000000

@<SCITEGIC>MOL_PROPERTY
U
SciTegic.value.DoubleValue
7.244

@<SCITEGIC>MOL_PROPERTY
W
SciTegic.value.DoubleValue
-62.479

@<SCITEGIC>MOL_PROPERTY
W(PB)
SciTegic.value.DoubleValue
-64.610

@<SCITEGIC>MOL_PROPERTY
W(SA)
SciTegic.value.DoubleValue
2.130

@<SCITEGIC>MOL_PROPERTY
Valence
SciTegic.value.DoubleValue
7.174

@<SCITEGIC>MOL_PROPERTY
Coulomb
SciTegic.value.DoubleValue
-0.669

@<SCITEGIC>MOL_PROPERTY
VdW
SciTegic.value.DoubleValue
0.739

@<SCITEGIC>MOL_PROPERTY
VdW6
SciTegic.value.DoubleValue
-5.969

@<SCITEGIC>MOL_PROPERTY
VdW12
SciTegic.value.DoubleValue
6.708

@<SCITEGIC>MOL_PROPERTY
Bond
SciTegic.value.DoubleValue
0.116

@<SCITEGIC>MOL_PROPERTY
Angle
SciTegic.value.DoubleValue
2.481

@<SCITEGIC>MOL_PROPERTY
Pdih
SciTegic.value.DoubleValue
4.576

@<SCITEGIC>MOL_PROPERTY
Idih
SciTegic.value.DoubleValue
0.000

@<SCITEGIC>MOL_PROPERTY
Tether
SciTegic.value.DoubleValue
0.000

@<TRIPOS>MOLECULE
guest-7_confgen4.mol2 : confsearch ligand conformer 44
          19          18           1
SMALL
USER_CHARGES
 
@<TRIPOS>ATOM
       1    C1      21.003733   18.922930   25.261550 C.2        1 MOL1         0.6115
       2    O1      20.399418   19.772145   25.885937 O.co2      1 MOL1        -0.6776
       3    O2      22.160727   18.623307   25.480262 O.co2      1 MOL1        -0.6776
       4    C2      20.275914   18.206642   24.129423 C.3        1 MOL1        -0.2013
       5    H1      19.214734   18.135954   24.397058 H          1 MOL1         0.0727
       6    H2      20.664001   17.182710   24.069168 H          1 MOL1         0.0727
       7    C3      20.435446   18.920371   22.764291 C.3        1 MOL1        -0.1910
       8    H3      20.058129   19.947591   22.854140 H          1 MOL1         0.0729
       9    H4      21.503126   18.991723   22.514877 H          1 MOL1         0.0729
      10    C4      19.685029   18.175034   21.636459 C.3        1 MOL1        -0.1909
      11    H5      18.610226   18.146811   21.862310 H          1 MOL1         0.0729
      12    H6      20.025220   17.130732   21.610094 H          1 MOL1         0.0729
      13    C5      19.903231   18.797783   20.238188 C.3        1 MOL1        -0.1884
      14    H7      20.976977   18.822610   20.006282 H          1 MOL1         0.0729
      15    H8      19.438238   18.146150   19.485592 H          1 MOL1         0.0729
      16    C6      19.309476   20.216488   20.101874 C.3        1 MOL1        -0.2899
      17    H9      19.824268   20.931008   20.756240 H          1 MOL1         0.0741
      18    H10     19.411747   20.577694   19.070364 H          1 MOL1         0.0741
      19    H11     18.241877   20.221870   20.357529 H          1 MOL1         0.0741
@<TRIPOS>BOND
    1     1     2    1
    2     1     3    2
    3     1     4    1
    4     4     5    1
    5     4     6    1
    6     4     7    1
    7     7     8    1
    8     7     9    1
    9     7    10    1
   10    10    11    1
   11    10    12    1
   12    10    13    1
   13    13    14    1
   14    13    15    1
   15    13    16    1
   16    16    17    1
   17    16    18    1
   18    16    19    1
@<TRIPOS>SUBSTRUCTURE
       1 MOL1            1 RESIDUE      1      MOL     
@<SCITEGIC>MOL_PROPERTY
VConf Rank
SciTegic.value.IntegerValue
44

@<SCITEGIC>MOL_PROPERTY
Conf_Id
SciTegic.value.IntegerValue
41

@<SCITEGIC>MOL_PROPERTY
Delta U+W
SciTegic.value.DoubleValue
-0.361

@<SCITEGIC>MOL_PROPERTY
U+W
SciTegic.value.DoubleValue
-55.252

@<SCITEGIC>MOL_PROPERTY
Grad RMS
SciTegic.value.DoubleValue
0.000000

@<SCITEGIC>MOL_PROPERTY
U
SciTegic.value.DoubleValue
7.244

@<SCITEGIC>MOL_PROPERTY
W
SciTegic.value.DoubleValue
-62.496

@<SCITEGIC>MOL_PROPERTY
W(PB)
SciTegic.value.DoubleValue
-64.596

@<SCITEGIC>MOL_PROPERTY
W(SA)
SciTegic.value.DoubleValue
2.099

@<SCITEGIC>MOL_PROPERTY
Valence
SciTegic.value.DoubleValue
7.174

@<SCITEGIC>MOL_PROPERTY
Coulomb
SciTegic.value.DoubleValue
-0.669

@<SCITEGIC>MOL_PROPERTY
VdW
SciTegic.value.DoubleValue
0.739

@<SCITEGIC>MOL_PROPERTY
VdW6
SciTegic.value.DoubleValue
-5.969

@<SCITEGIC>MOL_PROPERTY
VdW12
SciTegic.value.DoubleValue
6.708

@<SCITEGIC>MOL_PROPERTY
Bond
SciTegic.value.DoubleValue
0.116

@<SCITEGIC>MOL_PROPERTY
Angle
SciTegic.value.DoubleValue
2.481

@<SCITEGIC>MOL_PROPERTY
Pdih
SciTegic.value.DoubleValue
4.576

@<SCITEGIC>MOL_PROPERTY
Idih
SciTegic.value.DoubleValue
0.000

@<SCITEGIC>MOL_PROPERTY
Tether
SciTegic.value.DoubleValue
0.000

@<TRIPOS>MOLECULE
guest-7_confgen4.mol2 : confsearch ligand conformer 45
          19          18           1
SMALL
USER_CHARGES
 
@<TRIPOS>ATOM
       1    C1      21.903158   20.345527   23.771127 C.2        1 MOL1         0.6115
       2    O1      21.295199   21.334369   24.130469 O.co2      1 MOL1        -0.6776
       3    O2      22.549450   19.643793   24.523827 O.co2      1 MOL1        -0.6776
       4    C2      21.872912   19.975390   22.290780 C.3        1 MOL1        -0.2013
       5    H1      22.902503   19.751366   21.987683 H          1 MOL1         0.0727
       6    H2      21.557137   20.854605   21.716104 H          1 MOL1         0.0727
       7    C3      20.961325   18.764861   21.961051 C.3        1 MOL1        -0.1910
       8    H3      21.107809   18.484664   20.909116 H          1 MOL1         0.0729
       9    H4      21.271498   17.900631   22.564816 H          1 MOL1         0.0729
      10    C4      19.465162   19.063787   22.204871 C.3        1 MOL1        -0.1909
      11    H5      19.163260   19.936228   21.609277 H          1 MOL1         0.0729
      12    H6      19.307523   19.328533   23.259614 H          1 MOL1         0.0729
      13    C5      18.574895   17.857392   21.840672 C.3        1 MOL1        -0.1884
      14    H7      18.725247   17.590607   20.785376 H          1 MOL1         0.0729
      15    H8      18.873185   16.983831   22.436816 H          1 MOL1         0.0729
      16    C6      17.082762   18.158798   22.084945 C.3        1 MOL1        -0.2899
      17    H9      16.749345   19.009834   21.476687 H          1 MOL1         0.0741
      18    H10     16.464517   17.290807   21.821411 H          1 MOL1         0.0741
      19    H11     16.898332   18.398585   23.140374 H          1 MOL1         0.0741
@<TRIPOS>BOND
    1     1     2    1
    2     1     3    2
    3     1     4    1
    4     4     5    1
    5     4     6    1
    6     4     7    1
    7     7     8    1
    8     7     9    1
    9     7    10    1
   10    10    11    1
   11    10    12    1
   12    10    13    1
   13    13    14    1
   14    13    15    1
   15    13    16    1
   16    16    17    1
   17    16    18    1
   18    16    19    1
@<TRIPOS>SUBSTRUCTURE
       1 MOL1            1 RESIDUE      1      MOL     
@<SCITEGIC>MOL_PROPERTY
VConf Rank
SciTegic.value.IntegerValue
45

@<SCITEGIC>MOL_PROPERTY
Conf_Id
SciTegic.value.IntegerValue
36

@<SCITEGIC>MOL_PROPERTY
Delta U+W
SciTegic.value.DoubleValue
-0.079

@<SCITEGIC>MOL_PROPERTY
U+W
SciTegic.value.DoubleValue
-54.971

@<SCITEGIC>MOL_PROPERTY
Grad RMS
SciTegic.value.DoubleValue
0.000000

@<SCITEGIC>MOL_PROPERTY
U
SciTegic.value.DoubleValue
8.266

@<SCITEGIC>MOL_PROPERTY
W
SciTegic.value.DoubleValue
-63.237

@<SCITEGIC>MOL_PROPERTY
W(PB)
SciTegic.value.DoubleValue
-65.340

@<SCITEGIC>MOL_PROPERTY
W(SA)
SciTegic.value.DoubleValue
2.103

@<SCITEGIC>MOL_PROPERTY
Valence
SciTegic.value.DoubleValue
6.935

@<SCITEGIC>MOL_PROPERTY
Coulomb
SciTegic.value.DoubleValue
0.874

@<SCITEGIC>MOL_PROPERTY
VdW
SciTegic.value.DoubleValue
0.457

@<SCITEGIC>MOL_PROPERTY
VdW6
SciTegic.value.DoubleValue
-6.205

@<SCITEGIC>MOL_PROPERTY
VdW12
SciTegic.value.DoubleValue
6.662

@<SCITEGIC>MOL_PROPERTY
Bond
SciTegic.value.DoubleValue
0.107

@<SCITEGIC>MOL_PROPERTY
Angle
SciTegic.value.DoubleValue
2.420

@<SCITEGIC>MOL_PROPERTY
Pdih
SciTegic.value.DoubleValue
4.407

@<SCITEGIC>MOL_PROPERTY
Idih
SciTegic.value.DoubleValue
0.001

@<SCITEGIC>MOL_PROPERTY
Tether
SciTegic.value.DoubleValue
0.000

@<TRIPOS>MOLECULE
guest-7_confgen4.mol2 : confsearch ligand conformer 46
          19          18           1
SMALL
USER_CHARGES
 
@<TRIPOS>ATOM
       1    C1      21.380213   21.099219   23.780110 C.2        1 MOL1         0.6115
       2    O1      21.406708   21.946365   22.909367 O.co2      1 MOL1        -0.6776
       3    O2      22.352072   20.778796   24.435472 O.co2      1 MOL1        -0.6776
       4    C2      20.050439   20.414389   24.083517 C.3        1 MOL1        -0.2013
       5    H1      19.238792   21.028010   23.674021 H          1 MOL1         0.0727
       6    H2      19.925419   20.408956   25.172760 H          1 MOL1         0.0727
       7    C3      19.949450   18.964029   23.543750 C.3        1 MOL1        -0.1910
       8    H3      20.784576   18.369462   23.939586 H          1 MOL1         0.0729
       9    H4      19.026612   18.505700   23.924328 H          1 MOL1         0.0729
      10    C4      19.949155   18.903193   21.999856 C.3        1 MOL1        -0.1909
      11    H5      20.877494   19.344711   21.611691 H          1 MOL1         0.0729
      12    H6      19.120636   19.509478   21.608698 H          1 MOL1         0.0729
      13    C5      19.816258   17.454688   21.485290 C.3        1 MOL1        -0.1884
      14    H7      20.645192   16.846511   21.873184 H          1 MOL1         0.0729
      15    H8      18.887124   17.009216   21.866991 H          1 MOL1         0.0729
      16    C6      19.816268   17.397374   19.944610 C.3        1 MOL1        -0.2899
      17    H9      20.748894   17.808550   19.536461 H          1 MOL1         0.0741
      18    H10     19.721585   16.360751   19.595992 H          1 MOL1         0.0741
      19    H11     18.977799   17.972420   19.530246 H          1 MOL1         0.0741
@<TRIPOS>BOND
    1     1     2    1
    2     1     3    2
    3     1     4    1
    4     4     5    1
    5     4     6    1
    6     4     7    1
    7     7     8    1
    8     7     9    1
    9     7    10    1
   10    10    11    1
   11    10    12    1
   12    10    13    1
   13    13    14    1
   14    13    15    1
   15    13    16    1
   16    16    17    1
   17    16    18    1
   18    16    19    1
@<TRIPOS>SUBSTRUCTURE
       1 MOL1            1 RESIDUE      1      MOL     
@<SCITEGIC>MOL_PROPERTY
VConf Rank
SciTegic.value.IntegerValue
46

@<SCITEGIC>MOL_PROPERTY
Conf_Id
SciTegic.value.IntegerValue
35

@<SCITEGIC>MOL_PROPERTY
Delta U+W
SciTegic.value.DoubleValue
-0.030

@<SCITEGIC>MOL_PROPERTY
U+W
SciTegic.value.DoubleValue
-54.921

@<SCITEGIC>MOL_PROPERTY
Grad RMS
SciTegic.value.DoubleValue
0.000000

@<SCITEGIC>MOL_PROPERTY
U
SciTegic.value.DoubleValue
8.267

@<SCITEGIC>MOL_PROPERTY
W
SciTegic.value.DoubleValue
-63.188

@<SCITEGIC>MOL_PROPERTY
W(PB)
SciTegic.value.DoubleValue
-65.294

@<SCITEGIC>MOL_PROPERTY
W(SA)
SciTegic.value.DoubleValue
2.106

@<SCITEGIC>MOL_PROPERTY
Valence
SciTegic.value.DoubleValue
6.935

@<SCITEGIC>MOL_PROPERTY
Coulomb
SciTegic.value.DoubleValue
0.875

@<SCITEGIC>MOL_PROPERTY
VdW
SciTegic.value.DoubleValue
0.457

@<SCITEGIC>MOL_PROPERTY
VdW6
SciTegic.value.DoubleValue
-6.205

@<SCITEGIC>MOL_PROPERTY
VdW12
SciTegic.value.DoubleValue
6.662

@<SCITEGIC>MOL_PROPERTY
Bond
SciTegic.value.DoubleValue
0.107

@<SCITEGIC>MOL_PROPERTY
Angle
SciTegic.value.DoubleValue
2.420

@<SCITEGIC>MOL_PROPERTY
Pdih
SciTegic.value.DoubleValue
4.407

@<SCITEGIC>MOL_PROPERTY
Idih
SciTegic.value.DoubleValue
0.001

@<SCITEGIC>MOL_PROPERTY
Tether
SciTegic.value.DoubleValue
0.000

@<TRIPOS>MOLECULE
guest-7_confgen4.mol2 : confsearch ligand conformer 47
          19          18           1
SMALL
USER_CHARGES
 
@<TRIPOS>ATOM
       1    C1      17.794440   20.410960   23.303110 C.2        1 MOL1         0.6115
       2    O1      17.178125   19.838322   24.180008 O.co2      1 MOL1        -0.6776
       3    O2      17.265634   20.932701   22.341447 O.co2      1 MOL1        -0.6776
       4    C2      19.313008   20.497186   23.429580 C.3        1 MOL1        -0.2013
       5    H1      19.539142   20.792557   24.460945 H          1 MOL1         0.0727
       6    H2      19.673660   21.305440   22.781804 H          1 MOL1         0.0727
       7    C3      20.052141   19.174838   23.096717 C.3        1 MOL1        -0.1910
       8    H3      21.110362   19.290920   23.363255 H          1 MOL1         0.0729
       9    H4      19.653073   18.366737   23.725245 H          1 MOL1         0.0729
      10    C4      19.931399   18.786573   21.603614 C.3        1 MOL1        -0.1909
      11    H5      20.365768   19.578740   20.978623 H          1 MOL1         0.0729
      12    H6      18.868787   18.725191   21.331374 H          1 MOL1         0.0729
      13    C5      20.600171   17.434296   21.264617 C.3        1 MOL1        -0.1884
      14    H7      20.166155   16.639453   21.886844 H          1 MOL1         0.0729
      15    H8      20.364311   17.176383   20.222949 H          1 MOL1         0.0729
      16    C6      22.134498   17.449933   21.436699 C.3        1 MOL1        -0.2899
      17    H9      22.418908   17.587600   22.487308 H          1 MOL1         0.0741
      18    H10     22.568112   16.500322   21.097356 H          1 MOL1         0.0741
      19    H11     22.587733   18.257900   20.847704 H          1 MOL1         0.0741
@<TRIPOS>BOND
    1     1     2    1
    2     1     3    2
    3     1     4    1
    4     4     5    1
    5     4     6    1
    6     4     7    1
    7     7     8    1
    8     7     9    1
    9     7    10    1
   10    10    11    1
   11    10    12    1
   12    10    13    1
   13    13    14    1
   14    13    15    1
   15    13    16    1
   16    16    17    1
   17    16    18    1
   18    16    19    1
@<TRIPOS>SUBSTRUCTURE
       1 MOL1            1 RESIDUE      1      MOL     
@<SCITEGIC>MOL_PROPERTY
VConf Rank
SciTegic.value.IntegerValue
47

@<SCITEGIC>MOL_PROPERTY
Conf_Id
SciTegic.value.IntegerValue
74

@<SCITEGIC>MOL_PROPERTY
Delta U+W
SciTegic.value.DoubleValue
0.797

@<SCITEGIC>MOL_PROPERTY
U+W
SciTegic.value.DoubleValue
-54.095

@<SCITEGIC>MOL_PROPERTY
Grad RMS
SciTegic.value.DoubleValue
0.000000

@<SCITEGIC>MOL_PROPERTY
U
SciTegic.value.DoubleValue
8.869

@<SCITEGIC>MOL_PROPERTY
W
SciTegic.value.DoubleValue
-62.964

@<SCITEGIC>MOL_PROPERTY
W(PB)
SciTegic.value.DoubleValue
-65.046

@<SCITEGIC>MOL_PROPERTY
W(SA)
SciTegic.value.DoubleValue
2.082

@<SCITEGIC>MOL_PROPERTY
Valence
SciTegic.value.DoubleValue
7.469

@<SCITEGIC>MOL_PROPERTY
Coulomb
SciTegic.value.DoubleValue
0.762

@<SCITEGIC>MOL_PROPERTY
VdW
SciTegic.value.DoubleValue
0.639

@<SCITEGIC>MOL_PROPERTY
VdW6
SciTegic.value.DoubleValue
-6.782

@<SCITEGIC>MOL_PROPERTY
VdW12
SciTegic.value.DoubleValue
7.421

@<SCITEGIC>MOL_PROPERTY
Bond
SciTegic.value.DoubleValue
0.141

@<SCITEGIC>MOL_PROPERTY
Angle
SciTegic.value.DoubleValue
2.667

@<SCITEGIC>MOL_PROPERTY
Pdih
SciTegic.value.DoubleValue
4.660

@<SCITEGIC>MOL_PROPERTY
Idih
SciTegic.value.DoubleValue
0.001

@<SCITEGIC>MOL_PROPERTY
Tether
SciTegic.value.DoubleValue
0.000

@<TRIPOS>MOLECULE
guest-7_confgen4.mol2 : confsearch ligand conformer 48
          19          18           1
SMALL
USER_CHARGES
 
@<TRIPOS>ATOM
       1    C1      17.507282   17.566565   21.507271 C.2        1 MOL1         0.6115
       2    O1      17.158329   17.183632   20.408172 O.co2      1 MOL1        -0.6776
       3    O2      17.073218   17.111117   22.546731 O.co2      1 MOL1        -0.6776
       4    C2      18.561099   18.665439   21.585781 C.3        1 MOL1        -0.2013
       5    H1      18.353259   19.263875   22.480117 H          1 MOL1         0.0727
       6    H2      18.434387   19.322289   20.716962 H          1 MOL1         0.0727
       7    C3      20.007652   18.108465   21.628833 C.3        1 MOL1        -0.1910
       8    H3      20.134076   17.483392   22.522745 H          1 MOL1         0.0729
       9    H4      20.154009   17.440959   20.768476 H          1 MOL1         0.0729
      10    C4      21.096772   19.209808   21.588985 C.3        1 MOL1        -0.1909
      11    H5      21.015429   19.756358   20.639532 H          1 MOL1         0.0729
      12    H6      22.084309   18.728732   21.578123 H          1 MOL1         0.0729
      13    C5      21.048976   20.227593   22.755060 C.3        1 MOL1        -0.1884
      14    H7      21.853318   20.962022   22.611091 H          1 MOL1         0.0729
      15    H8      20.110271   20.796338   22.723899 H          1 MOL1         0.0729
      16    C6      21.216131   19.574505   24.143919 C.3        1 MOL1        -0.2899
      17    H9      22.138420   18.981009   24.190586 H          1 MOL1         0.0741
      18    H10     21.267823   20.342877   24.926062 H          1 MOL1         0.0741
      19    H11     20.370026   18.916591   24.379551 H          1 MOL1         0.0741
@<TRIPOS>BOND
    1     1     2    1
    2     1     3    2
    3     1     4    1
    4     4     5    1
    5     4     6    1
    6     4     7    1
    7     7     8    1
    8     7     9    1
    9     7    10    1
   10    10    11    1
   11    10    12    1
   12    10    13    1
   13    13    14    1
   14    13    15    1
   15    13    16    1
   16    16    17    1
   17    16    18    1
   18    16    19    1
@<TRIPOS>SUBSTRUCTURE
       1 MOL1            1 RESIDUE      1      MOL     
@<SCITEGIC>MOL_PROPERTY
VConf Rank
SciTegic.value.IntegerValue
48

@<SCITEGIC>MOL_PROPERTY
Conf_Id
SciTegic.value.IntegerValue
67

@<SCITEGIC>MOL_PROPERTY
Delta U+W
SciTegic.value.DoubleValue
0.308

@<SCITEGIC>MOL_PROPERTY
U+W
SciTegic.value.DoubleValue
-54.583

@<SCITEGIC>MOL_PROPERTY
Grad RMS
SciTegic.value.DoubleValue
0.000000

@<SCITEGIC>MOL_PROPERTY
U
SciTegic.value.DoubleValue
8.219

@<SCITEGIC>MOL_PROPERTY
W
SciTegic.value.DoubleValue
-62.802

@<SCITEGIC>MOL_PROPERTY
W(PB)
SciTegic.value.DoubleValue
-64.859

@<SCITEGIC>MOL_PROPERTY
W(SA)
SciTegic.value.DoubleValue
2.057

@<SCITEGIC>MOL_PROPERTY
Valence
SciTegic.value.DoubleValue
7.609

@<SCITEGIC>MOL_PROPERTY
Coulomb
SciTegic.value.DoubleValue
-0.089

@<SCITEGIC>MOL_PROPERTY
VdW
SciTegic.value.DoubleValue
0.699

@<SCITEGIC>MOL_PROPERTY
VdW6
SciTegic.value.DoubleValue
-6.924

@<SCITEGIC>MOL_PROPERTY
VdW12
SciTegic.value.DoubleValue
7.623

@<SCITEGIC>MOL_PROPERTY
Bond
SciTegic.value.DoubleValue
0.163

@<SCITEGIC>MOL_PROPERTY
Angle
SciTegic.value.DoubleValue
2.870

@<SCITEGIC>MOL_PROPERTY
Pdih
SciTegic.value.DoubleValue
4.576

@<SCITEGIC>MOL_PROPERTY
Idih
SciTegic.value.DoubleValue
0.001

@<SCITEGIC>MOL_PROPERTY
Tether
SciTegic.value.DoubleValue
0.000

@<TRIPOS>MOLECULE
guest-7_confgen4.mol2 : confsearch ligand conformer 49
          19          18           1
SMALL
USER_CHARGES
 
@<TRIPOS>ATOM
       1    C1      22.059124   19.679083   20.373052 C.2        1 MOL1         0.6115
       2    O1      23.207753   19.291692   20.289379 O.co2      1 MOL1        -0.6776
       3    O2      21.671673   20.736651   19.917252 O.co2      1 MOL1        -0.6776
       4    C2      21.054035   18.798633   21.107096 C.3        1 MOL1        -0.2013
       5    H1      21.340490   17.751621   20.951967 H          1 MOL1         0.0727
       6    H2      20.076031   18.942705   20.633904 H          1 MOL1         0.0727
       7    C3      20.975418   19.112646   22.623606 C.3        1 MOL1        -0.1910
       8    H3      21.986169   19.048592   23.049607 H          1 MOL1         0.0729
       9    H4      20.650982   20.151836   22.767149 H          1 MOL1         0.0729
      10    C4      20.048135   18.150566   23.407999 C.3        1 MOL1        -0.1909
      11    H5      20.085811   18.415295   24.473494 H          1 MOL1         0.0729
      12    H6      20.449828   17.130731   23.334697 H          1 MOL1         0.0729
      13    C5      18.569650   18.137640   22.947766 C.3        1 MOL1        -0.1884
      14    H7      18.497329   17.774692   21.914012 H          1 MOL1         0.0729
      15    H8      18.018525   17.412967   23.562739 H          1 MOL1         0.0729
      16    C6      17.880507   19.514077   23.065672 C.3        1 MOL1        -0.2899
      17    H9      18.327594   20.243924   22.378864 H          1 MOL1         0.0741
      18    H10     16.814594   19.432640   22.816647 H          1 MOL1         0.0741
      19    H11     17.960615   19.907356   24.087407 H          1 MOL1         0.0741
@<TRIPOS>BOND
    1     1     2    1
    2     1     3    2
    3     1     4    1
    4     4     5    1
    5     4     6    1
    6     4     7    1
    7     7     8    1
    8     7     9    1
    9     7    10    1
   10    10    11    1
   11    10    12    1
   12    10    13    1
   13    13    14    1
   14    13    15    1
   15    13    16    1
   16    16    17    1
   17    16    18    1
   18    16    19    1
@<TRIPOS>SUBSTRUCTURE
       1 MOL1            1 RESIDUE      1      MOL     
@<SCITEGIC>MOL_PROPERTY
VConf Rank
SciTegic.value.IntegerValue
49

@<SCITEGIC>MOL_PROPERTY
Conf_Id
SciTegic.value.IntegerValue
21

@<SCITEGIC>MOL_PROPERTY
Delta U+W
SciTegic.value.DoubleValue
0.319

@<SCITEGIC>MOL_PROPERTY
U+W
SciTegic.value.DoubleValue
-54.572

@<SCITEGIC>MOL_PROPERTY
Grad RMS
SciTegic.value.DoubleValue
0.000000

@<SCITEGIC>MOL_PROPERTY
U
SciTegic.value.DoubleValue
8.220

@<SCITEGIC>MOL_PROPERTY
W
SciTegic.value.DoubleValue
-62.792

@<SCITEGIC>MOL_PROPERTY
W(PB)
SciTegic.value.DoubleValue
-64.830

@<SCITEGIC>MOL_PROPERTY
W(SA)
SciTegic.value.DoubleValue
2.038

@<SCITEGIC>MOL_PROPERTY
Valence
SciTegic.value.DoubleValue
7.609

@<SCITEGIC>MOL_PROPERTY
Coulomb
SciTegic.value.DoubleValue
-0.088

@<SCITEGIC>MOL_PROPERTY
VdW
SciTegic.value.DoubleValue
0.699

@<SCITEGIC>MOL_PROPERTY
VdW6
SciTegic.value.DoubleValue
-6.924

@<SCITEGIC>MOL_PROPERTY
VdW12
SciTegic.value.DoubleValue
7.623

@<SCITEGIC>MOL_PROPERTY
Bond
SciTegic.value.DoubleValue
0.163

@<SCITEGIC>MOL_PROPERTY
Angle
SciTegic.value.DoubleValue
2.870

@<SCITEGIC>MOL_PROPERTY
Pdih
SciTegic.value.DoubleValue
4.576

@<SCITEGIC>MOL_PROPERTY
Idih
SciTegic.value.DoubleValue
0.000

@<SCITEGIC>MOL_PROPERTY
Tether
SciTegic.value.DoubleValue
0.000

@<TRIPOS>MOLECULE
guest-7_confgen4.mol2 : confsearch ligand conformer 50
          19          18           1
SMALL
USER_CHARGES
 
@<TRIPOS>ATOM
       1    C1      20.911736   16.270530   21.618241 C.2        1 MOL1         0.6115
       2    O1      21.874835   15.642276   22.010894 O.co2      1 MOL1        -0.6776
       3    O2      19.925973   15.754411   21.130240 O.co2      1 MOL1        -0.6776
       4    C2      20.934386   17.787973   21.762937 C.3        1 MOL1        -0.2013
       5    H1      20.364910   18.213127   20.930613 H          1 MOL1         0.0727
       6    H2      21.971542   18.123541   21.644256 H          1 MOL1         0.0727
       7    C3      20.373101   18.269818   23.126894 C.3        1 MOL1        -0.1910
       8    H3      19.354225   17.885631   23.273774 H          1 MOL1         0.0729
       9    H4      20.986112   17.822098   23.921349 H          1 MOL1         0.0729
      10    C4      20.394680   19.810537   23.293224 C.3        1 MOL1        -0.1909
      11    H5      21.224299   20.244179   22.718258 H          1 MOL1         0.0729
      12    H6      20.610790   20.037112   24.346283 H          1 MOL1         0.0729
      13    C5      19.066884   20.518806   22.928229 C.3        1 MOL1        -0.1884
      14    H7      18.259491   20.141411   23.570837 H          1 MOL1         0.0729
      15    H8      19.168040   21.588362   23.158471 H          1 MOL1         0.0729
      16    C6      18.655451   20.369070   21.449041 C.3        1 MOL1        -0.2899
      17    H9      17.783745   20.998397   21.227928 H          1 MOL1         0.0741
      18    H10     19.471041   20.672716   20.780020 H          1 MOL1         0.0741
      19    H11     18.380633   19.332285   21.218068 H          1 MOL1         0.0741
@<TRIPOS>BOND
    1     1     2    1
    2     1     3    2
    3     1     4    1
    4     4     5    1
    5     4     6    1
    6     4     7    1
    7     7     8    1
    8     7     9    1
    9     7    10    1
   10    10    11    1
   11    10    12    1
   12    10    13    1
   13    13    14    1
   14    13    15    1
   15    13    16    1
   16    16    17    1
   17    16    18    1
   18    16    19    1
@<TRIPOS>SUBSTRUCTURE
       1 MOL1            1 RESIDUE      1      MOL     
@<SCITEGIC>MOL_PROPERTY
VConf Rank
SciTegic.value.IntegerValue
50

@<SCITEGIC>MOL_PROPERTY
Conf_Id
SciTegic.value.IntegerValue
24

@<SCITEGIC>MOL_PROPERTY
Delta U+W
SciTegic.value.DoubleValue
2.477

@<SCITEGIC>MOL_PROPERTY
U+W
SciTegic.value.DoubleValue
-52.414

@<SCITEGIC>MOL_PROPERTY
Grad RMS
SciTegic.value.DoubleValue
0.000000

@<SCITEGIC>MOL_PROPERTY
U
SciTegic.value.DoubleValue
10.422

@<SCITEGIC>MOL_PROPERTY
W
SciTegic.value.DoubleValue
-62.836

@<SCITEGIC>MOL_PROPERTY
W(PB)
SciTegic.value.DoubleValue
-64.906

@<SCITEGIC>MOL_PROPERTY
W(SA)
SciTegic.value.DoubleValue
2.070

@<SCITEGIC>MOL_PROPERTY
Valence
SciTegic.value.DoubleValue
9.628

@<SCITEGIC>MOL_PROPERTY
Coulomb
SciTegic.value.DoubleValue
0.101

@<SCITEGIC>MOL_PROPERTY
VdW
SciTegic.value.DoubleValue
0.693

@<SCITEGIC>MOL_PROPERTY
VdW6
SciTegic.value.DoubleValue
-6.927

@<SCITEGIC>MOL_PROPERTY
VdW12
SciTegic.value.DoubleValue
7.620

@<SCITEGIC>MOL_PROPERTY
Bond
SciTegic.value.DoubleValue
0.173

@<SCITEGIC>MOL_PROPERTY
Angle
SciTegic.value.DoubleValue
2.989

@<SCITEGIC>MOL_PROPERTY
Pdih
SciTegic.value.DoubleValue
6.465

@<SCITEGIC>MOL_PROPERTY
Idih
SciTegic.value.DoubleValue
0.001

@<SCITEGIC>MOL_PROPERTY
Tether
SciTegic.value.DoubleValue
0.000

@<TRIPOS>MOLECULE
guest-7_confgen4.mol2 : confsearch ligand conformer 51
          19          18           1
SMALL
USER_CHARGES
 
@<TRIPOS>ATOM
       1    C1      18.350298   18.521630   24.455181 C.2        1 MOL1         0.6115
       2    O1      18.959547   19.210054   25.249901 O.co2      1 MOL1        -0.6776
       3    O2      17.154582   18.315512   24.524841 O.co2      1 MOL1        -0.6776
       4    C2      19.130400   17.855277   23.324851 C.3        1 MOL1        -0.2013
       5    H1      18.834246   16.799967   23.305617 H          1 MOL1         0.0727
       6    H2      20.194661   17.877431   23.579979 H          1 MOL1         0.0727
       7    C3      18.877892   18.484912   21.926732 C.3        1 MOL1        -0.1910
       8    H3      19.300321   17.838416   21.145816 H          1 MOL1         0.0729
       9    H4      17.793099   18.499874   21.751986 H          1 MOL1         0.0729
      10    C4      19.429163   19.925969   21.768835 C.3        1 MOL1        -0.1909
      11    H5      19.419579   20.449827   22.734385 H          1 MOL1         0.0729
      12    H6      18.740618   20.484871   21.120516 H          1 MOL1         0.0729
      13    C5      20.839041   20.012128   21.134228 C.3        1 MOL1        -0.1884
      14    H7      20.819957   19.565723   20.130455 H          1 MOL1         0.0729
      15    H8      21.093404   21.071799   20.994405 H          1 MOL1         0.0729
      16    C6      21.949707   19.344461   21.971006 C.3        1 MOL1        -0.2899
      17    H9      21.826512   18.254666   21.993958 H          1 MOL1         0.0741
      18    H10     22.936106   19.556518   21.538773 H          1 MOL1         0.0741
      19    H11     21.943671   19.718826   23.003140 H          1 MOL1         0.0741
@<TRIPOS>BOND
    1     1     2    1
    2     1     3    2
    3     1     4    1
    4     4     5    1
    5     4     6    1
    6     4     7    1
    7     7     8    1
    8     7     9    1
    9     7    10    1
   10    10    11    1
   11    10    12    1
   12    10    13    1
   13    13    14    1
   14    13    15    1
   15    13    16    1
   16    16    17    1
   17    16    18    1
   18    16    19    1
@<TRIPOS>SUBSTRUCTURE
       1 MOL1            1 RESIDUE      1      MOL     
@<SCITEGIC>MOL_PROPERTY
VConf Rank
SciTegic.value.IntegerValue
51

@<SCITEGIC>MOL_PROPERTY
Conf_Id
SciTegic.value.IntegerValue
4

@<SCITEGIC>MOL_PROPERTY
Delta U+W
SciTegic.value.DoubleValue
3.753

@<SCITEGIC>MOL_PROPERTY
U+W
SciTegic.value.DoubleValue
-51.138

@<SCITEGIC>MOL_PROPERTY
Grad RMS
SciTegic.value.DoubleValue
0.000000

@<SCITEGIC>MOL_PROPERTY
U
SciTegic.value.DoubleValue
12.334

@<SCITEGIC>MOL_PROPERTY
W
SciTegic.value.DoubleValue
-63.472

@<SCITEGIC>MOL_PROPERTY
W(PB)
SciTegic.value.DoubleValue
-65.500

@<SCITEGIC>MOL_PROPERTY
W(SA)
SciTegic.value.DoubleValue
2.028

@<SCITEGIC>MOL_PROPERTY
Valence
SciTegic.value.DoubleValue
9.984

@<SCITEGIC>MOL_PROPERTY
Coulomb
SciTegic.value.DoubleValue
1.767

@<SCITEGIC>MOL_PROPERTY
VdW
SciTegic.value.DoubleValue
0.583

@<SCITEGIC>MOL_PROPERTY
VdW6
SciTegic.value.DoubleValue
-7.767

@<SCITEGIC>MOL_PROPERTY
VdW12
SciTegic.value.DoubleValue
8.349

@<SCITEGIC>MOL_PROPERTY
Bond
SciTegic.value.DoubleValue
0.203

@<SCITEGIC>MOL_PROPERTY
Angle
SciTegic.value.DoubleValue
3.191

@<SCITEGIC>MOL_PROPERTY
Pdih
SciTegic.value.DoubleValue
6.589

@<SCITEGIC>MOL_PROPERTY
Idih
SciTegic.value.DoubleValue
0.001

@<SCITEGIC>MOL_PROPERTY
Tether
SciTegic.value.DoubleValue
0.000

@<TRIPOS>MOLECULE
guest-7_confgen4.mol2 : confsearch ligand conformer 52
          19          18           1
SMALL
USER_CHARGES
 
@<TRIPOS>ATOM
       1    C1      18.349424   19.256713   24.463982 C.2        1 MOL1         0.6115
       2    O1      17.968960   20.276659   25.004382 O.co2      1 MOL1        -0.6776
       3    O2      17.627085   18.304491   24.244454 O.co2      1 MOL1        -0.6776
       4    C2      19.820241   19.158415   24.067415 C.3        1 MOL1        -0.2013
       5    H1      20.062009   18.104630   23.896201 H          1 MOL1         0.0727
       6    H2      20.410979   19.479186   24.933377 H          1 MOL1         0.0727
       7    C3      20.201510   20.026244   22.835976 C.3        1 MOL1        -0.1910
       8    H3      19.875838   21.057073   23.033116 H          1 MOL1         0.0729
       9    H4      21.294316   20.069230   22.735172 H          1 MOL1         0.0729
      10    C4      19.570589   19.549656   21.501706 C.3        1 MOL1        -0.1909
      11    H5      19.346320   20.437425   20.894786 H          1 MOL1         0.0729
      12    H6      18.603024   19.062989   21.685493 H          1 MOL1         0.0729
      13    C5      20.476237   18.622974   20.653788 C.3        1 MOL1        -0.1884
      14    H7      19.967972   18.415910   19.701976 H          1 MOL1         0.0729
      15    H8      21.405988   19.149326   20.397435 H          1 MOL1         0.0729
      16    C6      20.817751   17.280672   21.332870 C.3        1 MOL1        -0.2899
      17    H9      19.907394   16.766126   21.667502 H          1 MOL1         0.0741
      18    H10     21.343740   16.619000   20.632653 H          1 MOL1         0.0741
      19    H11     21.472550   17.431497   22.199961 H          1 MOL1         0.0741
@<TRIPOS>BOND
    1     1     2    1
    2     1     3    2
    3     1     4    1
    4     4     5    1
    5     4     6    1
    6     4     7    1
    7     7     8    1
    8     7     9    1
    9     7    10    1
   10    10    11    1
   11    10    12    1
   12    10    13    1
   13    13    14    1
   14    13    15    1
   15    13    16    1
   16    16    17    1
   17    16    18    1
   18    16    19    1
@<TRIPOS>SUBSTRUCTURE
       1 MOL1            1 RESIDUE      1      MOL     
@<SCITEGIC>MOL_PROPERTY
VConf Rank
SciTegic.value.IntegerValue
52

@<SCITEGIC>MOL_PROPERTY
Conf_Id
SciTegic.value.IntegerValue
73

@<SCITEGIC>MOL_PROPERTY
Delta U+W
SciTegic.value.DoubleValue
3.707

@<SCITEGIC>MOL_PROPERTY
U+W
SciTegic.value.DoubleValue
-51.184

@<SCITEGIC>MOL_PROPERTY
Grad RMS
SciTegic.value.DoubleValue
0.000000

@<SCITEGIC>MOL_PROPERTY
U
SciTegic.value.DoubleValue
12.334

@<SCITEGIC>MOL_PROPERTY
W
SciTegic.value.DoubleValue
-63.519

@<SCITEGIC>MOL_PROPERTY
W(PB)
SciTegic.value.DoubleValue
-65.541

@<SCITEGIC>MOL_PROPERTY
W(SA)
SciTegic.value.DoubleValue
2.022

@<SCITEGIC>MOL_PROPERTY
Valence
SciTegic.value.DoubleValue
9.984

@<SCITEGIC>MOL_PROPERTY
Coulomb
SciTegic.value.DoubleValue
1.768

@<SCITEGIC>MOL_PROPERTY
VdW
SciTegic.value.DoubleValue
0.583

@<SCITEGIC>MOL_PROPERTY
VdW6
SciTegic.value.DoubleValue
-7.767

@<SCITEGIC>MOL_PROPERTY
VdW12
SciTegic.value.DoubleValue
8.350

@<SCITEGIC>MOL_PROPERTY
Bond
SciTegic.value.DoubleValue
0.203

@<SCITEGIC>MOL_PROPERTY
Angle
SciTegic.value.DoubleValue
3.192

@<SCITEGIC>MOL_PROPERTY
Pdih
SciTegic.value.DoubleValue
6.589

@<SCITEGIC>MOL_PROPERTY
Idih
SciTegic.value.DoubleValue
0.001

@<SCITEGIC>MOL_PROPERTY
Tether
SciTegic.value.DoubleValue
0.000

@<TRIPOS>MOLECULE
guest-7_confgen4.mol2 : confsearch ligand conformer 53
          19          18           1
SMALL
USER_CHARGES
 
@<TRIPOS>ATOM
       1    C1      20.414405   16.497241   22.338503 C.2        1 MOL1         0.6115
       2    O1      21.255641   16.519131   23.215177 O.co2      1 MOL1        -0.6776
       3    O2      19.666975   15.557771   22.149018 O.co2      1 MOL1        -0.6776
       4    C2      20.310186   17.699085   21.403605 C.3        1 MOL1        -0.2013
       5    H1      20.326906   17.316147   20.376595 H          1 MOL1         0.0727
       6    H2      21.209698   18.314412   21.519993 H          1 MOL1         0.0727
       7    C3      19.031790   18.556293   21.611364 C.3        1 MOL1        -0.1910
       8    H3      19.001518   19.349983   20.853732 H          1 MOL1         0.0729
       9    H4      18.151604   17.926252   21.423131 H          1 MOL1         0.0729
      10    C4      18.901569   19.179997   23.024916 C.3        1 MOL1        -0.1909
      11    H5      18.810520   18.373436   23.765356 H          1 MOL1         0.0729
      12    H6      17.960299   19.743914   23.075912 H          1 MOL1         0.0729
      13    C5      20.065856   20.110128   23.445051 C.3        1 MOL1        -0.1884
      14    H7      19.871623   20.475078   24.462883 H          1 MOL1         0.0729
      15    H8      21.002739   19.539642   23.501976 H          1 MOL1         0.0729
      16    C6      20.248378   21.323823   22.508406 C.3        1 MOL1        -0.2899
      17    H9      20.556184   21.009153   21.503344 H          1 MOL1         0.0741
      18    H10     19.315650   21.895945   22.420623 H          1 MOL1         0.0741
      19    H11     21.023090   21.996615   22.898236 H          1 MOL1         0.0741
@<TRIPOS>BOND
    1     1     2    1
    2     1     3    2
    3     1     4    1
    4     4     5    1
    5     4     6    1
    6     4     7    1
    7     7     8    1
    8     7     9    1
    9     7    10    1
   10    10    11    1
   11    10    12    1
   12    10    13    1
   13    13    14    1
   14    13    15    1
   15    13    16    1
   16    16    17    1
   17    16    18    1
   18    16    19    1
@<TRIPOS>SUBSTRUCTURE
       1 MOL1            1 RESIDUE      1      MOL     
@<SCITEGIC>MOL_PROPERTY
VConf Rank
SciTegic.value.IntegerValue
53

@<SCITEGIC>MOL_PROPERTY
Conf_Id
SciTegic.value.IntegerValue
56

@<SCITEGIC>MOL_PROPERTY
Delta U+W
SciTegic.value.DoubleValue
1.735

@<SCITEGIC>MOL_PROPERTY
U+W
SciTegic.value.DoubleValue
-53.156

@<SCITEGIC>MOL_PROPERTY
Grad RMS
SciTegic.value.DoubleValue
0.000000

@<SCITEGIC>MOL_PROPERTY
U
SciTegic.value.DoubleValue
10.214

@<SCITEGIC>MOL_PROPERTY
W
SciTegic.value.DoubleValue
-63.370

@<SCITEGIC>MOL_PROPERTY
W(PB)
SciTegic.value.DoubleValue
-65.388

@<SCITEGIC>MOL_PROPERTY
W(SA)
SciTegic.value.DoubleValue
2.018

@<SCITEGIC>MOL_PROPERTY
Valence
SciTegic.value.DoubleValue
7.868

@<SCITEGIC>MOL_PROPERTY
Coulomb
SciTegic.value.DoubleValue
1.968

@<SCITEGIC>MOL_PROPERTY
VdW
SciTegic.value.DoubleValue
0.378

@<SCITEGIC>MOL_PROPERTY
VdW6
SciTegic.value.DoubleValue
-8.067

@<SCITEGIC>MOL_PROPERTY
VdW12
SciTegic.value.DoubleValue
8.445

@<SCITEGIC>MOL_PROPERTY
Bond
SciTegic.value.DoubleValue
0.191

@<SCITEGIC>MOL_PROPERTY
Angle
SciTegic.value.DoubleValue
3.117

@<SCITEGIC>MOL_PROPERTY
Pdih
SciTegic.value.DoubleValue
4.559

@<SCITEGIC>MOL_PROPERTY
Idih
SciTegic.value.DoubleValue
0.001

@<SCITEGIC>MOL_PROPERTY
Tether
SciTegic.value.DoubleValue
0.000

@<TRIPOS>MOLECULE
guest-7_confgen4.mol2 : confsearch ligand conformer 54
          19          18           1
SMALL
USER_CHARGES
 
@<TRIPOS>ATOM
       1    C1      22.108891   17.952793   24.010845 C.2        1 MOL1         0.6115
       2    O1      22.931876   18.682334   24.527401 O.co2      1 MOL1        -0.6776
       3    O2      22.205893   16.741869   23.985811 O.co2      1 MOL1        -0.6776
       4    C2      20.899582   18.593203   23.338770 C.3        1 MOL1        -0.2013
       5    H1      20.659515   19.517815   23.877135 H          1 MOL1         0.0727
       6    H2      20.051923   17.909846   23.461278 H          1 MOL1         0.0727
       7    C3      21.135661   18.893194   21.837021 C.3        1 MOL1        -0.1910
       8    H3      22.071209   19.460377   21.734778 H          1 MOL1         0.0729
       9    H4      21.289334   17.947499   21.299211 H          1 MOL1         0.0729
      10    C4      19.997934   19.697666   21.159604 C.3        1 MOL1        -0.1909
      11    H5      20.303356   19.891841   20.122306 H          1 MOL1         0.0729
      12    H6      19.900920   20.684910   21.631767 H          1 MOL1         0.0729
      13    C5      18.625862   18.979526   21.131315 C.3        1 MOL1        -0.1884
      14    H7      18.119303   19.228532   20.188587 H          1 MOL1         0.0729
      15    H8      18.765930   17.889739   21.123980 H          1 MOL1         0.0729
      16    C6      17.696910   19.392781   22.294498 C.3        1 MOL1        -0.2899
      17    H9      16.733927   18.871267   22.219927 H          1 MOL1         0.0741
      18    H10     18.132194   19.152465   23.270918 H          1 MOL1         0.0741
      19    H11     17.496604   20.471842   22.269281 H          1 MOL1         0.0741
@<TRIPOS>BOND
    1     1     2    1
    2     1     3    2
    3     1     4    1
    4     4     5    1
    5     4     6    1
    6     4     7    1
    7     7     8    1
    8     7     9    1
    9     7    10    1
   10    10    11    1
   11    10    12    1
   12    10    13    1
   13    13    14    1
   14    13    15    1
   15    13    16    1
   16    16    17    1
   17    16    18    1
   18    16    19    1
@<TRIPOS>SUBSTRUCTURE
       1 MOL1            1 RESIDUE      1      MOL     
@<SCITEGIC>MOL_PROPERTY
VConf Rank
SciTegic.value.IntegerValue
54

@<SCITEGIC>MOL_PROPERTY
Conf_Id
SciTegic.value.IntegerValue
53

@<SCITEGIC>MOL_PROPERTY
Delta U+W
SciTegic.value.DoubleValue
2.279

@<SCITEGIC>MOL_PROPERTY
U+W
SciTegic.value.DoubleValue
-52.612

@<SCITEGIC>MOL_PROPERTY
Grad RMS
SciTegic.value.DoubleValue
0.000000

@<SCITEGIC>MOL_PROPERTY
U
SciTegic.value.DoubleValue
10.231

@<SCITEGIC>MOL_PROPERTY
W
SciTegic.value.DoubleValue
-62.843

@<SCITEGIC>MOL_PROPERTY
W(PB)
SciTegic.value.DoubleValue
-64.893

@<SCITEGIC>MOL_PROPERTY
W(SA)
SciTegic.value.DoubleValue
2.050

@<SCITEGIC>MOL_PROPERTY
Valence
SciTegic.value.DoubleValue
9.644

@<SCITEGIC>MOL_PROPERTY
Coulomb
SciTegic.value.DoubleValue
-0.164

@<SCITEGIC>MOL_PROPERTY
VdW
SciTegic.value.DoubleValue
0.751

@<SCITEGIC>MOL_PROPERTY
VdW6
SciTegic.value.DoubleValue
-6.881

@<SCITEGIC>MOL_PROPERTY
VdW12
SciTegic.value.DoubleValue
7.631

@<SCITEGIC>MOL_PROPERTY
Bond
SciTegic.value.DoubleValue
0.163

@<SCITEGIC>MOL_PROPERTY
Angle
SciTegic.value.DoubleValue
2.998

@<SCITEGIC>MOL_PROPERTY
Pdih
SciTegic.value.DoubleValue
6.482

@<SCITEGIC>MOL_PROPERTY
Idih
SciTegic.value.DoubleValue
0.001

@<SCITEGIC>MOL_PROPERTY
Tether
SciTegic.value.DoubleValue
0.000

@<TRIPOS>MOLECULE
guest-7_confgen4.mol2 : confsearch ligand conformer 55
          19          18           1
SMALL
USER_CHARGES
 
@<TRIPOS>ATOM
       1    C1      20.384217   20.739383   24.062458 C.2        1 MOL1         0.6115
       2    O1      20.793129   21.650748   23.370317 O.co2      1 MOL1        -0.6776
       3    O2      20.965541   20.336342   25.050824 O.co2      1 MOL1        -0.6776
       4    C2      19.034581   20.116718   23.709961 C.3        1 MOL1        -0.2013
       5    H1      18.623447   20.629540   22.831949 H          1 MOL1         0.0727
       6    H2      18.363356   20.341460   24.546962 H          1 MOL1         0.0727
       7    C3      19.053153   18.579851   23.475824 C.3        1 MOL1        -0.1910
       8    H3      19.649226   18.088943   24.257647 H          1 MOL1         0.0729
       9    H4      18.027664   18.206093   23.598681 H          1 MOL1         0.0729
      10    C4      19.549722   18.141996   22.075689 C.3        1 MOL1        -0.1909
      11    H5      18.945190   18.630552   21.299359 H          1 MOL1         0.0729
      12    H6      19.371727   17.062870   21.971692 H          1 MOL1         0.0729
      13    C5      21.046937   18.423828   21.821735 C.3        1 MOL1        -0.1884
      14    H7      21.226323   19.506030   21.789092 H          1 MOL1         0.0729
      15    H8      21.647156   18.023105   22.650321 H          1 MOL1         0.0729
      16    C6      21.522389   17.800499   20.493864 C.3        1 MOL1        -0.2899
      17    H9      20.954499   18.204483   19.645538 H          1 MOL1         0.0741
      18    H10     22.585137   18.016971   20.324301 H          1 MOL1         0.0741
      19    H11     21.396205   16.709947   20.503480 H          1 MOL1         0.0741
@<TRIPOS>BOND
    1     1     2    1
    2     1     3    2
    3     1     4    1
    4     4     5    1
    5     4     6    1
    6     4     7    1
    7     7     8    1
    8     7     9    1
    9     7    10    1
   10    10    11    1
   11    10    12    1
   12    10    13    1
   13    13    14    1
   14    13    15    1
   15    13    16    1
   16    16    17    1
   17    16    18    1
   18    16    19    1
@<TRIPOS>SUBSTRUCTURE
       1 MOL1            1 RESIDUE      1      MOL     
@<SCITEGIC>MOL_PROPERTY
VConf Rank
SciTegic.value.IntegerValue
55

@<SCITEGIC>MOL_PROPERTY
Conf_Id
SciTegic.value.IntegerValue
25

@<SCITEGIC>MOL_PROPERTY
Delta U+W
SciTegic.value.DoubleValue
2.065

@<SCITEGIC>MOL_PROPERTY
U+W
SciTegic.value.DoubleValue
-52.826

@<SCITEGIC>MOL_PROPERTY
Grad RMS
SciTegic.value.DoubleValue
0.000000

@<SCITEGIC>MOL_PROPERTY
U
SciTegic.value.DoubleValue
10.967

@<SCITEGIC>MOL_PROPERTY
W
SciTegic.value.DoubleValue
-63.794

@<SCITEGIC>MOL_PROPERTY
W(PB)
SciTegic.value.DoubleValue
-65.830

@<SCITEGIC>MOL_PROPERTY
W(SA)
SciTegic.value.DoubleValue
2.036

@<SCITEGIC>MOL_PROPERTY
Valence
SciTegic.value.DoubleValue
8.609

@<SCITEGIC>MOL_PROPERTY
Coulomb
SciTegic.value.DoubleValue
1.892

@<SCITEGIC>MOL_PROPERTY
VdW
SciTegic.value.DoubleValue
0.467

@<SCITEGIC>MOL_PROPERTY
VdW6
SciTegic.value.DoubleValue
-7.569

@<SCITEGIC>MOL_PROPERTY
VdW12
SciTegic.value.DoubleValue
8.036

@<SCITEGIC>MOL_PROPERTY
Bond
SciTegic.value.DoubleValue
0.170

@<SCITEGIC>MOL_PROPERTY
Angle
SciTegic.value.DoubleValue
3.195

@<SCITEGIC>MOL_PROPERTY
Pdih
SciTegic.value.DoubleValue
5.237

@<SCITEGIC>MOL_PROPERTY
Idih
SciTegic.value.DoubleValue
0.007

@<SCITEGIC>MOL_PROPERTY
Tether
SciTegic.value.DoubleValue
0.000

@<TRIPOS>MOLECULE
guest-7_confgen4.mol2 : confsearch ligand conformer 56
          19          18           1
SMALL
USER_CHARGES
 
@<TRIPOS>ATOM
       1    C1      18.675973   17.142904   21.566597 C.2        1 MOL1         0.6115
       2    O1      17.736352   16.974396   22.318905 O.co2      1 MOL1        -0.6776
       3    O2      19.452136   16.260610   21.256790 O.co2      1 MOL1        -0.6776
       4    C2      18.851332   18.516154   20.920906 C.3        1 MOL1        -0.2013
       5    H1      17.959830   18.683527   20.305410 H          1 MOL1         0.0727
       6    H2      19.704979   18.480696   20.233191 H          1 MOL1         0.0727
       7    C3      19.009393   19.701711   21.914182 C.3        1 MOL1        -0.1910
       8    H3      18.759561   20.627693   21.378871 H          1 MOL1         0.0729
       9    H4      18.272074   19.612755   22.724115 H          1 MOL1         0.0729
      10    C4      20.430940   19.868353   22.505884 C.3        1 MOL1        -0.1909
      11    H5      20.461574   20.816172   23.060601 H          1 MOL1         0.0729
      12    H6      21.161781   19.963949   21.691285 H          1 MOL1         0.0729
      13    C5      20.856664   18.725640   23.453800 C.3        1 MOL1        -0.1884
      14    H7      20.077848   18.560227   24.211084 H          1 MOL1         0.0729
      15    H8      20.962008   17.789151   22.891396 H          1 MOL1         0.0729
      16    C6      22.194980   19.039526   24.152530 C.3        1 MOL1        -0.2899
      17    H9      22.487353   18.214739   24.815318 H          1 MOL1         0.0741
      18    H10     22.997016   19.183939   23.416839 H          1 MOL1         0.0741
      19    H11     22.117751   19.950907   24.759768 H          1 MOL1         0.0741
@<TRIPOS>BOND
    1     1     2    1
    2     1     3    2
    3     1     4    1
    4     4     5    1
    5     4     6    1
    6     4     7    1
    7     7     8    1
    8     7     9    1
    9     7    10    1
   10    10    11    1
   11    10    12    1
   12    10    13    1
   13    13    14    1
   14    13    15    1
   15    13    16    1
   16    16    17    1
   17    16    18    1
   18    16    19    1
@<TRIPOS>SUBSTRUCTURE
       1 MOL1            1 RESIDUE      1      MOL     
@<SCITEGIC>MOL_PROPERTY
VConf Rank
SciTegic.value.IntegerValue
56

@<SCITEGIC>MOL_PROPERTY
Conf_Id
SciTegic.value.IntegerValue
52

@<SCITEGIC>MOL_PROPERTY
Delta U+W
SciTegic.value.DoubleValue
2.070

@<SCITEGIC>MOL_PROPERTY
U+W
SciTegic.value.DoubleValue
-52.822

@<SCITEGIC>MOL_PROPERTY
Grad RMS
SciTegic.value.DoubleValue
0.000000

@<SCITEGIC>MOL_PROPERTY
U
SciTegic.value.DoubleValue
10.967

@<SCITEGIC>MOL_PROPERTY
W
SciTegic.value.DoubleValue
-63.789

@<SCITEGIC>MOL_PROPERTY
W(PB)
SciTegic.value.DoubleValue
-65.837

@<SCITEGIC>MOL_PROPERTY
W(SA)
SciTegic.value.DoubleValue
2.048

@<SCITEGIC>MOL_PROPERTY
Valence
SciTegic.value.DoubleValue
8.609

@<SCITEGIC>MOL_PROPERTY
Coulomb
SciTegic.value.DoubleValue
1.892

@<SCITEGIC>MOL_PROPERTY
VdW
SciTegic.value.DoubleValue
0.467

@<SCITEGIC>MOL_PROPERTY
VdW6
SciTegic.value.DoubleValue
-7.569

@<SCITEGIC>MOL_PROPERTY
VdW12
SciTegic.value.DoubleValue
8.035

@<SCITEGIC>MOL_PROPERTY
Bond
SciTegic.value.DoubleValue
0.170

@<SCITEGIC>MOL_PROPERTY
Angle
SciTegic.value.DoubleValue
3.196

@<SCITEGIC>MOL_PROPERTY
Pdih
SciTegic.value.DoubleValue
5.237

@<SCITEGIC>MOL_PROPERTY
Idih
SciTegic.value.DoubleValue
0.007

@<SCITEGIC>MOL_PROPERTY
Tether
SciTegic.value.DoubleValue
0.000

@<TRIPOS>MOLECULE
guest-7_confgen4.mol2 : confsearch ligand conformer 57
          19          18           1
SMALL
USER_CHARGES
 
@<TRIPOS>ATOM
       1    C1      21.595513   19.936147   21.961325 C.2        1 MOL1         0.6115
       2    O1      22.538882   19.520993   22.606165 O.co2      1 MOL1        -0.6776
       3    O2      21.594472   19.996199   20.747615 O.co2      1 MOL1        -0.6776
       4    C2      20.400169   20.530174   22.708095 C.3        1 MOL1        -0.2013
       5    H1      19.587697   20.712589   21.994546 H          1 MOL1         0.0727
       6    H2      20.726072   21.512853   23.067824 H          1 MOL1         0.0727
       7    C3      19.878053   19.701238   23.916247 C.3        1 MOL1        -0.1910
       8    H3      20.724604   19.295038   24.486890 H          1 MOL1         0.0729
       9    H4      19.362130   20.389330   24.599408 H          1 MOL1         0.0729
      10    C4      18.885246   18.564192   23.563204 C.3        1 MOL1        -0.1909
      11    H5      17.990966   18.982969   23.081617 H          1 MOL1         0.0729
      12    H6      18.534835   18.127611   24.508496 H          1 MOL1         0.0729
      13    C5      19.476807   17.423738   22.699833 C.3        1 MOL1        -0.1884
      14    H7      20.570397   17.392212   22.801930 H          1 MOL1         0.0729
      15    H8      19.108023   16.461890   23.081927 H          1 MOL1         0.0729
      16    C6      19.079586   17.533159   21.212096 C.3        1 MOL1        -0.2899
      17    H9      17.990636   17.465020   21.091750 H          1 MOL1         0.0741
      18    H10     19.409426   18.483742   20.776980 H          1 MOL1         0.0741
      19    H11     19.535218   16.721134   20.631033 H          1 MOL1         0.0741
@<TRIPOS>BOND
    1     1     2    1
    2     1     3    2
    3     1     4    1
    4     4     5    1
    5     4     6    1
    6     4     7    1
    7     7     8    1
    8     7     9    1
    9     7    10    1
   10    10    11    1
   11    10    12    1
   12    10    13    1
   13    13    14    1
   14    13    15    1
   15    13    16    1
   16    16    17    1
   17    16    18    1
   18    16    19    1
@<TRIPOS>SUBSTRUCTURE
       1 MOL1            1 RESIDUE      1      MOL     
@<SCITEGIC>MOL_PROPERTY
VConf Rank
SciTegic.value.IntegerValue
57

@<SCITEGIC>MOL_PROPERTY
Conf_Id
SciTegic.value.IntegerValue
66

@<SCITEGIC>MOL_PROPERTY
Delta U+W
SciTegic.value.DoubleValue
5.819

@<SCITEGIC>MOL_PROPERTY
U+W
SciTegic.value.DoubleValue
-49.072

@<SCITEGIC>MOL_PROPERTY
Grad RMS
SciTegic.value.DoubleValue
0.000000

@<SCITEGIC>MOL_PROPERTY
U
SciTegic.value.DoubleValue
15.324

@<SCITEGIC>MOL_PROPERTY
W
SciTegic.value.DoubleValue
-64.396

@<SCITEGIC>MOL_PROPERTY
W(PB)
SciTegic.value.DoubleValue
-66.382

@<SCITEGIC>MOL_PROPERTY
W(SA)
SciTegic.value.DoubleValue
1.986

@<SCITEGIC>MOL_PROPERTY
Valence
SciTegic.value.DoubleValue
11.748

@<SCITEGIC>MOL_PROPERTY
Coulomb
SciTegic.value.DoubleValue
3.201

@<SCITEGIC>MOL_PROPERTY
VdW
SciTegic.value.DoubleValue
0.375

@<SCITEGIC>MOL_PROPERTY
VdW6
SciTegic.value.DoubleValue
-8.854

@<SCITEGIC>MOL_PROPERTY
VdW12
SciTegic.value.DoubleValue
9.229

@<SCITEGIC>MOL_PROPERTY
Bond
SciTegic.value.DoubleValue
0.216

@<SCITEGIC>MOL_PROPERTY
Angle
SciTegic.value.DoubleValue
3.812

@<SCITEGIC>MOL_PROPERTY
Pdih
SciTegic.value.DoubleValue
7.699

@<SCITEGIC>MOL_PROPERTY
Idih
SciTegic.value.DoubleValue
0.022

@<SCITEGIC>MOL_PROPERTY
Tether
SciTegic.value.DoubleValue
0.000

@<TRIPOS>MOLECULE
guest-7_confgen4.mol2 : confsearch ligand conformer 58
          19          18           1
SMALL
USER_CHARGES
 
@<TRIPOS>ATOM
       1    C1      19.089186   17.870366   18.996667 C.2        1 MOL1         0.6115
       2    O1      18.571907   16.935989   18.417853 O.co2      1 MOL1        -0.6776
       3    O2      19.489832   18.865514   18.424558 O.co2      1 MOL1        -0.6776
       4    C2      19.228978   17.759610   20.515833 C.3        1 MOL1        -0.2013
       5    H1      19.806436   16.851606   20.725881 H          1 MOL1         0.0727
       6    H2      18.224433   17.603053   20.926236 H          1 MOL1         0.0727
       7    C3      19.895159   18.976808   21.210862 C.3        1 MOL1        -0.1910
       8    H3      20.898805   19.131785   20.791166 H          1 MOL1         0.0729
       9    H4      19.315172   19.884026   20.991684 H          1 MOL1         0.0729
      10    C4      19.995717   18.781098   22.739210 C.3        1 MOL1        -0.1909
      11    H5      20.575757   17.873528   22.956048 H          1 MOL1         0.0729
      12    H6      18.991289   18.626220   23.156688 H          1 MOL1         0.0729
      13    C5      20.658280   19.992183   23.428178 C.3        1 MOL1        -0.1884
      14    H7      21.664134   20.149294   23.014574 H          1 MOL1         0.0729
      15    H8      20.079796   20.901870   23.215294 H          1 MOL1         0.0729
      16    C6      20.757113   19.793323   24.953850 C.3        1 MOL1        -0.2899
      17    H9      21.357796   18.906864   25.196321 H          1 MOL1         0.0741
      18    H10     21.230349   20.663298   25.427454 H          1 MOL1         0.0741
      19    H11     19.761518   19.665087   25.398559 H          1 MOL1         0.0741
@<TRIPOS>BOND
    1     1     2    1
    2     1     3    2
    3     1     4    1
    4     4     5    1
    5     4     6    1
    6     4     7    1
    7     7     8    1
    8     7     9    1
    9     7    10    1
   10    10    11    1
   11    10    12    1
   12    10    13    1
   13    13    14    1
   14    13    15    1
   15    13    16    1
   16    16    17    1
   17    16    18    1
   18    16    19    1
@<TRIPOS>SUBSTRUCTURE
       1 MOL1            1 RESIDUE      1      MOL     
@<SCITEGIC>MOL_PROPERTY
VConf Rank
SciTegic.value.IntegerValue
58

@<SCITEGIC>MOL_PROPERTY
Conf_Id
SciTegic.value.IntegerValue
0

@<SCITEGIC>MOL_PROPERTY
Delta U+W
SciTegic.value.DoubleValue
0.000

@<SCITEGIC>MOL_PROPERTY
U+W
SciTegic.value.DoubleValue
-54.891

@<SCITEGIC>MOL_PROPERTY
Grad RMS
SciTegic.value.DoubleValue
0.000000

@<SCITEGIC>MOL_PROPERTY
U
SciTegic.value.DoubleValue
6.966

@<SCITEGIC>MOL_PROPERTY
W
SciTegic.value.DoubleValue
-61.857

@<SCITEGIC>MOL_PROPERTY
W(PB)
SciTegic.value.DoubleValue
-63.965

@<SCITEGIC>MOL_PROPERTY
W(SA)
SciTegic.value.DoubleValue
2.108

@<SCITEGIC>MOL_PROPERTY
Valence
SciTegic.value.DoubleValue
7.175

@<SCITEGIC>MOL_PROPERTY
Coulomb
SciTegic.value.DoubleValue
-1.360

@<SCITEGIC>MOL_PROPERTY
VdW
SciTegic.value.DoubleValue
1.151

@<SCITEGIC>MOL_PROPERTY
VdW6
SciTegic.value.DoubleValue
-5.641

@<SCITEGIC>MOL_PROPERTY
VdW12
SciTegic.value.DoubleValue
6.792

@<SCITEGIC>MOL_PROPERTY
Bond
SciTegic.value.DoubleValue
0.119

@<SCITEGIC>MOL_PROPERTY
Angle
SciTegic.value.DoubleValue
2.715

@<SCITEGIC>MOL_PROPERTY
Pdih
SciTegic.value.DoubleValue
4.340

@<SCITEGIC>MOL_PROPERTY
Idih
SciTegic.value.DoubleValue
0.000

@<SCITEGIC>MOL_PROPERTY
Tether
SciTegic.value.DoubleValue
0.000

@<TRIPOS>MOLECULE
guest-7_confgen4.mol2 : confsearch ligand conformer 59
          19          18           1
SMALL
USER_CHARGES
 
@<TRIPOS>ATOM
       1    C1      22.707465   20.327932   20.796828 C.2        1 MOL1         0.6115
       2    O1      22.526297   20.941132   19.763705 O.co2      1 MOL1        -0.6776
       3    O2      23.581861   20.599309   21.595558 O.co2      1 MOL1        -0.6776
       4    C2      21.773217   19.166865   21.118505 C.3        1 MOL1        -0.2013
       5    H1      22.341938   18.417965   21.682816 H          1 MOL1         0.0727
       6    H2      21.471612   18.699988   20.173093 H          1 MOL1         0.0727
       7    C3      20.523088   19.604387   21.920916 C.3        1 MOL1        -0.1910
       8    H3      20.842107   20.081077   22.858222 H          1 MOL1         0.0729
       9    H4      19.971796   20.363271   21.348446 H          1 MOL1         0.0729
      10    C4      19.594222   18.411407   22.233378 C.3        1 MOL1        -0.1909
      11    H5      20.148589   17.653971   22.804483 H          1 MOL1         0.0729
      12    H6      19.278071   17.936277   21.294500 H          1 MOL1         0.0729
      13    C5      18.349763   18.850196   23.032853 C.3        1 MOL1        -0.1884
      14    H7      18.661876   19.324306   23.973755 H          1 MOL1         0.0729
      15    H8      17.791399   19.606511   22.463898 H          1 MOL1         0.0729
      16    C6      17.424606   17.656560   23.343137 C.3        1 MOL1        -0.2899
      17    H9      16.545333   17.986263   23.911717 H          1 MOL1         0.0741
      18    H10     17.071698   17.182260   22.417978 H          1 MOL1         0.0741
      19    H11     17.948723   16.897926   23.939121 H          1 MOL1         0.0741
@<TRIPOS>BOND
    1     1     2    1
    2     1     3    2
    3     1     4    1
    4     4     5    1
    5     4     6    1
    6     4     7    1
    7     7     8    1
    8     7     9    1
    9     7    10    1
   10    10    11    1
   11    10    12    1
   12    10    13    1
   13    13    14    1
   14    13    15    1
   15    13    16    1
   16    16    17    1
   17    16    18    1
   18    16    19    1
@<TRIPOS>SUBSTRUCTURE
       1 MOL1            1 RESIDUE      1      MOL     
@<SCITEGIC>MOL_PROPERTY
VConf Rank
SciTegic.value.IntegerValue
59

@<SCITEGIC>MOL_PROPERTY
Conf_Id
SciTegic.value.IntegerValue
18

@<SCITEGIC>MOL_PROPERTY
Delta U+W
SciTegic.value.DoubleValue
-1.199

@<SCITEGIC>MOL_PROPERTY
U+W
SciTegic.value.DoubleValue
-56.090

@<SCITEGIC>MOL_PROPERTY
Grad RMS
SciTegic.value.DoubleValue
0.000000

@<SCITEGIC>MOL_PROPERTY
U
SciTegic.value.DoubleValue
5.975

@<SCITEGIC>MOL_PROPERTY
W
SciTegic.value.DoubleValue
-62.066

@<SCITEGIC>MOL_PROPERTY
W(PB)
SciTegic.value.DoubleValue
-64.219

@<SCITEGIC>MOL_PROPERTY
W(SA)
SciTegic.value.DoubleValue
2.153

@<SCITEGIC>MOL_PROPERTY
Valence
SciTegic.value.DoubleValue
6.673

@<SCITEGIC>MOL_PROPERTY
Coulomb
SciTegic.value.DoubleValue
-1.307

@<SCITEGIC>MOL_PROPERTY
VdW
SciTegic.value.DoubleValue
0.610

@<SCITEGIC>MOL_PROPERTY
VdW6
SciTegic.value.DoubleValue
-5.351

@<SCITEGIC>MOL_PROPERTY
VdW12
SciTegic.value.DoubleValue
5.961

@<SCITEGIC>MOL_PROPERTY
Bond
SciTegic.value.DoubleValue
0.086

@<SCITEGIC>MOL_PROPERTY
Angle
SciTegic.value.DoubleValue
2.253

@<SCITEGIC>MOL_PROPERTY
Pdih
SciTegic.value.DoubleValue
4.333

@<SCITEGIC>MOL_PROPERTY
Idih
SciTegic.value.DoubleValue
0.001

@<SCITEGIC>MOL_PROPERTY
Tether
SciTegic.value.DoubleValue
0.000

@<TRIPOS>MOLECULE
guest-7_confgen4.mol2 : confsearch ligand conformer 60
          19          18           1
SMALL
USER_CHARGES
 
@<TRIPOS>ATOM
       1    C1      20.771465   15.809734   22.016874 C.2        1 MOL1         0.6115
       2    O1      19.989462   14.905340   22.233277 O.co2      1 MOL1        -0.6776
       3    O2      21.817759   15.664566   21.416492 O.co2      1 MOL1        -0.6776
       4    C2      20.409790   17.207339   22.507029 C.3        1 MOL1        -0.2013
       5    H1      21.342048   17.720428   22.768711 H          1 MOL1         0.0727
       6    H2      19.825107   17.103934   23.428963 H          1 MOL1         0.0727
       7    C3      19.612491   18.024020   21.457016 C.3        1 MOL1        -0.1910
       8    H3      20.225086   18.159094   20.554912 H          1 MOL1         0.0729
       9    H4      18.733318   17.440561   21.150333 H          1 MOL1         0.0729
      10    C4      19.136520   19.401191   21.977000 C.3        1 MOL1        -0.1909
      11    H5      18.517403   19.262127   22.873862 H          1 MOL1         0.0729
      12    H6      18.485345   19.854654   21.217160 H          1 MOL1         0.0729
      13    C5      20.295628   20.373845   22.289928 C.3        1 MOL1        -0.1884
      14    H7      20.917020   19.973779   23.101827 H          1 MOL1         0.0729
      15    H8      20.944089   20.473559   21.408552 H          1 MOL1         0.0729
      16    C6      19.770993   21.764693   22.699283 C.3        1 MOL1        -0.2899
      17    H9      20.605304   22.442809   22.921031 H          1 MOL1         0.0741
      18    H10     19.175106   22.213070   21.893515 H          1 MOL1         0.0741
      19    H11     19.140715   21.698117   23.595789 H          1 MOL1         0.0741
@<TRIPOS>BOND
    1     1     2    1
    2     1     3    2
    3     1     4    1
    4     4     5    1
    5     4     6    1
    6     4     7    1
    7     7     8    1
    8     7     9    1
    9     7    10    1
   10    10    11    1
   11    10    12    1
   12    10    13    1
   13    13    14    1
   14    13    15    1
   15    13    16    1
   16    16    17    1
   17    16    18    1
   18    16    19    1
@<TRIPOS>SUBSTRUCTURE
       1 MOL1            1 RESIDUE      1      MOL     
@<SCITEGIC>MOL_PROPERTY
VConf Rank
SciTegic.value.IntegerValue
60

@<SCITEGIC>MOL_PROPERTY
Conf_Id
SciTegic.value.IntegerValue
34

@<SCITEGIC>MOL_PROPERTY
Delta U+W
SciTegic.value.DoubleValue
-0.563

@<SCITEGIC>MOL_PROPERTY
U+W
SciTegic.value.DoubleValue
-55.455

@<SCITEGIC>MOL_PROPERTY
Grad RMS
SciTegic.value.DoubleValue
0.000000

@<SCITEGIC>MOL_PROPERTY
U
SciTegic.value.DoubleValue
6.914

@<SCITEGIC>MOL_PROPERTY
W
SciTegic.value.DoubleValue
-62.369

@<SCITEGIC>MOL_PROPERTY
W(PB)
SciTegic.value.DoubleValue
-64.446

@<SCITEGIC>MOL_PROPERTY
W(SA)
SciTegic.value.DoubleValue
2.077

@<SCITEGIC>MOL_PROPERTY
Valence
SciTegic.value.DoubleValue
7.196

@<SCITEGIC>MOL_PROPERTY
Coulomb
SciTegic.value.DoubleValue
-1.020

@<SCITEGIC>MOL_PROPERTY
VdW
SciTegic.value.DoubleValue
0.738

@<SCITEGIC>MOL_PROPERTY
VdW6
SciTegic.value.DoubleValue
-6.010

@<SCITEGIC>MOL_PROPERTY
VdW12
SciTegic.value.DoubleValue
6.748

@<SCITEGIC>MOL_PROPERTY
Bond
SciTegic.value.DoubleValue
0.126

@<SCITEGIC>MOL_PROPERTY
Angle
SciTegic.value.DoubleValue
2.499

@<SCITEGIC>MOL_PROPERTY
Pdih
SciTegic.value.DoubleValue
4.570

@<SCITEGIC>MOL_PROPERTY
Idih
SciTegic.value.DoubleValue
0.001

@<SCITEGIC>MOL_PROPERTY
Tether
SciTegic.value.DoubleValue
0.000

@<TRIPOS>MOLECULE
guest-7_confgen4.mol2 : confsearch ligand conformer 61
          19          18           1
SMALL
USER_CHARGES
 
@<TRIPOS>ATOM
       1    C1      16.810364   18.939366   21.626610 C.2        1 MOL1         0.6115
       2    O1      16.238419   18.093100   20.968581 O.co2      1 MOL1        -0.6776
       3    O2      16.338330   20.031273   21.873970 O.co2      1 MOL1        -0.6776
       4    C2      18.205843   18.621715   22.152057 C.3        1 MOL1        -0.2013
       5    H1      18.257145   17.544761   22.352181 H          1 MOL1         0.0727
       6    H2      18.326021   19.137129   23.111614 H          1 MOL1         0.0727
       7    C3      19.327699   19.036113   21.164689 C.3        1 MOL1        -0.1910
       8    H3      19.125959   18.574388   20.188199 H          1 MOL1         0.0729
       9    H4      19.294384   20.122947   21.006599 H          1 MOL1         0.0729
      10    C4      20.743547   18.618110   21.627477 C.3        1 MOL1        -0.1909
      11    H5      21.454495   18.842554   20.820512 H          1 MOL1         0.0729
      12    H6      20.775901   17.530093   21.776409 H          1 MOL1         0.0729
      13    C5      21.204943   19.334235   22.916581 C.3        1 MOL1        -0.1884
      14    H7      21.124215   20.422151   22.785464 H          1 MOL1         0.0729
      15    H8      20.550795   19.062753   23.755480 H          1 MOL1         0.0729
      16    C6      22.658962   18.968623   23.276330 C.3        1 MOL1        -0.2899
      17    H9      22.762833   17.887985   23.440155 H          1 MOL1         0.0741
      18    H10     23.348312   19.261747   22.473671 H          1 MOL1         0.0741
      19    H11     22.970880   19.482298   24.194990 H          1 MOL1         0.0741
@<TRIPOS>BOND
    1     1     2    1
    2     1     3    2
    3     1     4    1
    4     4     5    1
    5     4     6    1
    6     4     7    1
    7     7     8    1
    8     7     9    1
    9     7    10    1
   10    10    11    1
   11    10    12    1
   12    10    13    1
   13    13    14    1
   14    13    15    1
   15    13    16    1
   16    16    17    1
   17    16    18    1
   18    16    19    1
@<TRIPOS>SUBSTRUCTURE
       1 MOL1            1 RESIDUE      1      MOL     
@<SCITEGIC>MOL_PROPERTY
VConf Rank
SciTegic.value.IntegerValue
61

@<SCITEGIC>MOL_PROPERTY
Conf_Id
SciTegic.value.IntegerValue
33

@<SCITEGIC>MOL_PROPERTY
Delta U+W
SciTegic.value.DoubleValue
-0.526

@<SCITEGIC>MOL_PROPERTY
U+W
SciTegic.value.DoubleValue
-55.418

@<SCITEGIC>MOL_PROPERTY
Grad RMS
SciTegic.value.DoubleValue
0.000000

@<SCITEGIC>MOL_PROPERTY
U
SciTegic.value.DoubleValue
6.914

@<SCITEGIC>MOL_PROPERTY
W
SciTegic.value.DoubleValue
-62.332

@<SCITEGIC>MOL_PROPERTY
W(PB)
SciTegic.value.DoubleValue
-64.421

@<SCITEGIC>MOL_PROPERTY
W(SA)
SciTegic.value.DoubleValue
2.090

@<SCITEGIC>MOL_PROPERTY
Valence
SciTegic.value.DoubleValue
7.196

@<SCITEGIC>MOL_PROPERTY
Coulomb
SciTegic.value.DoubleValue
-1.020

@<SCITEGIC>MOL_PROPERTY
VdW
SciTegic.value.DoubleValue
0.738

@<SCITEGIC>MOL_PROPERTY
VdW6
SciTegic.value.DoubleValue
-6.010

@<SCITEGIC>MOL_PROPERTY
VdW12
SciTegic.value.DoubleValue
6.748

@<SCITEGIC>MOL_PROPERTY
Bond
SciTegic.value.DoubleValue
0.126

@<SCITEGIC>MOL_PROPERTY
Angle
SciTegic.value.DoubleValue
2.499

@<SCITEGIC>MOL_PROPERTY
Pdih
SciTegic.value.DoubleValue
4.570

@<SCITEGIC>MOL_PROPERTY
Idih
SciTegic.value.DoubleValue
0.001

@<SCITEGIC>MOL_PROPERTY
Tether
SciTegic.value.DoubleValue
0.000

@<TRIPOS>MOLECULE
guest-7_confgen4.mol2 : confsearch ligand conformer 62
          19          18           1
SMALL
USER_CHARGES
 
@<TRIPOS>ATOM
       1    C1      22.108835   16.702557   21.899310 C.2        1 MOL1         0.6115
       2    O1      22.667639   16.830678   20.828076 O.co2      1 MOL1        -0.6776
       3    O2      22.667180   16.316982   22.907193 O.co2      1 MOL1        -0.6776
       4    C2      20.629851   17.062072   21.987935 C.3        1 MOL1        -0.2013
       5    H1      20.163681   16.405063   22.732047 H          1 MOL1         0.0727
       6    H2      20.165523   16.836785   21.020272 H          1 MOL1         0.0727
       7    C3      20.392181   18.546224   22.361095 C.3        1 MOL1        -0.1910
       8    H3      20.870793   18.758489   23.327072 H          1 MOL1         0.0729
       9    H4      20.882812   19.183523   21.613598 H          1 MOL1         0.0729
      10    C4      18.885267   18.883246   22.440394 C.3        1 MOL1        -0.1909
      11    H5      18.399816   18.188451   23.139386 H          1 MOL1         0.0729
      12    H6      18.416499   18.717564   21.460693 H          1 MOL1         0.0729
      13    C5      18.603504   20.329040   22.910369 C.3        1 MOL1        -0.1884
      14    H7      17.520628   20.448676   23.052884 H          1 MOL1         0.0729
      15    H8      19.066178   20.496906   23.892754 H          1 MOL1         0.0729
      16    C6      19.094992   21.401794   21.914632 C.3        1 MOL1        -0.2899
      17    H9      18.667924   21.236843   20.916854 H          1 MOL1         0.0741
      18    H10     18.794081   22.402850   22.249715 H          1 MOL1         0.0741
      19    H11     20.188607   21.396070   21.826785 H          1 MOL1         0.0741
@<TRIPOS>BOND
    1     1     2    1
    2     1     3    2
    3     1     4    1
    4     4     5    1
    5     4     6    1
    6     4     7    1
    7     7     8    1
    8     7     9    1
    9     7    10    1
   10    10    11    1
   11    10    12    1
   12    10    13    1
   13    13    14    1
   14    13    15    1
   15    13    16    1
   16    16    17    1
   17    16    18    1
   18    16    19    1
@<TRIPOS>SUBSTRUCTURE
       1 MOL1            1 RESIDUE      1      MOL     
@<SCITEGIC>MOL_PROPERTY
VConf Rank
SciTegic.value.IntegerValue
62

@<SCITEGIC>MOL_PROPERTY
Conf_Id
SciTegic.value.IntegerValue
42

@<SCITEGIC>MOL_PROPERTY
Delta U+W
SciTegic.value.DoubleValue
-0.344

@<SCITEGIC>MOL_PROPERTY
U+W
SciTegic.value.DoubleValue
-55.236

@<SCITEGIC>MOL_PROPERTY
Grad RMS
SciTegic.value.DoubleValue
0.000000

@<SCITEGIC>MOL_PROPERTY
U
SciTegic.value.DoubleValue
7.244

@<SCITEGIC>MOL_PROPERTY
W
SciTegic.value.DoubleValue
-62.479

@<SCITEGIC>MOL_PROPERTY
W(PB)
SciTegic.value.DoubleValue
-64.610

@<SCITEGIC>MOL_PROPERTY
W(SA)
SciTegic.value.DoubleValue
2.130

@<SCITEGIC>MOL_PROPERTY
Valence
SciTegic.value.DoubleValue
7.174

@<SCITEGIC>MOL_PROPERTY
Coulomb
SciTegic.value.DoubleValue
-0.669

@<SCITEGIC>MOL_PROPERTY
VdW
SciTegic.value.DoubleValue
0.739

@<SCITEGIC>MOL_PROPERTY
VdW6
SciTegic.value.DoubleValue
-5.969

@<SCITEGIC>MOL_PROPERTY
VdW12
SciTegic.value.DoubleValue
6.708

@<SCITEGIC>MOL_PROPERTY
Bond
SciTegic.value.DoubleValue
0.116

@<SCITEGIC>MOL_PROPERTY
Angle
SciTegic.value.DoubleValue
2.481

@<SCITEGIC>MOL_PROPERTY
Pdih
SciTegic.value.DoubleValue
4.576

@<SCITEGIC>MOL_PROPERTY
Idih
SciTegic.value.DoubleValue
0.000

@<SCITEGIC>MOL_PROPERTY
Tether
SciTegic.value.DoubleValue
0.000

@<TRIPOS>MOLECULE
guest-7_confgen4.mol2 : confsearch ligand conformer 63
          19          18           1
SMALL
USER_CHARGES
 
@<TRIPOS>ATOM
       1    C1      17.346312   19.712074   23.680049 C.2        1 MOL1         0.6115
       2    O1      17.162583   18.977468   24.630216 O.co2      1 MOL1        -0.6776
       3    O2      16.451014   20.146944   22.983217 O.co2      1 MOL1        -0.6776
       4    C2      18.780514   20.094654   23.331916 C.3        1 MOL1        -0.2013
       5    H1      19.358086   20.136119   24.263269 H          1 MOL1         0.0727
       6    H2      18.770277   21.107438   22.911389 H          1 MOL1         0.0727
       7    C3      19.442160   19.109102   22.337251 C.3        1 MOL1        -0.1910
       8    H3      19.424026   18.100631   22.771162 H          1 MOL1         0.0729
       9    H4      18.847506   19.071604   21.414094 H          1 MOL1         0.0729
      10    C4      20.895561   19.519001   22.005184 C.3        1 MOL1        -0.1909
      11    H5      21.501911   19.508755   22.921284 H          1 MOL1         0.0729
      12    H6      20.900281   20.555221   21.640196 H          1 MOL1         0.0729
      13    C5      21.558213   18.619205   20.936610 C.3        1 MOL1        -0.1884
      14    H7      20.957451   18.631307   20.016684 H          1 MOL1         0.0729
      15    H8      22.536279   19.045490   20.674095 H          1 MOL1         0.0729
      16    C6      21.761041   17.162162   21.405370 C.3        1 MOL1        -0.2899
      17    H9      20.801225   16.656907   21.570344 H          1 MOL1         0.0741
      18    H10     22.312238   16.588930   20.648713 H          1 MOL1         0.0741
      19    H11     22.334838   17.126541   22.340595 H          1 MOL1         0.0741
@<TRIPOS>BOND
    1     1     2    1
    2     1     3    2
    3     1     4    1
    4     4     5    1
    5     4     6    1
    6     4     7    1
    7     7     8    1
    8     7     9    1
    9     7    10    1
   10    10    11    1
   11    10    12    1
   12    10    13    1
   13    13    14    1
   14    13    15    1
   15    13    16    1
   16    16    17    1
   17    16    18    1
   18    16    19    1
@<TRIPOS>SUBSTRUCTURE
       1 MOL1            1 RESIDUE      1      MOL     
@<SCITEGIC>MOL_PROPERTY
VConf Rank
SciTegic.value.IntegerValue
63

@<SCITEGIC>MOL_PROPERTY
Conf_Id
SciTegic.value.IntegerValue
41

@<SCITEGIC>MOL_PROPERTY
Delta U+W
SciTegic.value.DoubleValue
-0.361

@<SCITEGIC>MOL_PROPERTY
U+W
SciTegic.value.DoubleValue
-55.252

@<SCITEGIC>MOL_PROPERTY
Grad RMS
SciTegic.value.DoubleValue
0.000000

@<SCITEGIC>MOL_PROPERTY
U
SciTegic.value.DoubleValue
7.244

@<SCITEGIC>MOL_PROPERTY
W
SciTegic.value.DoubleValue
-62.496

@<SCITEGIC>MOL_PROPERTY
W(PB)
SciTegic.value.DoubleValue
-64.596

@<SCITEGIC>MOL_PROPERTY
W(SA)
SciTegic.value.DoubleValue
2.099

@<SCITEGIC>MOL_PROPERTY
Valence
SciTegic.value.DoubleValue
7.174

@<SCITEGIC>MOL_PROPERTY
Coulomb
SciTegic.value.DoubleValue
-0.669

@<SCITEGIC>MOL_PROPERTY
VdW
SciTegic.value.DoubleValue
0.739

@<SCITEGIC>MOL_PROPERTY
VdW6
SciTegic.value.DoubleValue
-5.969

@<SCITEGIC>MOL_PROPERTY
VdW12
SciTegic.value.DoubleValue
6.708

@<SCITEGIC>MOL_PROPERTY
Bond
SciTegic.value.DoubleValue
0.116

@<SCITEGIC>MOL_PROPERTY
Angle
SciTegic.value.DoubleValue
2.481

@<SCITEGIC>MOL_PROPERTY
Pdih
SciTegic.value.DoubleValue
4.576

@<SCITEGIC>MOL_PROPERTY
Idih
SciTegic.value.DoubleValue
0.000

@<SCITEGIC>MOL_PROPERTY
Tether
SciTegic.value.DoubleValue
0.000

@<TRIPOS>MOLECULE
guest-7_confgen4.mol2 : confsearch ligand conformer 64
          19          18           1
SMALL
USER_CHARGES
 
@<TRIPOS>ATOM
       1    C1      20.748019   17.091740   20.398340 C.2        1 MOL1         0.6115
       2    O1      21.458364   16.399225   21.100039 O.co2      1 MOL1        -0.6776
       3    O2      19.882387   16.645932   19.671280 O.co2      1 MOL1        -0.6776
       4    C2      20.967936   18.601964   20.412685 C.3        1 MOL1        -0.2013
       5    H1      20.982101   18.941190   19.370171 H          1 MOL1         0.0727
       6    H2      21.962606   18.807334   20.826740 H          1 MOL1         0.0727
       7    C3      19.887933   19.389915   21.198698 C.3        1 MOL1        -0.1910
       8    H3      20.045510   20.465340   21.040060 H          1 MOL1         0.0729
       9    H4      18.895401   19.152096   20.791325 H          1 MOL1         0.0729
      10    C4      19.917694   19.088894   22.713892 C.3        1 MOL1        -0.1909
      11    H5      20.915507   19.315829   23.113767 H          1 MOL1         0.0729
      12    H6      19.743712   18.017027   22.881979 H          1 MOL1         0.0729
      13    C5      18.856775   19.906608   23.479660 C.3        1 MOL1        -0.1884
      14    H7      19.028352   20.979947   23.318616 H          1 MOL1         0.0729
      15    H8      17.857356   19.679682   23.083252 H          1 MOL1         0.0729
      16    C6      18.889053   19.604123   24.991095 C.3        1 MOL1        -0.2899
      17    H9      19.868802   19.851700   25.420284 H          1 MOL1         0.0741
      18    H10     18.128568   20.193278   25.519909 H          1 MOL1         0.0741
      19    H11     18.689141   18.541784   25.183225 H          1 MOL1         0.0741
@<TRIPOS>BOND
    1     1     2    1
    2     1     3    2
    3     1     4    1
    4     4     5    1
    5     4     6    1
    6     4     7    1
    7     7     8    1
    8     7     9    1
    9     7    10    1
   10    10    11    1
   11    10    12    1
   12    10    13    1
   13    13    14    1
   14    13    15    1
   15    13    16    1
   16    16    17    1
   17    16    18    1
   18    16    19    1
@<TRIPOS>SUBSTRUCTURE
       1 MOL1            1 RESIDUE      1      MOL     
@<SCITEGIC>MOL_PROPERTY
VConf Rank
SciTegic.value.IntegerValue
64

@<SCITEGIC>MOL_PROPERTY
Conf_Id
SciTegic.value.IntegerValue
36

@<SCITEGIC>MOL_PROPERTY
Delta U+W
SciTegic.value.DoubleValue
-0.079

@<SCITEGIC>MOL_PROPERTY
U+W
SciTegic.value.DoubleValue
-54.971

@<SCITEGIC>MOL_PROPERTY
Grad RMS
SciTegic.value.DoubleValue
0.000000

@<SCITEGIC>MOL_PROPERTY
U
SciTegic.value.DoubleValue
8.266

@<SCITEGIC>MOL_PROPERTY
W
SciTegic.value.DoubleValue
-63.237

@<SCITEGIC>MOL_PROPERTY
W(PB)
SciTegic.value.DoubleValue
-65.340

@<SCITEGIC>MOL_PROPERTY
W(SA)
SciTegic.value.DoubleValue
2.103

@<SCITEGIC>MOL_PROPERTY
Valence
SciTegic.value.DoubleValue
6.935

@<SCITEGIC>MOL_PROPERTY
Coulomb
SciTegic.value.DoubleValue
0.874

@<SCITEGIC>MOL_PROPERTY
VdW
SciTegic.value.DoubleValue
0.457

@<SCITEGIC>MOL_PROPERTY
VdW6
SciTegic.value.DoubleValue
-6.205

@<SCITEGIC>MOL_PROPERTY
VdW12
SciTegic.value.DoubleValue
6.662

@<SCITEGIC>MOL_PROPERTY
Bond
SciTegic.value.DoubleValue
0.107

@<SCITEGIC>MOL_PROPERTY
Angle
SciTegic.value.DoubleValue
2.420

@<SCITEGIC>MOL_PROPERTY
Pdih
SciTegic.value.DoubleValue
4.407

@<SCITEGIC>MOL_PROPERTY
Idih
SciTegic.value.DoubleValue
0.001

@<SCITEGIC>MOL_PROPERTY
Tether
SciTegic.value.DoubleValue
0.000

@<TRIPOS>MOLECULE
guest-7_confgen4.mol2 : confsearch ligand conformer 65
          19          18           1
SMALL
USER_CHARGES
 
@<TRIPOS>ATOM
       1    C1      21.607787   18.443096   19.936362 C.2        1 MOL1         0.6115
       2    O1      22.639664   18.008704   20.408682 O.co2      1 MOL1        -0.6776
       3    O2      21.569177   19.339150   19.116436 O.co2      1 MOL1        -0.6776
       4    C2      20.288675   17.816238   20.379462 C.3        1 MOL1        -0.2013
       5    H1      20.499207   16.838972   20.830700 H          1 MOL1         0.0727
       6    H2      19.695671   17.627667   19.476747 H          1 MOL1         0.0727
       7    C3      19.470798   18.694295   21.361900 C.3        1 MOL1        -0.1910
       8    H3      19.292477   19.678991   20.907799 H          1 MOL1         0.0729
       9    H4      18.485476   18.233799   21.515583 H          1 MOL1         0.0729
      10    C4      20.170919   18.867104   22.728384 C.3        1 MOL1        -0.1909
      11    H5      21.150858   19.343058   22.584824 H          1 MOL1         0.0729
      12    H6      20.358695   17.879770   23.172165 H          1 MOL1         0.0729
      13    C5      19.325691   19.717090   23.699835 C.3        1 MOL1        -0.1884
      14    H7      19.138364   20.706217   23.259369 H          1 MOL1         0.0729
      15    H8      18.345657   19.243562   23.850617 H          1 MOL1         0.0729
      16    C6      20.026913   19.887646   25.062251 C.3        1 MOL1        -0.2899
      17    H9      20.997242   20.387685   24.944498 H          1 MOL1         0.0741
      18    H10     19.412794   20.494553   25.740196 H          1 MOL1         0.0741
      19    H11     20.198621   18.914217   25.540120 H          1 MOL1         0.0741
@<TRIPOS>BOND
    1     1     2    1
    2     1     3    2
    3     1     4    1
    4     4     5    1
    5     4     6    1
    6     4     7    1
    7     7     8    1
    8     7     9    1
    9     7    10    1
   10    10    11    1
   11    10    12    1
   12    10    13    1
   13    13    14    1
   14    13    15    1
   15    13    16    1
   16    16    17    1
   17    16    18    1
   18    16    19    1
@<TRIPOS>SUBSTRUCTURE
       1 MOL1            1 RESIDUE      1      MOL     
@<SCITEGIC>MOL_PROPERTY
VConf Rank
SciTegic.value.IntegerValue
65

@<SCITEGIC>MOL_PROPERTY
Conf_Id
SciTegic.value.IntegerValue
35

@<SCITEGIC>MOL_PROPERTY
Delta U+W
SciTegic.value.DoubleValue
-0.030

@<SCITEGIC>MOL_PROPERTY
U+W
SciTegic.value.DoubleValue
-54.921

@<SCITEGIC>MOL_PROPERTY
Grad RMS
SciTegic.value.DoubleValue
0.000000

@<SCITEGIC>MOL_PROPERTY
U
SciTegic.value.DoubleValue
8.267

@<SCITEGIC>MOL_PROPERTY
W
SciTegic.value.DoubleValue
-63.188

@<SCITEGIC>MOL_PROPERTY
W(PB)
SciTegic.value.DoubleValue
-65.294

@<SCITEGIC>MOL_PROPERTY
W(SA)
SciTegic.value.DoubleValue
2.106

@<SCITEGIC>MOL_PROPERTY
Valence
SciTegic.value.DoubleValue
6.935

@<SCITEGIC>MOL_PROPERTY
Coulomb
SciTegic.value.DoubleValue
0.875

@<SCITEGIC>MOL_PROPERTY
VdW
SciTegic.value.DoubleValue
0.457

@<SCITEGIC>MOL_PROPERTY
VdW6
SciTegic.value.DoubleValue
-6.205

@<SCITEGIC>MOL_PROPERTY
VdW12
SciTegic.value.DoubleValue
6.662

@<SCITEGIC>MOL_PROPERTY
Bond
SciTegic.value.DoubleValue
0.107

@<SCITEGIC>MOL_PROPERTY
Angle
SciTegic.value.DoubleValue
2.420

@<SCITEGIC>MOL_PROPERTY
Pdih
SciTegic.value.DoubleValue
4.407

@<SCITEGIC>MOL_PROPERTY
Idih
SciTegic.value.DoubleValue
0.001

@<SCITEGIC>MOL_PROPERTY
Tether
SciTegic.value.DoubleValue
0.000

@<TRIPOS>MOLECULE
guest-7_confgen4.mol2 : confsearch ligand conformer 66
          19          18           1
SMALL
USER_CHARGES
 
@<TRIPOS>ATOM
       1    C1      20.850242   16.218668   23.252205 C.2        1 MOL1         0.6115
       2    O1      20.872484   16.126168   24.463674 O.co2      1 MOL1        -0.6776
       3    O2      21.747227   15.826793   22.532138 O.co2      1 MOL1        -0.6776
       4    C2      19.618508   16.841345   22.600602 C.3        1 MOL1        -0.2013
       5    H1      18.736551   16.394564   23.074557 H          1 MOL1         0.0727
       6    H2      19.594061   16.547422   21.544207 H          1 MOL1         0.0727
       7    C3      19.547276   18.385509   22.727903 C.3        1 MOL1        -0.1910
       8    H3      18.564587   18.719256   22.371134 H          1 MOL1         0.0729
       9    H4      19.612563   18.666630   23.788109 H          1 MOL1         0.0729
      10    C4      20.661733   19.099567   21.926160 C.3        1 MOL1        -0.1909
      11    H5      20.571098   18.847483   20.860770 H          1 MOL1         0.0729
      12    H6      21.640136   18.720473   22.251796 H          1 MOL1         0.0729
      13    C5      20.653041   20.636279   22.097246 C.3        1 MOL1        -0.1884
      14    H7      20.745707   20.891572   23.161929 H          1 MOL1         0.0729
      15    H8      21.541132   21.050710   21.600493 H          1 MOL1         0.0729
      16    C6      19.395090   21.310730   21.508441 C.3        1 MOL1        -0.2899
      17    H9      18.489642   21.015820   22.053249 H          1 MOL1         0.0741
      18    H10     19.479990   22.403235   21.572942 H          1 MOL1         0.0741
      19    H11     19.264357   21.043829   20.451644 H          1 MOL1         0.0741
@<TRIPOS>BOND
    1     1     2    1
    2     1     3    2
    3     1     4    1
    4     4     5    1
    5     4     6    1
    6     4     7    1
    7     7     8    1
    8     7     9    1
    9     7    10    1
   10    10    11    1
   11    10    12    1
   12    10    13    1
   13    13    14    1
   14    13    15    1
   15    13    16    1
   16    16    17    1
   17    16    18    1
   18    16    19    1
@<TRIPOS>SUBSTRUCTURE
       1 MOL1            1 RESIDUE      1      MOL     
@<SCITEGIC>MOL_PROPERTY
VConf Rank
SciTegic.value.IntegerValue
66

@<SCITEGIC>MOL_PROPERTY
Conf_Id
SciTegic.value.IntegerValue
74

@<SCITEGIC>MOL_PROPERTY
Delta U+W
SciTegic.value.DoubleValue
0.797

@<SCITEGIC>MOL_PROPERTY
U+W
SciTegic.value.DoubleValue
-54.095

@<SCITEGIC>MOL_PROPERTY
Grad RMS
SciTegic.value.DoubleValue
0.000000

@<SCITEGIC>MOL_PROPERTY
U
SciTegic.value.DoubleValue
8.869

@<SCITEGIC>MOL_PROPERTY
W
SciTegic.value.DoubleValue
-62.964

@<SCITEGIC>MOL_PROPERTY
W(PB)
SciTegic.value.DoubleValue
-65.046

@<SCITEGIC>MOL_PROPERTY
W(SA)
SciTegic.value.DoubleValue
2.082

@<SCITEGIC>MOL_PROPERTY
Valence
SciTegic.value.DoubleValue
7.469

@<SCITEGIC>MOL_PROPERTY
Coulomb
SciTegic.value.DoubleValue
0.762

@<SCITEGIC>MOL_PROPERTY
VdW
SciTegic.value.DoubleValue
0.639

@<SCITEGIC>MOL_PROPERTY
VdW6
SciTegic.value.DoubleValue
-6.782

@<SCITEGIC>MOL_PROPERTY
VdW12
SciTegic.value.DoubleValue
7.421

@<SCITEGIC>MOL_PROPERTY
Bond
SciTegic.value.DoubleValue
0.141

@<SCITEGIC>MOL_PROPERTY
Angle
SciTegic.value.DoubleValue
2.667

@<SCITEGIC>MOL_PROPERTY
Pdih
SciTegic.value.DoubleValue
4.660

@<SCITEGIC>MOL_PROPERTY
Idih
SciTegic.value.DoubleValue
0.001

@<SCITEGIC>MOL_PROPERTY
Tether
SciTegic.value.DoubleValue
0.000

@<TRIPOS>MOLECULE
guest-7_confgen4.mol2 : confsearch ligand conformer 67
          19          18           1
SMALL
USER_CHARGES
 
@<TRIPOS>ATOM
       1    C1      19.436900   19.348211   25.149578 C.2        1 MOL1         0.6115
       2    O1      20.151472   19.132862   26.108450 O.co2      1 MOL1        -0.6776
       3    O2      18.514876   20.139425   25.162763 O.co2      1 MOL1        -0.6776
       4    C2      19.725219   18.598256   23.853948 C.3        1 MOL1        -0.2013
       5    H1      18.769816   18.437919   23.341447 H          1 MOL1         0.0727
       6    H2      20.126125   17.611119   24.113160 H          1 MOL1         0.0727
       7    C3      20.716901   19.352855   22.931052 C.3        1 MOL1        -0.1910
       8    H3      20.288577   20.323282   22.647171 H          1 MOL1         0.0729
       9    H4      21.627872   19.578561   23.502356 H          1 MOL1         0.0729
      10    C4      21.114741   18.553758   21.664601 C.3        1 MOL1        -0.1909
      11    H5      21.632851   17.635074   21.971808 H          1 MOL1         0.0729
      12    H6      21.848666   19.139408   21.094381 H          1 MOL1         0.0729
      13    C5      19.941316   18.174226   20.728156 C.3        1 MOL1        -0.1884
      14    H7      20.341975   17.602090   19.880092 H          1 MOL1         0.0729
      15    H8      19.245265   17.501124   21.245898 H          1 MOL1         0.0729
      16    C6      19.173806   19.397765   20.182927 C.3        1 MOL1        -0.2899
      17    H9      19.854839   20.096739   19.680273 H          1 MOL1         0.0741
      18    H10     18.414761   19.082236   19.455529 H          1 MOL1         0.0741
      19    H11     18.658807   19.936656   20.988308 H          1 MOL1         0.0741
@<TRIPOS>BOND
    1     1     2    1
    2     1     3    2
    3     1     4    1
    4     4     5    1
    5     4     6    1
    6     4     7    1
    7     7     8    1
    8     7     9    1
    9     7    10    1
   10    10    11    1
   11    10    12    1
   12    10    13    1
   13    13    14    1
   14    13    15    1
   15    13    16    1
   16    16    17    1
   17    16    18    1
   18    16    19    1
@<TRIPOS>SUBSTRUCTURE
       1 MOL1            1 RESIDUE      1      MOL     
@<SCITEGIC>MOL_PROPERTY
VConf Rank
SciTegic.value.IntegerValue
67

@<SCITEGIC>MOL_PROPERTY
Conf_Id
SciTegic.value.IntegerValue
67

@<SCITEGIC>MOL_PROPERTY
Delta U+W
SciTegic.value.DoubleValue
0.308

@<SCITEGIC>MOL_PROPERTY
U+W
SciTegic.value.DoubleValue
-54.583

@<SCITEGIC>MOL_PROPERTY
Grad RMS
SciTegic.value.DoubleValue
0.000000

@<SCITEGIC>MOL_PROPERTY
U
SciTegic.value.DoubleValue
8.219

@<SCITEGIC>MOL_PROPERTY
W
SciTegic.value.DoubleValue
-62.802

@<SCITEGIC>MOL_PROPERTY
W(PB)
SciTegic.value.DoubleValue
-64.859

@<SCITEGIC>MOL_PROPERTY
W(SA)
SciTegic.value.DoubleValue
2.057

@<SCITEGIC>MOL_PROPERTY
Valence
SciTegic.value.DoubleValue
7.609

@<SCITEGIC>MOL_PROPERTY
Coulomb
SciTegic.value.DoubleValue
-0.089

@<SCITEGIC>MOL_PROPERTY
VdW
SciTegic.value.DoubleValue
0.699

@<SCITEGIC>MOL_PROPERTY
VdW6
SciTegic.value.DoubleValue
-6.924

@<SCITEGIC>MOL_PROPERTY
VdW12
SciTegic.value.DoubleValue
7.623

@<SCITEGIC>MOL_PROPERTY
Bond
SciTegic.value.DoubleValue
0.163

@<SCITEGIC>MOL_PROPERTY
Angle
SciTegic.value.DoubleValue
2.870

@<SCITEGIC>MOL_PROPERTY
Pdih
SciTegic.value.DoubleValue
4.576

@<SCITEGIC>MOL_PROPERTY
Idih
SciTegic.value.DoubleValue
0.001

@<SCITEGIC>MOL_PROPERTY
Tether
SciTegic.value.DoubleValue
0.000

@<TRIPOS>MOLECULE
guest-7_confgen4.mol2 : confsearch ligand conformer 68
          19          18           1
SMALL
USER_CHARGES
 
@<TRIPOS>ATOM
       1    C1      19.234777   16.914628   20.306398 C.2        1 MOL1         0.6115
       2    O1      19.688857   16.726154   19.195223 O.co2      1 MOL1        -0.6776
       3    O2      18.125073   16.557038   20.648463 O.co2      1 MOL1        -0.6776
       4    C2      20.097548   17.657571   21.320242 C.3        1 MOL1        -0.2013
       5    H1      21.147476   17.414733   21.117670 H          1 MOL1         0.0727
       6    H2      19.857765   17.263943   22.314586 H          1 MOL1         0.0727
       7    C3      19.885957   19.193166   21.278249 C.3        1 MOL1        -0.1910
       8    H3      20.044904   19.542778   20.248828 H          1 MOL1         0.0729
       9    H4      18.840548   19.426600   21.519924 H          1 MOL1         0.0729
      10    C4      20.838542   19.975479   22.217020 C.3        1 MOL1        -0.1909
      11    H5      20.651986   21.050811   22.091969 H          1 MOL1         0.0729
      12    H6      21.874596   19.807863   21.892534 H          1 MOL1         0.0729
      13    C5      20.723573   19.619265   23.719616 C.3        1 MOL1        -0.1884
      14    H7      21.007881   18.571510   23.883896 H          1 MOL1         0.0729
      15    H8      21.452314   20.222319   24.278493 H          1 MOL1         0.0729
      16    C6      19.317065   19.874594   24.302659 C.3        1 MOL1        -0.2899
      17    H9      18.571418   19.207603   23.851658 H          1 MOL1         0.0741
      18    H10     19.311758   19.695465   25.385572 H          1 MOL1         0.0741
      19    H11     19.002227   20.911829   24.129308 H          1 MOL1         0.0741
@<TRIPOS>BOND
    1     1     2    1
    2     1     3    2
    3     1     4    1
    4     4     5    1
    5     4     6    1
    6     4     7    1
    7     7     8    1
    8     7     9    1
    9     7    10    1
   10    10    11    1
   11    10    12    1
   12    10    13    1
   13    13    14    1
   14    13    15    1
   15    13    16    1
   16    16    17    1
   17    16    18    1
   18    16    19    1
@<TRIPOS>SUBSTRUCTURE
       1 MOL1            1 RESIDUE      1      MOL     
@<SCITEGIC>MOL_PROPERTY
VConf Rank
SciTegic.value.IntegerValue
68

@<SCITEGIC>MOL_PROPERTY
Conf_Id
SciTegic.value.IntegerValue
21

@<SCITEGIC>MOL_PROPERTY
Delta U+W
SciTegic.value.DoubleValue
0.319

@<SCITEGIC>MOL_PROPERTY
U+W
SciTegic.value.DoubleValue
-54.572

@<SCITEGIC>MOL_PROPERTY
Grad RMS
SciTegic.value.DoubleValue
0.000000

@<SCITEGIC>MOL_PROPERTY
U
SciTegic.value.DoubleValue
8.220

@<SCITEGIC>MOL_PROPERTY
W
SciTegic.value.DoubleValue
-62.792

@<SCITEGIC>MOL_PROPERTY
W(PB)
SciTegic.value.DoubleValue
-64.830

@<SCITEGIC>MOL_PROPERTY
W(SA)
SciTegic.value.DoubleValue
2.038

@<SCITEGIC>MOL_PROPERTY
Valence
SciTegic.value.DoubleValue
7.609

@<SCITEGIC>MOL_PROPERTY
Coulomb
SciTegic.value.DoubleValue
-0.088

@<SCITEGIC>MOL_PROPERTY
VdW
SciTegic.value.DoubleValue
0.699

@<SCITEGIC>MOL_PROPERTY
VdW6
SciTegic.value.DoubleValue
-6.924

@<SCITEGIC>MOL_PROPERTY
VdW12
SciTegic.value.DoubleValue
7.623

@<SCITEGIC>MOL_PROPERTY
Bond
SciTegic.value.DoubleValue
0.163

@<SCITEGIC>MOL_PROPERTY
Angle
SciTegic.value.DoubleValue
2.870

@<SCITEGIC>MOL_PROPERTY
Pdih
SciTegic.value.DoubleValue
4.576

@<SCITEGIC>MOL_PROPERTY
Idih
SciTegic.value.DoubleValue
0.000

@<SCITEGIC>MOL_PROPERTY
Tether
SciTegic.value.DoubleValue
0.000

@<TRIPOS>MOLECULE
guest-7_confgen4.mol2 : confsearch ligand conformer 69
          19          18           1
SMALL
USER_CHARGES
 
@<TRIPOS>ATOM
       1    C1      18.653634   20.891504   23.969485 C.2        1 MOL1         0.6115
       2    O1      18.847265   22.085832   24.081406 O.co2      1 MOL1        -0.6776
       3    O2      17.601144   20.352172   24.248121 O.co2      1 MOL1        -0.6776
       4    C2      19.787682   20.025564   23.432673 C.3        1 MOL1        -0.2013
       5    H1      19.705972   19.038640   23.898644 H          1 MOL1         0.0727
       6    H2      20.735233   20.460992   23.771691 H          1 MOL1         0.0727
       7    C3      19.777870   19.914520   21.885041 C.3        1 MOL1        -0.1910
       8    H3      18.807213   19.533064   21.539211 H          1 MOL1         0.0729
       9    H4      19.872003   20.928883   21.473212 H          1 MOL1         0.0729
      10    C4      20.928571   19.042356   21.321867 C.3        1 MOL1        -0.1909
      11    H5      21.802764   19.090302   21.985482 H          1 MOL1         0.0729
      12    H6      21.253416   19.480357   20.368135 H          1 MOL1         0.0729
      13    C5      20.547364   17.566360   21.049794 C.3        1 MOL1        -0.1884
      14    H7      19.730375   17.526271   20.316187 H          1 MOL1         0.0729
      15    H8      21.405774   17.065764   20.581039 H          1 MOL1         0.0729
      16    C6      20.142132   16.774629   22.310208 C.3        1 MOL1        -0.2899
      17    H9      20.013061   15.711377   22.070105 H          1 MOL1         0.0741
      18    H10     20.910080   16.855020   23.090446 H          1 MOL1         0.0741
      19    H11     19.190322   17.138673   22.716810 H          1 MOL1         0.0741
@<TRIPOS>BOND
    1     1     2    1
    2     1     3    2
    3     1     4    1
    4     4     5    1
    5     4     6    1
    6     4     7    1
    7     7     8    1
    8     7     9    1
    9     7    10    1
   10    10    11    1
   11    10    12    1
   12    10    13    1
   13    13    14    1
   14    13    15    1
   15    13    16    1
   16    16    17    1
   17    16    18    1
   18    16    19    1
@<TRIPOS>SUBSTRUCTURE
       1 MOL1            1 RESIDUE      1      MOL     
@<SCITEGIC>MOL_PROPERTY
VConf Rank
SciTegic.value.IntegerValue
69

@<SCITEGIC>MOL_PROPERTY
Conf_Id
SciTegic.value.IntegerValue
24

@<SCITEGIC>MOL_PROPERTY
Delta U+W
SciTegic.value.DoubleValue
2.477

@<SCITEGIC>MOL_PROPERTY
U+W
SciTegic.value.DoubleValue
-52.414

@<SCITEGIC>MOL_PROPERTY
Grad RMS
SciTegic.value.DoubleValue
0.000000

@<SCITEGIC>MOL_PROPERTY
U
SciTegic.value.DoubleValue
10.422

@<SCITEGIC>MOL_PROPERTY
W
SciTegic.value.DoubleValue
-62.836

@<SCITEGIC>MOL_PROPERTY
W(PB)
SciTegic.value.DoubleValue
-64.906

@<SCITEGIC>MOL_PROPERTY
W(SA)
SciTegic.value.DoubleValue
2.070

@<SCITEGIC>MOL_PROPERTY
Valence
SciTegic.value.DoubleValue
9.628

@<SCITEGIC>MOL_PROPERTY
Coulomb
SciTegic.value.DoubleValue
0.101

@<SCITEGIC>MOL_PROPERTY
VdW
SciTegic.value.DoubleValue
0.693

@<SCITEGIC>MOL_PROPERTY
VdW6
SciTegic.value.DoubleValue
-6.927

@<SCITEGIC>MOL_PROPERTY
VdW12
SciTegic.value.DoubleValue
7.620

@<SCITEGIC>MOL_PROPERTY
Bond
SciTegic.value.DoubleValue
0.173

@<SCITEGIC>MOL_PROPERTY
Angle
SciTegic.value.DoubleValue
2.989

@<SCITEGIC>MOL_PROPERTY
Pdih
SciTegic.value.DoubleValue
6.465

@<SCITEGIC>MOL_PROPERTY
Idih
SciTegic.value.DoubleValue
0.001

@<SCITEGIC>MOL_PROPERTY
Tether
SciTegic.value.DoubleValue
0.000

@<TRIPOS>MOLECULE
guest-7_confgen4.mol2 : confsearch ligand conformer 70
          19          18           1
SMALL
USER_CHARGES
 
@<TRIPOS>ATOM
       1    C1      21.843957   19.414865   24.069863 C.2        1 MOL1         0.6115
       2    O1      21.990751   20.598715   23.838261 O.co2      1 MOL1        -0.6776
       3    O2      22.077237   18.908782   25.149926 O.co2      1 MOL1        -0.6776
       4    C2      21.369175   18.507461   22.937859 C.3        1 MOL1        -0.2013
       5    H1      22.040063   17.640779   22.914878 H          1 MOL1         0.0727
       6    H2      21.508276   19.036585   21.989750 H          1 MOL1         0.0727
       7    C3      19.902736   18.017521   23.094236 C.3        1 MOL1        -0.1910
       8    H3      19.698245   17.218266   22.369247 H          1 MOL1         0.0729
       9    H4      19.802548   17.557296   24.087055 H          1 MOL1         0.0729
      10    C4      18.839154   19.137519   22.953255 C.3        1 MOL1        -0.1909
      11    H5      19.247233   20.100524   23.289259 H          1 MOL1         0.0729
      12    H6      18.011743   18.909718   23.639025 H          1 MOL1         0.0729
      13    C5      18.239608   19.283674   21.533012 C.3        1 MOL1        -0.1884
      14    H7      17.753855   18.343101   21.238786 H          1 MOL1         0.0729
      15    H8      17.445363   20.042073   21.567075 H          1 MOL1         0.0729
      16    C6      19.264316   19.690611   20.454156 C.3        1 MOL1        -0.2899
      17    H9      19.982682   18.883096   20.266466 H          1 MOL1         0.0741
      18    H10     18.756991   19.908731   19.505566 H          1 MOL1         0.0741
      19    H11     19.818871   20.588544   20.756929 H          1 MOL1         0.0741
@<TRIPOS>BOND
    1     1     2    1
    2     1     3    2
    3     1     4    1
    4     4     5    1
    5     4     6    1
    6     4     7    1
    7     7     8    1
    8     7     9    1
    9     7    10    1
   10    10    11    1
   11    10    12    1
   12    10    13    1
   13    13    14    1
   14    13    15    1
   15    13    16    1
   16    16    17    1
   17    16    18    1
   18    16    19    1
@<TRIPOS>SUBSTRUCTURE
       1 MOL1            1 RESIDUE      1      MOL     
@<SCITEGIC>MOL_PROPERTY
VConf Rank
SciTegic.value.IntegerValue
70

@<SCITEGIC>MOL_PROPERTY
Conf_Id
SciTegic.value.IntegerValue
4

@<SCITEGIC>MOL_PROPERTY
Delta U+W
SciTegic.value.DoubleValue
3.753

@<SCITEGIC>MOL_PROPERTY
U+W
SciTegic.value.DoubleValue
-51.138

@<SCITEGIC>MOL_PROPERTY
Grad RMS
SciTegic.value.DoubleValue
0.000000

@<SCITEGIC>MOL_PROPERTY
U
SciTegic.value.DoubleValue
12.334

@<SCITEGIC>MOL_PROPERTY
W
SciTegic.value.DoubleValue
-63.472

@<SCITEGIC>MOL_PROPERTY
W(PB)
SciTegic.value.DoubleValue
-65.500

@<SCITEGIC>MOL_PROPERTY
W(SA)
SciTegic.value.DoubleValue
2.028

@<SCITEGIC>MOL_PROPERTY
Valence
SciTegic.value.DoubleValue
9.984

@<SCITEGIC>MOL_PROPERTY
Coulomb
SciTegic.value.DoubleValue
1.767

@<SCITEGIC>MOL_PROPERTY
VdW
SciTegic.value.DoubleValue
0.583

@<SCITEGIC>MOL_PROPERTY
VdW6
SciTegic.value.DoubleValue
-7.767

@<SCITEGIC>MOL_PROPERTY
VdW12
SciTegic.value.DoubleValue
8.349

@<SCITEGIC>MOL_PROPERTY
Bond
SciTegic.value.DoubleValue
0.203

@<SCITEGIC>MOL_PROPERTY
Angle
SciTegic.value.DoubleValue
3.191

@<SCITEGIC>MOL_PROPERTY
Pdih
SciTegic.value.DoubleValue
6.589

@<SCITEGIC>MOL_PROPERTY
Idih
SciTegic.value.DoubleValue
0.001

@<SCITEGIC>MOL_PROPERTY
Tether
SciTegic.value.DoubleValue
0.000

@<TRIPOS>MOLECULE
guest-7_confgen4.mol2 : confsearch ligand conformer 71
          19          18           1
SMALL
USER_CHARGES
 
@<TRIPOS>ATOM
       1    C1      19.910824   18.505325   24.992922 C.2        1 MOL1         0.6115
       2    O1      19.214168   17.788232   25.683951 O.co2      1 MOL1        -0.6776
       3    O2      21.109216   18.630021   25.151034 O.co2      1 MOL1        -0.6776
       4    C2      19.236874   19.313328   23.886959 C.3        1 MOL1        -0.2013
       5    H1      19.916588   20.115397   23.582158 H          1 MOL1         0.0727
       6    H2      18.358529   19.797593   24.329400 H          1 MOL1         0.0727
       7    C3      18.792869   18.462687   22.664583 C.3        1 MOL1        -0.1910
       8    H3      18.171263   17.635417   23.034401 H          1 MOL1         0.0729
       9    H4      18.142392   19.060387   22.011998 H          1 MOL1         0.0729
      10    C4      19.966443   17.874936   21.838297 C.3        1 MOL1        -0.1909
      11    H5      19.659344   16.888683   21.464428 H          1 MOL1         0.0729
      12    H6      20.836813   17.690763   22.482767 H          1 MOL1         0.0729
      13    C5      20.385014   18.726732   20.614719 C.3        1 MOL1        -0.1884
      14    H7      21.160295   18.180814   20.059681 H          1 MOL1         0.0729
      15    H8      19.532842   18.831827   19.929183 H          1 MOL1         0.0729
      16    C6      20.928326   20.124778   20.975048 C.3        1 MOL1        -0.2899
      17    H9      21.733929   20.054481   21.717711 H          1 MOL1         0.0741
      18    H10     21.331272   20.621715   20.083159 H          1 MOL1         0.0741
      19    H11     20.134926   20.765099   21.379845 H          1 MOL1         0.0741
@<TRIPOS>BOND
    1     1     2    1
    2     1     3    2
    3     1     4    1
    4     4     5    1
    5     4     6    1
    6     4     7    1
    7     7     8    1
    8     7     9    1
    9     7    10    1
   10    10    11    1
   11    10    12    1
   12    10    13    1
   13    13    14    1
   14    13    15    1
   15    13    16    1
   16    16    17    1
   17    16    18    1
   18    16    19    1
@<TRIPOS>SUBSTRUCTURE
       1 MOL1            1 RESIDUE      1      MOL     
@<SCITEGIC>MOL_PROPERTY
VConf Rank
SciTegic.value.IntegerValue
71

@<SCITEGIC>MOL_PROPERTY
Conf_Id
SciTegic.value.IntegerValue
73

@<SCITEGIC>MOL_PROPERTY
Delta U+W
SciTegic.value.DoubleValue
3.707

@<SCITEGIC>MOL_PROPERTY
U+W
SciTegic.value.DoubleValue
-51.184

@<SCITEGIC>MOL_PROPERTY
Grad RMS
SciTegic.value.DoubleValue
0.000000

@<SCITEGIC>MOL_PROPERTY
U
SciTegic.value.DoubleValue
12.334

@<SCITEGIC>MOL_PROPERTY
W
SciTegic.value.DoubleValue
-63.519

@<SCITEGIC>MOL_PROPERTY
W(PB)
SciTegic.value.DoubleValue
-65.541

@<SCITEGIC>MOL_PROPERTY
W(SA)
SciTegic.value.DoubleValue
2.022

@<SCITEGIC>MOL_PROPERTY
Valence
SciTegic.value.DoubleValue
9.984

@<SCITEGIC>MOL_PROPERTY
Coulomb
SciTegic.value.DoubleValue
1.768

@<SCITEGIC>MOL_PROPERTY
VdW
SciTegic.value.DoubleValue
0.583

@<SCITEGIC>MOL_PROPERTY
VdW6
SciTegic.value.DoubleValue
-7.767

@<SCITEGIC>MOL_PROPERTY
VdW12
SciTegic.value.DoubleValue
8.350

@<SCITEGIC>MOL_PROPERTY
Bond
SciTegic.value.DoubleValue
0.203

@<SCITEGIC>MOL_PROPERTY
Angle
SciTegic.value.DoubleValue
3.192

@<SCITEGIC>MOL_PROPERTY
Pdih
SciTegic.value.DoubleValue
6.589

@<SCITEGIC>MOL_PROPERTY
Idih
SciTegic.value.DoubleValue
0.001

@<SCITEGIC>MOL_PROPERTY
Tether
SciTegic.value.DoubleValue
0.000

@<TRIPOS>MOLECULE
guest-7_confgen4.mol2 : confsearch ligand conformer 72
          19          18           1
SMALL
USER_CHARGES
 
@<TRIPOS>ATOM
       1    C1      17.892302   17.942735   21.090672 C.2        1 MOL1         0.6115
       2    O1      17.052028   18.073008   21.958820 O.co2      1 MOL1        -0.6776
       3    O2      17.645770   18.011012   19.902514 O.co2      1 MOL1        -0.6776
       4    C2      19.329031   17.645478   21.511116 C.3        1 MOL1        -0.2013
       5    H1      19.664077   16.774795   20.935508 H          1 MOL1         0.0727
       6    H2      19.331670   17.341058   22.564025 H          1 MOL1         0.0727
       7    C3      20.314708   18.823513   21.281019 C.3        1 MOL1        -0.1910
       8    H3      21.331366   18.500056   21.539181 H          1 MOL1         0.0729
       9    H4      20.336714   19.059055   20.208105 H          1 MOL1         0.0729
      10    C4      19.963865   20.114589   22.064680 C.3        1 MOL1        -0.1909
      11    H5      18.996769   20.497058   21.710388 H          1 MOL1         0.0729
      12    H6      20.703112   20.888600   21.817669 H          1 MOL1         0.0729
      13    C5      19.900828   19.955331   23.603472 C.3        1 MOL1        -0.1884
      14    H7      19.629408   20.924356   24.044175 H          1 MOL1         0.0729
      15    H8      19.094692   19.261724   23.878241 H          1 MOL1         0.0729
      16    C6      21.232583   19.482343   24.225071 C.3        1 MOL1        -0.2899
      17    H9      21.486310   18.466015   23.898558 H          1 MOL1         0.0741
      18    H10     22.056519   20.151100   23.944168 H          1 MOL1         0.0741
      19    H11     21.162876   19.472221   25.320440 H          1 MOL1         0.0741
@<TRIPOS>BOND
    1     1     2    1
    2     1     3    2
    3     1     4    1
    4     4     5    1
    5     4     6    1
    6     4     7    1
    7     7     8    1
    8     7     9    1
    9     7    10    1
   10    10    11    1
   11    10    12    1
   12    10    13    1
   13    13    14    1
   14    13    15    1
   15    13    16    1
   16    16    17    1
   17    16    18    1
   18    16    19    1
@<TRIPOS>SUBSTRUCTURE
       1 MOL1            1 RESIDUE      1      MOL     
@<SCITEGIC>MOL_PROPERTY
VConf Rank
SciTegic.value.IntegerValue
72

@<SCITEGIC>MOL_PROPERTY
Conf_Id
SciTegic.value.IntegerValue
56

@<SCITEGIC>MOL_PROPERTY
Delta U+W
SciTegic.value.DoubleValue
1.735

@<SCITEGIC>MOL_PROPERTY
U+W
SciTegic.value.DoubleValue
-53.156

@<SCITEGIC>MOL_PROPERTY
Grad RMS
SciTegic.value.DoubleValue
0.000000

@<SCITEGIC>MOL_PROPERTY
U
SciTegic.value.DoubleValue
10.214

@<SCITEGIC>MOL_PROPERTY
W
SciTegic.value.DoubleValue
-63.370

@<SCITEGIC>MOL_PROPERTY
W(PB)
SciTegic.value.DoubleValue
-65.388

@<SCITEGIC>MOL_PROPERTY
W(SA)
SciTegic.value.DoubleValue
2.018

@<SCITEGIC>MOL_PROPERTY
Valence
SciTegic.value.DoubleValue
7.868

@<SCITEGIC>MOL_PROPERTY
Coulomb
SciTegic.value.DoubleValue
1.968

@<SCITEGIC>MOL_PROPERTY
VdW
SciTegic.value.DoubleValue
0.378

@<SCITEGIC>MOL_PROPERTY
VdW6
SciTegic.value.DoubleValue
-8.067

@<SCITEGIC>MOL_PROPERTY
VdW12
SciTegic.value.DoubleValue
8.445

@<SCITEGIC>MOL_PROPERTY
Bond
SciTegic.value.DoubleValue
0.191

@<SCITEGIC>MOL_PROPERTY
Angle
SciTegic.value.DoubleValue
3.117

@<SCITEGIC>MOL_PROPERTY
Pdih
SciTegic.value.DoubleValue
4.559

@<SCITEGIC>MOL_PROPERTY
Idih
SciTegic.value.DoubleValue
0.001

@<SCITEGIC>MOL_PROPERTY
Tether
SciTegic.value.DoubleValue
0.000

@<TRIPOS>MOLECULE
guest-7_confgen4.mol2 : confsearch ligand conformer 73
          19          18           1
SMALL
USER_CHARGES
 
@<TRIPOS>ATOM
       1    C1      20.795175   16.251188   23.081656 C.2        1 MOL1         0.6115
       2    O1      21.959383   15.905065   23.116034 O.co2      1 MOL1        -0.6776
       3    O2      19.861538   15.478977   23.173234 O.co2      1 MOL1        -0.6776
       4    C2      20.489466   17.732635   22.891675 C.3        1 MOL1        -0.2013
       5    H1      21.296012   18.310386   23.358652 H          1 MOL1         0.0727
       6    H2      19.565789   17.953082   23.438240 H          1 MOL1         0.0727
       7    C3      20.339832   18.128871   21.401177 C.3        1 MOL1        -0.1910
       8    H3      21.220151   17.767920   20.851492 H          1 MOL1         0.0729
       9    H4      19.474137   17.605043   20.972960 H          1 MOL1         0.0729
      10    C4      20.199254   19.652232   21.156020 C.3        1 MOL1        -0.1909
      11    H5      20.155291   19.809034   20.069534 H          1 MOL1         0.0729
      12    H6      21.103994   20.174343   21.496381 H          1 MOL1         0.0729
      13    C5      18.939399   20.295570   21.786884 C.3        1 MOL1        -0.1884
      14    H7      18.572872   21.082355   21.113113 H          1 MOL1         0.0729
      15    H8      18.130184   19.556014   21.861283 H          1 MOL1         0.0729
      16    C6      19.207782   20.937123   23.166416 C.3        1 MOL1        -0.2899
      17    H9      18.291053   21.393155   23.562038 H          1 MOL1         0.0741
      18    H10     19.557673   20.201079   23.898833 H          1 MOL1         0.0741
      19    H11     19.967838   21.725428   23.088814 H          1 MOL1         0.0741
@<TRIPOS>BOND
    1     1     2    1
    2     1     3    2
    3     1     4    1
    4     4     5    1
    5     4     6    1
    6     4     7    1
    7     7     8    1
    8     7     9    1
    9     7    10    1
   10    10    11    1
   11    10    12    1
   12    10    13    1
   13    13    14    1
   14    13    15    1
   15    13    16    1
   16    16    17    1
   17    16    18    1
   18    16    19    1
@<TRIPOS>SUBSTRUCTURE
       1 MOL1            1 RESIDUE      1      MOL     
@<SCITEGIC>MOL_PROPERTY
VConf Rank
SciTegic.value.IntegerValue
73

@<SCITEGIC>MOL_PROPERTY
Conf_Id
SciTegic.value.IntegerValue
53

@<SCITEGIC>MOL_PROPERTY
Delta U+W
SciTegic.value.DoubleValue
2.279

@<SCITEGIC>MOL_PROPERTY
U+W
SciTegic.value.DoubleValue
-52.612

@<SCITEGIC>MOL_PROPERTY
Grad RMS
SciTegic.value.DoubleValue
0.000000

@<SCITEGIC>MOL_PROPERTY
U
SciTegic.value.DoubleValue
10.231

@<SCITEGIC>MOL_PROPERTY
W
SciTegic.value.DoubleValue
-62.843

@<SCITEGIC>MOL_PROPERTY
W(PB)
SciTegic.value.DoubleValue
-64.893

@<SCITEGIC>MOL_PROPERTY
W(SA)
SciTegic.value.DoubleValue
2.050

@<SCITEGIC>MOL_PROPERTY
Valence
SciTegic.value.DoubleValue
9.644

@<SCITEGIC>MOL_PROPERTY
Coulomb
SciTegic.value.DoubleValue
-0.164

@<SCITEGIC>MOL_PROPERTY
VdW
SciTegic.value.DoubleValue
0.751

@<SCITEGIC>MOL_PROPERTY
VdW6
SciTegic.value.DoubleValue
-6.881

@<SCITEGIC>MOL_PROPERTY
VdW12
SciTegic.value.DoubleValue
7.631

@<SCITEGIC>MOL_PROPERTY
Bond
SciTegic.value.DoubleValue
0.163

@<SCITEGIC>MOL_PROPERTY
Angle
SciTegic.value.DoubleValue
2.998

@<SCITEGIC>MOL_PROPERTY
Pdih
SciTegic.value.DoubleValue
6.482

@<SCITEGIC>MOL_PROPERTY
Idih
SciTegic.value.DoubleValue
0.001

@<SCITEGIC>MOL_PROPERTY
Tether
SciTegic.value.DoubleValue
0.000

@<TRIPOS>MOLECULE
guest-7_confgen4.mol2 : confsearch ligand conformer 74
          19          18           1
SMALL
USER_CHARGES
 
@<TRIPOS>ATOM
       1    C1      22.473273   19.617228   22.352121 C.2        1 MOL1         0.6115
       2    O1      22.426502   20.788625   22.672271 O.co2      1 MOL1        -0.6776
       3    O2      22.929896   19.229897   21.294427 O.co2      1 MOL1        -0.6776
       4    C2      21.997333   18.574848   23.362273 C.3        1 MOL1        -0.2013
       5    H1      21.671407   19.086335   24.276099 H          1 MOL1         0.0727
       6    H2      22.879070   17.982219   23.632372 H          1 MOL1         0.0727
       7    C3      20.882031   17.618350   22.854003 C.3        1 MOL1        -0.1910
       8    H3      21.121315   17.269256   21.839894 H          1 MOL1         0.0729
       9    H4      20.887445   16.723240   23.490529 H          1 MOL1         0.0729
      10    C4      19.451952   18.211988   22.887816 C.3        1 MOL1        -0.1909
      11    H5      19.216675   18.552233   23.905516 H          1 MOL1         0.0729
      12    H6      18.741403   17.405570   22.660175 H          1 MOL1         0.0729
      13    C5      19.225968   19.367991   21.888735 C.3        1 MOL1        -0.1884
      14    H7      19.830827   20.237590   22.175702 H          1 MOL1         0.0729
      15    H8      19.555960   19.063429   20.885867 H          1 MOL1         0.0729
      16    C6      17.743346   19.788645   21.836614 C.3        1 MOL1        -0.2899
      17    H9      17.395566   20.122489   22.823000 H          1 MOL1         0.0741
      18    H10     17.601272   20.615915   21.129165 H          1 MOL1         0.0741
      19    H11     17.108355   18.953509   21.513113 H          1 MOL1         0.0741
@<TRIPOS>BOND
    1     1     2    1
    2     1     3    2
    3     1     4    1
    4     4     5    1
    5     4     6    1
    6     4     7    1
    7     7     8    1
    8     7     9    1
    9     7    10    1
   10    10    11    1
   11    10    12    1
   12    10    13    1
   13    13    14    1
   14    13    15    1
   15    13    16    1
   16    16    17    1
   17    16    18    1
   18    16    19    1
@<TRIPOS>SUBSTRUCTURE
       1 MOL1            1 RESIDUE      1      MOL     
@<SCITEGIC>MOL_PROPERTY
VConf Rank
SciTegic.value.IntegerValue
74

@<SCITEGIC>MOL_PROPERTY
Conf_Id
SciTegic.value.IntegerValue
25

@<SCITEGIC>MOL_PROPERTY
Delta U+W
SciTegic.value.DoubleValue
2.065

@<SCITEGIC>MOL_PROPERTY
U+W
SciTegic.value.DoubleValue
-52.826

@<SCITEGIC>MOL_PROPERTY
Grad RMS
SciTegic.value.DoubleValue
0.000000

@<SCITEGIC>MOL_PROPERTY
U
SciTegic.value.DoubleValue
10.967

@<SCITEGIC>MOL_PROPERTY
W
SciTegic.value.DoubleValue
-63.794

@<SCITEGIC>MOL_PROPERTY
W(PB)
SciTegic.value.DoubleValue
-65.830

@<SCITEGIC>MOL_PROPERTY
W(SA)
SciTegic.value.DoubleValue
2.036

@<SCITEGIC>MOL_PROPERTY
Valence
SciTegic.value.DoubleValue
8.609

@<SCITEGIC>MOL_PROPERTY
Coulomb
SciTegic.value.DoubleValue
1.892

@<SCITEGIC>MOL_PROPERTY
VdW
SciTegic.value.DoubleValue
0.467

@<SCITEGIC>MOL_PROPERTY
VdW6
SciTegic.value.DoubleValue
-7.569

@<SCITEGIC>MOL_PROPERTY
VdW12
SciTegic.value.DoubleValue
8.036

@<SCITEGIC>MOL_PROPERTY
Bond
SciTegic.value.DoubleValue
0.170

@<SCITEGIC>MOL_PROPERTY
Angle
SciTegic.value.DoubleValue
3.195

@<SCITEGIC>MOL_PROPERTY
Pdih
SciTegic.value.DoubleValue
5.237

@<SCITEGIC>MOL_PROPERTY
Idih
SciTegic.value.DoubleValue
0.007

@<SCITEGIC>MOL_PROPERTY
Tether
SciTegic.value.DoubleValue
0.000

@<TRIPOS>MOLECULE
guest-7_confgen4.mol2 : confsearch ligand conformer 75
          19          18           1
SMALL
USER_CHARGES
 
@<TRIPOS>ATOM
       1    C1      19.900425   20.079588   24.575913 C.2        1 MOL1         0.6115
       2    O1      18.888980   20.751450   24.522726 O.co2      1 MOL1        -0.6776
       3    O2      21.009040   20.550266   24.738048 O.co2      1 MOL1        -0.6776
       4    C2      19.766345   18.559522   24.505864 C.3        1 MOL1        -0.2013
       5    H1      19.179509   18.261084   25.382324 H          1 MOL1         0.0727
       6    H2      20.758783   18.107944   24.624469 H          1 MOL1         0.0727
       7    C3      19.075628   18.012109   23.225092 C.3        1 MOL1        -0.1910
       8    H3      18.711566   16.999054   23.443258 H          1 MOL1         0.0729
       9    H4      18.183217   18.610864   22.995664 H          1 MOL1         0.0729
      10    C4      19.991857   17.925497   21.979420 C.3        1 MOL1        -0.1909
      11    H5      19.448371   17.385549   21.191963 H          1 MOL1         0.0729
      12    H6      20.878007   17.319849   22.213444 H          1 MOL1         0.0729
      13    C5      20.432788   19.298035   21.425077 C.3        1 MOL1        -0.1884
      14    H7      19.554195   19.942940   21.285196 H          1 MOL1         0.0729
      15    H8      21.089745   19.801878   22.145464 H          1 MOL1         0.0729
      16    C6      21.182418   19.152493   20.085409 C.3        1 MOL1        -0.2899
      17    H9      21.496088   20.135075   19.709660 H          1 MOL1         0.0741
      18    H10     22.080564   18.532309   20.204007 H          1 MOL1         0.0741
      19    H11     20.542017   18.687543   19.324472 H          1 MOL1         0.0741
@<TRIPOS>BOND
    1     1     2    1
    2     1     3    2
    3     1     4    1
    4     4     5    1
    5     4     6    1
    6     4     7    1
    7     7     8    1
    8     7     9    1
    9     7    10    1
   10    10    11    1
   11    10    12    1
   12    10    13    1
   13    13    14    1
   14    13    15    1
   15    13    16    1
   16    16    17    1
   17    16    18    1
   18    16    19    1
@<TRIPOS>SUBSTRUCTURE
       1 MOL1            1 RESIDUE      1      MOL     
@<SCITEGIC>MOL_PROPERTY
VConf Rank
SciTegic.value.IntegerValue
75

@<SCITEGIC>MOL_PROPERTY
Conf_Id
SciTegic.value.IntegerValue
52

@<SCITEGIC>MOL_PROPERTY
Delta U+W
SciTegic.value.DoubleValue
2.070

@<SCITEGIC>MOL_PROPERTY
U+W
SciTegic.value.DoubleValue
-52.822

@<SCITEGIC>MOL_PROPERTY
Grad RMS
SciTegic.value.DoubleValue
0.000000

@<SCITEGIC>MOL_PROPERTY
U
SciTegic.value.DoubleValue
10.967

@<SCITEGIC>MOL_PROPERTY
W
SciTegic.value.DoubleValue
-63.789

@<SCITEGIC>MOL_PROPERTY
W(PB)
SciTegic.value.DoubleValue
-65.837

@<SCITEGIC>MOL_PROPERTY
W(SA)
SciTegic.value.DoubleValue
2.048

@<SCITEGIC>MOL_PROPERTY
Valence
SciTegic.value.DoubleValue
8.609

@<SCITEGIC>MOL_PROPERTY
Coulomb
SciTegic.value.DoubleValue
1.892

@<SCITEGIC>MOL_PROPERTY
VdW
SciTegic.value.DoubleValue
0.467

@<SCITEGIC>MOL_PROPERTY
VdW6
SciTegic.value.DoubleValue
-7.569

@<SCITEGIC>MOL_PROPERTY
VdW12
SciTegic.value.DoubleValue
8.035

@<SCITEGIC>MOL_PROPERTY
Bond
SciTegic.value.DoubleValue
0.170

@<SCITEGIC>MOL_PROPERTY
Angle
SciTegic.value.DoubleValue
3.196

@<SCITEGIC>MOL_PROPERTY
Pdih
SciTegic.value.DoubleValue
5.237

@<SCITEGIC>MOL_PROPERTY
Idih
SciTegic.value.DoubleValue
0.007

@<SCITEGIC>MOL_PROPERTY
Tether
SciTegic.value.DoubleValue
0.000

@<TRIPOS>MOLECULE
guest-7_confgen4.mol2 : confsearch ligand conformer 76
          19          18           1
SMALL
USER_CHARGES
 
@<TRIPOS>ATOM
       1    C1      20.492219   20.647405   21.575582 C.2        1 MOL1         0.6115
       2    O1      19.753374   21.558925   21.893943 O.co2      1 MOL1        -0.6776
       3    O2      21.703474   20.718836   21.642357 O.co2      1 MOL1        -0.6776
       4    C2      19.883172   19.395763   20.941678 C.3        1 MOL1        -0.2013
       5    H1      20.658014   18.624290   20.858080 H          1 MOL1         0.0727
       6    H2      19.611012   19.676942   19.917891 H          1 MOL1         0.0727
       7    C3      18.626559   18.819951   21.654936 C.3        1 MOL1        -0.1910
       8    H3      17.967942   19.639169   21.974914 H          1 MOL1         0.0729
       9    H4      18.051113   18.248047   20.914569 H          1 MOL1         0.0729
      10    C4      18.914523   17.876347   22.850706 C.3        1 MOL1        -0.1909
      11    H5      19.488839   17.003801   22.510322 H          1 MOL1         0.0729
      12    H6      17.950349   17.479022   23.196345 H          1 MOL1         0.0729
      13    C5      19.616646   18.544892   24.057380 C.3        1 MOL1        -0.1884
      14    H7      19.448404   19.630679   24.046575 H          1 MOL1         0.0729
      15    H8      19.157096   18.175331   24.984411 H          1 MOL1         0.0729
      16    C6      21.128172   18.236531   24.115038 C.3        1 MOL1        -0.2899
      17    H9      21.303724   17.158731   24.226691 H          1 MOL1         0.0741
      18    H10     21.641430   18.570709   23.205851 H          1 MOL1         0.0741
      19    H11     21.592668   18.744856   24.969712 H          1 MOL1         0.0741
@<TRIPOS>BOND
    1     1     2    1
    2     1     3    2
    3     1     4    1
    4     4     5    1
    5     4     6    1
    6     4     7    1
    7     7     8    1
    8     7     9    1
    9     7    10    1
   10    10    11    1
   11    10    12    1
   12    10    13    1
   13    13    14    1
   14    13    15    1
   15    13    16    1
   16    16    17    1
   17    16    18    1
   18    16    19    1
@<TRIPOS>SUBSTRUCTURE
       1 MOL1            1 RESIDUE      1      MOL     
@<SCITEGIC>MOL_PROPERTY
VConf Rank
SciTegic.value.IntegerValue
76

@<SCITEGIC>MOL_PROPERTY
Conf_Id
SciTegic.value.IntegerValue
66

@<SCITEGIC>MOL_PROPERTY
Delta U+W
SciTegic.value.DoubleValue
5.819

@<SCITEGIC>MOL_PROPERTY
U+W
SciTegic.value.DoubleValue
-49.072

@<SCITEGIC>MOL_PROPERTY
Grad RMS
SciTegic.value.DoubleValue
0.000000

@<SCITEGIC>MOL_PROPERTY
U
SciTegic.value.DoubleValue
15.324

@<SCITEGIC>MOL_PROPERTY
W
SciTegic.value.DoubleValue
-64.396

@<SCITEGIC>MOL_PROPERTY
W(PB)
SciTegic.value.DoubleValue
-66.382

@<SCITEGIC>MOL_PROPERTY
W(SA)
SciTegic.value.DoubleValue
1.986

@<SCITEGIC>MOL_PROPERTY
Valence
SciTegic.value.DoubleValue
11.748

@<SCITEGIC>MOL_PROPERTY
Coulomb
SciTegic.value.DoubleValue
3.201

@<SCITEGIC>MOL_PROPERTY
VdW
SciTegic.value.DoubleValue
0.375

@<SCITEGIC>MOL_PROPERTY
VdW6
SciTegic.value.DoubleValue
-8.854

@<SCITEGIC>MOL_PROPERTY
VdW12
SciTegic.value.DoubleValue
9.229

@<SCITEGIC>MOL_PROPERTY
Bond
SciTegic.value.DoubleValue
0.216

@<SCITEGIC>MOL_PROPERTY
Angle
SciTegic.value.DoubleValue
3.812

@<SCITEGIC>MOL_PROPERTY
Pdih
SciTegic.value.DoubleValue
7.699

@<SCITEGIC>MOL_PROPERTY
Idih
SciTegic.value.DoubleValue
0.022

@<SCITEGIC>MOL_PROPERTY
Tether
SciTegic.value.DoubleValue
0.000

@<TRIPOS>MOLECULE
guest-7_confgen4.mol2 : confsearch ligand conformer 77
          19          18           1
SMALL
USER_CHARGES
 
@<TRIPOS>ATOM
       1    C1      18.318197   15.918978   22.065620 C.2        1 MOL1         0.6115
       2    O1      18.508123   14.725491   22.188823 O.co2      1 MOL1        -0.6776
       3    O2      17.223570   16.396563   21.837917 O.co2      1 MOL1        -0.6776
       4    C2      19.532764   16.837677   22.208783 C.3        1 MOL1        -0.2013
       5    H1      20.272792   16.519922   21.464847 H          1 MOL1         0.0727
       6    H2      19.970038   16.650313   23.196577 H          1 MOL1         0.0727
       7    C3      19.241072   18.352965   22.043701 C.3        1 MOL1        -0.1910
       8    H3      18.797851   18.533101   21.054472 H          1 MOL1         0.0729
       9    H4      18.494740   18.663613   22.787982 H          1 MOL1         0.0729
      10    C4      20.519311   19.204410   22.203099 C.3        1 MOL1        -0.1909
      11    H5      21.264109   18.892066   21.458205 H          1 MOL1         0.0729
      12    H6      20.960815   19.022696   23.192647 H          1 MOL1         0.0729
      13    C5      20.227153   20.710389   22.038587 C.3        1 MOL1        -0.1884
      14    H7      19.787069   20.896576   21.049065 H          1 MOL1         0.0729
      15    H8      19.483908   21.027217   22.783370 H          1 MOL1         0.0729
      16    C6      21.505486   21.557363   22.198238 C.3        1 MOL1        -0.2899
      17    H9      22.255235   21.282816   21.444632 H          1 MOL1         0.0741
      18    H10     21.279616   22.624939   22.078348 H          1 MOL1         0.0741
      19    H11     21.949810   21.414426   23.192001 H          1 MOL1         0.0741
@<TRIPOS>BOND
    1     1     2    1
    2     1     3    2
    3     1     4    1
    4     4     5    1
    5     4     6    1
    6     4     7    1
    7     7     8    1
    8     7     9    1
    9     7    10    1
   10    10    11    1
   11    10    12    1
   12    10    13    1
   13    13    14    1
   14    13    15    1
   15    13    16    1
   16    16    17    1
   17    16    18    1
   18    16    19    1
@<TRIPOS>SUBSTRUCTURE
       1 MOL1            1 RESIDUE      1      MOL     
@<SCITEGIC>MOL_PROPERTY
VConf Rank
SciTegic.value.IntegerValue
77

@<SCITEGIC>MOL_PROPERTY
Conf_Id
SciTegic.value.IntegerValue
0

@<SCITEGIC>MOL_PROPERTY
Delta U+W
SciTegic.value.DoubleValue
0.000

@<SCITEGIC>MOL_PROPERTY
U+W
SciTegic.value.DoubleValue
-54.891

@<SCITEGIC>MOL_PROPERTY
Grad RMS
SciTegic.value.DoubleValue
0.000000

@<SCITEGIC>MOL_PROPERTY
U
SciTegic.value.DoubleValue
6.966

@<SCITEGIC>MOL_PROPERTY
W
SciTegic.value.DoubleValue
-61.857

@<SCITEGIC>MOL_PROPERTY
W(PB)
SciTegic.value.DoubleValue
-63.965

@<SCITEGIC>MOL_PROPERTY
W(SA)
SciTegic.value.DoubleValue
2.108

@<SCITEGIC>MOL_PROPERTY
Valence
SciTegic.value.DoubleValue
7.175

@<SCITEGIC>MOL_PROPERTY
Coulomb
SciTegic.value.DoubleValue
-1.360

@<SCITEGIC>MOL_PROPERTY
VdW
SciTegic.value.DoubleValue
1.151

@<SCITEGIC>MOL_PROPERTY
VdW6
SciTegic.value.DoubleValue
-5.641

@<SCITEGIC>MOL_PROPERTY
VdW12
SciTegic.value.DoubleValue
6.792

@<SCITEGIC>MOL_PROPERTY
Bond
SciTegic.value.DoubleValue
0.119

@<SCITEGIC>MOL_PROPERTY
Angle
SciTegic.value.DoubleValue
2.715

@<SCITEGIC>MOL_PROPERTY
Pdih
SciTegic.value.DoubleValue
4.340

@<SCITEGIC>MOL_PROPERTY
Idih
SciTegic.value.DoubleValue
0.000

@<SCITEGIC>MOL_PROPERTY
Tether
SciTegic.value.DoubleValue
0.000

@<TRIPOS>MOLECULE
guest-7_confgen4.mol2 : confsearch ligand conformer 78
          19          18           1
SMALL
USER_CHARGES
 
@<TRIPOS>ATOM
       1    C1      17.495692   21.272334   21.780627 C.2        1 MOL1         0.6115
       2    O1      17.159467   21.490541   20.633666 O.co2      1 MOL1        -0.6776
       3    O2      16.751345   21.389902   22.733679 O.co2      1 MOL1        -0.6776
       4    C2      18.924431   20.805533   22.035914 C.3        1 MOL1        -0.2013
       5    H1      19.237896   21.187112   23.015138 H          1 MOL1         0.0727
       6    H2      19.574169   21.269656   21.284133 H          1 MOL1         0.0727
       7    C3      19.071561   19.264608   21.991020 C.3        1 MOL1        -0.1910
       8    H3      18.405665   18.814574   22.740421 H          1 MOL1         0.0729
       9    H4      18.741787   18.897098   21.009320 H          1 MOL1         0.0729
      10    C4      20.526296   18.818343   22.252206 C.3        1 MOL1        -0.1909
      11    H5      20.853457   19.188406   23.233639 H          1 MOL1         0.0729
      12    H6      21.189604   19.270849   21.502237 H          1 MOL1         0.0729
      13    C5      20.669868   17.282858   22.206963 C.3        1 MOL1        -0.1884
      14    H7      20.009203   16.826556   22.957166 H          1 MOL1         0.0729
      15    H8      20.345404   16.908998   21.225920 H          1 MOL1         0.0729
      16    C6      22.123588   16.840823   22.468225 C.3        1 MOL1        -0.2899
      17    H9      22.207587   15.746851   22.432469 H          1 MOL1         0.0741
      18    H10     22.802678   17.257790   21.712977 H          1 MOL1         0.0741
      19    H11     22.463960   17.174771   23.457189 H          1 MOL1         0.0741
@<TRIPOS>BOND
    1     1     2    1
    2     1     3    2
    3     1     4    1
    4     4     5    1
    5     4     6    1
    6     4     7    1
    7     7     8    1
    8     7     9    1
    9     7    10    1
   10    10    11    1
   11    10    12    1
   12    10    13    1
   13    13    14    1
   14    13    15    1
   15    13    16    1
   16    16    17    1
   17    16    18    1
   18    16    19    1
@<TRIPOS>SUBSTRUCTURE
       1 MOL1            1 RESIDUE      1      MOL     
@<SCITEGIC>MOL_PROPERTY
VConf Rank
SciTegic.value.IntegerValue
78

@<SCITEGIC>MOL_PROPERTY
Conf_Id
SciTegic.value.IntegerValue
18

@<SCITEGIC>MOL_PROPERTY
Delta U+W
SciTegic.value.DoubleValue
-1.199

@<SCITEGIC>MOL_PROPERTY
U+W
SciTegic.value.DoubleValue
-56.090

@<SCITEGIC>MOL_PROPERTY
Grad RMS
SciTegic.value.DoubleValue
0.000000

@<SCITEGIC>MOL_PROPERTY
U
SciTegic.value.DoubleValue
5.975

@<SCITEGIC>MOL_PROPERTY
W
SciTegic.value.DoubleValue
-62.066

@<SCITEGIC>MOL_PROPERTY
W(PB)
SciTegic.value.DoubleValue
-64.219

@<SCITEGIC>MOL_PROPERTY
W(SA)
SciTegic.value.DoubleValue
2.153

@<SCITEGIC>MOL_PROPERTY
Valence
SciTegic.value.DoubleValue
6.673

@<SCITEGIC>MOL_PROPERTY
Coulomb
SciTegic.value.DoubleValue
-1.307

@<SCITEGIC>MOL_PROPERTY
VdW
SciTegic.value.DoubleValue
0.610

@<SCITEGIC>MOL_PROPERTY
VdW6
SciTegic.value.DoubleValue
-5.351

@<SCITEGIC>MOL_PROPERTY
VdW12
SciTegic.value.DoubleValue
5.961

@<SCITEGIC>MOL_PROPERTY
Bond
SciTegic.value.DoubleValue
0.086

@<SCITEGIC>MOL_PROPERTY
Angle
SciTegic.value.DoubleValue
2.253

@<SCITEGIC>MOL_PROPERTY
Pdih
SciTegic.value.DoubleValue
4.333

@<SCITEGIC>MOL_PROPERTY
Idih
SciTegic.value.DoubleValue
0.001

@<SCITEGIC>MOL_PROPERTY
Tether
SciTegic.value.DoubleValue
0.000

@<TRIPOS>MOLECULE
guest-7_confgen4.mol2 : confsearch ligand conformer 79
          19          18           1
SMALL
USER_CHARGES
 
@<TRIPOS>ATOM
       1    C1      17.052879   17.882665   22.991065 C.2        1 MOL1         0.6115
       2    O1      16.751962   17.519425   24.110794 O.co2      1 MOL1        -0.6776
       3    O2      16.239566   18.198207   22.145359 O.co2      1 MOL1        -0.6776
       4    C2      18.532822   17.967487   22.634787 C.3        1 MOL1        -0.2013
       5    H1      18.633446   17.729771   21.569795 H          1 MOL1         0.0727
       6    H2      19.062774   17.187226   23.194120 H          1 MOL1         0.0727
       7    C3      19.146118   19.357772   22.944881 C.3        1 MOL1        -0.1910
       8    H3      18.636975   20.125344   22.345784 H          1 MOL1         0.0729
       9    H4      18.947666   19.603655   23.997298 H          1 MOL1         0.0729
      10    C4      20.671830   19.428897   22.698552 C.3        1 MOL1        -0.1909
      11    H5      21.178636   18.666003   23.305303 H          1 MOL1         0.0729
      12    H6      21.037370   20.402015   23.054131 H          1 MOL1         0.0729
      13    C5      21.063056   19.257825   21.213565 C.3        1 MOL1        -0.1884
      14    H7      20.773941   18.260060   20.858262 H          1 MOL1         0.0729
      15    H8      20.517279   19.987801   20.599945 H          1 MOL1         0.0729
      16    C6      22.579087   19.444580   21.003704 C.3        1 MOL1        -0.2899
      17    H9      22.841553   19.317247   19.945409 H          1 MOL1         0.0741
      18    H10     22.898298   20.448362   21.313399 H          1 MOL1         0.0741
      19    H11     23.149390   18.708516   21.585400 H          1 MOL1         0.0741
@<TRIPOS>BOND
    1     1     2    1
    2     1     3    2
    3     1     4    1
    4     4     5    1
    5     4     6    1
    6     4     7    1
    7     7     8    1
    8     7     9    1
    9     7    10    1
   10    10    11    1
   11    10    12    1
   12    10    13    1
   13    13    14    1
   14    13    15    1
   15    13    16    1
   16    16    17    1
   17    16    18    1
   18    16    19    1
@<TRIPOS>SUBSTRUCTURE
       1 MOL1            1 RESIDUE      1      MOL     
@<SCITEGIC>MOL_PROPERTY
VConf Rank
SciTegic.value.IntegerValue
79

@<SCITEGIC>MOL_PROPERTY
Conf_Id
SciTegic.value.IntegerValue
34

@<SCITEGIC>MOL_PROPERTY
Delta U+W
SciTegic.value.DoubleValue
-0.563

@<SCITEGIC>MOL_PROPERTY
U+W
SciTegic.value.DoubleValue
-55.455

@<SCITEGIC>MOL_PROPERTY
Grad RMS
SciTegic.value.DoubleValue
0.000000

@<SCITEGIC>MOL_PROPERTY
U
SciTegic.value.DoubleValue
6.914

@<SCITEGIC>MOL_PROPERTY
W
SciTegic.value.DoubleValue
-62.369

@<SCITEGIC>MOL_PROPERTY
W(PB)
SciTegic.value.DoubleValue
-64.446

@<SCITEGIC>MOL_PROPERTY
W(SA)
SciTegic.value.DoubleValue
2.077

@<SCITEGIC>MOL_PROPERTY
Valence
SciTegic.value.DoubleValue
7.196

@<SCITEGIC>MOL_PROPERTY
Coulomb
SciTegic.value.DoubleValue
-1.020

@<SCITEGIC>MOL_PROPERTY
VdW
SciTegic.value.DoubleValue
0.738

@<SCITEGIC>MOL_PROPERTY
VdW6
SciTegic.value.DoubleValue
-6.010

@<SCITEGIC>MOL_PROPERTY
VdW12
SciTegic.value.DoubleValue
6.748

@<SCITEGIC>MOL_PROPERTY
Bond
SciTegic.value.DoubleValue
0.126

@<SCITEGIC>MOL_PROPERTY
Angle
SciTegic.value.DoubleValue
2.499

@<SCITEGIC>MOL_PROPERTY
Pdih
SciTegic.value.DoubleValue
4.570

@<SCITEGIC>MOL_PROPERTY
Idih
SciTegic.value.DoubleValue
0.001

@<SCITEGIC>MOL_PROPERTY
Tether
SciTegic.value.DoubleValue
0.000

@<TRIPOS>MOLECULE
guest-7_confgen4.mol2 : confsearch ligand conformer 80
          19          18           1
SMALL
USER_CHARGES
 
@<TRIPOS>ATOM
       1    C1      18.852841   17.332651   24.742436 C.2        1 MOL1         0.6115
       2    O1      17.672972   17.254953   25.022012 O.co2      1 MOL1        -0.6776
       3    O2      19.747369   17.109706   25.533875 O.co2      1 MOL1        -0.6776
       4    C2      19.231368   17.754360   23.327077 C.3        1 MOL1        -0.2013
       5    H1      18.457755   17.384652   22.643447 H          1 MOL1         0.0727
       6    H2      20.166215   17.245473   23.066424 H          1 MOL1         0.0727
       7    C3      19.385617   19.290459   23.179474 C.3        1 MOL1        -0.1910
       8    H3      18.464438   19.772856   23.534641 H          1 MOL1         0.0729
       9    H4      20.193173   19.642929   23.835925 H          1 MOL1         0.0729
      10    C4      19.655814   19.747493   21.726326 C.3        1 MOL1        -0.1909
      11    H5      19.631899   20.845457   21.696063 H          1 MOL1         0.0729
      12    H6      18.842463   19.400881   21.074153 H          1 MOL1         0.0729
      13    C5      21.012628   19.259443   21.171011 C.3        1 MOL1        -0.1884
      14    H7      21.821637   19.562263   21.850034 H          1 MOL1         0.0729
      15    H8      21.029102   18.162804   21.121265 H          1 MOL1         0.0729
      16    C6      21.285046   19.828962   19.764348 C.3        1 MOL1        -0.2899
      17    H9      20.504592   19.518426   19.057337 H          1 MOL1         0.0741
      18    H10     21.313991   20.926321   19.783152 H          1 MOL1         0.0741
      19    H11     22.250127   19.471253   19.382571 H          1 MOL1         0.0741
@<TRIPOS>BOND
    1     1     2    1
    2     1     3    2
    3     1     4    1
    4     4     5    1
    5     4     6    1
    6     4     7    1
    7     7     8    1
    8     7     9    1
    9     7    10    1
   10    10    11    1
   11    10    12    1
   12    10    13    1
   13    13    14    1
   14    13    15    1
   15    13    16    1
   16    16    17    1
   17    16    18    1
   18    16    19    1
@<TRIPOS>SUBSTRUCTURE
       1 MOL1            1 RESIDUE      1      MOL     
@<SCITEGIC>MOL_PROPERTY
VConf Rank
SciTegic.value.IntegerValue
80

@<SCITEGIC>MOL_PROPERTY
Conf_Id
SciTegic.value.IntegerValue
33

@<SCITEGIC>MOL_PROPERTY
Delta U+W
SciTegic.value.DoubleValue
-0.526

@<SCITEGIC>MOL_PROPERTY
U+W
SciTegic.value.DoubleValue
-55.418

@<SCITEGIC>MOL_PROPERTY
Grad RMS
SciTegic.value.DoubleValue
0.000000

@<SCITEGIC>MOL_PROPERTY
U
SciTegic.value.DoubleValue
6.914

@<SCITEGIC>MOL_PROPERTY
W
SciTegic.value.DoubleValue
-62.332

@<SCITEGIC>MOL_PROPERTY
W(PB)
SciTegic.value.DoubleValue
-64.421

@<SCITEGIC>MOL_PROPERTY
W(SA)
SciTegic.value.DoubleValue
2.090

@<SCITEGIC>MOL_PROPERTY
Valence
SciTegic.value.DoubleValue
7.196

@<SCITEGIC>MOL_PROPERTY
Coulomb
SciTegic.value.DoubleValue
-1.020

@<SCITEGIC>MOL_PROPERTY
VdW
SciTegic.value.DoubleValue
0.738

@<SCITEGIC>MOL_PROPERTY
VdW6
SciTegic.value.DoubleValue
-6.010

@<SCITEGIC>MOL_PROPERTY
VdW12
SciTegic.value.DoubleValue
6.748

@<SCITEGIC>MOL_PROPERTY
Bond
SciTegic.value.DoubleValue
0.126

@<SCITEGIC>MOL_PROPERTY
Angle
SciTegic.value.DoubleValue
2.499

@<SCITEGIC>MOL_PROPERTY
Pdih
SciTegic.value.DoubleValue
4.570

@<SCITEGIC>MOL_PROPERTY
Idih
SciTegic.value.DoubleValue
0.001

@<SCITEGIC>MOL_PROPERTY
Tether
SciTegic.value.DoubleValue
0.000

@<TRIPOS>MOLECULE
guest-7_confgen4.mol2 : confsearch ligand conformer 81
          19          18           1
SMALL
USER_CHARGES
 
@<TRIPOS>ATOM
       1    C1      19.568795   15.803333   22.247029 C.2        1 MOL1         0.6115
       2    O1      18.903262   15.457173   21.291278 O.co2      1 MOL1        -0.6776
       3    O2      20.486775   15.148692   22.699801 O.co2      1 MOL1        -0.6776
       4    C2      19.245635   17.140926   22.903468 C.3        1 MOL1        -0.2013
       5    H1      19.467114   17.057091   23.974261 H          1 MOL1         0.0727
       6    H2      18.167198   17.315896   22.808158 H          1 MOL1         0.0727
       7    C3      20.034381   18.321477   22.284904 C.3        1 MOL1        -0.1910
       8    H3      21.111656   18.127151   22.379540 H          1 MOL1         0.0729
       9    H4      19.811454   18.373899   21.211044 H          1 MOL1         0.0729
      10    C4      19.684758   19.664443   22.966717 C.3        1 MOL1        -0.1909
      11    H5      19.846592   19.568665   24.049135 H          1 MOL1         0.0729
      12    H6      18.616754   19.882572   22.829623 H          1 MOL1         0.0729
      13    C5      20.525938   20.853527   22.447985 C.3        1 MOL1        -0.1884
      14    H7      20.301873   21.737678   23.060614 H          1 MOL1         0.0729
      15    H8      21.594855   20.641423   22.588541 H          1 MOL1         0.0729
      16    C6      20.254317   21.193792   20.966671 C.3        1 MOL1        -0.2899
      17    H9      19.186186   21.381241   20.796036 H          1 MOL1         0.0741
      18    H10     20.806839   22.095568   20.672627 H          1 MOL1         0.0741
      19    H11     20.571606   20.379268   20.303632 H          1 MOL1         0.0741
@<TRIPOS>BOND
    1     1     2    1
    2     1     3    2
    3     1     4    1
    4     4     5    1
    5     4     6    1
    6     4     7    1
    7     7     8    1
    8     7     9    1
    9     7    10    1
   10    10    11    1
   11    10    12    1
   12    10    13    1
   13    13    14    1
   14    13    15    1
   15    13    16    1
   16    16    17    1
   17    16    18    1
   18    16    19    1
@<TRIPOS>SUBSTRUCTURE
       1 MOL1            1 RESIDUE      1      MOL     
@<SCITEGIC>MOL_PROPERTY
VConf Rank
SciTegic.value.IntegerValue
81

@<SCITEGIC>MOL_PROPERTY
Conf_Id
SciTegic.value.IntegerValue
42

@<SCITEGIC>MOL_PROPERTY
Delta U+W
SciTegic.value.DoubleValue
-0.344

@<SCITEGIC>MOL_PROPERTY
U+W
SciTegic.value.DoubleValue
-55.236

@<SCITEGIC>MOL_PROPERTY
Grad RMS
SciTegic.value.DoubleValue
0.000000

@<SCITEGIC>MOL_PROPERTY
U
SciTegic.value.DoubleValue
7.244

@<SCITEGIC>MOL_PROPERTY
W
SciTegic.value.DoubleValue
-62.479

@<SCITEGIC>MOL_PROPERTY
W(PB)
SciTegic.value.DoubleValue
-64.610

@<SCITEGIC>MOL_PROPERTY
W(SA)
SciTegic.value.DoubleValue
2.130

@<SCITEGIC>MOL_PROPERTY
Valence
SciTegic.value.DoubleValue
7.174

@<SCITEGIC>MOL_PROPERTY
Coulomb
SciTegic.value.DoubleValue
-0.669

@<SCITEGIC>MOL_PROPERTY
VdW
SciTegic.value.DoubleValue
0.739

@<SCITEGIC>MOL_PROPERTY
VdW6
SciTegic.value.DoubleValue
-5.969

@<SCITEGIC>MOL_PROPERTY
VdW12
SciTegic.value.DoubleValue
6.708

@<SCITEGIC>MOL_PROPERTY
Bond
SciTegic.value.DoubleValue
0.116

@<SCITEGIC>MOL_PROPERTY
Angle
SciTegic.value.DoubleValue
2.481

@<SCITEGIC>MOL_PROPERTY
Pdih
SciTegic.value.DoubleValue
4.576

@<SCITEGIC>MOL_PROPERTY
Idih
SciTegic.value.DoubleValue
0.000

@<SCITEGIC>MOL_PROPERTY
Tether
SciTegic.value.DoubleValue
0.000

@<TRIPOS>MOLECULE
guest-7_confgen4.mol2 : confsearch ligand conformer 82
          19          18           1
SMALL
USER_CHARGES
 
@<TRIPOS>ATOM
       1    C1      22.695869   19.715532   20.655547 C.2        1 MOL1         0.6115
       2    O1      22.700380   19.169531   19.570152 O.co2      1 MOL1        -0.6776
       3    O2      23.698462   19.914532   21.312396 O.co2      1 MOL1        -0.6776
       4    C2      21.356487   20.159064   21.233332 C.3        1 MOL1        -0.2013
       5    H1      20.701751   20.440250   20.399675 H          1 MOL1         0.0727
       6    H2      21.526034   21.062510   21.831426 H          1 MOL1         0.0727
       7    C3      20.681077   19.064979   22.096606 C.3        1 MOL1        -0.1910
       8    H3      20.538806   18.165634   21.482962 H          1 MOL1         0.0729
       9    H4      21.352384   18.787624   22.921021 H          1 MOL1         0.0729
      10    C4      19.324408   19.540205   22.666050 C.3        1 MOL1        -0.1909
      11    H5      18.636583   19.770731   21.840967 H          1 MOL1         0.0729
      12    H6      19.476642   20.478972   23.216080 H          1 MOL1         0.0729
      13    C5      18.665150   18.515208   23.617550 C.3        1 MOL1        -0.1884
      14    H7      19.348034   18.286277   24.447361 H          1 MOL1         0.0729
      15    H8      17.773632   18.974003   24.066934 H          1 MOL1         0.0729
      16    C6      18.248281   17.206742   22.911867 C.3        1 MOL1        -0.2899
      17    H9      19.121745   16.653365   22.545017 H          1 MOL1         0.0741
      18    H10     17.707968   16.551246   23.607086 H          1 MOL1         0.0741
      19    H11     17.587822   17.413146   22.059607 H          1 MOL1         0.0741
@<TRIPOS>BOND
    1     1     2    1
    2     1     3    2
    3     1     4    1
    4     4     5    1
    5     4     6    1
    6     4     7    1
    7     7     8    1
    8     7     9    1
    9     7    10    1
   10    10    11    1
   11    10    12    1
   12    10    13    1
   13    13    14    1
   14    13    15    1
   15    13    16    1
   16    16    17    1
   17    16    18    1
   18    16    19    1
@<TRIPOS>SUBSTRUCTURE
       1 MOL1            1 RESIDUE      1      MOL     
@<SCITEGIC>MOL_PROPERTY
VConf Rank
SciTegic.value.IntegerValue
82

@<SCITEGIC>MOL_PROPERTY
Conf_Id
SciTegic.value.IntegerValue
41

@<SCITEGIC>MOL_PROPERTY
Delta U+W
SciTegic.value.DoubleValue
-0.361

@<SCITEGIC>MOL_PROPERTY
U+W
SciTegic.value.DoubleValue
-55.252

@<SCITEGIC>MOL_PROPERTY
Grad RMS
SciTegic.value.DoubleValue
0.000000

@<SCITEGIC>MOL_PROPERTY
U
SciTegic.value.DoubleValue
7.244

@<SCITEGIC>MOL_PROPERTY
W
SciTegic.value.DoubleValue
-62.496

@<SCITEGIC>MOL_PROPERTY
W(PB)
SciTegic.value.DoubleValue
-64.596

@<SCITEGIC>MOL_PROPERTY
W(SA)
SciTegic.value.DoubleValue
2.099

@<SCITEGIC>MOL_PROPERTY
Valence
SciTegic.value.DoubleValue
7.174

@<SCITEGIC>MOL_PROPERTY
Coulomb
SciTegic.value.DoubleValue
-0.669

@<SCITEGIC>MOL_PROPERTY
VdW
SciTegic.value.DoubleValue
0.739

@<SCITEGIC>MOL_PROPERTY
VdW6
SciTegic.value.DoubleValue
-5.969

@<SCITEGIC>MOL_PROPERTY
VdW12
SciTegic.value.DoubleValue
6.708

@<SCITEGIC>MOL_PROPERTY
Bond
SciTegic.value.DoubleValue
0.116

@<SCITEGIC>MOL_PROPERTY
Angle
SciTegic.value.DoubleValue
2.481

@<SCITEGIC>MOL_PROPERTY
Pdih
SciTegic.value.DoubleValue
4.576

@<SCITEGIC>MOL_PROPERTY
Idih
SciTegic.value.DoubleValue
0.000

@<SCITEGIC>MOL_PROPERTY
Tether
SciTegic.value.DoubleValue
0.000

@<TRIPOS>MOLECULE
guest-7_confgen4.mol2 : confsearch ligand conformer 83
          19          18           1
SMALL
USER_CHARGES
 
@<TRIPOS>ATOM
       1    C1      20.451028   19.655554   19.629338 C.2        1 MOL1         0.6115
       2    O1      21.662481   19.568138   19.665267 O.co2      1 MOL1        -0.6776
       3    O2      19.761932   19.101703   18.795625 O.co2      1 MOL1        -0.6776
       4    C2      19.756779   20.525453   20.673674 C.3        1 MOL1        -0.2013
       5    H1      19.028209   21.152468   20.146276 H          1 MOL1         0.0727
       6    H2      20.498255   21.202900   21.114431 H          1 MOL1         0.0727
       7    C3      19.037313   19.721603   21.787804 C.3        1 MOL1        -0.1910
       8    H3      18.454755   20.415858   22.408426 H          1 MOL1         0.0729
       9    H4      18.318834   19.027663   21.329690 H          1 MOL1         0.0729
      10    C4      20.021359   18.938866   22.685738 C.3        1 MOL1        -0.1909
      11    H5      20.745357   19.635044   23.130925 H          1 MOL1         0.0729
      12    H6      20.596372   18.229552   22.074463 H          1 MOL1         0.0729
      13    C5      19.286880   18.172474   23.805465 C.3        1 MOL1        -0.1884
      14    H7      18.713206   18.877544   24.422884 H          1 MOL1         0.0729
      15    H8      18.563669   17.473547   23.362814 H          1 MOL1         0.0729
      16    C6      20.271382   17.392630   24.699655 C.3        1 MOL1        -0.2899
      17    H9      20.987685   18.071770   25.180369 H          1 MOL1         0.0741
      18    H10     19.732645   16.853491   25.489704 H          1 MOL1         0.0741
      19    H11     20.837082   16.657350   24.112468 H          1 MOL1         0.0741
@<TRIPOS>BOND
    1     1     2    1
    2     1     3    2
    3     1     4    1
    4     4     5    1
    5     4     6    1
    6     4     7    1
    7     7     8    1
    8     7     9    1
    9     7    10    1
   10    10    11    1
   11    10    12    1
   12    10    13    1
   13    13    14    1
   14    13    15    1
   15    13    16    1
   16    16    17    1
   17    16    18    1
   18    16    19    1
@<TRIPOS>SUBSTRUCTURE
       1 MOL1            1 RESIDUE      1      MOL     
@<SCITEGIC>MOL_PROPERTY
VConf Rank
SciTegic.value.IntegerValue
83

@<SCITEGIC>MOL_PROPERTY
Conf_Id
SciTegic.value.IntegerValue
36

@<SCITEGIC>MOL_PROPERTY
Delta U+W
SciTegic.value.DoubleValue
-0.079

@<SCITEGIC>MOL_PROPERTY
U+W
SciTegic.value.DoubleValue
-54.971

@<SCITEGIC>MOL_PROPERTY
Grad RMS
SciTegic.value.DoubleValue
0.000000

@<SCITEGIC>MOL_PROPERTY
U
SciTegic.value.DoubleValue
8.266

@<SCITEGIC>MOL_PROPERTY
W
SciTegic.value.DoubleValue
-63.237

@<SCITEGIC>MOL_PROPERTY
W(PB)
SciTegic.value.DoubleValue
-65.340

@<SCITEGIC>MOL_PROPERTY
W(SA)
SciTegic.value.DoubleValue
2.103

@<SCITEGIC>MOL_PROPERTY
Valence
SciTegic.value.DoubleValue
6.935

@<SCITEGIC>MOL_PROPERTY
Coulomb
SciTegic.value.DoubleValue
0.874

@<SCITEGIC>MOL_PROPERTY
VdW
SciTegic.value.DoubleValue
0.457

@<SCITEGIC>MOL_PROPERTY
VdW6
SciTegic.value.DoubleValue
-6.205

@<SCITEGIC>MOL_PROPERTY
VdW12
SciTegic.value.DoubleValue
6.662

@<SCITEGIC>MOL_PROPERTY
Bond
SciTegic.value.DoubleValue
0.107

@<SCITEGIC>MOL_PROPERTY
Angle
SciTegic.value.DoubleValue
2.420

@<SCITEGIC>MOL_PROPERTY
Pdih
SciTegic.value.DoubleValue
4.407

@<SCITEGIC>MOL_PROPERTY
Idih
SciTegic.value.DoubleValue
0.001

@<SCITEGIC>MOL_PROPERTY
Tether
SciTegic.value.DoubleValue
0.000

@<TRIPOS>MOLECULE
guest-7_confgen4.mol2 : confsearch ligand conformer 84
          19          18           1
SMALL
USER_CHARGES
 
@<TRIPOS>ATOM
       1    C1      20.158921   16.233375   23.239401 C.2        1 MOL1         0.6115
       2    O1      21.177628   16.238285   23.901794 O.co2      1 MOL1        -0.6776
       3    O2      19.922666   15.411110   22.376415 O.co2      1 MOL1        -0.6776
       4    C2      19.108219   17.304321   23.519486 C.3        1 MOL1        -0.2013
       5    H1      19.301342   17.734176   24.509898 H          1 MOL1         0.0727
       6    H2      18.135170   16.802218   23.575874 H          1 MOL1         0.0727
       7    C3      19.050232   18.426809   22.450959 C.3        1 MOL1        -0.1910
       8    H3      18.884905   17.978846   21.461198 H          1 MOL1         0.0729
       9    H4      18.183350   19.069459   22.656027 H          1 MOL1         0.0729
      10    C4      20.330689   19.291197   22.427009 C.3        1 MOL1        -0.1909
      11    H5      21.200897   18.657895   22.205450 H          1 MOL1         0.0729
      12    H6      20.498716   19.726119   23.421816 H          1 MOL1         0.0729
      13    C5      20.238310   20.420075   21.379295 C.3        1 MOL1        -0.1884
      14    H7      20.072600   19.987639   20.382795 H          1 MOL1         0.0729
      15    H8      19.371925   21.059470   21.598340 H          1 MOL1         0.0729
      16    C6      21.517331   21.280673   21.357874 C.3        1 MOL1        -0.2899
      17    H9      22.396408   20.671336   21.110134 H          1 MOL1         0.0741
      18    H10     21.434871   22.077696   20.607513 H          1 MOL1         0.0741
      19    H11     21.690508   21.751118   22.334653 H          1 MOL1         0.0741
@<TRIPOS>BOND
    1     1     2    1
    2     1     3    2
    3     1     4    1
    4     4     5    1
    5     4     6    1
    6     4     7    1
    7     7     8    1
    8     7     9    1
    9     7    10    1
   10    10    11    1
   11    10    12    1
   12    10    13    1
   13    13    14    1
   14    13    15    1
   15    13    16    1
   16    16    17    1
   17    16    18    1
   18    16    19    1
@<TRIPOS>SUBSTRUCTURE
       1 MOL1            1 RESIDUE      1      MOL     
@<SCITEGIC>MOL_PROPERTY
VConf Rank
SciTegic.value.IntegerValue
84

@<SCITEGIC>MOL_PROPERTY
Conf_Id
SciTegic.value.IntegerValue
35

@<SCITEGIC>MOL_PROPERTY
Delta U+W
SciTegic.value.DoubleValue
-0.030

@<SCITEGIC>MOL_PROPERTY
U+W
SciTegic.value.DoubleValue
-54.921

@<SCITEGIC>MOL_PROPERTY
Grad RMS
SciTegic.value.DoubleValue
0.000000

@<SCITEGIC>MOL_PROPERTY
U
SciTegic.value.DoubleValue
8.267

@<SCITEGIC>MOL_PROPERTY
W
SciTegic.value.DoubleValue
-63.188

@<SCITEGIC>MOL_PROPERTY
W(PB)
SciTegic.value.DoubleValue
-65.294

@<SCITEGIC>MOL_PROPERTY
W(SA)
SciTegic.value.DoubleValue
2.106

@<SCITEGIC>MOL_PROPERTY
Valence
SciTegic.value.DoubleValue
6.935

@<SCITEGIC>MOL_PROPERTY
Coulomb
SciTegic.value.DoubleValue
0.875

@<SCITEGIC>MOL_PROPERTY
VdW
SciTegic.value.DoubleValue
0.457

@<SCITEGIC>MOL_PROPERTY
VdW6
SciTegic.value.DoubleValue
-6.205

@<SCITEGIC>MOL_PROPERTY
VdW12
SciTegic.value.DoubleValue
6.662

@<SCITEGIC>MOL_PROPERTY
Bond
SciTegic.value.DoubleValue
0.107

@<SCITEGIC>MOL_PROPERTY
Angle
SciTegic.value.DoubleValue
2.420

@<SCITEGIC>MOL_PROPERTY
Pdih
SciTegic.value.DoubleValue
4.407

@<SCITEGIC>MOL_PROPERTY
Idih
SciTegic.value.DoubleValue
0.001

@<SCITEGIC>MOL_PROPERTY
Tether
SciTegic.value.DoubleValue
0.000

@<TRIPOS>MOLECULE
guest-7_confgen4.mol2 : confsearch ligand conformer 85
          19          18           1
SMALL
USER_CHARGES
 
@<TRIPOS>ATOM
       1    C1      22.044234   17.530521   24.010638 C.2        1 MOL1         0.6115
       2    O1      21.751103   17.549521   25.189799 O.co2      1 MOL1        -0.6776
       3    O2      23.146310   17.819133   23.587820 O.co2      1 MOL1        -0.6776
       4    C2      20.975100   17.099601   23.010267 C.3        1 MOL1        -0.2013
       5    H1      20.496253   16.198418   23.411103 H          1 MOL1         0.0727
       6    H2      21.467380   16.807794   22.074603 H          1 MOL1         0.0727
       7    C3      19.895912   18.178559   22.732916 C.3        1 MOL1        -0.1910
       8    H3      19.097947   17.726020   22.130579 H          1 MOL1         0.0729
       9    H4      19.439457   18.489305   23.682871 H          1 MOL1         0.0729
      10    C4      20.466752   19.413912   21.996215 C.3        1 MOL1        -0.1909
      11    H5      20.888302   19.106550   21.029446 H          1 MOL1         0.0729
      12    H6      21.300240   19.828790   22.579480 H          1 MOL1         0.0729
      13    C5      19.423100   20.532908   21.773802 C.3        1 MOL1        -0.1884
      14    H7      19.001138   20.843949   22.739469 H          1 MOL1         0.0729
      15    H8      19.933943   21.413492   21.360482 H          1 MOL1         0.0729
      16    C6      18.283208   20.125248   20.815429 C.3        1 MOL1        -0.2899
      17    H9      17.668882   19.322291   21.241441 H          1 MOL1         0.0741
      18    H10     17.622766   20.979894   20.619644 H          1 MOL1         0.0741
      19    H11     18.683400   19.780144   19.853194 H          1 MOL1         0.0741
@<TRIPOS>BOND
    1     1     2    1
    2     1     3    2
    3     1     4    1
    4     4     5    1
    5     4     6    1
    6     4     7    1
    7     7     8    1
    8     7     9    1
    9     7    10    1
   10    10    11    1
   11    10    12    1
   12    10    13    1
   13    13    14    1
   14    13    15    1
   15    13    16    1
   16    16    17    1
   17    16    18    1
   18    16    19    1
@<TRIPOS>SUBSTRUCTURE
       1 MOL1            1 RESIDUE      1      MOL     
@<SCITEGIC>MOL_PROPERTY
VConf Rank
SciTegic.value.IntegerValue
85

@<SCITEGIC>MOL_PROPERTY
Conf_Id
SciTegic.value.IntegerValue
74

@<SCITEGIC>MOL_PROPERTY
Delta U+W
SciTegic.value.DoubleValue
0.797

@<SCITEGIC>MOL_PROPERTY
U+W
SciTegic.value.DoubleValue
-54.095

@<SCITEGIC>MOL_PROPERTY
Grad RMS
SciTegic.value.DoubleValue
0.000000

@<SCITEGIC>MOL_PROPERTY
U
SciTegic.value.DoubleValue
8.869

@<SCITEGIC>MOL_PROPERTY
W
SciTegic.value.DoubleValue
-62.964

@<SCITEGIC>MOL_PROPERTY
W(PB)
SciTegic.value.DoubleValue
-65.046

@<SCITEGIC>MOL_PROPERTY
W(SA)
SciTegic.value.DoubleValue
2.082

@<SCITEGIC>MOL_PROPERTY
Valence
SciTegic.value.DoubleValue
7.469

@<SCITEGIC>MOL_PROPERTY
Coulomb
SciTegic.value.DoubleValue
0.762

@<SCITEGIC>MOL_PROPERTY
VdW
SciTegic.value.DoubleValue
0.639

@<SCITEGIC>MOL_PROPERTY
VdW6
SciTegic.value.DoubleValue
-6.782

@<SCITEGIC>MOL_PROPERTY
VdW12
SciTegic.value.DoubleValue
7.421

@<SCITEGIC>MOL_PROPERTY
Bond
SciTegic.value.DoubleValue
0.141

@<SCITEGIC>MOL_PROPERTY
Angle
SciTegic.value.DoubleValue
2.667

@<SCITEGIC>MOL_PROPERTY
Pdih
SciTegic.value.DoubleValue
4.660

@<SCITEGIC>MOL_PROPERTY
Idih
SciTegic.value.DoubleValue
0.001

@<SCITEGIC>MOL_PROPERTY
Tether
SciTegic.value.DoubleValue
0.000

@<TRIPOS>MOLECULE
guest-7_confgen4.mol2 : confsearch ligand conformer 86
          19          18           1
SMALL
USER_CHARGES
 
@<TRIPOS>ATOM
       1    C1      22.497957   18.588601   20.842826 C.2        1 MOL1         0.6115
       2    O1      22.955302   17.592453   20.318471 O.co2      1 MOL1        -0.6776
       3    O2      22.812682   19.718952   20.527269 O.co2      1 MOL1        -0.6776
       4    C2      21.458611   18.410098   21.943786 C.3        1 MOL1        -0.2013
       5    H1      21.579808   19.235790   22.654211 H          1 MOL1         0.0727
       6    H2      21.686477   17.481586   22.480720 H          1 MOL1         0.0727
       7    C3      20.007299   18.370640   21.399061 C.3        1 MOL1        -0.1910
       8    H3      19.777550   19.319772   20.896924 H          1 MOL1         0.0729
       9    H4      19.942587   17.594016   20.624550 H          1 MOL1         0.0729
      10    C4      18.945405   18.071379   22.486973 C.3        1 MOL1        -0.1909
      11    H5      19.135008   17.072926   22.904029 H          1 MOL1         0.0729
      12    H6      17.957339   18.017916   22.009846 H          1 MOL1         0.0729
      13    C5      18.885128   19.093133   23.648990 C.3        1 MOL1        -0.1884
      14    H7      18.111803   18.769516   24.359145 H          1 MOL1         0.0729
      15    H8      19.830421   19.088524   24.207569 H          1 MOL1         0.0729
      16    C6      18.562117   20.529431   23.184116 C.3        1 MOL1        -0.2899
      17    H9      17.631131   20.554305   22.603017 H          1 MOL1         0.0741
      18    H10     18.439721   21.194648   24.048594 H          1 MOL1         0.0741
      19    H11     19.368440   20.937881   22.561800 H          1 MOL1         0.0741
@<TRIPOS>BOND
    1     1     2    1
    2     1     3    2
    3     1     4    1
    4     4     5    1
    5     4     6    1
    6     4     7    1
    7     7     8    1
    8     7     9    1
    9     7    10    1
   10    10    11    1
   11    10    12    1
   12    10    13    1
   13    13    14    1
   14    13    15    1
   15    13    16    1
   16    16    17    1
   17    16    18    1
   18    16    19    1
@<TRIPOS>SUBSTRUCTURE
       1 MOL1            1 RESIDUE      1      MOL     
@<SCITEGIC>MOL_PROPERTY
VConf Rank
SciTegic.value.IntegerValue
86

@<SCITEGIC>MOL_PROPERTY
Conf_Id
SciTegic.value.IntegerValue
67

@<SCITEGIC>MOL_PROPERTY
Delta U+W
SciTegic.value.DoubleValue
0.308

@<SCITEGIC>MOL_PROPERTY
U+W
SciTegic.value.DoubleValue
-54.583

@<SCITEGIC>MOL_PROPERTY
Grad RMS
SciTegic.value.DoubleValue
0.000000

@<SCITEGIC>MOL_PROPERTY
U
SciTegic.value.DoubleValue
8.219

@<SCITEGIC>MOL_PROPERTY
W
SciTegic.value.DoubleValue
-62.802

@<SCITEGIC>MOL_PROPERTY
W(PB)
SciTegic.value.DoubleValue
-64.859

@<SCITEGIC>MOL_PROPERTY
W(SA)
SciTegic.value.DoubleValue
2.057

@<SCITEGIC>MOL_PROPERTY
Valence
SciTegic.value.DoubleValue
7.609

@<SCITEGIC>MOL_PROPERTY
Coulomb
SciTegic.value.DoubleValue
-0.089

@<SCITEGIC>MOL_PROPERTY
VdW
SciTegic.value.DoubleValue
0.699

@<SCITEGIC>MOL_PROPERTY
VdW6
SciTegic.value.DoubleValue
-6.924

@<SCITEGIC>MOL_PROPERTY
VdW12
SciTegic.value.DoubleValue
7.623

@<SCITEGIC>MOL_PROPERTY
Bond
SciTegic.value.DoubleValue
0.163

@<SCITEGIC>MOL_PROPERTY
Angle
SciTegic.value.DoubleValue
2.870

@<SCITEGIC>MOL_PROPERTY
Pdih
SciTegic.value.DoubleValue
4.576

@<SCITEGIC>MOL_PROPERTY
Idih
SciTegic.value.DoubleValue
0.001

@<SCITEGIC>MOL_PROPERTY
Tether
SciTegic.value.DoubleValue
0.000

@<TRIPOS>MOLECULE
guest-7_confgen4.mol2 : confsearch ligand conformer 87
          19          18           1
SMALL
USER_CHARGES
 
@<TRIPOS>ATOM
       1    C1      22.127502   19.953459   24.014058 C.2        1 MOL1         0.6115
       2    O1      23.026719   19.350332   24.565483 O.co2      1 MOL1        -0.6776
       3    O2      21.719081   21.036445   24.383727 O.co2      1 MOL1        -0.6776
       4    C2      21.462780   19.306642   22.804104 C.3        1 MOL1        -0.2013
       5    H1      22.218350   18.711819   22.277175 H          1 MOL1         0.0727
       6    H2      21.149065   20.109227   22.126903 H          1 MOL1         0.0727
       7    C3      20.252993   18.415833   23.188112 C.3        1 MOL1        -0.1910
       8    H3      20.580173   17.680470   23.936038 H          1 MOL1         0.0729
       9    H4      19.486906   19.029250   23.680666 H          1 MOL1         0.0729
      10    C4      19.637264   17.655948   21.986373 C.3        1 MOL1        -0.1909
      11    H5      18.820447   17.019379   22.352939 H          1 MOL1         0.0729
      12    H6      20.391793   16.972815   21.573085 H          1 MOL1         0.0729
      13    C5      19.098744   18.552645   20.844519 C.3        1 MOL1        -0.1884
      14    H7      19.919826   19.123556   20.391204 H          1 MOL1         0.0729
      15    H8      18.703811   17.905939   20.048982 H          1 MOL1         0.0729
      16    C6      17.982766   19.517573   21.299388 C.3        1 MOL1        -0.2899
      17    H9      18.363478   20.259465   22.012776 H          1 MOL1         0.0741
      18    H10     17.572390   20.062881   20.439710 H          1 MOL1         0.0741
      19    H11     17.160174   18.969670   21.777065 H          1 MOL1         0.0741
@<TRIPOS>BOND
    1     1     2    1
    2     1     3    2
    3     1     4    1
    4     4     5    1
    5     4     6    1
    6     4     7    1
    7     7     8    1
    8     7     9    1
    9     7    10    1
   10    10    11    1
   11    10    12    1
   12    10    13    1
   13    13    14    1
   14    13    15    1
   15    13    16    1
   16    16    17    1
   17    16    18    1
   18    16    19    1
@<TRIPOS>SUBSTRUCTURE
       1 MOL1            1 RESIDUE      1      MOL     
@<SCITEGIC>MOL_PROPERTY
VConf Rank
SciTegic.value.IntegerValue
87

@<SCITEGIC>MOL_PROPERTY
Conf_Id
SciTegic.value.IntegerValue
21

@<SCITEGIC>MOL_PROPERTY
Delta U+W
SciTegic.value.DoubleValue
0.319

@<SCITEGIC>MOL_PROPERTY
U+W
SciTegic.value.DoubleValue
-54.572

@<SCITEGIC>MOL_PROPERTY
Grad RMS
SciTegic.value.DoubleValue
0.000000

@<SCITEGIC>MOL_PROPERTY
U
SciTegic.value.DoubleValue
8.220

@<SCITEGIC>MOL_PROPERTY
W
SciTegic.value.DoubleValue
-62.792

@<SCITEGIC>MOL_PROPERTY
W(PB)
SciTegic.value.DoubleValue
-64.830

@<SCITEGIC>MOL_PROPERTY
W(SA)
SciTegic.value.DoubleValue
2.038

@<SCITEGIC>MOL_PROPERTY
Valence
SciTegic.value.DoubleValue
7.609

@<SCITEGIC>MOL_PROPERTY
Coulomb
SciTegic.value.DoubleValue
-0.088

@<SCITEGIC>MOL_PROPERTY
VdW
SciTegic.value.DoubleValue
0.699

@<SCITEGIC>MOL_PROPERTY
VdW6
SciTegic.value.DoubleValue
-6.924

@<SCITEGIC>MOL_PROPERTY
VdW12
SciTegic.value.DoubleValue
7.623

@<SCITEGIC>MOL_PROPERTY
Bond
SciTegic.value.DoubleValue
0.163

@<SCITEGIC>MOL_PROPERTY
Angle
SciTegic.value.DoubleValue
2.870

@<SCITEGIC>MOL_PROPERTY
Pdih
SciTegic.value.DoubleValue
4.576

@<SCITEGIC>MOL_PROPERTY
Idih
SciTegic.value.DoubleValue
0.000

@<SCITEGIC>MOL_PROPERTY
Tether
SciTegic.value.DoubleValue
0.000

@<TRIPOS>MOLECULE
guest-7_confgen4.mol2 : confsearch ligand conformer 88
          19          18           1
SMALL
USER_CHARGES
 
@<TRIPOS>ATOM
       1    C1      20.557585   21.464686   21.068054 C.2        1 MOL1         0.6115
       2    O1      19.896859   22.482965   21.013403 O.co2      1 MOL1        -0.6776
       3    O2      21.764446   21.438283   20.930062 O.co2      1 MOL1        -0.6776
       4    C2      19.834349   20.151158   21.343109 C.3        1 MOL1        -0.2013
       5    H1      20.377681   19.354086   20.826108 H          1 MOL1         0.0727
       6    H2      18.840432   20.209734   20.883670 H          1 MOL1         0.0727
       7    C3      19.701750   19.844230   22.858301 C.3        1 MOL1        -0.1910
       8    H3      20.693036   19.842887   23.332254 H          1 MOL1         0.0729
       9    H4      19.142322   20.668494   23.322009 H          1 MOL1         0.0729
      10    C4      18.962931   18.514777   23.156039 C.3        1 MOL1        -0.1909
      11    H5      18.236684   18.296289   22.361228 H          1 MOL1         0.0729
      12    H6      18.371385   18.650762   24.071766 H          1 MOL1         0.0729
      13    C5      19.890956   17.295323   23.378771 C.3        1 MOL1        -0.1884
      14    H7      20.553931   17.488369   24.233437 H          1 MOL1         0.0729
      15    H8      19.271085   16.432754   23.659715 H          1 MOL1         0.0729
      16    C6      20.740190   16.913221   22.148936 C.3        1 MOL1        -0.2899
      17    H9      21.272369   15.970160   22.328478 H          1 MOL1         0.0741
      18    H10     20.110139   16.782744   21.259560 H          1 MOL1         0.0741
      19    H11     21.493746   17.681358   21.934658 H          1 MOL1         0.0741
@<TRIPOS>BOND
    1     1     2    1
    2     1     3    2
    3     1     4    1
    4     4     5    1
    5     4     6    1
    6     4     7    1
    7     7     8    1
    8     7     9    1
    9     7    10    1
   10    10    11    1
   11    10    12    1
   12    10    13    1
   13    13    14    1
   14    13    15    1
   15    13    16    1
   16    16    17    1
   17    16    18    1
   18    16    19    1
@<TRIPOS>SUBSTRUCTURE
       1 MOL1            1 RESIDUE      1      MOL     
@<SCITEGIC>MOL_PROPERTY
VConf Rank
SciTegic.value.IntegerValue
88

@<SCITEGIC>MOL_PROPERTY
Conf_Id
SciTegic.value.IntegerValue
24

@<SCITEGIC>MOL_PROPERTY
Delta U+W
SciTegic.value.DoubleValue
2.477

@<SCITEGIC>MOL_PROPERTY
U+W
SciTegic.value.DoubleValue
-52.414

@<SCITEGIC>MOL_PROPERTY
Grad RMS
SciTegic.value.DoubleValue
0.000000

@<SCITEGIC>MOL_PROPERTY
U
SciTegic.value.DoubleValue
10.422

@<SCITEGIC>MOL_PROPERTY
W
SciTegic.value.DoubleValue
-62.836

@<SCITEGIC>MOL_PROPERTY
W(PB)
SciTegic.value.DoubleValue
-64.906

@<SCITEGIC>MOL_PROPERTY
W(SA)
SciTegic.value.DoubleValue
2.070

@<SCITEGIC>MOL_PROPERTY
Valence
SciTegic.value.DoubleValue
9.628

@<SCITEGIC>MOL_PROPERTY
Coulomb
SciTegic.value.DoubleValue
0.101

@<SCITEGIC>MOL_PROPERTY
VdW
SciTegic.value.DoubleValue
0.693

@<SCITEGIC>MOL_PROPERTY
VdW6
SciTegic.value.DoubleValue
-6.927

@<SCITEGIC>MOL_PROPERTY
VdW12
SciTegic.value.DoubleValue
7.620

@<SCITEGIC>MOL_PROPERTY
Bond
SciTegic.value.DoubleValue
0.173

@<SCITEGIC>MOL_PROPERTY
Angle
SciTegic.value.DoubleValue
2.989

@<SCITEGIC>MOL_PROPERTY
Pdih
SciTegic.value.DoubleValue
6.465

@<SCITEGIC>MOL_PROPERTY
Idih
SciTegic.value.DoubleValue
0.001

@<SCITEGIC>MOL_PROPERTY
Tether
SciTegic.value.DoubleValue
0.000

@<TRIPOS>MOLECULE
guest-7_confgen4.mol2 : confsearch ligand conformer 89
          19          18           1
SMALL
USER_CHARGES
 
@<TRIPOS>ATOM
       1    C1      18.441777   20.763052   21.065483 C.2        1 MOL1         0.6115
       2    O1      18.994158   20.592564   19.996605 O.co2      1 MOL1        -0.6776
       3    O2      17.273048   21.078383   21.173711 O.co2      1 MOL1        -0.6776
       4    C2      19.264354   20.601715   22.341245 C.3        1 MOL1        -0.2013
       5    H1      19.071874   21.483143   22.963976 H          1 MOL1         0.0727
       6    H2      20.325453   20.632476   22.074124 H          1 MOL1         0.0727
       7    C3      18.929034   19.318186   23.150597 C.3        1 MOL1        -0.1910
       8    H3      19.399461   19.369846   24.141688 H          1 MOL1         0.0729
       9    H4      17.845210   19.304201   23.331331 H          1 MOL1         0.0729
      10    C4      19.335009   17.997444   22.446108 C.3        1 MOL1        -0.1909
      11    H5      19.290353   18.113760   21.354649 H          1 MOL1         0.0729
      12    H6      18.584906   17.234341   22.694708 H          1 MOL1         0.0729
      13    C5      20.719279   17.442360   22.862744 C.3        1 MOL1        -0.1884
      14    H7      20.727256   17.243477   23.943292 H          1 MOL1         0.0729
      15    H8      20.867147   16.471270   22.370531 H          1 MOL1         0.0729
      16    C6      21.903099   18.363389   22.502419 C.3        1 MOL1        -0.2899
      17    H9      21.886776   19.281470   23.102599 H          1 MOL1         0.0741
      18    H10     22.857025   17.857149   22.698695 H          1 MOL1         0.0741
      19    H11     21.877588   18.639636   21.440100 H          1 MOL1         0.0741
@<TRIPOS>BOND
    1     1     2    1
    2     1     3    2
    3     1     4    1
    4     4     5    1
    5     4     6    1
    6     4     7    1
    7     7     8    1
    8     7     9    1
    9     7    10    1
   10    10    11    1
   11    10    12    1
   12    10    13    1
   13    13    14    1
   14    13    15    1
   15    13    16    1
   16    16    17    1
   17    16    18    1
   18    16    19    1
@<TRIPOS>SUBSTRUCTURE
       1 MOL1            1 RESIDUE      1      MOL     
@<SCITEGIC>MOL_PROPERTY
VConf Rank
SciTegic.value.IntegerValue
89

@<SCITEGIC>MOL_PROPERTY
Conf_Id
SciTegic.value.IntegerValue
4

@<SCITEGIC>MOL_PROPERTY
Delta U+W
SciTegic.value.DoubleValue
3.753

@<SCITEGIC>MOL_PROPERTY
U+W
SciTegic.value.DoubleValue
-51.138

@<SCITEGIC>MOL_PROPERTY
Grad RMS
SciTegic.value.DoubleValue
0.000000

@<SCITEGIC>MOL_PROPERTY
U
SciTegic.value.DoubleValue
12.334

@<SCITEGIC>MOL_PROPERTY
W
SciTegic.value.DoubleValue
-63.472

@<SCITEGIC>MOL_PROPERTY
W(PB)
SciTegic.value.DoubleValue
-65.500

@<SCITEGIC>MOL_PROPERTY
W(SA)
SciTegic.value.DoubleValue
2.028

@<SCITEGIC>MOL_PROPERTY
Valence
SciTegic.value.DoubleValue
9.984

@<SCITEGIC>MOL_PROPERTY
Coulomb
SciTegic.value.DoubleValue
1.767

@<SCITEGIC>MOL_PROPERTY
VdW
SciTegic.value.DoubleValue
0.583

@<SCITEGIC>MOL_PROPERTY
VdW6
SciTegic.value.DoubleValue
-7.767

@<SCITEGIC>MOL_PROPERTY
VdW12
SciTegic.value.DoubleValue
8.349

@<SCITEGIC>MOL_PROPERTY
Bond
SciTegic.value.DoubleValue
0.203

@<SCITEGIC>MOL_PROPERTY
Angle
SciTegic.value.DoubleValue
3.191

@<SCITEGIC>MOL_PROPERTY
Pdih
SciTegic.value.DoubleValue
6.589

@<SCITEGIC>MOL_PROPERTY
Idih
SciTegic.value.DoubleValue
0.001

@<SCITEGIC>MOL_PROPERTY
Tether
SciTegic.value.DoubleValue
0.000

@<TRIPOS>MOLECULE
guest-7_confgen4.mol2 : confsearch ligand conformer 90
          19          18           1
SMALL
USER_CHARGES
 
@<TRIPOS>ATOM
       1    C1      20.209050   21.277004   21.384988 C.2        1 MOL1         0.6115
       2    O1      20.282718   21.637367   20.226634 O.co2      1 MOL1        -0.6776
       3    O2      19.565296   21.865888   22.230854 O.co2      1 MOL1        -0.6776
       4    C2      20.991447   20.034655   21.802906 C.3        1 MOL1        -0.2013
       5    H1      21.076109   20.030834   22.894256 H          1 MOL1         0.0727
       6    H2      22.008718   20.145446   21.409662 H          1 MOL1         0.0727
       7    C3      20.383245   18.701642   21.285117 C.3        1 MOL1        -0.1910
       8    H3      20.257073   18.786127   20.196780 H          1 MOL1         0.0729
       9    H4      21.096105   17.881259   21.443344 H          1 MOL1         0.0729
      10    C4      19.015758   18.337222   21.919662 C.3        1 MOL1        -0.1909
      11    H5      18.406982   17.838111   21.153462 H          1 MOL1         0.0729
      12    H6      18.463271   19.246704   22.192441 H          1 MOL1         0.0729
      13    C5      19.102321   17.385416   23.138052 C.3        1 MOL1        -0.1884
      14    H7      18.081231   17.129844   23.453030 H          1 MOL1         0.0729
      15    H8      19.576036   16.441207   22.835950 H          1 MOL1         0.0729
      16    C6      19.858515   17.974458   24.346670 C.3        1 MOL1        -0.2899
      17    H9      19.452847   18.956229   24.624241 H          1 MOL1         0.0741
      18    H10     19.767777   17.311386   25.216659 H          1 MOL1         0.0741
      19    H11     20.927429   18.087415   24.127538 H          1 MOL1         0.0741
@<TRIPOS>BOND
    1     1     2    1
    2     1     3    2
    3     1     4    1
    4     4     5    1
    5     4     6    1
    6     4     7    1
    7     7     8    1
    8     7     9    1
    9     7    10    1
   10    10    11    1
   11    10    12    1
   12    10    13    1
   13    13    14    1
   14    13    15    1
   15    13    16    1
   16    16    17    1
   17    16    18    1
   18    16    19    1
@<TRIPOS>SUBSTRUCTURE
       1 MOL1            1 RESIDUE      1      MOL     
@<SCITEGIC>MOL_PROPERTY
VConf Rank
SciTegic.value.IntegerValue
90

@<SCITEGIC>MOL_PROPERTY
Conf_Id
SciTegic.value.IntegerValue
73

@<SCITEGIC>MOL_PROPERTY
Delta U+W
SciTegic.value.DoubleValue
3.707

@<SCITEGIC>MOL_PROPERTY
U+W
SciTegic.value.DoubleValue
-51.184

@<SCITEGIC>MOL_PROPERTY
Grad RMS
SciTegic.value.DoubleValue
0.000000

@<SCITEGIC>MOL_PROPERTY
U
SciTegic.value.DoubleValue
12.334

@<SCITEGIC>MOL_PROPERTY
W
SciTegic.value.DoubleValue
-63.519

@<SCITEGIC>MOL_PROPERTY
W(PB)
SciTegic.value.DoubleValue
-65.541

@<SCITEGIC>MOL_PROPERTY
W(SA)
SciTegic.value.DoubleValue
2.022

@<SCITEGIC>MOL_PROPERTY
Valence
SciTegic.value.DoubleValue
9.984

@<SCITEGIC>MOL_PROPERTY
Coulomb
SciTegic.value.DoubleValue
1.768

@<SCITEGIC>MOL_PROPERTY
VdW
SciTegic.value.DoubleValue
0.583

@<SCITEGIC>MOL_PROPERTY
VdW6
SciTegic.value.DoubleValue
-7.767

@<SCITEGIC>MOL_PROPERTY
VdW12
SciTegic.value.DoubleValue
8.350

@<SCITEGIC>MOL_PROPERTY
Bond
SciTegic.value.DoubleValue
0.203

@<SCITEGIC>MOL_PROPERTY
Angle
SciTegic.value.DoubleValue
3.192

@<SCITEGIC>MOL_PROPERTY
Pdih
SciTegic.value.DoubleValue
6.589

@<SCITEGIC>MOL_PROPERTY
Idih
SciTegic.value.DoubleValue
0.001

@<SCITEGIC>MOL_PROPERTY
Tether
SciTegic.value.DoubleValue
0.000

@<TRIPOS>MOLECULE
guest-7_confgen4.mol2 : confsearch ligand conformer 91
          19          18           1
SMALL
USER_CHARGES
 
@<TRIPOS>ATOM
       1    C1      17.671877   18.009054   23.357821 C.2        1 MOL1         0.6115
       2    O1      18.201357   17.168512   24.057716 O.co2      1 MOL1        -0.6776
       3    O2      16.640225   18.577984   23.656440 O.co2      1 MOL1        -0.6776
       4    C2      18.317404   18.347161   22.016813 C.3        1 MOL1        -0.2013
       5    H1      17.534738   18.281758   21.252074 H          1 MOL1         0.0727
       6    H2      19.053089   17.571546   21.774975 H          1 MOL1         0.0727
       7    C3      18.971025   19.755075   21.963663 C.3        1 MOL1        -0.1910
       8    H3      19.342482   19.943211   20.948040 H          1 MOL1         0.0729
       9    H4      18.194114   20.510443   22.145152 H          1 MOL1         0.0729
      10    C4      20.117502   19.967980   22.985601 C.3        1 MOL1        -0.1909
      11    H5      19.708423   19.897156   24.002814 H          1 MOL1         0.0729
      12    H6      20.494850   20.994472   22.883059 H          1 MOL1         0.0729
      13    C5      21.305257   18.982906   22.858772 C.3        1 MOL1        -0.1884
      14    H7      22.040554   19.219794   23.639872 H          1 MOL1         0.0729
      15    H8      20.968191   17.957414   23.061741 H          1 MOL1         0.0729
      16    C6      22.004840   19.041226   21.483688 C.3        1 MOL1        -0.2899
      17    H9      21.337260   18.701492   20.681922 H          1 MOL1         0.0741
      18    H10     22.330623   20.063536   21.251828 H          1 MOL1         0.0741
      19    H11     22.890820   18.393327   21.475832 H          1 MOL1         0.0741
@<TRIPOS>BOND
    1     1     2    1
    2     1     3    2
    3     1     4    1
    4     4     5    1
    5     4     6    1
    6     4     7    1
    7     7     8    1
    8     7     9    1
    9     7    10    1
   10    10    11    1
   11    10    12    1
   12    10    13    1
   13    13    14    1
   14    13    15    1
   15    13    16    1
   16    16    17    1
   17    16    18    1
   18    16    19    1
@<TRIPOS>SUBSTRUCTURE
       1 MOL1            1 RESIDUE      1      MOL     
@<SCITEGIC>MOL_PROPERTY
VConf Rank
SciTegic.value.IntegerValue
91

@<SCITEGIC>MOL_PROPERTY
Conf_Id
SciTegic.value.IntegerValue
56

@<SCITEGIC>MOL_PROPERTY
Delta U+W
SciTegic.value.DoubleValue
1.735

@<SCITEGIC>MOL_PROPERTY
U+W
SciTegic.value.DoubleValue
-53.156

@<SCITEGIC>MOL_PROPERTY
Grad RMS
SciTegic.value.DoubleValue
0.000000

@<SCITEGIC>MOL_PROPERTY
U
SciTegic.value.DoubleValue
10.214

@<SCITEGIC>MOL_PROPERTY
W
SciTegic.value.DoubleValue
-63.370

@<SCITEGIC>MOL_PROPERTY
W(PB)
SciTegic.value.DoubleValue
-65.388

@<SCITEGIC>MOL_PROPERTY
W(SA)
SciTegic.value.DoubleValue
2.018

@<SCITEGIC>MOL_PROPERTY
Valence
SciTegic.value.DoubleValue
7.868

@<SCITEGIC>MOL_PROPERTY
Coulomb
SciTegic.value.DoubleValue
1.968

@<SCITEGIC>MOL_PROPERTY
VdW
SciTegic.value.DoubleValue
0.378

@<SCITEGIC>MOL_PROPERTY
VdW6
SciTegic.value.DoubleValue
-8.067

@<SCITEGIC>MOL_PROPERTY
VdW12
SciTegic.value.DoubleValue
8.445

@<SCITEGIC>MOL_PROPERTY
Bond
SciTegic.value.DoubleValue
0.191

@<SCITEGIC>MOL_PROPERTY
Angle
SciTegic.value.DoubleValue
3.117

@<SCITEGIC>MOL_PROPERTY
Pdih
SciTegic.value.DoubleValue
4.559

@<SCITEGIC>MOL_PROPERTY
Idih
SciTegic.value.DoubleValue
0.001

@<SCITEGIC>MOL_PROPERTY
Tether
SciTegic.value.DoubleValue
0.000

@<TRIPOS>MOLECULE
guest-7_confgen4.mol2 : confsearch ligand conformer 92
          19          18           1
SMALL
USER_CHARGES
 
@<TRIPOS>ATOM
       1    C1      17.180996   19.020376   23.236714 C.2        1 MOL1         0.6115
       2    O1      16.884020   19.224486   24.397105 O.co2      1 MOL1        -0.6776
       3    O2      16.390909   18.632393   22.399095 O.co2      1 MOL1        -0.6776
       4    C2      18.628770   19.242685   22.813905 C.3        1 MOL1        -0.2013
       5    H1      19.043998   20.050018   23.428866 H          1 MOL1         0.0727
       6    H2      18.620887   19.589522   21.774602 H          1 MOL1         0.0727
       7    C3      19.496625   17.966051   22.948097 C.3        1 MOL1        -0.1910
       8    H3      19.371778   17.561193   23.961953 H          1 MOL1         0.0729
       9    H4      19.117105   17.197019   22.261257 H          1 MOL1         0.0729
      10    C4      21.008097   18.191178   22.692632 C.3        1 MOL1        -0.1909
      11    H5      21.518677   17.234443   22.868524 H          1 MOL1         0.0729
      12    H6      21.416830   18.888611   23.436624 H          1 MOL1         0.0729
      13    C5      21.358382   18.668041   21.261196 C.3        1 MOL1        -0.1884
      14    H7      22.312384   18.211457   20.963286 H          1 MOL1         0.0729
      15    H8      20.609117   18.304884   20.544240 H          1 MOL1         0.0729
      16    C6      21.508857   20.201482   21.148750 C.3        1 MOL1        -0.2899
      17    H9      21.773636   20.486494   20.122331 H          1 MOL1         0.0741
      18    H10     20.582372   20.723905   21.412033 H          1 MOL1         0.0741
      19    H11     22.303384   20.565260   21.813224 H          1 MOL1         0.0741
@<TRIPOS>BOND
    1     1     2    1
    2     1     3    2
    3     1     4    1
    4     4     5    1
    5     4     6    1
    6     4     7    1
    7     7     8    1
    8     7     9    1
    9     7    10    1
   10    10    11    1
   11    10    12    1
   12    10    13    1
   13    13    14    1
   14    13    15    1
   15    13    16    1
   16    16    17    1
   17    16    18    1
   18    16    19    1
@<TRIPOS>SUBSTRUCTURE
       1 MOL1            1 RESIDUE      1      MOL     
@<SCITEGIC>MOL_PROPERTY
VConf Rank
SciTegic.value.IntegerValue
92

@<SCITEGIC>MOL_PROPERTY
Conf_Id
SciTegic.value.IntegerValue
53

@<SCITEGIC>MOL_PROPERTY
Delta U+W
SciTegic.value.DoubleValue
2.279

@<SCITEGIC>MOL_PROPERTY
U+W
SciTegic.value.DoubleValue
-52.612

@<SCITEGIC>MOL_PROPERTY
Grad RMS
SciTegic.value.DoubleValue
0.000000

@<SCITEGIC>MOL_PROPERTY
U
SciTegic.value.DoubleValue
10.231

@<SCITEGIC>MOL_PROPERTY
W
SciTegic.value.DoubleValue
-62.843

@<SCITEGIC>MOL_PROPERTY
W(PB)
SciTegic.value.DoubleValue
-64.893

@<SCITEGIC>MOL_PROPERTY
W(SA)
SciTegic.value.DoubleValue
2.050

@<SCITEGIC>MOL_PROPERTY
Valence
SciTegic.value.DoubleValue
9.644

@<SCITEGIC>MOL_PROPERTY
Coulomb
SciTegic.value.DoubleValue
-0.164

@<SCITEGIC>MOL_PROPERTY
VdW
SciTegic.value.DoubleValue
0.751

@<SCITEGIC>MOL_PROPERTY
VdW6
SciTegic.value.DoubleValue
-6.881

@<SCITEGIC>MOL_PROPERTY
VdW12
SciTegic.value.DoubleValue
7.631

@<SCITEGIC>MOL_PROPERTY
Bond
SciTegic.value.DoubleValue
0.163

@<SCITEGIC>MOL_PROPERTY
Angle
SciTegic.value.DoubleValue
2.998

@<SCITEGIC>MOL_PROPERTY
Pdih
SciTegic.value.DoubleValue
6.482

@<SCITEGIC>MOL_PROPERTY
Idih
SciTegic.value.DoubleValue
0.001

@<SCITEGIC>MOL_PROPERTY
Tether
SciTegic.value.DoubleValue
0.000

@<TRIPOS>MOLECULE
guest-7_confgen4.mol2 : confsearch ligand conformer 93
          19          18           1
SMALL
USER_CHARGES
 
@<TRIPOS>ATOM
       1    C1      18.809213   17.022326   21.814367 C.2        1 MOL1         0.6115
       2    O1      18.422802   17.342584   20.707581 O.co2      1 MOL1        -0.6776
       3    O2      18.060651   16.733726   22.727390 O.co2      1 MOL1        -0.6776
       4    C2      20.314746   16.909547   22.047029 C.3        1 MOL1        -0.2013
       5    H1      20.838925   17.148768   21.113791 H          1 MOL1         0.0727
       6    H2      20.515875   15.852696   22.257357 H          1 MOL1         0.0727
       7    C3      20.872810   17.772039   23.213990 C.3        1 MOL1        -0.1910
       8    H3      20.216419   17.685449   24.091027 H          1 MOL1         0.0729
       9    H4      21.839255   17.347160   23.517104 H          1 MOL1         0.0729
      10    C4      21.101923   19.263992   22.867204 C.3        1 MOL1        -0.1909
      11    H5      21.764380   19.343368   21.994458 H          1 MOL1         0.0729
      12    H6      21.637734   19.731431   23.704710 H          1 MOL1         0.0729
      13    C5      19.802354   20.056851   22.606300 C.3        1 MOL1        -0.1884
      14    H7      19.315429   19.692061   21.692933 H          1 MOL1         0.0729
      15    H8      19.096307   19.897210   23.432985 H          1 MOL1         0.0729
      16    C6      20.081607   21.565566   22.452577 C.3        1 MOL1        -0.2899
      17    H9      20.765815   21.754351   21.614975 H          1 MOL1         0.0741
      18    H10     19.149951   22.113032   22.259329 H          1 MOL1         0.0741
      19    H11     20.533404   21.977201   23.364583 H          1 MOL1         0.0741
@<TRIPOS>BOND
    1     1     2    1
    2     1     3    2
    3     1     4    1
    4     4     5    1
    5     4     6    1
    6     4     7    1
    7     7     8    1
    8     7     9    1
    9     7    10    1
   10    10    11    1
   11    10    12    1
   12    10    13    1
   13    13    14    1
   14    13    15    1
   15    13    16    1
   16    16    17    1
   17    16    18    1
   18    16    19    1
@<TRIPOS>SUBSTRUCTURE
       1 MOL1            1 RESIDUE      1      MOL     
@<SCITEGIC>MOL_PROPERTY
VConf Rank
SciTegic.value.IntegerValue
93

@<SCITEGIC>MOL_PROPERTY
Conf_Id
SciTegic.value.IntegerValue
25

@<SCITEGIC>MOL_PROPERTY
Delta U+W
SciTegic.value.DoubleValue
2.065

@<SCITEGIC>MOL_PROPERTY
U+W
SciTegic.value.DoubleValue
-52.826

@<SCITEGIC>MOL_PROPERTY
Grad RMS
SciTegic.value.DoubleValue
0.000000

@<SCITEGIC>MOL_PROPERTY
U
SciTegic.value.DoubleValue
10.967

@<SCITEGIC>MOL_PROPERTY
W
SciTegic.value.DoubleValue
-63.794

@<SCITEGIC>MOL_PROPERTY
W(PB)
SciTegic.value.DoubleValue
-65.830

@<SCITEGIC>MOL_PROPERTY
W(SA)
SciTegic.value.DoubleValue
2.036

@<SCITEGIC>MOL_PROPERTY
Valence
SciTegic.value.DoubleValue
8.609

@<SCITEGIC>MOL_PROPERTY
Coulomb
SciTegic.value.DoubleValue
1.892

@<SCITEGIC>MOL_PROPERTY
VdW
SciTegic.value.DoubleValue
0.467

@<SCITEGIC>MOL_PROPERTY
VdW6
SciTegic.value.DoubleValue
-7.569

@<SCITEGIC>MOL_PROPERTY
VdW12
SciTegic.value.DoubleValue
8.036

@<SCITEGIC>MOL_PROPERTY
Bond
SciTegic.value.DoubleValue
0.170

@<SCITEGIC>MOL_PROPERTY
Angle
SciTegic.value.DoubleValue
3.195

@<SCITEGIC>MOL_PROPERTY
Pdih
SciTegic.value.DoubleValue
5.237

@<SCITEGIC>MOL_PROPERTY
Idih
SciTegic.value.DoubleValue
0.007

@<SCITEGIC>MOL_PROPERTY
Tether
SciTegic.value.DoubleValue
0.000

@<TRIPOS>MOLECULE
guest-7_confgen4.mol2 : confsearch ligand conformer 94
          19          18           1
SMALL
USER_CHARGES
 
@<TRIPOS>ATOM
       1    C1      19.520168   18.273588   24.778280 C.2        1 MOL1         0.6115
       2    O1      20.540250   18.187876   25.433517 O.co2      1 MOL1        -0.6776
       3    O2      18.734373   17.356952   24.639875 O.co2      1 MOL1        -0.6776
       4    C2      19.170366   19.622895   24.153386 C.3        1 MOL1        -0.2013
       5    H1      19.033686   20.322250   24.986360 H          1 MOL1         0.0727
       6    H2      18.199537   19.541829   23.649558 H          1 MOL1         0.0727
       7    C3      20.235785   20.199683   23.179052 C.3        1 MOL1        -0.1910
       8    H3      20.064947   21.281188   23.091999 H          1 MOL1         0.0729
       9    H4      21.239531   20.086330   23.611704 H          1 MOL1         0.0729
      10    C4      20.202101   19.600847   21.751138 C.3        1 MOL1        -0.1909
      11    H5      20.882239   20.187214   21.118210 H          1 MOL1         0.0729
      12    H6      19.198351   19.723973   21.321996 H          1 MOL1         0.0729
      13    C5      20.617878   18.114975   21.681205 C.3        1 MOL1        -0.1884
      14    H7      21.576035   17.971507   22.199613 H          1 MOL1         0.0729
      15    H8      19.876731   17.491681   22.197550 H          1 MOL1         0.0729
      16    C6      20.744932   17.631373   20.222499 C.3        1 MOL1        -0.2899
      17    H9      21.032333   16.572405   20.190364 H          1 MOL1         0.0741
      18    H10     19.791690   17.740356   19.688824 H          1 MOL1         0.0741
      19    H11     21.508612   18.206125   19.682341 H          1 MOL1         0.0741
@<TRIPOS>BOND
    1     1     2    1
    2     1     3    2
    3     1     4    1
    4     4     5    1
    5     4     6    1
    6     4     7    1
    7     7     8    1
    8     7     9    1
    9     7    10    1
   10    10    11    1
   11    10    12    1
   12    10    13    1
   13    13    14    1
   14    13    15    1
   15    13    16    1
   16    16    17    1
   17    16    18    1
   18    16    19    1
@<TRIPOS>SUBSTRUCTURE
       1 MOL1            1 RESIDUE      1      MOL     
@<SCITEGIC>MOL_PROPERTY
VConf Rank
SciTegic.value.IntegerValue
94

@<SCITEGIC>MOL_PROPERTY
Conf_Id
SciTegic.value.IntegerValue
52

@<SCITEGIC>MOL_PROPERTY
Delta U+W
SciTegic.value.DoubleValue
2.070

@<SCITEGIC>MOL_PROPERTY
U+W
SciTegic.value.DoubleValue
-52.822

@<SCITEGIC>MOL_PROPERTY
Grad RMS
SciTegic.value.DoubleValue
0.000000

@<SCITEGIC>MOL_PROPERTY
U
SciTegic.value.DoubleValue
10.967

@<SCITEGIC>MOL_PROPERTY
W
SciTegic.value.DoubleValue
-63.789

@<SCITEGIC>MOL_PROPERTY
W(PB)
SciTegic.value.DoubleValue
-65.837

@<SCITEGIC>MOL_PROPERTY
W(SA)
SciTegic.value.DoubleValue
2.048

@<SCITEGIC>MOL_PROPERTY
Valence
SciTegic.value.DoubleValue
8.609

@<SCITEGIC>MOL_PROPERTY
Coulomb
SciTegic.value.DoubleValue
1.892

@<SCITEGIC>MOL_PROPERTY
VdW
SciTegic.value.DoubleValue
0.467

@<SCITEGIC>MOL_PROPERTY
VdW6
SciTegic.value.DoubleValue
-7.569

@<SCITEGIC>MOL_PROPERTY
VdW12
SciTegic.value.DoubleValue
8.035

@<SCITEGIC>MOL_PROPERTY
Bond
SciTegic.value.DoubleValue
0.170

@<SCITEGIC>MOL_PROPERTY
Angle
SciTegic.value.DoubleValue
3.196

@<SCITEGIC>MOL_PROPERTY
Pdih
SciTegic.value.DoubleValue
5.237

@<SCITEGIC>MOL_PROPERTY
Idih
SciTegic.value.DoubleValue
0.007

@<SCITEGIC>MOL_PROPERTY
Tether
SciTegic.value.DoubleValue
0.000

@<TRIPOS>MOLECULE
guest-7_confgen4.mol2 : confsearch ligand conformer 95
          19          18           1
SMALL
USER_CHARGES
 
@<TRIPOS>ATOM
       1    C1      21.975122   18.671926   22.509607 C.2        1 MOL1         0.6115
       2    O1      22.239780   18.004498   21.528479 O.co2      1 MOL1        -0.6776
       3    O2      22.487748   19.749578   22.738911 O.co2      1 MOL1        -0.6776
       4    C2      21.050365   18.078617   23.573651 C.3        1 MOL1        -0.2013
       5    H1      20.798546   18.857791   24.303043 H          1 MOL1         0.0727
       6    H2      21.646078   17.330581   24.109229 H          1 MOL1         0.0727
       7    C3      19.754854   17.401643   23.041928 C.3        1 MOL1        -0.1910
       8    H3      19.978844   16.821728   22.135944 H          1 MOL1         0.0729
       9    H4      19.426176   16.668145   23.790465 H          1 MOL1         0.0729
      10    C4      18.565473   18.359417   22.775056 C.3        1 MOL1        -0.1909
      11    H5      18.275425   18.865926   23.705839 H          1 MOL1         0.0729
      12    H6      17.701861   17.741548   22.493317 H          1 MOL1         0.0729
      13    C5      18.799805   19.395723   21.649379 C.3        1 MOL1        -0.1884
      14    H7      19.586983   19.048952   20.965672 H          1 MOL1         0.0729
      15    H8      17.885761   19.475551   21.044980 H          1 MOL1         0.0729
      16    C6      19.140542   20.800258   22.191876 C.3        1 MOL1        -0.2899
      17    H9      18.314754   21.197246   22.796368 H          1 MOL1         0.0741
      18    H10     20.040086   20.781801   22.818143 H          1 MOL1         0.0741
      19    H11     19.320529   21.499298   21.365095 H          1 MOL1         0.0741
@<TRIPOS>BOND
    1     1     2    1
    2     1     3    2
    3     1     4    1
    4     4     5    1
    5     4     6    1
    6     4     7    1
    7     7     8    1
    8     7     9    1
    9     7    10    1
   10    10    11    1
   11    10    12    1
   12    10    13    1
   13    13    14    1
   14    13    15    1
   15    13    16    1
   16    16    17    1
   17    16    18    1
   18    16    19    1
@<TRIPOS>SUBSTRUCTURE
       1 MOL1            1 RESIDUE      1      MOL     
@<SCITEGIC>MOL_PROPERTY
VConf Rank
SciTegic.value.IntegerValue
95

@<SCITEGIC>MOL_PROPERTY
Conf_Id
SciTegic.value.IntegerValue
66

@<SCITEGIC>MOL_PROPERTY
Delta U+W
SciTegic.value.DoubleValue
5.819

@<SCITEGIC>MOL_PROPERTY
U+W
SciTegic.value.DoubleValue
-49.072

@<SCITEGIC>MOL_PROPERTY
Grad RMS
SciTegic.value.DoubleValue
0.000000

@<SCITEGIC>MOL_PROPERTY
U
SciTegic.value.DoubleValue
15.324

@<SCITEGIC>MOL_PROPERTY
W
SciTegic.value.DoubleValue
-64.396

@<SCITEGIC>MOL_PROPERTY
W(PB)
SciTegic.value.DoubleValue
-66.382

@<SCITEGIC>MOL_PROPERTY
W(SA)
SciTegic.value.DoubleValue
1.986

@<SCITEGIC>MOL_PROPERTY
Valence
SciTegic.value.DoubleValue
11.748

@<SCITEGIC>MOL_PROPERTY
Coulomb
SciTegic.value.DoubleValue
3.201

@<SCITEGIC>MOL_PROPERTY
VdW
SciTegic.value.DoubleValue
0.375

@<SCITEGIC>MOL_PROPERTY
VdW6
SciTegic.value.DoubleValue
-8.854

@<SCITEGIC>MOL_PROPERTY
VdW12
SciTegic.value.DoubleValue
9.229

@<SCITEGIC>MOL_PROPERTY
Bond
SciTegic.value.DoubleValue
0.216

@<SCITEGIC>MOL_PROPERTY
Angle
SciTegic.value.DoubleValue
3.812

@<SCITEGIC>MOL_PROPERTY
Pdih
SciTegic.value.DoubleValue
7.699

@<SCITEGIC>MOL_PROPERTY
Idih
SciTegic.value.DoubleValue
0.022

@<SCITEGIC>MOL_PROPERTY
Tether
SciTegic.value.DoubleValue
0.000

@<TRIPOS>MOLECULE
guest-7_confgen4.mol2 : confsearch ligand conformer 96
          19          18           1
SMALL
USER_CHARGES
 
@<TRIPOS>ATOM
       1    C1      16.979117   20.537224   21.945230 C.2        1 MOL1         0.6115
       2    O1      16.226239   21.049555   21.141268 O.co2      1 MOL1        -0.6776
       3    O2      16.748907   20.498164   23.138386 O.co2      1 MOL1        -0.6776
       4    C2      18.268787   19.921436   21.400039 C.3        1 MOL1        -0.2013
       5    H1      18.808603   20.712256   20.865949 H          1 MOL1         0.0727
       6    H2      17.982830   19.169082   20.655564 H          1 MOL1         0.0727
       7    C3      19.198204   19.279036   22.463965 C.3        1 MOL1        -0.1910
       8    H3      19.476296   20.036451   23.209925 H          1 MOL1         0.0729
       9    H4      18.649637   18.491698   22.999354 H          1 MOL1         0.0729
      10    C4      20.473079   18.683476   21.828150 C.3        1 MOL1        -0.1909
      11    H5      21.019835   19.472239   21.293304 H          1 MOL1         0.0729
      12    H6      20.192753   17.926631   21.082661 H          1 MOL1         0.0729
      13    C5      21.395629   18.045431   22.887487 C.3        1 MOL1        -0.1884
      14    H7      21.679841   18.799911   23.634131 H          1 MOL1         0.0729
      15    H8      20.852904   17.254413   23.423427 H          1 MOL1         0.0729
      16    C6      22.667405   17.451976   22.249218 C.3        1 MOL1        -0.2899
      17    H9      23.246579   18.228479   21.732476 H          1 MOL1         0.0741
      18    H10     23.311597   17.002715   23.016219 H          1 MOL1         0.0741
      19    H11     22.413414   16.671345   21.520161 H          1 MOL1         0.0741
@<TRIPOS>BOND
    1     1     2    1
    2     1     3    2
    3     1     4    1
    4     4     5    1
    5     4     6    1
    6     4     7    1
    7     7     8    1
    8     7     9    1
    9     7    10    1
   10    10    11    1
   11    10    12    1
   12    10    13    1
   13    13    14    1
   14    13    15    1
   15    13    16    1
   16    16    17    1
   17    16    18    1
   18    16    19    1
@<TRIPOS>SUBSTRUCTURE
       1 MOL1            1 RESIDUE      1      MOL     
@<SCITEGIC>MOL_PROPERTY
VConf Rank
SciTegic.value.IntegerValue
96

@<SCITEGIC>MOL_PROPERTY
Conf_Id
SciTegic.value.IntegerValue
0

@<SCITEGIC>MOL_PROPERTY
Delta U+W
SciTegic.value.DoubleValue
0.000

@<SCITEGIC>MOL_PROPERTY
U+W
SciTegic.value.DoubleValue
-54.891

@<SCITEGIC>MOL_PROPERTY
Grad RMS
SciTegic.value.DoubleValue
0.000000

@<SCITEGIC>MOL_PROPERTY
U
SciTegic.value.DoubleValue
6.966

@<SCITEGIC>MOL_PROPERTY
W
SciTegic.value.DoubleValue
-61.857

@<SCITEGIC>MOL_PROPERTY
W(PB)
SciTegic.value.DoubleValue
-63.965

@<SCITEGIC>MOL_PROPERTY
W(SA)
SciTegic.value.DoubleValue
2.108

@<SCITEGIC>MOL_PROPERTY
Valence
SciTegic.value.DoubleValue
7.175

@<SCITEGIC>MOL_PROPERTY
Coulomb
SciTegic.value.DoubleValue
-1.360

@<SCITEGIC>MOL_PROPERTY
VdW
SciTegic.value.DoubleValue
1.151

@<SCITEGIC>MOL_PROPERTY
VdW6
SciTegic.value.DoubleValue
-5.641

@<SCITEGIC>MOL_PROPERTY
VdW12
SciTegic.value.DoubleValue
6.792

@<SCITEGIC>MOL_PROPERTY
Bond
SciTegic.value.DoubleValue
0.119

@<SCITEGIC>MOL_PROPERTY
Angle
SciTegic.value.DoubleValue
2.715

@<SCITEGIC>MOL_PROPERTY
Pdih
SciTegic.value.DoubleValue
4.340

@<SCITEGIC>MOL_PROPERTY
Idih
SciTegic.value.DoubleValue
0.000

@<SCITEGIC>MOL_PROPERTY
Tether
SciTegic.value.DoubleValue
0.000

@<TRIPOS>MOLECULE
guest-7_confgen4.mol2 : confsearch ligand conformer 97
          19          18           1
SMALL
USER_CHARGES
 
@<TRIPOS>ATOM
       1    C1      16.660968   18.104493   21.726342 C.2        1 MOL1         0.6115
       2    O1      16.247320   18.202644   20.588168 O.co2      1 MOL1        -0.6776
       3    O2      16.228150   17.305356   22.532711 O.co2      1 MOL1        -0.6776
       4    C2      17.799768   19.020575   22.160278 C.3        1 MOL1        -0.2013
       5    H1      17.677724   19.233286   23.229203 H          1 MOL1         0.0727
       6    H2      17.693811   19.972593   21.626257 H          1 MOL1         0.0727
       7    C3      19.198054   18.411013   21.893175 C.3        1 MOL1        -0.1910
       8    H3      19.283576   17.452768   22.424212 H          1 MOL1         0.0729
       9    H4      19.299600   18.191962   20.821142 H          1 MOL1         0.0729
      10    C4      20.332658   19.357483   22.340942 C.3        1 MOL1        -0.1909
      11    H5      20.227578   19.575632   23.412652 H          1 MOL1         0.0729
      12    H6      20.243668   20.314880   21.809281 H          1 MOL1         0.0729
      13    C5      21.724441   18.747637   22.073732 C.3        1 MOL1        -0.1884
      14    H7      21.818048   17.790576   22.605488 H          1 MOL1         0.0729
      15    H8      21.834176   18.529832   21.002279 H          1 MOL1         0.0729
      16    C6      22.854895   19.695277   22.522074 C.3        1 MOL1        -0.2899
      17    H9      23.837036   19.246234   22.324925 H          1 MOL1         0.0741
      18    H10     22.804235   20.650066   21.982413 H          1 MOL1         0.0741
      19    H11     22.787953   19.905295   23.597637 H          1 MOL1         0.0741
@<TRIPOS>BOND
    1     1     2    1
    2     1     3    2
    3     1     4    1
    4     4     5    1
    5     4     6    1
    6     4     7    1
    7     7     8    1
    8     7     9    1
    9     7    10    1
   10    10    11    1
   11    10    12    1
   12    10    13    1
   13    13    14    1
   14    13    15    1
   15    13    16    1
   16    16    17    1
   17    16    18    1
   18    16    19    1
@<TRIPOS>SUBSTRUCTURE
       1 MOL1            1 RESIDUE      1      MOL     
@<SCITEGIC>MOL_PROPERTY
VConf Rank
SciTegic.value.IntegerValue
97

@<SCITEGIC>MOL_PROPERTY
Conf_Id
SciTegic.value.IntegerValue
18

@<SCITEGIC>MOL_PROPERTY
Delta U+W
SciTegic.value.DoubleValue
-1.199

@<SCITEGIC>MOL_PROPERTY
U+W
SciTegic.value.DoubleValue
-56.090

@<SCITEGIC>MOL_PROPERTY
Grad RMS
SciTegic.value.DoubleValue
0.000000

@<SCITEGIC>MOL_PROPERTY
U
SciTegic.value.DoubleValue
5.975

@<SCITEGIC>MOL_PROPERTY
W
SciTegic.value.DoubleValue
-62.066

@<SCITEGIC>MOL_PROPERTY
W(PB)
SciTegic.value.DoubleValue
-64.219

@<SCITEGIC>MOL_PROPERTY
W(SA)
SciTegic.value.DoubleValue
2.153

@<SCITEGIC>MOL_PROPERTY
Valence
SciTegic.value.DoubleValue
6.673

@<SCITEGIC>MOL_PROPERTY
Coulomb
SciTegic.value.DoubleValue
-1.307

@<SCITEGIC>MOL_PROPERTY
VdW
SciTegic.value.DoubleValue
0.610

@<SCITEGIC>MOL_PROPERTY
VdW6
SciTegic.value.DoubleValue
-5.351

@<SCITEGIC>MOL_PROPERTY
VdW12
SciTegic.value.DoubleValue
5.961

@<SCITEGIC>MOL_PROPERTY
Bond
SciTegic.value.DoubleValue
0.086

@<SCITEGIC>MOL_PROPERTY
Angle
SciTegic.value.DoubleValue
2.253

@<SCITEGIC>MOL_PROPERTY
Pdih
SciTegic.value.DoubleValue
4.333

@<SCITEGIC>MOL_PROPERTY
Idih
SciTegic.value.DoubleValue
0.001

@<SCITEGIC>MOL_PROPERTY
Tether
SciTegic.value.DoubleValue
0.000

@<TRIPOS>MOLECULE
guest-7_confgen4.mol2 : confsearch ligand conformer 98
          19          18           1
SMALL
USER_CHARGES
 
@<TRIPOS>ATOM
       1    C1      20.836759   21.003227   24.478765 C.2        1 MOL1         0.6115
       2    O1      21.773129   20.827779   25.232898 O.co2      1 MOL1        -0.6776
       3    O2      20.324283   22.087558   24.284198 O.co2      1 MOL1        -0.6776
       4    C2      20.288770   19.800411   23.718960 C.3        1 MOL1        -0.2013
       5    H1      19.212026   19.953375   23.584544 H          1 MOL1         0.0727
       6    H2      20.415301   18.912681   24.350175 H          1 MOL1         0.0727
       7    C3      20.985654   19.586857   22.350044 C.3        1 MOL1        -0.1910
       8    H3      20.814554   20.463725   21.710407 H          1 MOL1         0.0729
       9    H4      22.070852   19.528461   22.512394 H          1 MOL1         0.0729
      10    C4      20.524845   18.305682   21.615346 C.3        1 MOL1        -0.1909
      11    H5      20.705073   17.430093   22.253992 H          1 MOL1         0.0729
      12    H6      21.149845   18.172391   20.721689 H          1 MOL1         0.0729
      13    C5      19.040219   18.342425   21.188678 C.3        1 MOL1        -0.1884
      14    H7      18.393081   18.399004   22.073761 H          1 MOL1         0.0729
      15    H8      18.848137   19.244992   20.592235 H          1 MOL1         0.0729
      16    C6      18.657560   17.095069   20.367129 C.3        1 MOL1        -0.2899
      17    H9      17.600314   17.134320   20.074247 H          1 MOL1         0.0741
      18    H10     19.260201   17.026808   19.451951 H          1 MOL1         0.0741
      19    H11     18.814047   16.178000   20.950140 H          1 MOL1         0.0741
@<TRIPOS>BOND
    1     1     2    1
    2     1     3    2
    3     1     4    1
    4     4     5    1
    5     4     6    1
    6     4     7    1
    7     7     8    1
    8     7     9    1
    9     7    10    1
   10    10    11    1
   11    10    12    1
   12    10    13    1
   13    13    14    1
   14    13    15    1
   15    13    16    1
   16    16    17    1
   17    16    18    1
   18    16    19    1
@<TRIPOS>SUBSTRUCTURE
       1 MOL1            1 RESIDUE      1      MOL     
@<SCITEGIC>MOL_PROPERTY
VConf Rank
SciTegic.value.IntegerValue
98

@<SCITEGIC>MOL_PROPERTY
Conf_Id
SciTegic.value.IntegerValue
34

@<SCITEGIC>MOL_PROPERTY
Delta U+W
SciTegic.value.DoubleValue
-0.563

@<SCITEGIC>MOL_PROPERTY
U+W
SciTegic.value.DoubleValue
-55.455

@<SCITEGIC>MOL_PROPERTY
Grad RMS
SciTegic.value.DoubleValue
0.000000

@<SCITEGIC>MOL_PROPERTY
U
SciTegic.value.DoubleValue
6.914

@<SCITEGIC>MOL_PROPERTY
W
SciTegic.value.DoubleValue
-62.369

@<SCITEGIC>MOL_PROPERTY
W(PB)
SciTegic.value.DoubleValue
-64.446

@<SCITEGIC>MOL_PROPERTY
W(SA)
SciTegic.value.DoubleValue
2.077

@<SCITEGIC>MOL_PROPERTY
Valence
SciTegic.value.DoubleValue
7.196

@<SCITEGIC>MOL_PROPERTY
Coulomb
SciTegic.value.DoubleValue
-1.020

@<SCITEGIC>MOL_PROPERTY
VdW
SciTegic.value.DoubleValue
0.738

@<SCITEGIC>MOL_PROPERTY
VdW6
SciTegic.value.DoubleValue
-6.010

@<SCITEGIC>MOL_PROPERTY
VdW12
SciTegic.value.DoubleValue
6.748

@<SCITEGIC>MOL_PROPERTY
Bond
SciTegic.value.DoubleValue
0.126

@<SCITEGIC>MOL_PROPERTY
Angle
SciTegic.value.DoubleValue
2.499

@<SCITEGIC>MOL_PROPERTY
Pdih
SciTegic.value.DoubleValue
4.570

@<SCITEGIC>MOL_PROPERTY
Idih
SciTegic.value.DoubleValue
0.001

@<SCITEGIC>MOL_PROPERTY
Tether
SciTegic.value.DoubleValue
0.000

@<TRIPOS>MOLECULE
guest-7_confgen4.mol2 : confsearch ligand conformer 99
          19          18           1
SMALL
USER_CHARGES
 
@<TRIPOS>ATOM
       1    C1      19.828278   16.142808   23.791511 C.2        1 MOL1         0.6115
       2    O1      18.825094   15.461534   23.867513 O.co2      1 MOL1        -0.6776
       3    O2      20.772272   16.036252   24.548995 O.co2      1 MOL1        -0.6776
       4    C2      19.896909   17.204385   22.699401 C.3        1 MOL1        -0.2013
       5    H1      19.331367   16.839176   21.833782 H          1 MOL1         0.0727
       6    H2      20.943851   17.296070   22.388995 H          1 MOL1         0.0727
       7    C3      19.341314   18.576867   23.160691 C.3        1 MOL1        -0.1910
       8    H3      18.323832   18.432429   23.549651 H          1 MOL1         0.0729
       9    H4      19.943297   18.953369   23.999245 H          1 MOL1         0.0729
      10    C4      19.295253   19.635312   22.033262 C.3        1 MOL1        -0.1909
      11    H5      18.782613   20.528971   22.414820 H          1 MOL1         0.0729
      12    H6      18.685729   19.259394   21.200091 H          1 MOL1         0.0729
      13    C5      20.692867   20.041454   21.514381 C.3        1 MOL1        -0.1884
      14    H7      21.319585   20.369378   22.355190 H          1 MOL1         0.0729
      15    H8      21.193665   19.177088   21.058929 H          1 MOL1         0.0729
      16    C6      20.601315   21.173993   20.472153 C.3        1 MOL1        -0.2899
      17    H9      20.001934   20.863095   19.606422 H          1 MOL1         0.0741
      18    H10     20.138986   22.070664   20.905304 H          1 MOL1         0.0741
      19    H11     21.600887   21.449102   20.111238 H          1 MOL1         0.0741
@<TRIPOS>BOND
    1     1     2    1
    2     1     3    2
    3     1     4    1
    4     4     5    1
    5     4     6    1
    6     4     7    1
    7     7     8    1
    8     7     9    1
    9     7    10    1
   10    10    11    1
   11    10    12    1
   12    10    13    1
   13    13    14    1
   14    13    15    1
   15    13    16    1
   16    16    17    1
   17    16    18    1
   18    16    19    1
@<TRIPOS>SUBSTRUCTURE
       1 MOL1            1 RESIDUE      1      MOL     
@<SCITEGIC>MOL_PROPERTY
VConf Rank
SciTegic.value.IntegerValue
99

@<SCITEGIC>MOL_PROPERTY
Conf_Id
SciTegic.value.IntegerValue
33

@<SCITEGIC>MOL_PROPERTY
Delta U+W
SciTegic.value.DoubleValue
-0.526

@<SCITEGIC>MOL_PROPERTY
U+W
SciTegic.value.DoubleValue
-55.418

@<SCITEGIC>MOL_PROPERTY
Grad RMS
SciTegic.value.DoubleValue
0.000000

@<SCITEGIC>MOL_PROPERTY
U
SciTegic.value.DoubleValue
6.914

@<SCITEGIC>MOL_PROPERTY
W
SciTegic.value.DoubleValue
-62.332

@<SCITEGIC>MOL_PROPERTY
W(PB)
SciTegic.value.DoubleValue
-64.421

@<SCITEGIC>MOL_PROPERTY
W(SA)
SciTegic.value.DoubleValue
2.090

@<SCITEGIC>MOL_PROPERTY
Valence
SciTegic.value.DoubleValue
7.196

@<SCITEGIC>MOL_PROPERTY
Coulomb
SciTegic.value.DoubleValue
-1.020

@<SCITEGIC>MOL_PROPERTY
VdW
SciTegic.value.DoubleValue
0.738

@<SCITEGIC>MOL_PROPERTY
VdW6
SciTegic.value.DoubleValue
-6.010

@<SCITEGIC>MOL_PROPERTY
VdW12
SciTegic.value.DoubleValue
6.748

@<SCITEGIC>MOL_PROPERTY
Bond
SciTegic.value.DoubleValue
0.126

@<SCITEGIC>MOL_PROPERTY
Angle
SciTegic.value.DoubleValue
2.499

@<SCITEGIC>MOL_PROPERTY
Pdih
SciTegic.value.DoubleValue
4.570

@<SCITEGIC>MOL_PROPERTY
Idih
SciTegic.value.DoubleValue
0.001

@<SCITEGIC>MOL_PROPERTY
Tether
SciTegic.value.DoubleValue
0.000

@<TRIPOS>MOLECULE
guest-7_confgen4.mol2 : confsearch ligand conformer 100
          19          18           1
SMALL
USER_CHARGES
 
@<TRIPOS>ATOM
       1    C1      17.855189   21.346696   22.589633 C.2        1 MOL1         0.6115
       2    O1      17.683933   21.902812   21.523037 O.co2      1 MOL1        -0.6776
       3    O2      16.983705   21.212216   23.425501 O.co2      1 MOL1        -0.6776
       4    C2      19.234759   20.770461   22.888365 C.3        1 MOL1        -0.2013
       5    H1      19.407391   20.842928   23.968932 H          1 MOL1         0.0727
       6    H2      19.982828   21.404452   22.397269 H          1 MOL1         0.0727
       7    C3      19.388738   19.302564   22.419312 C.3        1 MOL1        -0.1910
       8    H3      18.627281   18.682502   22.912207 H          1 MOL1         0.0729
       9    H4      19.193435   19.252069   21.339994 H          1 MOL1         0.0729
      10    C4      20.796942   18.745631   22.731478 C.3        1 MOL1        -0.1909
      11    H5      21.001259   18.870647   23.803681 H          1 MOL1         0.0729
      12    H6      21.555249   19.335976   22.199059 H          1 MOL1         0.0729
      13    C5      20.959407   17.250675   22.371900 C.3        1 MOL1        -0.1884
      14    H7      21.938963   16.906136   22.731077 H          1 MOL1         0.0729
      15    H8      20.206048   16.656127   22.906961 H          1 MOL1         0.0729
      16    C6      20.860099   16.972587   20.856427 C.3        1 MOL1        -0.2899
      17    H9      21.585005   17.578534   20.297414 H          1 MOL1         0.0741
      18    H10     21.069297   15.915797   20.645778 H          1 MOL1         0.0741
      19    H11     19.856462   17.195004   20.473040 H          1 MOL1         0.0741
@<TRIPOS>BOND
    1     1     2    1
    2     1     3    2
    3     1     4    1
    4     4     5    1
    5     4     6    1
    6     4     7    1
    7     7     8    1
    8     7     9    1
    9     7    10    1
   10    10    11    1
   11    10    12    1
   12    10    13    1
   13    13    14    1
   14    13    15    1
   15    13    16    1
   16    16    17    1
   17    16    18    1
   18    16    19    1
@<TRIPOS>SUBSTRUCTURE
       1 MOL1            1 RESIDUE      1      MOL     
@<SCITEGIC>MOL_PROPERTY
VConf Rank
SciTegic.value.IntegerValue
100

@<SCITEGIC>MOL_PROPERTY
Conf_Id
SciTegic.value.IntegerValue
42

@<SCITEGIC>MOL_PROPERTY
Delta U+W
SciTegic.value.DoubleValue
-0.344

@<SCITEGIC>MOL_PROPERTY
U+W
SciTegic.value.DoubleValue
-55.236

@<SCITEGIC>MOL_PROPERTY
Grad RMS
SciTegic.value.DoubleValue
0.000000

@<SCITEGIC>MOL_PROPERTY
U
SciTegic.value.DoubleValue
7.244

@<SCITEGIC>MOL_PROPERTY
W
SciTegic.value.DoubleValue
-62.479

@<SCITEGIC>MOL_PROPERTY
W(PB)
SciTegic.value.DoubleValue
-64.610

@<SCITEGIC>MOL_PROPERTY
W(SA)
SciTegic.value.DoubleValue
2.130

@<SCITEGIC>MOL_PROPERTY
Valence
SciTegic.value.DoubleValue
7.174

@<SCITEGIC>MOL_PROPERTY
Coulomb
SciTegic.value.DoubleValue
-0.669

@<SCITEGIC>MOL_PROPERTY
VdW
SciTegic.value.DoubleValue
0.739

@<SCITEGIC>MOL_PROPERTY
VdW6
SciTegic.value.DoubleValue
-5.969

@<SCITEGIC>MOL_PROPERTY
VdW12
SciTegic.value.DoubleValue
6.708

@<SCITEGIC>MOL_PROPERTY
Bond
SciTegic.value.DoubleValue
0.116

@<SCITEGIC>MOL_PROPERTY
Angle
SciTegic.value.DoubleValue
2.481

@<SCITEGIC>MOL_PROPERTY
Pdih
SciTegic.value.DoubleValue
4.576

@<SCITEGIC>MOL_PROPERTY
Idih
SciTegic.value.DoubleValue
0.000

@<SCITEGIC>MOL_PROPERTY
Tether
SciTegic.value.DoubleValue
0.000

@<TRIPOS>MOLECULE
guest-7_confgen4.mol2 : confsearch ligand conformer 101
          19          18           1
SMALL
USER_CHARGES
 
@<TRIPOS>ATOM
       1    C1      20.234291   21.769758   20.817969 C.2        1 MOL1         0.6115
       2    O1      21.236399   22.351843   21.182902 O.co2      1 MOL1        -0.6776
       3    O2      19.185834   22.329401   20.565414 O.co2      1 MOL1        -0.6776
       4    C2      20.290148   20.251770   20.687230 C.3        1 MOL1        -0.2013
       5    H1      21.307847   19.972356   20.388993 H          1 MOL1         0.0727
       6    H2      19.620220   19.955383   19.871122 H          1 MOL1         0.0727
       7    C3      19.897323   19.519889   21.994319 C.3        1 MOL1        -0.1910
       8    H3      20.568600   19.846036   22.799698 H          1 MOL1         0.0729
       9    H4      18.880170   19.817013   22.284762 H          1 MOL1         0.0729
      10    C4      19.966231   17.983578   21.834137 C.3        1 MOL1        -0.1909
      11    H5      20.994540   17.682076   21.591887 H          1 MOL1         0.0729
      12    H6      19.344528   17.685030   20.978950 H          1 MOL1         0.0729
      13    C5      19.482879   17.213707   23.084841 C.3        1 MOL1        -0.1884
      14    H7      18.452465   17.508510   23.327049 H          1 MOL1         0.0729
      15    H8      19.451291   16.141198   22.848258 H          1 MOL1         0.0729
      16    C6      20.386885   17.423793   24.318733 C.3        1 MOL1        -0.2899
      17    H9      20.359379   18.465134   24.663114 H          1 MOL1         0.0741
      18    H10     20.053720   16.790040   25.150780 H          1 MOL1         0.0741
      19    H11     21.428767   17.163037   24.091478 H          1 MOL1         0.0741
@<TRIPOS>BOND
    1     1     2    1
    2     1     3    2
    3     1     4    1
    4     4     5    1
    5     4     6    1
    6     4     7    1
    7     7     8    1
    8     7     9    1
    9     7    10    1
   10    10    11    1
   11    10    12    1
   12    10    13    1
   13    13    14    1
   14    13    15    1
   15    13    16    1
   16    16    17    1
   17    16    18    1
   18    16    19    1
@<TRIPOS>SUBSTRUCTURE
       1 MOL1            1 RESIDUE      1      MOL     
@<SCITEGIC>MOL_PROPERTY
VConf Rank
SciTegic.value.IntegerValue
101

@<SCITEGIC>MOL_PROPERTY
Conf_Id
SciTegic.value.IntegerValue
41

@<SCITEGIC>MOL_PROPERTY
Delta U+W
SciTegic.value.DoubleValue
-0.361

@<SCITEGIC>MOL_PROPERTY
U+W
SciTegic.value.DoubleValue
-55.252

@<SCITEGIC>MOL_PROPERTY
Grad RMS
SciTegic.value.DoubleValue
0.000000

@<SCITEGIC>MOL_PROPERTY
U
SciTegic.value.DoubleValue
7.244

@<SCITEGIC>MOL_PROPERTY
W
SciTegic.value.DoubleValue
-62.496

@<SCITEGIC>MOL_PROPERTY
W(PB)
SciTegic.value.DoubleValue
-64.596

@<SCITEGIC>MOL_PROPERTY
W(SA)
SciTegic.value.DoubleValue
2.099

@<SCITEGIC>MOL_PROPERTY
Valence
SciTegic.value.DoubleValue
7.174

@<SCITEGIC>MOL_PROPERTY
Coulomb
SciTegic.value.DoubleValue
-0.669

@<SCITEGIC>MOL_PROPERTY
VdW
SciTegic.value.DoubleValue
0.739

@<SCITEGIC>MOL_PROPERTY
VdW6
SciTegic.value.DoubleValue
-5.969

@<SCITEGIC>MOL_PROPERTY
VdW12
SciTegic.value.DoubleValue
6.708

@<SCITEGIC>MOL_PROPERTY
Bond
SciTegic.value.DoubleValue
0.116

@<SCITEGIC>MOL_PROPERTY
Angle
SciTegic.value.DoubleValue
2.481

@<SCITEGIC>MOL_PROPERTY
Pdih
SciTegic.value.DoubleValue
4.576

@<SCITEGIC>MOL_PROPERTY
Idih
SciTegic.value.DoubleValue
0.000

@<SCITEGIC>MOL_PROPERTY
Tether
SciTegic.value.DoubleValue
0.000

@<TRIPOS>MOLECULE
guest-7_confgen4.mol2 : confsearch ligand conformer 102
          19          18           1
SMALL
USER_CHARGES
 
@<TRIPOS>ATOM
       1    C1      20.455568   19.366289   19.574640 C.2        1 MOL1         0.6115
       2    O1      20.180871   20.544321   19.459171 O.co2      1 MOL1        -0.6776
       3    O2      21.513917   18.885404   19.220626 O.co2      1 MOL1        -0.6776
       4    C2      19.407489   18.434238   20.176433 C.3        1 MOL1        -0.2013
       5    H1      19.351416   17.546481   19.535453 H          1 MOL1         0.0727
       6    H2      18.428796   18.926476   20.123066 H          1 MOL1         0.0727
       7    C3      19.710067   18.001474   21.634601 C.3        1 MOL1        -0.1910
       8    H3      18.987329   17.230688   21.934720 H          1 MOL1         0.0729
       9    H4      20.704745   17.536247   21.677151 H          1 MOL1         0.0729
      10    C4      19.640552   19.180359   22.630949 C.3        1 MOL1        -0.1909
      11    H5      18.648968   19.650137   22.575272 H          1 MOL1         0.0729
      12    H6      20.373087   19.948682   22.347232 H          1 MOL1         0.0729
      13    C5      19.913565   18.721621   24.078577 C.3        1 MOL1        -0.1884
      14    H7      19.181103   17.955894   24.369423 H          1 MOL1         0.0729
      15    H8      20.905936   18.253449   24.137630 H          1 MOL1         0.0729
      16    C6      19.843408   19.900037   25.070237 C.3        1 MOL1        -0.2899
      17    H9      18.850256   20.367811   25.054627 H          1 MOL1         0.0741
      18    H10     20.040283   19.556381   26.094067 H          1 MOL1         0.0741
      19    H11     20.587863   20.667617   24.821141 H          1 MOL1         0.0741
@<TRIPOS>BOND
    1     1     2    1
    2     1     3    2
    3     1     4    1
    4     4     5    1
    5     4     6    1
    6     4     7    1
    7     7     8    1
    8     7     9    1
    9     7    10    1
   10    10    11    1
   11    10    12    1
   12    10    13    1
   13    13    14    1
   14    13    15    1
   15    13    16    1
   16    16    17    1
   17    16    18    1
   18    16    19    1
@<TRIPOS>SUBSTRUCTURE
       1 MOL1            1 RESIDUE      1      MOL     
@<SCITEGIC>MOL_PROPERTY
VConf Rank
SciTegic.value.IntegerValue
102

@<SCITEGIC>MOL_PROPERTY
Conf_Id
SciTegic.value.IntegerValue
36

@<SCITEGIC>MOL_PROPERTY
Delta U+W
SciTegic.value.DoubleValue
-0.079

@<SCITEGIC>MOL_PROPERTY
U+W
SciTegic.value.DoubleValue
-54.971

@<SCITEGIC>MOL_PROPERTY
Grad RMS
SciTegic.value.DoubleValue
0.000000

@<SCITEGIC>MOL_PROPERTY
U
SciTegic.value.DoubleValue
8.266

@<SCITEGIC>MOL_PROPERTY
W
SciTegic.value.DoubleValue
-63.237

@<SCITEGIC>MOL_PROPERTY
W(PB)
SciTegic.value.DoubleValue
-65.340

@<SCITEGIC>MOL_PROPERTY
W(SA)
SciTegic.value.DoubleValue
2.103

@<SCITEGIC>MOL_PROPERTY
Valence
SciTegic.value.DoubleValue
6.935

@<SCITEGIC>MOL_PROPERTY
Coulomb
SciTegic.value.DoubleValue
0.874

@<SCITEGIC>MOL_PROPERTY
VdW
SciTegic.value.DoubleValue
0.457

@<SCITEGIC>MOL_PROPERTY
VdW6
SciTegic.value.DoubleValue
-6.205

@<SCITEGIC>MOL_PROPERTY
VdW12
SciTegic.value.DoubleValue
6.662

@<SCITEGIC>MOL_PROPERTY
Bond
SciTegic.value.DoubleValue
0.107

@<SCITEGIC>MOL_PROPERTY
Angle
SciTegic.value.DoubleValue
2.420

@<SCITEGIC>MOL_PROPERTY
Pdih
SciTegic.value.DoubleValue
4.407

@<SCITEGIC>MOL_PROPERTY
Idih
SciTegic.value.DoubleValue
0.001

@<SCITEGIC>MOL_PROPERTY
Tether
SciTegic.value.DoubleValue
0.000

@<TRIPOS>MOLECULE
guest-7_confgen4.mol2 : confsearch ligand conformer 103
          19          18           1
SMALL
USER_CHARGES
 
@<TRIPOS>ATOM
       1    C1      19.415462   21.252502   23.890318 C.2        1 MOL1         0.6115
       2    O1      19.737197   20.869197   24.997619 O.co2      1 MOL1        -0.6776
       3    O2      18.322742   21.716774   23.631289 O.co2      1 MOL1        -0.6776
       4    C2      20.445297   21.167022   22.767161 C.3        1 MOL1        -0.2013
       5    H1      21.441819   21.060531   23.212797 H          1 MOL1         0.0727
       6    H2      20.435022   22.127799   22.239041 H          1 MOL1         0.0727
       7    C3      20.184970   20.018792   21.757760 C.3        1 MOL1        -0.1910
       8    H3      19.173250   20.122617   21.341498 H          1 MOL1         0.0729
       9    H4      20.884654   20.118193   20.916869 H          1 MOL1         0.0729
      10    C4      20.348351   18.620122   22.393636 C.3        1 MOL1        -0.1909
      11    H5      19.639468   18.506433   23.225491 H          1 MOL1         0.0729
      12    H6      21.356635   18.526031   22.819710 H          1 MOL1         0.0729
      13    C5      20.115927   17.494150   21.364670 C.3        1 MOL1        -0.1884
      14    H7      19.107082   17.584487   20.938588 H          1 MOL1         0.0729
      15    H8      20.825179   17.600260   20.532124 H          1 MOL1         0.0729
      16    C6      20.279660   16.099960   22.002169 C.3        1 MOL1        -0.2899
      17    H9      19.560268   15.954727   22.818762 H          1 MOL1         0.0741
      18    H10     20.110625   15.311599   21.257185 H          1 MOL1         0.0741
      19    H11     21.291079   15.970620   22.409242 H          1 MOL1         0.0741
@<TRIPOS>BOND
    1     1     2    1
    2     1     3    2
    3     1     4    1
    4     4     5    1
    5     4     6    1
    6     4     7    1
    7     7     8    1
    8     7     9    1
    9     7    10    1
   10    10    11    1
   11    10    12    1
   12    10    13    1
   13    13    14    1
   14    13    15    1
   15    13    16    1
   16    16    17    1
   17    16    18    1
   18    16    19    1
@<TRIPOS>SUBSTRUCTURE
       1 MOL1            1 RESIDUE      1      MOL     
@<SCITEGIC>MOL_PROPERTY
VConf Rank
SciTegic.value.IntegerValue
103

@<SCITEGIC>MOL_PROPERTY
Conf_Id
SciTegic.value.IntegerValue
35

@<SCITEGIC>MOL_PROPERTY
Delta U+W
SciTegic.value.DoubleValue
-0.030

@<SCITEGIC>MOL_PROPERTY
U+W
SciTegic.value.DoubleValue
-54.921

@<SCITEGIC>MOL_PROPERTY
Grad RMS
SciTegic.value.DoubleValue
0.000000

@<SCITEGIC>MOL_PROPERTY
U
SciTegic.value.DoubleValue
8.267

@<SCITEGIC>MOL_PROPERTY
W
SciTegic.value.DoubleValue
-63.188

@<SCITEGIC>MOL_PROPERTY
W(PB)
SciTegic.value.DoubleValue
-65.294

@<SCITEGIC>MOL_PROPERTY
W(SA)
SciTegic.value.DoubleValue
2.106

@<SCITEGIC>MOL_PROPERTY
Valence
SciTegic.value.DoubleValue
6.935

@<SCITEGIC>MOL_PROPERTY
Coulomb
SciTegic.value.DoubleValue
0.875

@<SCITEGIC>MOL_PROPERTY
VdW
SciTegic.value.DoubleValue
0.457

@<SCITEGIC>MOL_PROPERTY
VdW6
SciTegic.value.DoubleValue
-6.205

@<SCITEGIC>MOL_PROPERTY
VdW12
SciTegic.value.DoubleValue
6.662

@<SCITEGIC>MOL_PROPERTY
Bond
SciTegic.value.DoubleValue
0.107

@<SCITEGIC>MOL_PROPERTY
Angle
SciTegic.value.DoubleValue
2.420

@<SCITEGIC>MOL_PROPERTY
Pdih
SciTegic.value.DoubleValue
4.407

@<SCITEGIC>MOL_PROPERTY
Idih
SciTegic.value.DoubleValue
0.001

@<SCITEGIC>MOL_PROPERTY
Tether
SciTegic.value.DoubleValue
0.000

@<TRIPOS>MOLECULE
guest-7_confgen4.mol2 : confsearch ligand conformer 104
          19          18           1
SMALL
USER_CHARGES
 
@<TRIPOS>ATOM
       1    C1      20.187570   17.891237   25.060425 C.2        1 MOL1         0.6115
       2    O1      20.702679   16.794958   25.158114 O.co2      1 MOL1        -0.6776
       3    O2      19.134148   18.187795   25.588630 O.co2      1 MOL1        -0.6776
       4    C2      20.915613   18.958508   24.247797 C.3        1 MOL1        -0.2013
       5    H1      21.969513   18.937016   24.549338 H          1 MOL1         0.0727
       6    H2      20.524476   19.943104   24.531596 H          1 MOL1         0.0727
       7    C3      20.813226   18.764635   22.712332 C.3        1 MOL1        -0.1910
       8    H3      21.487597   19.480461   22.225334 H          1 MOL1         0.0729
       9    H4      21.171440   17.760157   22.447691 H          1 MOL1         0.0729
      10    C4      19.372780   18.964289   22.183242 C.3        1 MOL1        -0.1909
      11    H5      19.030771   19.982159   22.415163 H          1 MOL1         0.0729
      12    H6      18.695301   18.281590   22.714250 H          1 MOL1         0.0729
      13    C5      19.234581   18.704859   20.665208 C.3        1 MOL1        -0.1884
      14    H7      19.574016   17.686537   20.430441 H          1 MOL1         0.0729
      15    H8      18.170021   18.746609   20.396527 H          1 MOL1         0.0729
      16    C6      20.005632   19.722929   19.797434 C.3        1 MOL1        -0.2899
      17    H9      21.089273   19.636725   19.945467 H          1 MOL1         0.0741
      18    H10     19.801615   19.551362   18.732597 H          1 MOL1         0.0741
      19    H11     19.705175   20.751125   20.037610 H          1 MOL1         0.0741
@<TRIPOS>BOND
    1     1     2    1
    2     1     3    2
    3     1     4    1
    4     4     5    1
    5     4     6    1
    6     4     7    1
    7     7     8    1
    8     7     9    1
    9     7    10    1
   10    10    11    1
   11    10    12    1
   12    10    13    1
   13    13    14    1
   14    13    15    1
   15    13    16    1
   16    16    17    1
   17    16    18    1
   18    16    19    1
@<TRIPOS>SUBSTRUCTURE
       1 MOL1            1 RESIDUE      1      MOL     
@<SCITEGIC>MOL_PROPERTY
VConf Rank
SciTegic.value.IntegerValue
104

@<SCITEGIC>MOL_PROPERTY
Conf_Id
SciTegic.value.IntegerValue
74

@<SCITEGIC>MOL_PROPERTY
Delta U+W
SciTegic.value.DoubleValue
0.797

@<SCITEGIC>MOL_PROPERTY
U+W
SciTegic.value.DoubleValue
-54.095

@<SCITEGIC>MOL_PROPERTY
Grad RMS
SciTegic.value.DoubleValue
0.000000

@<SCITEGIC>MOL_PROPERTY
U
SciTegic.value.DoubleValue
8.869

@<SCITEGIC>MOL_PROPERTY
W
SciTegic.value.DoubleValue
-62.964

@<SCITEGIC>MOL_PROPERTY
W(PB)
SciTegic.value.DoubleValue
-65.046

@<SCITEGIC>MOL_PROPERTY
W(SA)
SciTegic.value.DoubleValue
2.082

@<SCITEGIC>MOL_PROPERTY
Valence
SciTegic.value.DoubleValue
7.469

@<SCITEGIC>MOL_PROPERTY
Coulomb
SciTegic.value.DoubleValue
0.762

@<SCITEGIC>MOL_PROPERTY
VdW
SciTegic.value.DoubleValue
0.639

@<SCITEGIC>MOL_PROPERTY
VdW6
SciTegic.value.DoubleValue
-6.782

@<SCITEGIC>MOL_PROPERTY
VdW12
SciTegic.value.DoubleValue
7.421

@<SCITEGIC>MOL_PROPERTY
Bond
SciTegic.value.DoubleValue
0.141

@<SCITEGIC>MOL_PROPERTY
Angle
SciTegic.value.DoubleValue
2.667

@<SCITEGIC>MOL_PROPERTY
Pdih
SciTegic.value.DoubleValue
4.660

@<SCITEGIC>MOL_PROPERTY
Idih
SciTegic.value.DoubleValue
0.001

@<SCITEGIC>MOL_PROPERTY
Tether
SciTegic.value.DoubleValue
0.000

@<TRIPOS>MOLECULE
guest-7_confgen4.mol2 : confsearch ligand conformer 105
          19          18           1
SMALL
USER_CHARGES
 
@<TRIPOS>ATOM
       1    C1      21.386960   16.374137   22.018884 C.2        1 MOL1         0.6115
       2    O1      22.274241   16.065483   21.248243 O.co2      1 MOL1        -0.6776
       3    O2      21.186418   15.807216   23.074681 O.co2      1 MOL1        -0.6776
       4    C2      20.488470   17.548940   21.649060 C.3        1 MOL1        -0.2013
       5    H1      19.492469   17.349900   22.060793 H          1 MOL1         0.0727
       6    H2      20.391210   17.573495   20.557138 H          1 MOL1         0.0727
       7    C3      21.029867   18.906008   22.168524 C.3        1 MOL1        -0.1910
       8    H3      21.086918   18.883243   23.264884 H          1 MOL1         0.0729
       9    H4      22.061851   19.032908   21.813414 H          1 MOL1         0.0729
      10    C4      20.194895   20.125168   21.702475 C.3        1 MOL1        -0.1909
      11    H5      20.236659   20.186897   20.606465 H          1 MOL1         0.0729
      12    H6      20.670978   21.041998   22.076036 H          1 MOL1         0.0729
      13    C5      18.710830   20.116355   22.144487 C.3        1 MOL1        -0.1884
      14    H7      18.221928   21.015610   21.745244 H          1 MOL1         0.0729
      15    H8      18.186563   19.262120   21.696118 H          1 MOL1         0.0729
      16    C6      18.529555   20.092164   23.677442 C.3        1 MOL1        -0.2899
      17    H9      19.065307   20.925844   24.149647 H          1 MOL1         0.0741
      18    H10     17.467430   20.179893   23.940136 H          1 MOL1         0.0741
      19    H11     18.902239   19.154188   24.108225 H          1 MOL1         0.0741
@<TRIPOS>BOND
    1     1     2    1
    2     1     3    2
    3     1     4    1
    4     4     5    1
    5     4     6    1
    6     4     7    1
    7     7     8    1
    8     7     9    1
    9     7    10    1
   10    10    11    1
   11    10    12    1
   12    10    13    1
   13    13    14    1
   14    13    15    1
   15    13    16    1
   16    16    17    1
   17    16    18    1
   18    16    19    1
@<TRIPOS>SUBSTRUCTURE
       1 MOL1            1 RESIDUE      1      MOL     
@<SCITEGIC>MOL_PROPERTY
VConf Rank
SciTegic.value.IntegerValue
105

@<SCITEGIC>MOL_PROPERTY
Conf_Id
SciTegic.value.IntegerValue
67

@<SCITEGIC>MOL_PROPERTY
Delta U+W
SciTegic.value.DoubleValue
0.308

@<SCITEGIC>MOL_PROPERTY
U+W
SciTegic.value.DoubleValue
-54.583

@<SCITEGIC>MOL_PROPERTY
Grad RMS
SciTegic.value.DoubleValue
0.000000

@<SCITEGIC>MOL_PROPERTY
U
SciTegic.value.DoubleValue
8.219

@<SCITEGIC>MOL_PROPERTY
W
SciTegic.value.DoubleValue
-62.802

@<SCITEGIC>MOL_PROPERTY
W(PB)
SciTegic.value.DoubleValue
-64.859

@<SCITEGIC>MOL_PROPERTY
W(SA)
SciTegic.value.DoubleValue
2.057

@<SCITEGIC>MOL_PROPERTY
Valence
SciTegic.value.DoubleValue
7.609

@<SCITEGIC>MOL_PROPERTY
Coulomb
SciTegic.value.DoubleValue
-0.089

@<SCITEGIC>MOL_PROPERTY
VdW
SciTegic.value.DoubleValue
0.699

@<SCITEGIC>MOL_PROPERTY
VdW6
SciTegic.value.DoubleValue
-6.924

@<SCITEGIC>MOL_PROPERTY
VdW12
SciTegic.value.DoubleValue
7.623

@<SCITEGIC>MOL_PROPERTY
Bond
SciTegic.value.DoubleValue
0.163

@<SCITEGIC>MOL_PROPERTY
Angle
SciTegic.value.DoubleValue
2.870

@<SCITEGIC>MOL_PROPERTY
Pdih
SciTegic.value.DoubleValue
4.576

@<SCITEGIC>MOL_PROPERTY
Idih
SciTegic.value.DoubleValue
0.001

@<SCITEGIC>MOL_PROPERTY
Tether
SciTegic.value.DoubleValue
0.000

@<TRIPOS>MOLECULE
guest-7_confgen4.mol2 : confsearch ligand conformer 106
          19          18           1
SMALL
USER_CHARGES
 
@<TRIPOS>ATOM
       1    C1      17.804504   18.095884   20.525085 C.2        1 MOL1         0.6115
       2    O1      17.782936   18.029919   19.311988 O.co2      1 MOL1        -0.6776
       3    O2      16.806751   18.203212   21.210135 O.co2      1 MOL1        -0.6776
       4    C2      19.158961   18.061662   21.224007 C.3        1 MOL1        -0.2013
       5    H1      19.833645   17.433846   20.629866 H          1 MOL1         0.0727
       6    H2      19.022256   17.567598   22.192703 H          1 MOL1         0.0727
       7    C3      19.771806   19.473141   21.415675 C.3        1 MOL1        -0.1910
       8    H3      19.810685   19.975967   20.439533 H          1 MOL1         0.0729
       9    H4      19.106241   20.080359   22.043440 H          1 MOL1         0.0729
      10    C4      21.199917   19.451887   22.016316 C.3        1 MOL1        -0.1909
      11    H5      21.572613   20.483547   22.075947 H          1 MOL1         0.0729
      12    H6      21.870139   18.927175   21.321857 H          1 MOL1         0.0729
      13    C5      21.318251   18.795717   23.413934 C.3        1 MOL1        -0.1884
      14    H7      21.049715   17.732539   23.357792 H          1 MOL1         0.0729
      15    H8      22.371112   18.826362   23.726385 H          1 MOL1         0.0729
      16    C6      20.460395   19.493146   24.491465 C.3        1 MOL1        -0.2899
      17    H9      19.389105   19.386735   24.278669 H          1 MOL1         0.0741
      18    H10     20.648981   19.050966   25.478241 H          1 MOL1         0.0741
      19    H11     20.696249   20.563688   24.549272 H          1 MOL1         0.0741
@<TRIPOS>BOND
    1     1     2    1
    2     1     3    2
    3     1     4    1
    4     4     5    1
    5     4     6    1
    6     4     7    1
    7     7     8    1
    8     7     9    1
    9     7    10    1
   10    10    11    1
   11    10    12    1
   12    10    13    1
   13    13    14    1
   14    13    15    1
   15    13    16    1
   16    16    17    1
   17    16    18    1
   18    16    19    1
@<TRIPOS>SUBSTRUCTURE
       1 MOL1            1 RESIDUE      1      MOL     
@<SCITEGIC>MOL_PROPERTY
VConf Rank
SciTegic.value.IntegerValue
106

@<SCITEGIC>MOL_PROPERTY
Conf_Id
SciTegic.value.IntegerValue
21

@<SCITEGIC>MOL_PROPERTY
Delta U+W
SciTegic.value.DoubleValue
0.319

@<SCITEGIC>MOL_PROPERTY
U+W
SciTegic.value.DoubleValue
-54.572

@<SCITEGIC>MOL_PROPERTY
Grad RMS
SciTegic.value.DoubleValue
0.000000

@<SCITEGIC>MOL_PROPERTY
U
SciTegic.value.DoubleValue
8.220

@<SCITEGIC>MOL_PROPERTY
W
SciTegic.value.DoubleValue
-62.792

@<SCITEGIC>MOL_PROPERTY
W(PB)
SciTegic.value.DoubleValue
-64.830

@<SCITEGIC>MOL_PROPERTY
W(SA)
SciTegic.value.DoubleValue
2.038

@<SCITEGIC>MOL_PROPERTY
Valence
SciTegic.value.DoubleValue
7.609

@<SCITEGIC>MOL_PROPERTY
Coulomb
SciTegic.value.DoubleValue
-0.088

@<SCITEGIC>MOL_PROPERTY
VdW
SciTegic.value.DoubleValue
0.699

@<SCITEGIC>MOL_PROPERTY
VdW6
SciTegic.value.DoubleValue
-6.924

@<SCITEGIC>MOL_PROPERTY
VdW12
SciTegic.value.DoubleValue
7.623

@<SCITEGIC>MOL_PROPERTY
Bond
SciTegic.value.DoubleValue
0.163

@<SCITEGIC>MOL_PROPERTY
Angle
SciTegic.value.DoubleValue
2.870

@<SCITEGIC>MOL_PROPERTY
Pdih
SciTegic.value.DoubleValue
4.576

@<SCITEGIC>MOL_PROPERTY
Idih
SciTegic.value.DoubleValue
0.000

@<SCITEGIC>MOL_PROPERTY
Tether
SciTegic.value.DoubleValue
0.000

@<TRIPOS>MOLECULE
guest-7_confgen4.mol2 : confsearch ligand conformer 107
          19          18           1
SMALL
USER_CHARGES
 
@<TRIPOS>ATOM
       1    C1      18.421619   20.430693   20.411413 C.2        1 MOL1         0.6115
       2    O1      17.293418   20.250302   19.997818 O.co2      1 MOL1        -0.6776
       3    O2      18.981653   21.508693   20.388338 O.co2      1 MOL1        -0.6776
       4    C2      19.167890   19.243052   21.008630 C.3        1 MOL1        -0.2013
       5    H1      20.234227   19.378654   20.802816 H          1 MOL1         0.0727
       6    H2      18.851658   18.340504   20.472169 H          1 MOL1         0.0727
       7    C3      18.910067   19.074658   22.529408 C.3        1 MOL1        -0.1910
       8    H3      19.171616   19.999331   23.062188 H          1 MOL1         0.0729
       9    H4      17.830210   18.932929   22.675069 H          1 MOL1         0.0729
      10    C4      19.656629   17.867443   23.151680 C.3        1 MOL1        -0.1909
      11    H5      19.791341   17.075450   22.402348 H          1 MOL1         0.0729
      12    H6      19.015149   17.434583   23.931494 H          1 MOL1         0.0729
      13    C5      21.015328   18.215940   23.807725 C.3        1 MOL1        -0.1884
      14    H7      20.858068   18.943042   24.616335 H          1 MOL1         0.0729
      15    H8      21.415046   17.309652   24.283185 H          1 MOL1         0.0729
      16    C6      22.070540   18.764247   22.825085 C.3        1 MOL1        -0.2899
      17    H9      23.042976   18.865644   23.323985 H          1 MOL1         0.0741
      18    H10     22.198284   18.091199   21.967376 H          1 MOL1         0.0741
      19    H11     21.786154   19.756264   22.452494 H          1 MOL1         0.0741
@<TRIPOS>BOND
    1     1     2    1
    2     1     3    2
    3     1     4    1
    4     4     5    1
    5     4     6    1
    6     4     7    1
    7     7     8    1
    8     7     9    1
    9     7    10    1
   10    10    11    1
   11    10    12    1
   12    10    13    1
   13    13    14    1
   14    13    15    1
   15    13    16    1
   16    16    17    1
   17    16    18    1
   18    16    19    1
@<TRIPOS>SUBSTRUCTURE
       1 MOL1            1 RESIDUE      1      MOL     
@<SCITEGIC>MOL_PROPERTY
VConf Rank
SciTegic.value.IntegerValue
107

@<SCITEGIC>MOL_PROPERTY
Conf_Id
SciTegic.value.IntegerValue
24

@<SCITEGIC>MOL_PROPERTY
Delta U+W
SciTegic.value.DoubleValue
2.477

@<SCITEGIC>MOL_PROPERTY
U+W
SciTegic.value.DoubleValue
-52.414

@<SCITEGIC>MOL_PROPERTY
Grad RMS
SciTegic.value.DoubleValue
0.000000

@<SCITEGIC>MOL_PROPERTY
U
SciTegic.value.DoubleValue
10.422

@<SCITEGIC>MOL_PROPERTY
W
SciTegic.value.DoubleValue
-62.836

@<SCITEGIC>MOL_PROPERTY
W(PB)
SciTegic.value.DoubleValue
-64.906

@<SCITEGIC>MOL_PROPERTY
W(SA)
SciTegic.value.DoubleValue
2.070

@<SCITEGIC>MOL_PROPERTY
Valence
SciTegic.value.DoubleValue
9.628

@<SCITEGIC>MOL_PROPERTY
Coulomb
SciTegic.value.DoubleValue
0.101

@<SCITEGIC>MOL_PROPERTY
VdW
SciTegic.value.DoubleValue
0.693

@<SCITEGIC>MOL_PROPERTY
VdW6
SciTegic.value.DoubleValue
-6.927

@<SCITEGIC>MOL_PROPERTY
VdW12
SciTegic.value.DoubleValue
7.620

@<SCITEGIC>MOL_PROPERTY
Bond
SciTegic.value.DoubleValue
0.173

@<SCITEGIC>MOL_PROPERTY
Angle
SciTegic.value.DoubleValue
2.989

@<SCITEGIC>MOL_PROPERTY
Pdih
SciTegic.value.DoubleValue
6.465

@<SCITEGIC>MOL_PROPERTY
Idih
SciTegic.value.DoubleValue
0.001

@<SCITEGIC>MOL_PROPERTY
Tether
SciTegic.value.DoubleValue
0.000

@<TRIPOS>MOLECULE
guest-7_confgen4.mol2 : confsearch ligand conformer 108
          19          18           1
SMALL
USER_CHARGES
 
@<TRIPOS>ATOM
       1    C1      20.755491   19.257471   24.847631 C.2        1 MOL1         0.6115
       2    O1      19.665089   19.241062   25.383771 O.co2      1 MOL1        -0.6776
       3    O2      21.765508   18.826547   25.368441 O.co2      1 MOL1        -0.6776
       4    C2      20.871430   19.878064   23.457791 C.3        1 MOL1        -0.2013
       5    H1      21.719250   20.572549   23.483238 H          1 MOL1         0.0727
       6    H2      19.977193   20.481917   23.273582 H          1 MOL1         0.0727
       7    C3      21.090189   18.842326   22.320105 C.3        1 MOL1        -0.1910
       8    H3      21.367745   19.361341   21.392841 H          1 MOL1         0.0729
       9    H4      21.955618   18.220678   22.588658 H          1 MOL1         0.0729
      10    C4      19.872831   17.917563   22.058701 C.3        1 MOL1        -0.1909
      11    H5      19.300934   17.763143   22.983846 H          1 MOL1         0.0729
      12    H6      20.252650   16.926570   21.775057 H          1 MOL1         0.0729
      13    C5      18.929754   18.395742   20.927393 C.3        1 MOL1        -0.1884
      14    H7      19.488949   18.461930   19.983930 H          1 MOL1         0.0729
      15    H8      18.156098   17.631043   20.772971 H          1 MOL1         0.0729
      16    C6      18.239347   19.745993   21.209735 C.3        1 MOL1        -0.2899
      17    H9      18.963909   20.569597   21.203250 H          1 MOL1         0.0741
      18    H10     17.487447   19.961223   20.439605 H          1 MOL1         0.0741
      19    H11     17.733373   19.733099   22.184060 H          1 MOL1         0.0741
@<TRIPOS>BOND
    1     1     2    1
    2     1     3    2
    3     1     4    1
    4     4     5    1
    5     4     6    1
    6     4     7    1
    7     7     8    1
    8     7     9    1
    9     7    10    1
   10    10    11    1
   11    10    12    1
   12    10    13    1
   13    13    14    1
   14    13    15    1
   15    13    16    1
   16    16    17    1
   17    16    18    1
   18    16    19    1
@<TRIPOS>SUBSTRUCTURE
       1 MOL1            1 RESIDUE      1      MOL     
@<SCITEGIC>MOL_PROPERTY
VConf Rank
SciTegic.value.IntegerValue
108

@<SCITEGIC>MOL_PROPERTY
Conf_Id
SciTegic.value.IntegerValue
4

@<SCITEGIC>MOL_PROPERTY
Delta U+W
SciTegic.value.DoubleValue
3.753

@<SCITEGIC>MOL_PROPERTY
U+W
SciTegic.value.DoubleValue
-51.138

@<SCITEGIC>MOL_PROPERTY
Grad RMS
SciTegic.value.DoubleValue
0.000000

@<SCITEGIC>MOL_PROPERTY
U
SciTegic.value.DoubleValue
12.334

@<SCITEGIC>MOL_PROPERTY
W
SciTegic.value.DoubleValue
-63.472

@<SCITEGIC>MOL_PROPERTY
W(PB)
SciTegic.value.DoubleValue
-65.500

@<SCITEGIC>MOL_PROPERTY
W(SA)
SciTegic.value.DoubleValue
2.028

@<SCITEGIC>MOL_PROPERTY
Valence
SciTegic.value.DoubleValue
9.984

@<SCITEGIC>MOL_PROPERTY
Coulomb
SciTegic.value.DoubleValue
1.767

@<SCITEGIC>MOL_PROPERTY
VdW
SciTegic.value.DoubleValue
0.583

@<SCITEGIC>MOL_PROPERTY
VdW6
SciTegic.value.DoubleValue
-7.767

@<SCITEGIC>MOL_PROPERTY
VdW12
SciTegic.value.DoubleValue
8.349

@<SCITEGIC>MOL_PROPERTY
Bond
SciTegic.value.DoubleValue
0.203

@<SCITEGIC>MOL_PROPERTY
Angle
SciTegic.value.DoubleValue
3.191

@<SCITEGIC>MOL_PROPERTY
Pdih
SciTegic.value.DoubleValue
6.589

@<SCITEGIC>MOL_PROPERTY
Idih
SciTegic.value.DoubleValue
0.001

@<SCITEGIC>MOL_PROPERTY
Tether
SciTegic.value.DoubleValue
0.000

@<TRIPOS>MOLECULE
guest-7_confgen4.mol2 : confsearch ligand conformer 109
          19          18           1
SMALL
USER_CHARGES
 
@<TRIPOS>ATOM
       1    C1      22.482882   18.616665   22.009125 C.2        1 MOL1         0.6115
       2    O1      23.142291   17.628771   21.751603 O.co2      1 MOL1        -0.6776
       3    O2      22.651041   19.693842   21.472369 O.co2      1 MOL1        -0.6776
       4    C2      21.406352   18.502412   23.085349 C.3        1 MOL1        -0.2013
       5    H1      21.136116   19.511643   23.411927 H          1 MOL1         0.0727
       6    H2      21.863480   18.005100   23.948755 H          1 MOL1         0.0727
       7    C3      20.149734   17.704407   22.639213 C.3        1 MOL1        -0.1910
       8    H3      20.484209   16.729397   22.258404 H          1 MOL1         0.0729
       9    H4      19.518122   17.487172   23.511055 H          1 MOL1         0.0729
      10    C4      19.306321   18.406141   21.542994 C.3        1 MOL1        -0.1909
      11    H5      18.892864   17.631209   20.883208 H          1 MOL1         0.0729
      12    H6      19.946948   19.029508   20.904389 H          1 MOL1         0.0729
      13    C5      18.118806   19.243184   22.078782 C.3        1 MOL1        -0.1884
      14    H7      17.546304   19.623223   21.221481 H          1 MOL1         0.0729
      15    H8      17.434137   18.594216   22.642049 H          1 MOL1         0.0729
      16    C6      18.535861   20.437278   22.961823 C.3        1 MOL1        -0.2899
      17    H9      19.278766   21.063902   22.451019 H          1 MOL1         0.0741
      18    H10     17.665850   21.064404   23.195432 H          1 MOL1         0.0741
      19    H11     18.961845   20.095741   23.913267 H          1 MOL1         0.0741
@<TRIPOS>BOND
    1     1     2    1
    2     1     3    2
    3     1     4    1
    4     4     5    1
    5     4     6    1
    6     4     7    1
    7     7     8    1
    8     7     9    1
    9     7    10    1
   10    10    11    1
   11    10    12    1
   12    10    13    1
   13    13    14    1
   14    13    15    1
   15    13    16    1
   16    16    17    1
   17    16    18    1
   18    16    19    1
@<TRIPOS>SUBSTRUCTURE
       1 MOL1            1 RESIDUE      1      MOL     
@<SCITEGIC>MOL_PROPERTY
VConf Rank
SciTegic.value.IntegerValue
109

@<SCITEGIC>MOL_PROPERTY
Conf_Id
SciTegic.value.IntegerValue
73

@<SCITEGIC>MOL_PROPERTY
Delta U+W
SciTegic.value.DoubleValue
3.707

@<SCITEGIC>MOL_PROPERTY
U+W
SciTegic.value.DoubleValue
-51.184

@<SCITEGIC>MOL_PROPERTY
Grad RMS
SciTegic.value.DoubleValue
0.000000

@<SCITEGIC>MOL_PROPERTY
U
SciTegic.value.DoubleValue
12.334

@<SCITEGIC>MOL_PROPERTY
W
SciTegic.value.DoubleValue
-63.519

@<SCITEGIC>MOL_PROPERTY
W(PB)
SciTegic.value.DoubleValue
-65.541

@<SCITEGIC>MOL_PROPERTY
W(SA)
SciTegic.value.DoubleValue
2.022

@<SCITEGIC>MOL_PROPERTY
Valence
SciTegic.value.DoubleValue
9.984

@<SCITEGIC>MOL_PROPERTY
Coulomb
SciTegic.value.DoubleValue
1.768

@<SCITEGIC>MOL_PROPERTY
VdW
SciTegic.value.DoubleValue
0.583

@<SCITEGIC>MOL_PROPERTY
VdW6
SciTegic.value.DoubleValue
-7.767

@<SCITEGIC>MOL_PROPERTY
VdW12
SciTegic.value.DoubleValue
8.350

@<SCITEGIC>MOL_PROPERTY
Bond
SciTegic.value.DoubleValue
0.203

@<SCITEGIC>MOL_PROPERTY
Angle
SciTegic.value.DoubleValue
3.192

@<SCITEGIC>MOL_PROPERTY
Pdih
SciTegic.value.DoubleValue
6.589

@<SCITEGIC>MOL_PROPERTY
Idih
SciTegic.value.DoubleValue
0.001

@<SCITEGIC>MOL_PROPERTY
Tether
SciTegic.value.DoubleValue
0.000

@<TRIPOS>MOLECULE
guest-7_confgen4.mol2 : confsearch ligand conformer 110
          19          18           1
SMALL
USER_CHARGES
 
@<TRIPOS>ATOM
       1    C1      19.100085   20.572881   20.466554 C.2        1 MOL1         0.6115
       2    O1      18.520300   19.725482   19.816572 O.co2      1 MOL1        -0.6776
       3    O2      18.745445   21.733968   20.523720 O.co2      1 MOL1        -0.6776
       4    C2      20.359695   20.167387   21.227002 C.3        1 MOL1        -0.2013
       5    H1      21.144544   20.886667   20.965624 H          1 MOL1         0.0727
       6    H2      20.696183   19.192513   20.855932 H          1 MOL1         0.0727
       7    C3      20.186815   20.134054   22.770138 C.3        1 MOL1        -0.1910
       8    H3      21.153766   19.907317   23.237537 H          1 MOL1         0.0729
       9    H4      19.914006   21.140849   23.115175 H          1 MOL1         0.0729
      10    C4      19.116874   19.130965   23.273262 C.3        1 MOL1        -0.1909
      11    H5      18.131819   19.439022   22.896634 H          1 MOL1         0.0729
      12    H6      19.056316   19.199898   24.367873 H          1 MOL1         0.0729
      13    C5      19.359785   17.654005   22.877280 C.3        1 MOL1        -0.1884
      14    H7      18.534406   17.046087   23.272354 H          1 MOL1         0.0729
      15    H8      19.319931   17.544812   21.785066 H          1 MOL1         0.0729
      16    C6      20.693384   17.088366   23.411358 C.3        1 MOL1        -0.2899
      17    H9      21.552837   17.593907   22.953451 H          1 MOL1         0.0741
      18    H10     20.762546   17.207705   24.500388 H          1 MOL1         0.0741
      19    H11     20.775892   16.018162   23.181901 H          1 MOL1         0.0741
@<TRIPOS>BOND
    1     1     2    1
    2     1     3    2
    3     1     4    1
    4     4     5    1
    5     4     6    1
    6     4     7    1
    7     7     8    1
    8     7     9    1
    9     7    10    1
   10    10    11    1
   11    10    12    1
   12    10    13    1
   13    13    14    1
   14    13    15    1
   15    13    16    1
   16    16    17    1
   17    16    18    1
   18    16    19    1
@<TRIPOS>SUBSTRUCTURE
       1 MOL1            1 RESIDUE      1      MOL     
@<SCITEGIC>MOL_PROPERTY
VConf Rank
SciTegic.value.IntegerValue
110

@<SCITEGIC>MOL_PROPERTY
Conf_Id
SciTegic.value.IntegerValue
56

@<SCITEGIC>MOL_PROPERTY
Delta U+W
SciTegic.value.DoubleValue
1.735

@<SCITEGIC>MOL_PROPERTY
U+W
SciTegic.value.DoubleValue
-53.156

@<SCITEGIC>MOL_PROPERTY
Grad RMS
SciTegic.value.DoubleValue
0.000000

@<SCITEGIC>MOL_PROPERTY
U
SciTegic.value.DoubleValue
10.214

@<SCITEGIC>MOL_PROPERTY
W
SciTegic.value.DoubleValue
-63.370

@<SCITEGIC>MOL_PROPERTY
W(PB)
SciTegic.value.DoubleValue
-65.388

@<SCITEGIC>MOL_PROPERTY
W(SA)
SciTegic.value.DoubleValue
2.018

@<SCITEGIC>MOL_PROPERTY
Valence
SciTegic.value.DoubleValue
7.868

@<SCITEGIC>MOL_PROPERTY
Coulomb
SciTegic.value.DoubleValue
1.968

@<SCITEGIC>MOL_PROPERTY
VdW
SciTegic.value.DoubleValue
0.378

@<SCITEGIC>MOL_PROPERTY
VdW6
SciTegic.value.DoubleValue
-8.067

@<SCITEGIC>MOL_PROPERTY
VdW12
SciTegic.value.DoubleValue
8.445

@<SCITEGIC>MOL_PROPERTY
Bond
SciTegic.value.DoubleValue
0.191

@<SCITEGIC>MOL_PROPERTY
Angle
SciTegic.value.DoubleValue
3.117

@<SCITEGIC>MOL_PROPERTY
Pdih
SciTegic.value.DoubleValue
4.559

@<SCITEGIC>MOL_PROPERTY
Idih
SciTegic.value.DoubleValue
0.001

@<SCITEGIC>MOL_PROPERTY
Tether
SciTegic.value.DoubleValue
0.000

@<TRIPOS>MOLECULE
guest-7_confgen4.mol2 : confsearch ligand conformer 111
          19          18           1
SMALL
USER_CHARGES
 
@<TRIPOS>ATOM
       1    C1      18.626853   16.587533   21.159916 C.2        1 MOL1         0.6115
       2    O1      19.231618   15.685900   20.614314 O.co2      1 MOL1        -0.6776
       3    O2      17.418385   16.707204   21.119192 O.co2      1 MOL1        -0.6776
       4    C2      19.430137   17.637765   21.918852 C.3        1 MOL1        -0.2013
       5    H1      20.325363   17.153743   22.327106 H          1 MOL1         0.0727
       6    H2      18.820660   17.973189   22.765337 H          1 MOL1         0.0727
       7    C3      19.830025   18.844353   21.032731 C.3        1 MOL1        -0.1910
       8    H3      20.314394   18.466167   20.121819 H          1 MOL1         0.0729
       9    H4      18.921856   19.367650   20.703209 H          1 MOL1         0.0729
      10    C4      20.789894   19.849559   21.717352 C.3        1 MOL1        -0.1909
      11    H5      21.039954   20.622941   20.978217 H          1 MOL1         0.0729
      12    H6      21.739455   19.355706   21.965230 H          1 MOL1         0.0729
      13    C5      20.207062   20.550548   22.969561 C.3        1 MOL1        -0.1884
      14    H7      20.579102   21.584054   22.997706 H          1 MOL1         0.0729
      15    H8      19.113330   20.621846   22.892259 H          1 MOL1         0.0729
      16    C6      20.607209   19.864286   24.294572 C.3        1 MOL1        -0.2899
      17    H9      20.185318   20.407220   25.150203 H          1 MOL1         0.0741
      18    H10     20.247624   18.830458   24.344757 H          1 MOL1         0.0741
      19    H11     21.698582   19.849375   24.412101 H          1 MOL1         0.0741
@<TRIPOS>BOND
    1     1     2    1
    2     1     3    2
    3     1     4    1
    4     4     5    1
    5     4     6    1
    6     4     7    1
    7     7     8    1
    8     7     9    1
    9     7    10    1
   10    10    11    1
   11    10    12    1
   12    10    13    1
   13    13    14    1
   14    13    15    1
   15    13    16    1
   16    16    17    1
   17    16    18    1
   18    16    19    1
@<TRIPOS>SUBSTRUCTURE
       1 MOL1            1 RESIDUE      1      MOL     
@<SCITEGIC>MOL_PROPERTY
VConf Rank
SciTegic.value.IntegerValue
111

@<SCITEGIC>MOL_PROPERTY
Conf_Id
SciTegic.value.IntegerValue
53

@<SCITEGIC>MOL_PROPERTY
Delta U+W
SciTegic.value.DoubleValue
2.279

@<SCITEGIC>MOL_PROPERTY
U+W
SciTegic.value.DoubleValue
-52.612

@<SCITEGIC>MOL_PROPERTY
Grad RMS
SciTegic.value.DoubleValue
0.000000

@<SCITEGIC>MOL_PROPERTY
U
SciTegic.value.DoubleValue
10.231

@<SCITEGIC>MOL_PROPERTY
W
SciTegic.value.DoubleValue
-62.843

@<SCITEGIC>MOL_PROPERTY
W(PB)
SciTegic.value.DoubleValue
-64.893

@<SCITEGIC>MOL_PROPERTY
W(SA)
SciTegic.value.DoubleValue
2.050

@<SCITEGIC>MOL_PROPERTY
Valence
SciTegic.value.DoubleValue
9.644

@<SCITEGIC>MOL_PROPERTY
Coulomb
SciTegic.value.DoubleValue
-0.164

@<SCITEGIC>MOL_PROPERTY
VdW
SciTegic.value.DoubleValue
0.751

@<SCITEGIC>MOL_PROPERTY
VdW6
SciTegic.value.DoubleValue
-6.881

@<SCITEGIC>MOL_PROPERTY
VdW12
SciTegic.value.DoubleValue
7.631

@<SCITEGIC>MOL_PROPERTY
Bond
SciTegic.value.DoubleValue
0.163

@<SCITEGIC>MOL_PROPERTY
Angle
SciTegic.value.DoubleValue
2.998

@<SCITEGIC>MOL_PROPERTY
Pdih
SciTegic.value.DoubleValue
6.482

@<SCITEGIC>MOL_PROPERTY
Idih
SciTegic.value.DoubleValue
0.001

@<SCITEGIC>MOL_PROPERTY
Tether
SciTegic.value.DoubleValue
0.000

@<TRIPOS>MOLECULE
guest-7_confgen4.mol2 : confsearch ligand conformer 112
          19          18           1
SMALL
USER_CHARGES
 
@<TRIPOS>ATOM
       1    C1      20.815570   17.290639   24.179177 C.2        1 MOL1         0.6115
       2    O1      21.842596   17.755862   24.632653 O.co2      1 MOL1        -0.6776
       3    O2      20.741026   16.178483   23.694617 O.co2      1 MOL1        -0.6776
       4    C2      19.538443   18.121551   24.288781 C.3        1 MOL1        -0.2013
       5    H1      19.769678   19.066013   24.796171 H          1 MOL1         0.0727
       6    H2      18.865266   17.566134   24.952082 H          1 MOL1         0.0727
       7    C3      18.808433   18.397728   22.944186 C.3        1 MOL1        -0.1910
       8    H3      18.764488   17.477133   22.345758 H          1 MOL1         0.0729
       9    H4      17.766385   18.659668   23.172092 H          1 MOL1         0.0729
      10    C4      19.410757   19.550035   22.102718 C.3        1 MOL1        -0.1909
      11    H5      19.445068   20.468572   22.704339 H          1 MOL1         0.0729
      12    H6      18.729202   19.754782   21.265717 H          1 MOL1         0.0729
      13    C5      20.815286   19.248290   21.535423 C.3        1 MOL1        -0.1884
      14    H7      21.543154   19.170677   22.353096 H          1 MOL1         0.0729
      15    H8      20.807749   18.278768   21.018346 H          1 MOL1         0.0729
      16    C6      21.279143   20.348174   20.559243 C.3        1 MOL1        -0.2899
      17    H9      21.320050   21.324625   21.059469 H          1 MOL1         0.0741
      18    H10     22.281443   20.123305   20.172107 H          1 MOL1         0.0741
      19    H11     20.595860   20.428918   19.703718 H          1 MOL1         0.0741
@<TRIPOS>BOND
    1     1     2    1
    2     1     3    2
    3     1     4    1
    4     4     5    1
    5     4     6    1
    6     4     7    1
    7     7     8    1
    8     7     9    1
    9     7    10    1
   10    10    11    1
   11    10    12    1
   12    10    13    1
   13    13    14    1
   14    13    15    1
   15    13    16    1
   16    16    17    1
   17    16    18    1
   18    16    19    1
@<TRIPOS>SUBSTRUCTURE
       1 MOL1            1 RESIDUE      1      MOL     
@<SCITEGIC>MOL_PROPERTY
VConf Rank
SciTegic.value.IntegerValue
112

@<SCITEGIC>MOL_PROPERTY
Conf_Id
SciTegic.value.IntegerValue
25

@<SCITEGIC>MOL_PROPERTY
Delta U+W
SciTegic.value.DoubleValue
2.065

@<SCITEGIC>MOL_PROPERTY
U+W
SciTegic.value.DoubleValue
-52.826

@<SCITEGIC>MOL_PROPERTY
Grad RMS
SciTegic.value.DoubleValue
0.000000

@<SCITEGIC>MOL_PROPERTY
U
SciTegic.value.DoubleValue
10.967

@<SCITEGIC>MOL_PROPERTY
W
SciTegic.value.DoubleValue
-63.794

@<SCITEGIC>MOL_PROPERTY
W(PB)
SciTegic.value.DoubleValue
-65.830

@<SCITEGIC>MOL_PROPERTY
W(SA)
SciTegic.value.DoubleValue
2.036

@<SCITEGIC>MOL_PROPERTY
Valence
SciTegic.value.DoubleValue
8.609

@<SCITEGIC>MOL_PROPERTY
Coulomb
SciTegic.value.DoubleValue
1.892

@<SCITEGIC>MOL_PROPERTY
VdW
SciTegic.value.DoubleValue
0.467

@<SCITEGIC>MOL_PROPERTY
VdW6
SciTegic.value.DoubleValue
-7.569

@<SCITEGIC>MOL_PROPERTY
VdW12
SciTegic.value.DoubleValue
8.036

@<SCITEGIC>MOL_PROPERTY
Bond
SciTegic.value.DoubleValue
0.170

@<SCITEGIC>MOL_PROPERTY
Angle
SciTegic.value.DoubleValue
3.195

@<SCITEGIC>MOL_PROPERTY
Pdih
SciTegic.value.DoubleValue
5.237

@<SCITEGIC>MOL_PROPERTY
Idih
SciTegic.value.DoubleValue
0.007

@<SCITEGIC>MOL_PROPERTY
Tether
SciTegic.value.DoubleValue
0.000

@<TRIPOS>MOLECULE
guest-7_confgen4.mol2 : confsearch ligand conformer 113
          19          18           1
SMALL
USER_CHARGES
 
@<TRIPOS>ATOM
       1    C1      19.499751   20.438590   20.787239 C.2        1 MOL1         0.6115
       2    O1      20.515188   20.848446   20.259836 O.co2      1 MOL1        -0.6776
       3    O2      18.698098   21.160078   21.347293 O.co2      1 MOL1        -0.6776
       4    C2      19.177236   18.949228   20.681090 C.3        1 MOL1        -0.2013
       5    H1      19.049548   18.736783   19.613295 H          1 MOL1         0.0727
       6    H2      18.207348   18.759391   21.156697 H          1 MOL1         0.0727
       7    C3      20.257253   17.992914   21.260880 C.3        1 MOL1        -0.1910
       8    H3      20.106429   17.000973   20.813977 H          1 MOL1         0.0729
       9    H4      21.256847   18.319177   20.941651 H          1 MOL1         0.0729
      10    C4      20.219074   17.826968   22.800257 C.3        1 MOL1        -0.1909
      11    H5      20.912532   17.020207   23.074600 H          1 MOL1         0.0729
      12    H6      19.219638   17.493844   23.111693 H          1 MOL1         0.0729
      13    C5      20.608166   19.101516   23.581098 C.3        1 MOL1        -0.1884
      14    H7      21.561252   19.494738   23.201099 H          1 MOL1         0.0729
      15    H8      19.853558   19.883203   23.426376 H          1 MOL1         0.0729
      16    C6      20.732922   18.822711   25.092567 C.3        1 MOL1        -0.2899
      17    H9      21.001228   19.739461   25.633518 H          1 MOL1         0.0741
      18    H10     19.784192   18.452395   25.502612 H          1 MOL1         0.0741
      19    H11     21.509284   18.072426   25.291692 H          1 MOL1         0.0741
@<TRIPOS>BOND
    1     1     2    1
    2     1     3    2
    3     1     4    1
    4     4     5    1
    5     4     6    1
    6     4     7    1
    7     7     8    1
    8     7     9    1
    9     7    10    1
   10    10    11    1
   11    10    12    1
   12    10    13    1
   13    13    14    1
   14    13    15    1
   15    13    16    1
   16    16    17    1
   17    16    18    1
   18    16    19    1
@<TRIPOS>SUBSTRUCTURE
       1 MOL1            1 RESIDUE      1      MOL     
@<SCITEGIC>MOL_PROPERTY
VConf Rank
SciTegic.value.IntegerValue
113

@<SCITEGIC>MOL_PROPERTY
Conf_Id
SciTegic.value.IntegerValue
52

@<SCITEGIC>MOL_PROPERTY
Delta U+W
SciTegic.value.DoubleValue
2.070

@<SCITEGIC>MOL_PROPERTY
U+W
SciTegic.value.DoubleValue
-52.822

@<SCITEGIC>MOL_PROPERTY
Grad RMS
SciTegic.value.DoubleValue
0.000000

@<SCITEGIC>MOL_PROPERTY
U
SciTegic.value.DoubleValue
10.967

@<SCITEGIC>MOL_PROPERTY
W
SciTegic.value.DoubleValue
-63.789

@<SCITEGIC>MOL_PROPERTY
W(PB)
SciTegic.value.DoubleValue
-65.837

@<SCITEGIC>MOL_PROPERTY
W(SA)
SciTegic.value.DoubleValue
2.048

@<SCITEGIC>MOL_PROPERTY
Valence
SciTegic.value.DoubleValue
8.609

@<SCITEGIC>MOL_PROPERTY
Coulomb
SciTegic.value.DoubleValue
1.892

@<SCITEGIC>MOL_PROPERTY
VdW
SciTegic.value.DoubleValue
0.467

@<SCITEGIC>MOL_PROPERTY
VdW6
SciTegic.value.DoubleValue
-7.569

@<SCITEGIC>MOL_PROPERTY
VdW12
SciTegic.value.DoubleValue
8.035

@<SCITEGIC>MOL_PROPERTY
Bond
SciTegic.value.DoubleValue
0.170

@<SCITEGIC>MOL_PROPERTY
Angle
SciTegic.value.DoubleValue
3.196

@<SCITEGIC>MOL_PROPERTY
Pdih
SciTegic.value.DoubleValue
5.237

@<SCITEGIC>MOL_PROPERTY
Idih
SciTegic.value.DoubleValue
0.007

@<SCITEGIC>MOL_PROPERTY
Tether
SciTegic.value.DoubleValue
0.000

@<TRIPOS>MOLECULE
guest-7_confgen4.mol2 : confsearch ligand conformer 114
          19          18           1
SMALL
USER_CHARGES
 
@<TRIPOS>ATOM
       1    C1      19.685866   20.987266   22.991503 C.2        1 MOL1         0.6115
       2    O1      18.590071   21.355146   22.614657 O.co2      1 MOL1        -0.6776
       3    O2      20.118806   21.217856   24.103299 O.co2      1 MOL1        -0.6776
       4    C2      20.619953   20.312611   21.985669 C.3        1 MOL1        -0.2013
       5    H1      21.490906   19.913114   22.518942 H          1 MOL1         0.0727
       6    H2      20.992201   21.112158   21.334953 H          1 MOL1         0.0727
       7    C3      19.976428   19.205547   21.102688 C.3        1 MOL1        -0.1910
       8    H3      18.971917   19.516205   20.783735 H          1 MOL1         0.0729
       9    H4      20.568367   19.122774   20.181215 H          1 MOL1         0.0729
      10    C4      19.914150   17.795697   21.744266 C.3        1 MOL1        -0.1909
      11    H5      20.929064   17.441744   21.971652 H          1 MOL1         0.0729
      12    H6      19.523582   17.105015   20.984410 H          1 MOL1         0.0729
      13    C5      19.013067   17.686689   22.998123 C.3        1 MOL1        -0.1884
      14    H7      18.267546   18.493830   23.006848 H          1 MOL1         0.0729
      15    H8      18.444290   16.748139   22.945541 H          1 MOL1         0.0729
      16    C6      19.819025   17.686232   24.314768 C.3        1 MOL1        -0.2899
      17    H9      20.497135   16.824133   24.358225 H          1 MOL1         0.0741
      18    H10     20.421474   18.596309   24.417453 H          1 MOL1         0.0741
      19    H11     19.144881   17.629762   25.179036 H          1 MOL1         0.0741
@<TRIPOS>BOND
    1     1     2    1
    2     1     3    2
    3     1     4    1
    4     4     5    1
    5     4     6    1
    6     4     7    1
    7     7     8    1
    8     7     9    1
    9     7    10    1
   10    10    11    1
   11    10    12    1
   12    10    13    1
   13    13    14    1
   14    13    15    1
   15    13    16    1
   16    16    17    1
   17    16    18    1
   18    16    19    1
@<TRIPOS>SUBSTRUCTURE
       1 MOL1            1 RESIDUE      1      MOL     
@<SCITEGIC>MOL_PROPERTY
VConf Rank
SciTegic.value.IntegerValue
114

@<SCITEGIC>MOL_PROPERTY
Conf_Id
SciTegic.value.IntegerValue
66

@<SCITEGIC>MOL_PROPERTY
Delta U+W
SciTegic.value.DoubleValue
5.819

@<SCITEGIC>MOL_PROPERTY
U+W
SciTegic.value.DoubleValue
-49.072

@<SCITEGIC>MOL_PROPERTY
Grad RMS
SciTegic.value.DoubleValue
0.000000

@<SCITEGIC>MOL_PROPERTY
U
SciTegic.value.DoubleValue
15.324

@<SCITEGIC>MOL_PROPERTY
W
SciTegic.value.DoubleValue
-64.396

@<SCITEGIC>MOL_PROPERTY
W(PB)
SciTegic.value.DoubleValue
-66.382

@<SCITEGIC>MOL_PROPERTY
W(SA)
SciTegic.value.DoubleValue
1.986

@<SCITEGIC>MOL_PROPERTY
Valence
SciTegic.value.DoubleValue
11.748

@<SCITEGIC>MOL_PROPERTY
Coulomb
SciTegic.value.DoubleValue
3.201

@<SCITEGIC>MOL_PROPERTY
VdW
SciTegic.value.DoubleValue
0.375

@<SCITEGIC>MOL_PROPERTY
VdW6
SciTegic.value.DoubleValue
-8.854

@<SCITEGIC>MOL_PROPERTY
VdW12
SciTegic.value.DoubleValue
9.229

@<SCITEGIC>MOL_PROPERTY
Bond
SciTegic.value.DoubleValue
0.216

@<SCITEGIC>MOL_PROPERTY
Angle
SciTegic.value.DoubleValue
3.812

@<SCITEGIC>MOL_PROPERTY
Pdih
SciTegic.value.DoubleValue
7.699

@<SCITEGIC>MOL_PROPERTY
Idih
SciTegic.value.DoubleValue
0.022

@<SCITEGIC>MOL_PROPERTY
Tether
SciTegic.value.DoubleValue
0.000

@<TRIPOS>MOLECULE
guest-7_confgen4.mol2 : confsearch ligand conformer 115
          19          18           1
SMALL
USER_CHARGES
 
@<TRIPOS>ATOM
       1    C1      16.658108   18.099486   22.022781 C.2        1 MOL1         0.6115
       2    O1      15.873610   17.257456   22.411639 O.co2      1 MOL1        -0.6776
       3    O2      16.325152   19.056674   21.351159 O.co2      1 MOL1        -0.6776
       4    C2      18.126171   17.918955   22.412491 C.3        1 MOL1        -0.2013
       5    H1      18.446028   16.939479   22.037834 H          1 MOL1         0.0727
       6    H2      18.170931   17.873995   23.507034 H          1 MOL1         0.0727
       7    C3      19.090068   19.018879   21.893353 C.3        1 MOL1        -0.1910
       8    H3      19.036145   19.062710   20.796704 H          1 MOL1         0.0729
       9    H4      18.760725   19.998209   22.267403 H          1 MOL1         0.0729
      10    C4      20.547562   18.758652   22.331824 C.3        1 MOL1        -0.1909
      11    H5      20.874693   17.779047   21.956978 H          1 MOL1         0.0729
      12    H6      20.599148   18.715093   23.428451 H          1 MOL1         0.0729
      13    C5      21.504109   19.853175   21.814686 C.3        1 MOL1        -0.1884
      14    H7      21.456806   19.898634   20.717787 H          1 MOL1         0.0729
      15    H8      21.181370   20.834546   22.189178 H          1 MOL1         0.0729
      16    C6      22.958282   19.590132   22.254208 C.3        1 MOL1        -0.2899
      17    H9      23.317902   18.628000   21.866397 H          1 MOL1         0.0741
      18    H10     23.624454   20.377460   21.878125 H          1 MOL1         0.0741
      19    H11     23.040393   19.570940   23.348882 H          1 MOL1         0.0741
@<TRIPOS>BOND
    1     1     2    1
    2     1     3    2
    3     1     4    1
    4     4     5    1
    5     4     6    1
    6     4     7    1
    7     7     8    1
    8     7     9    1
    9     7    10    1
   10    10    11    1
   11    10    12    1
   12    10    13    1
   13    13    14    1
   14    13    15    1
   15    13    16    1
   16    16    17    1
   17    16    18    1
   18    16    19    1
@<TRIPOS>SUBSTRUCTURE
       1 MOL1            1 RESIDUE      1      MOL     
@<SCITEGIC>MOL_PROPERTY
VConf Rank
SciTegic.value.IntegerValue
115

@<SCITEGIC>MOL_PROPERTY
Conf_Id
SciTegic.value.IntegerValue
0

@<SCITEGIC>MOL_PROPERTY
Delta U+W
SciTegic.value.DoubleValue
0.000

@<SCITEGIC>MOL_PROPERTY
U+W
SciTegic.value.DoubleValue
-54.891

@<SCITEGIC>MOL_PROPERTY
Grad RMS
SciTegic.value.DoubleValue
0.000000

@<SCITEGIC>MOL_PROPERTY
U
SciTegic.value.DoubleValue
6.966

@<SCITEGIC>MOL_PROPERTY
W
SciTegic.value.DoubleValue
-61.857

@<SCITEGIC>MOL_PROPERTY
W(PB)
SciTegic.value.DoubleValue
-63.965

@<SCITEGIC>MOL_PROPERTY
W(SA)
SciTegic.value.DoubleValue
2.108

@<SCITEGIC>MOL_PROPERTY
Valence
SciTegic.value.DoubleValue
7.175

@<SCITEGIC>MOL_PROPERTY
Coulomb
SciTegic.value.DoubleValue
-1.360

@<SCITEGIC>MOL_PROPERTY
VdW
SciTegic.value.DoubleValue
1.151

@<SCITEGIC>MOL_PROPERTY
VdW6
SciTegic.value.DoubleValue
-5.641

@<SCITEGIC>MOL_PROPERTY
VdW12
SciTegic.value.DoubleValue
6.792

@<SCITEGIC>MOL_PROPERTY
Bond
SciTegic.value.DoubleValue
0.119

@<SCITEGIC>MOL_PROPERTY
Angle
SciTegic.value.DoubleValue
2.715

@<SCITEGIC>MOL_PROPERTY
Pdih
SciTegic.value.DoubleValue
4.340

@<SCITEGIC>MOL_PROPERTY
Idih
SciTegic.value.DoubleValue
0.000

@<SCITEGIC>MOL_PROPERTY
Tether
SciTegic.value.DoubleValue
0.000

@<TRIPOS>MOLECULE
guest-7_confgen4.mol2 : confsearch ligand conformer 116
          19          18           1
SMALL
USER_CHARGES
 
@<TRIPOS>ATOM
       1    C1      22.085691   19.389842   19.567763 C.2        1 MOL1         0.6115
       2    O1      22.696362   18.396049   19.227709 O.co2      1 MOL1        -0.6776
       3    O2      21.796133   20.293744   18.809277 O.co2      1 MOL1        -0.6776
       4    C2      21.640376   19.499185   21.021760 C.3        1 MOL1        -0.2013
       5    H1      21.646382   20.559641   21.301295 H          1 MOL1         0.0727
       6    H2      22.388037   18.995246   21.646094 H          1 MOL1         0.0727
       7    C3      20.238698   18.889330   21.269731 C.3        1 MOL1        -0.1910
       8    H3      19.504042   19.395779   20.628373 H          1 MOL1         0.0729
       9    H4      20.245706   17.831282   20.973024 H          1 MOL1         0.0729
      10    C4      19.811694   19.012619   22.748276 C.3        1 MOL1        -0.1909
      11    H5      19.806999   20.071284   23.042211 H          1 MOL1         0.0729
      12    H6      20.548702   18.506479   23.386894 H          1 MOL1         0.0729
      13    C5      18.414979   18.404349   22.992343 C.3        1 MOL1        -0.1884
      14    H7      17.674522   18.909379   22.356608 H          1 MOL1         0.0729
      15    H8      18.416167   17.344721   22.701344 H          1 MOL1         0.0729
      16    C6      17.991805   18.529248   24.469597 C.3        1 MOL1        -0.2899
      17    H9      16.996964   18.092022   24.625265 H          1 MOL1         0.0741
      18    H10     18.698781   18.005504   25.126332 H          1 MOL1         0.0741
      19    H11     17.951619   19.581897   24.779013 H          1 MOL1         0.0741
@<TRIPOS>BOND
    1     1     2    1
    2     1     3    2
    3     1     4    1
    4     4     5    1
    5     4     6    1
    6     4     7    1
    7     7     8    1
    8     7     9    1
    9     7    10    1
   10    10    11    1
   11    10    12    1
   12    10    13    1
   13    13    14    1
   14    13    15    1
   15    13    16    1
   16    16    17    1
   17    16    18    1
   18    16    19    1
@<TRIPOS>SUBSTRUCTURE
       1 MOL1            1 RESIDUE      1      MOL     
@<SCITEGIC>MOL_PROPERTY
VConf Rank
SciTegic.value.IntegerValue
116

@<SCITEGIC>MOL_PROPERTY
Conf_Id
SciTegic.value.IntegerValue
18

@<SCITEGIC>MOL_PROPERTY
Delta U+W
SciTegic.value.DoubleValue
-1.199

@<SCITEGIC>MOL_PROPERTY
U+W
SciTegic.value.DoubleValue
-56.090

@<SCITEGIC>MOL_PROPERTY
Grad RMS
SciTegic.value.DoubleValue
0.000000

@<SCITEGIC>MOL_PROPERTY
U
SciTegic.value.DoubleValue
5.975

@<SCITEGIC>MOL_PROPERTY
W
SciTegic.value.DoubleValue
-62.066

@<SCITEGIC>MOL_PROPERTY
W(PB)
SciTegic.value.DoubleValue
-64.219

@<SCITEGIC>MOL_PROPERTY
W(SA)
SciTegic.value.DoubleValue
2.153

@<SCITEGIC>MOL_PROPERTY
Valence
SciTegic.value.DoubleValue
6.673

@<SCITEGIC>MOL_PROPERTY
Coulomb
SciTegic.value.DoubleValue
-1.307

@<SCITEGIC>MOL_PROPERTY
VdW
SciTegic.value.DoubleValue
0.610

@<SCITEGIC>MOL_PROPERTY
VdW6
SciTegic.value.DoubleValue
-5.351

@<SCITEGIC>MOL_PROPERTY
VdW12
SciTegic.value.DoubleValue
5.961

@<SCITEGIC>MOL_PROPERTY
Bond
SciTegic.value.DoubleValue
0.086

@<SCITEGIC>MOL_PROPERTY
Angle
SciTegic.value.DoubleValue
2.253

@<SCITEGIC>MOL_PROPERTY
Pdih
SciTegic.value.DoubleValue
4.333

@<SCITEGIC>MOL_PROPERTY
Idih
SciTegic.value.DoubleValue
0.001

@<SCITEGIC>MOL_PROPERTY
Tether
SciTegic.value.DoubleValue
0.000

@<TRIPOS>MOLECULE
guest-7_confgen4.mol2 : confsearch ligand conformer 117
          19          18           1
SMALL
USER_CHARGES
 
@<TRIPOS>ATOM
       1    C1      20.316332   18.086162   25.270029 C.2        1 MOL1         0.6115
       2    O1      20.516113   18.883289   26.164995 O.co2      1 MOL1        -0.6776
       3    O2      19.907218   16.957039   25.454334 O.co2      1 MOL1        -0.6776
       4    C2      20.572826   18.534546   23.835622 C.3        1 MOL1        -0.2013
       5    H1      20.912187   17.660293   23.268737 H          1 MOL1         0.0727
       6    H2      21.398676   19.255899   23.847077 H          1 MOL1         0.0727
       7    C3      19.321434   19.164961   23.170958 C.3        1 MOL1        -0.1910
       8    H3      18.515546   18.419484   23.124935 H          1 MOL1         0.0729
       9    H4      18.954637   19.979002   23.811441 H          1 MOL1         0.0729
      10    C4      19.591923   19.730698   21.756635 C.3        1 MOL1        -0.1909
      11    H5      20.392141   20.481749   21.807420 H          1 MOL1         0.0729
      12    H6      18.691396   20.258789   21.414312 H          1 MOL1         0.0729
      13    C5      19.961419   18.645137   20.720998 C.3        1 MOL1        -0.1884
      14    H7      20.901956   18.155185   21.005071 H          1 MOL1         0.0729
      15    H8      19.185666   17.867146   20.706614 H          1 MOL1         0.0729
      16    C6      20.114241   19.241665   19.307468 C.3        1 MOL1        -0.2899
      17    H9      20.379418   18.459520   18.584266 H          1 MOL1         0.0741
      18    H10     19.177858   19.707883   18.973983 H          1 MOL1         0.0741
      19    H11     20.903662   20.004415   19.286658 H          1 MOL1         0.0741
@<TRIPOS>BOND
    1     1     2    1
    2     1     3    2
    3     1     4    1
    4     4     5    1
    5     4     6    1
    6     4     7    1
    7     7     8    1
    8     7     9    1
    9     7    10    1
   10    10    11    1
   11    10    12    1
   12    10    13    1
   13    13    14    1
   14    13    15    1
   15    13    16    1
   16    16    17    1
   17    16    18    1
   18    16    19    1
@<TRIPOS>SUBSTRUCTURE
       1 MOL1            1 RESIDUE      1      MOL     
@<SCITEGIC>MOL_PROPERTY
VConf Rank
SciTegic.value.IntegerValue
117

@<SCITEGIC>MOL_PROPERTY
Conf_Id
SciTegic.value.IntegerValue
34

@<SCITEGIC>MOL_PROPERTY
Delta U+W
SciTegic.value.DoubleValue
-0.563

@<SCITEGIC>MOL_PROPERTY
U+W
SciTegic.value.DoubleValue
-55.455

@<SCITEGIC>MOL_PROPERTY
Grad RMS
SciTegic.value.DoubleValue
0.000000

@<SCITEGIC>MOL_PROPERTY
U
SciTegic.value.DoubleValue
6.914

@<SCITEGIC>MOL_PROPERTY
W
SciTegic.value.DoubleValue
-62.369

@<SCITEGIC>MOL_PROPERTY
W(PB)
SciTegic.value.DoubleValue
-64.446

@<SCITEGIC>MOL_PROPERTY
W(SA)
SciTegic.value.DoubleValue
2.077

@<SCITEGIC>MOL_PROPERTY
Valence
SciTegic.value.DoubleValue
7.196

@<SCITEGIC>MOL_PROPERTY
Coulomb
SciTegic.value.DoubleValue
-1.020

@<SCITEGIC>MOL_PROPERTY
VdW
SciTegic.value.DoubleValue
0.738

@<SCITEGIC>MOL_PROPERTY
VdW6
SciTegic.value.DoubleValue
-6.010

@<SCITEGIC>MOL_PROPERTY
VdW12
SciTegic.value.DoubleValue
6.748

@<SCITEGIC>MOL_PROPERTY
Bond
SciTegic.value.DoubleValue
0.126

@<SCITEGIC>MOL_PROPERTY
Angle
SciTegic.value.DoubleValue
2.499

@<SCITEGIC>MOL_PROPERTY
Pdih
SciTegic.value.DoubleValue
4.570

@<SCITEGIC>MOL_PROPERTY
Idih
SciTegic.value.DoubleValue
0.001

@<SCITEGIC>MOL_PROPERTY
Tether
SciTegic.value.DoubleValue
0.000

@<TRIPOS>MOLECULE
guest-7_confgen4.mol2 : confsearch ligand conformer 118
          19          18           1
SMALL
USER_CHARGES
 
@<TRIPOS>ATOM
       1    C1      17.137780   17.624421   21.414099 C.2        1 MOL1         0.6115
       2    O1      16.129467   17.769281   22.076376 O.co2      1 MOL1        -0.6776
       3    O2      17.280079   16.742825   20.590205 O.co2      1 MOL1        -0.6776
       4    C2      18.296054   18.588404   21.645393 C.3        1 MOL1        -0.2013
       5    H1      17.877480   19.561704   21.928229 H          1 MOL1         0.0727
       6    H2      18.814191   18.722443   20.689145 H          1 MOL1         0.0727
       7    C3      19.280935   18.092623   22.735985 C.3        1 MOL1        -0.1910
       8    H3      18.713902   17.881693   23.653266 H          1 MOL1         0.0729
       9    H4      19.727345   17.139222   22.421256 H          1 MOL1         0.0729
      10    C4      20.398902   19.109449   23.067252 C.3        1 MOL1        -0.1909
      11    H5      20.972308   18.730218   23.924224 H          1 MOL1         0.0729
      12    H6      19.949441   20.058674   23.389690 H          1 MOL1         0.0729
      13    C5      21.366023   19.364600   21.889505 C.3        1 MOL1        -0.1884
      14    H7      21.776745   18.409685   21.533536 H          1 MOL1         0.0729
      15    H8      20.825863   19.815598   21.046777 H          1 MOL1         0.0729
      16    C6      22.522605   20.297770   22.300328 C.3        1 MOL1        -0.2899
      17    H9      22.141283   21.271354   22.635193 H          1 MOL1         0.0741
      18    H10     23.109927   19.859704   23.117970 H          1 MOL1         0.0741
      19    H11     23.198716   20.471673   21.453143 H          1 MOL1         0.0741
@<TRIPOS>BOND
    1     1     2    1
    2     1     3    2
    3     1     4    1
    4     4     5    1
    5     4     6    1
    6     4     7    1
    7     7     8    1
    8     7     9    1
    9     7    10    1
   10    10    11    1
   11    10    12    1
   12    10    13    1
   13    13    14    1
   14    13    15    1
   15    13    16    1
   16    16    17    1
   17    16    18    1
   18    16    19    1
@<TRIPOS>SUBSTRUCTURE
       1 MOL1            1 RESIDUE      1      MOL     
@<SCITEGIC>MOL_PROPERTY
VConf Rank
SciTegic.value.IntegerValue
118

@<SCITEGIC>MOL_PROPERTY
Conf_Id
SciTegic.value.IntegerValue
33

@<SCITEGIC>MOL_PROPERTY
Delta U+W
SciTegic.value.DoubleValue
-0.526

@<SCITEGIC>MOL_PROPERTY
U+W
SciTegic.value.DoubleValue
-55.418

@<SCITEGIC>MOL_PROPERTY
Grad RMS
SciTegic.value.DoubleValue
0.000000

@<SCITEGIC>MOL_PROPERTY
U
SciTegic.value.DoubleValue
6.914

@<SCITEGIC>MOL_PROPERTY
W
SciTegic.value.DoubleValue
-62.332

@<SCITEGIC>MOL_PROPERTY
W(PB)
SciTegic.value.DoubleValue
-64.421

@<SCITEGIC>MOL_PROPERTY
W(SA)
SciTegic.value.DoubleValue
2.090

@<SCITEGIC>MOL_PROPERTY
Valence
SciTegic.value.DoubleValue
7.196

@<SCITEGIC>MOL_PROPERTY
Coulomb
SciTegic.value.DoubleValue
-1.020

@<SCITEGIC>MOL_PROPERTY
VdW
SciTegic.value.DoubleValue
0.738

@<SCITEGIC>MOL_PROPERTY
VdW6
SciTegic.value.DoubleValue
-6.010

@<SCITEGIC>MOL_PROPERTY
VdW12
SciTegic.value.DoubleValue
6.748

@<SCITEGIC>MOL_PROPERTY
Bond
SciTegic.value.DoubleValue
0.126

@<SCITEGIC>MOL_PROPERTY
Angle
SciTegic.value.DoubleValue
2.499

@<SCITEGIC>MOL_PROPERTY
Pdih
SciTegic.value.DoubleValue
4.570

@<SCITEGIC>MOL_PROPERTY
Idih
SciTegic.value.DoubleValue
0.001

@<SCITEGIC>MOL_PROPERTY
Tether
SciTegic.value.DoubleValue
0.000

@<TRIPOS>MOLECULE
guest-7_confgen4.mol2 : confsearch ligand conformer 119
          19          18           1
SMALL
USER_CHARGES
 
@<TRIPOS>ATOM
       1    C1      19.224516   21.939710   21.414764 C.2        1 MOL1         0.6115
       2    O1      20.214466   22.634302   21.532066 O.co2      1 MOL1        -0.6776
       3    O2      18.389186   22.100418   20.547215 O.co2      1 MOL1        -0.6776
       4    C2      19.028575   20.792434   22.399582 C.3        1 MOL1        -0.2013
       5    H1      17.951435   20.657479   22.555260 H          1 MOL1         0.0727
       6    H2      19.460310   21.091809   23.362238 H          1 MOL1         0.0727
       7    C3      19.669306   19.467902   21.916345 C.3        1 MOL1        -0.1910
       8    H3      19.233835   19.186569   20.947606 H          1 MOL1         0.0729
       9    H4      20.742093   19.632174   21.749718 H          1 MOL1         0.0729
      10    C4      19.458469   18.323921   22.934930 C.3        1 MOL1        -0.1909
      11    H5      18.384269   18.223176   23.142147 H          1 MOL1         0.0729
      12    H6      19.936575   18.584626   23.889107 H          1 MOL1         0.0729
      13    C5      19.993870   16.958867   22.444458 C.3        1 MOL1        -0.1884
      14    H7      19.701187   16.185001   23.167446 H          1 MOL1         0.0729
      15    H8      19.513752   16.691957   21.492843 H          1 MOL1         0.0729
      16    C6      21.528586   16.928550   22.278389 C.3        1 MOL1        -0.2899
      17    H9      22.030466   17.220747   23.209998 H          1 MOL1         0.0741
      18    H10     21.866121   15.917679   22.015421 H          1 MOL1         0.0741
      19    H11     21.858974   17.606492   21.481532 H          1 MOL1         0.0741
@<TRIPOS>BOND
    1     1     2    1
    2     1     3    2
    3     1     4    1
    4     4     5    1
    5     4     6    1
    6     4     7    1
    7     7     8    1
    8     7     9    1
    9     7    10    1
   10    10    11    1
   11    10    12    1
   12    10    13    1
   13    13    14    1
   14    13    15    1
   15    13    16    1
   16    16    17    1
   17    16    18    1
   18    16    19    1
@<TRIPOS>SUBSTRUCTURE
       1 MOL1            1 RESIDUE      1      MOL     
@<SCITEGIC>MOL_PROPERTY
VConf Rank
SciTegic.value.IntegerValue
119

@<SCITEGIC>MOL_PROPERTY
Conf_Id
SciTegic.value.IntegerValue
42

@<SCITEGIC>MOL_PROPERTY
Delta U+W
SciTegic.value.DoubleValue
-0.344

@<SCITEGIC>MOL_PROPERTY
U+W
SciTegic.value.DoubleValue
-55.236

@<SCITEGIC>MOL_PROPERTY
Grad RMS
SciTegic.value.DoubleValue
0.000000

@<SCITEGIC>MOL_PROPERTY
U
SciTegic.value.DoubleValue
7.244

@<SCITEGIC>MOL_PROPERTY
W
SciTegic.value.DoubleValue
-62.479

@<SCITEGIC>MOL_PROPERTY
W(PB)
SciTegic.value.DoubleValue
-64.610

@<SCITEGIC>MOL_PROPERTY
W(SA)
SciTegic.value.DoubleValue
2.130

@<SCITEGIC>MOL_PROPERTY
Valence
SciTegic.value.DoubleValue
7.174

@<SCITEGIC>MOL_PROPERTY
Coulomb
SciTegic.value.DoubleValue
-0.669

@<SCITEGIC>MOL_PROPERTY
VdW
SciTegic.value.DoubleValue
0.739

@<SCITEGIC>MOL_PROPERTY
VdW6
SciTegic.value.DoubleValue
-5.969

@<SCITEGIC>MOL_PROPERTY
VdW12
SciTegic.value.DoubleValue
6.708

@<SCITEGIC>MOL_PROPERTY
Bond
SciTegic.value.DoubleValue
0.116

@<SCITEGIC>MOL_PROPERTY
Angle
SciTegic.value.DoubleValue
2.481

@<SCITEGIC>MOL_PROPERTY
Pdih
SciTegic.value.DoubleValue
4.576

@<SCITEGIC>MOL_PROPERTY
Idih
SciTegic.value.DoubleValue
0.000

@<SCITEGIC>MOL_PROPERTY
Tether
SciTegic.value.DoubleValue
0.000

@<TRIPOS>MOLECULE
guest-7_confgen4.mol2 : confsearch ligand conformer 120
          19          18           1
SMALL
USER_CHARGES
 
@<TRIPOS>ATOM
       1    C1      19.201679   17.180632   24.728163 C.2        1 MOL1         0.6115
       2    O1      18.084103   17.493778   25.087581 O.co2      1 MOL1        -0.6776
       3    O2      20.080910   16.833242   25.491393 O.co2      1 MOL1        -0.6776
       4    C2      19.524026   17.244535   23.239368 C.3        1 MOL1        -0.2013
       5    H1      18.609270   17.009498   22.681958 H          1 MOL1         0.0727
       6    H2      20.252353   16.456089   23.014489 H          1 MOL1         0.0727
       7    C3      20.076199   18.623570   22.801403 C.3        1 MOL1        -0.1910
       8    H3      19.339279   19.397643   23.053157 H          1 MOL1         0.0729
       9    H4      20.986101   18.848650   23.374689 H          1 MOL1         0.0729
      10    C4      20.390646   18.660921   21.288001 C.3        1 MOL1        -0.1909
      11    H5      19.470668   18.484462   20.713971 H          1 MOL1         0.0729
      12    H6      21.073067   17.835195   21.044137 H          1 MOL1         0.0729
      13    C5      21.040337   19.986596   20.828569 C.3        1 MOL1        -0.1884
      14    H7      21.964012   20.163809   21.396677 H          1 MOL1         0.0729
      15    H8      21.337974   19.886971   19.775606 H          1 MOL1         0.0729
      16    C6      20.103531   21.206088   20.966725 C.3        1 MOL1        -0.2899
      17    H9      19.870078   21.415083   22.018183 H          1 MOL1         0.0741
      18    H10     20.577072   22.103112   20.547143 H          1 MOL1         0.0741
      19    H11     19.160214   21.039679   20.430425 H          1 MOL1         0.0741
@<TRIPOS>BOND
    1     1     2    1
    2     1     3    2
    3     1     4    1
    4     4     5    1
    5     4     6    1
    6     4     7    1
    7     7     8    1
    8     7     9    1
    9     7    10    1
   10    10    11    1
   11    10    12    1
   12    10    13    1
   13    13    14    1
   14    13    15    1
   15    13    16    1
   16    16    17    1
   17    16    18    1
   18    16    19    1
@<TRIPOS>SUBSTRUCTURE
       1 MOL1            1 RESIDUE      1      MOL     
@<SCITEGIC>MOL_PROPERTY
VConf Rank
SciTegic.value.IntegerValue
120

@<SCITEGIC>MOL_PROPERTY
Conf_Id
SciTegic.value.IntegerValue
41

@<SCITEGIC>MOL_PROPERTY
Delta U+W
SciTegic.value.DoubleValue
-0.361

@<SCITEGIC>MOL_PROPERTY
U+W
SciTegic.value.DoubleValue
-55.252

@<SCITEGIC>MOL_PROPERTY
Grad RMS
SciTegic.value.DoubleValue
0.000000

@<SCITEGIC>MOL_PROPERTY
U
SciTegic.value.DoubleValue
7.244

@<SCITEGIC>MOL_PROPERTY
W
SciTegic.value.DoubleValue
-62.496

@<SCITEGIC>MOL_PROPERTY
W(PB)
SciTegic.value.DoubleValue
-64.596

@<SCITEGIC>MOL_PROPERTY
W(SA)
SciTegic.value.DoubleValue
2.099

@<SCITEGIC>MOL_PROPERTY
Valence
SciTegic.value.DoubleValue
7.174

@<SCITEGIC>MOL_PROPERTY
Coulomb
SciTegic.value.DoubleValue
-0.669

@<SCITEGIC>MOL_PROPERTY
VdW
SciTegic.value.DoubleValue
0.739

@<SCITEGIC>MOL_PROPERTY
VdW6
SciTegic.value.DoubleValue
-5.969

@<SCITEGIC>MOL_PROPERTY
VdW12
SciTegic.value.DoubleValue
6.708

@<SCITEGIC>MOL_PROPERTY
Bond
SciTegic.value.DoubleValue
0.116

@<SCITEGIC>MOL_PROPERTY
Angle
SciTegic.value.DoubleValue
2.481

@<SCITEGIC>MOL_PROPERTY
Pdih
SciTegic.value.DoubleValue
4.576

@<SCITEGIC>MOL_PROPERTY
Idih
SciTegic.value.DoubleValue
0.000

@<SCITEGIC>MOL_PROPERTY
Tether
SciTegic.value.DoubleValue
0.000

@<TRIPOS>MOLECULE
guest-7_confgen4.mol2 : confsearch ligand conformer 121
          19          18           1
SMALL
USER_CHARGES
 
@<TRIPOS>ATOM
       1    C1      19.189501   16.882730   24.183266 C.2        1 MOL1         0.6115
       2    O1      17.998545   17.080467   24.321371 O.co2      1 MOL1        -0.6776
       3    O2      19.662596   15.798847   23.903872 O.co2      1 MOL1        -0.6776
       4    C2      20.146671   18.052790   24.393334 C.3        1 MOL1        -0.2013
       5    H1      20.964571   17.696961   25.030935 H          1 MOL1         0.0727
       6    H2      19.624144   18.836451   24.955319 H          1 MOL1         0.0727
       7    C3      20.730227   18.634931   23.079688 C.3        1 MOL1        -0.1910
       8    H3      21.506264   19.370902   23.329978 H          1 MOL1         0.0729
       9    H4      21.225265   17.832918   22.514582 H          1 MOL1         0.0729
      10    C4      19.654435   19.308766   22.198820 C.3        1 MOL1        -0.1909
      11    H5      19.153656   20.100820   22.772319 H          1 MOL1         0.0729
      12    H6      18.882750   18.574216   21.929819 H          1 MOL1         0.0729
      13    C5      20.261948   19.908004   20.913345 C.3        1 MOL1        -0.1884
      14    H7      21.031759   20.646709   21.176281 H          1 MOL1         0.0729
      15    H8      20.761486   19.117317   20.336500 H          1 MOL1         0.0729
      16    C6      19.186140   20.579634   20.036689 C.3        1 MOL1        -0.2899
      17    H9      18.691282   21.396078   20.578854 H          1 MOL1         0.0741
      18    H10     19.635020   20.999693   19.127215 H          1 MOL1         0.0741
      19    H11     18.418962   19.855375   19.732831 H          1 MOL1         0.0741
@<TRIPOS>BOND
    1     1     2    1
    2     1     3    2
    3     1     4    1
    4     4     5    1
    5     4     6    1
    6     4     7    1
    7     7     8    1
    8     7     9    1
    9     7    10    1
   10    10    11    1
   11    10    12    1
   12    10    13    1
   13    13    14    1
   14    13    15    1
   15    13    16    1
   16    16    17    1
   17    16    18    1
   18    16    19    1
@<TRIPOS>SUBSTRUCTURE
       1 MOL1            1 RESIDUE      1      MOL     
@<SCITEGIC>MOL_PROPERTY
VConf Rank
SciTegic.value.IntegerValue
121

@<SCITEGIC>MOL_PROPERTY
Conf_Id
SciTegic.value.IntegerValue
36

@<SCITEGIC>MOL_PROPERTY
Delta U+W
SciTegic.value.DoubleValue
-0.079

@<SCITEGIC>MOL_PROPERTY
U+W
SciTegic.value.DoubleValue
-54.971

@<SCITEGIC>MOL_PROPERTY
Grad RMS
SciTegic.value.DoubleValue
0.000000

@<SCITEGIC>MOL_PROPERTY
U
SciTegic.value.DoubleValue
8.266

@<SCITEGIC>MOL_PROPERTY
W
SciTegic.value.DoubleValue
-63.237

@<SCITEGIC>MOL_PROPERTY
W(PB)
SciTegic.value.DoubleValue
-65.340

@<SCITEGIC>MOL_PROPERTY
W(SA)
SciTegic.value.DoubleValue
2.103

@<SCITEGIC>MOL_PROPERTY
Valence
SciTegic.value.DoubleValue
6.935

@<SCITEGIC>MOL_PROPERTY
Coulomb
SciTegic.value.DoubleValue
0.874

@<SCITEGIC>MOL_PROPERTY
VdW
SciTegic.value.DoubleValue
0.457

@<SCITEGIC>MOL_PROPERTY
VdW6
SciTegic.value.DoubleValue
-6.205

@<SCITEGIC>MOL_PROPERTY
VdW12
SciTegic.value.DoubleValue
6.662

@<SCITEGIC>MOL_PROPERTY
Bond
SciTegic.value.DoubleValue
0.107

@<SCITEGIC>MOL_PROPERTY
Angle
SciTegic.value.DoubleValue
2.420

@<SCITEGIC>MOL_PROPERTY
Pdih
SciTegic.value.DoubleValue
4.407

@<SCITEGIC>MOL_PROPERTY
Idih
SciTegic.value.DoubleValue
0.001

@<SCITEGIC>MOL_PROPERTY
Tether
SciTegic.value.DoubleValue
0.000

@<TRIPOS>MOLECULE
guest-7_confgen4.mol2 : confsearch ligand conformer 122
          19          18           1
SMALL
USER_CHARGES
 
@<TRIPOS>ATOM
       1    C1      20.267993   19.842586   25.062944 C.2        1 MOL1         0.6115
       2    O1      20.417015   21.035549   24.886351 O.co2      1 MOL1        -0.6776
       3    O2      20.983643   19.175596   25.783811 O.co2      1 MOL1        -0.6776
       4    C2      19.106595   19.146164   24.359029 C.3        1 MOL1        -0.2013
       5    H1      18.382204   19.906375   24.042287 H          1 MOL1         0.0727
       6    H2      18.602146   18.517533   25.102308 H          1 MOL1         0.0727
       7    C3      19.532578   18.275544   23.148387 C.3        1 MOL1        -0.1910
       8    H3      20.278916   17.538101   23.475174 H          1 MOL1         0.0729
       9    H4      18.661569   17.708083   22.793611 H          1 MOL1         0.0729
      10    C4      20.102057   19.115630   21.983373 C.3        1 MOL1        -0.1909
      11    H5      20.984525   19.673577   22.325960 H          1 MOL1         0.0729
      12    H6      19.357409   19.859760   21.669048 H          1 MOL1         0.0729
      13    C5      20.489642   18.232908   20.778722 C.3        1 MOL1        -0.1884
      14    H7      21.236263   17.489102   21.089821 H          1 MOL1         0.0729
      15    H8      19.609661   17.675480   20.428952 H          1 MOL1         0.0729
      16    C6      21.057454   19.074010   19.618068 C.3        1 MOL1        -0.2899
      17    H9      21.957764   19.618571   19.931657 H          1 MOL1         0.0741
      18    H10     21.328142   18.430964   18.770539 H          1 MOL1         0.0741
      19    H11     20.319111   19.806283   19.265887 H          1 MOL1         0.0741
@<TRIPOS>BOND
    1     1     2    1
    2     1     3    2
    3     1     4    1
    4     4     5    1
    5     4     6    1
    6     4     7    1
    7     7     8    1
    8     7     9    1
    9     7    10    1
   10    10    11    1
   11    10    12    1
   12    10    13    1
   13    13    14    1
   14    13    15    1
   15    13    16    1
   16    16    17    1
   17    16    18    1
   18    16    19    1
@<TRIPOS>SUBSTRUCTURE
       1 MOL1            1 RESIDUE      1      MOL     
@<SCITEGIC>MOL_PROPERTY
VConf Rank
SciTegic.value.IntegerValue
122

@<SCITEGIC>MOL_PROPERTY
Conf_Id
SciTegic.value.IntegerValue
35

@<SCITEGIC>MOL_PROPERTY
Delta U+W
SciTegic.value.DoubleValue
-0.030

@<SCITEGIC>MOL_PROPERTY
U+W
SciTegic.value.DoubleValue
-54.921

@<SCITEGIC>MOL_PROPERTY
Grad RMS
SciTegic.value.DoubleValue
0.000000

@<SCITEGIC>MOL_PROPERTY
U
SciTegic.value.DoubleValue
8.267

@<SCITEGIC>MOL_PROPERTY
W
SciTegic.value.DoubleValue
-63.188

@<SCITEGIC>MOL_PROPERTY
W(PB)
SciTegic.value.DoubleValue
-65.294

@<SCITEGIC>MOL_PROPERTY
W(SA)
SciTegic.value.DoubleValue
2.106

@<SCITEGIC>MOL_PROPERTY
Valence
SciTegic.value.DoubleValue
6.935

@<SCITEGIC>MOL_PROPERTY
Coulomb
SciTegic.value.DoubleValue
0.875

@<SCITEGIC>MOL_PROPERTY
VdW
SciTegic.value.DoubleValue
0.457

@<SCITEGIC>MOL_PROPERTY
VdW6
SciTegic.value.DoubleValue
-6.205

@<SCITEGIC>MOL_PROPERTY
VdW12
SciTegic.value.DoubleValue
6.662

@<SCITEGIC>MOL_PROPERTY
Bond
SciTegic.value.DoubleValue
0.107

@<SCITEGIC>MOL_PROPERTY
Angle
SciTegic.value.DoubleValue
2.420

@<SCITEGIC>MOL_PROPERTY
Pdih
SciTegic.value.DoubleValue
4.407

@<SCITEGIC>MOL_PROPERTY
Idih
SciTegic.value.DoubleValue
0.001

@<SCITEGIC>MOL_PROPERTY
Tether
SciTegic.value.DoubleValue
0.000

@<TRIPOS>MOLECULE
guest-7_confgen4.mol2 : confsearch ligand conformer 123
          19          18           1
SMALL
USER_CHARGES
 
@<TRIPOS>ATOM
       1    C1      17.238278   18.198890   22.407410 C.2        1 MOL1         0.6115
       2    O1      16.548743   18.906597   21.700020 O.co2      1 MOL1        -0.6776
       3    O2      16.971189   17.942274   23.564759 O.co2      1 MOL1        -0.6776
       4    C2      18.495912   17.582465   21.800898 C.3        1 MOL1        -0.2013
       5    H1      18.220985   17.176413   20.820270 H          1 MOL1         0.0727
       6    H2      18.804059   16.732104   22.421293 H          1 MOL1         0.0727
       7    C3      19.673189   18.578772   21.636234 C.3        1 MOL1        -0.1910
       8    H3      20.466229   18.088025   21.057783 H          1 MOL1         0.0729
       9    H4      19.338460   19.443332   21.046469 H          1 MOL1         0.0729
      10    C4      20.240229   19.057741   22.994078 C.3        1 MOL1        -0.1909
      11    H5      20.609478   18.195611   23.566097 H          1 MOL1         0.0729
      12    H6      19.428660   19.499102   23.588705 H          1 MOL1         0.0729
      13    C5      21.367298   20.106895   22.853298 C.3        1 MOL1        -0.1884
      14    H7      21.000205   20.971542   22.283263 H          1 MOL1         0.0729
      15    H8      21.626020   20.481787   23.853168 H          1 MOL1         0.0729
      16    C6      22.643505   19.548799   22.187084 C.3        1 MOL1        -0.2899
      17    H9      22.460940   19.269082   21.142071 H          1 MOL1         0.0741
      18    H10     23.440958   20.303091   22.194115 H          1 MOL1         0.0741
      19    H11     23.011091   18.663532   22.722182 H          1 MOL1         0.0741
@<TRIPOS>BOND
    1     1     2    1
    2     1     3    2
    3     1     4    1
    4     4     5    1
    5     4     6    1
    6     4     7    1
    7     7     8    1
    8     7     9    1
    9     7    10    1
   10    10    11    1
   11    10    12    1
   12    10    13    1
   13    13    14    1
   14    13    15    1
   15    13    16    1
   16    16    17    1
   17    16    18    1
   18    16    19    1
@<TRIPOS>SUBSTRUCTURE
       1 MOL1            1 RESIDUE      1      MOL     
@<SCITEGIC>MOL_PROPERTY
VConf Rank
SciTegic.value.IntegerValue
123

@<SCITEGIC>MOL_PROPERTY
Conf_Id
SciTegic.value.IntegerValue
74

@<SCITEGIC>MOL_PROPERTY
Delta U+W
SciTegic.value.DoubleValue
0.797

@<SCITEGIC>MOL_PROPERTY
U+W
SciTegic.value.DoubleValue
-54.095

@<SCITEGIC>MOL_PROPERTY
Grad RMS
SciTegic.value.DoubleValue
0.000000

@<SCITEGIC>MOL_PROPERTY
U
SciTegic.value.DoubleValue
8.869

@<SCITEGIC>MOL_PROPERTY
W
SciTegic.value.DoubleValue
-62.964

@<SCITEGIC>MOL_PROPERTY
W(PB)
SciTegic.value.DoubleValue
-65.046

@<SCITEGIC>MOL_PROPERTY
W(SA)
SciTegic.value.DoubleValue
2.082

@<SCITEGIC>MOL_PROPERTY
Valence
SciTegic.value.DoubleValue
7.469

@<SCITEGIC>MOL_PROPERTY
Coulomb
SciTegic.value.DoubleValue
0.762

@<SCITEGIC>MOL_PROPERTY
VdW
SciTegic.value.DoubleValue
0.639

@<SCITEGIC>MOL_PROPERTY
VdW6
SciTegic.value.DoubleValue
-6.782

@<SCITEGIC>MOL_PROPERTY
VdW12
SciTegic.value.DoubleValue
7.421

@<SCITEGIC>MOL_PROPERTY
Bond
SciTegic.value.DoubleValue
0.141

@<SCITEGIC>MOL_PROPERTY
Angle
SciTegic.value.DoubleValue
2.667

@<SCITEGIC>MOL_PROPERTY
Pdih
SciTegic.value.DoubleValue
4.660

@<SCITEGIC>MOL_PROPERTY
Idih
SciTegic.value.DoubleValue
0.001

@<SCITEGIC>MOL_PROPERTY
Tether
SciTegic.value.DoubleValue
0.000

@<TRIPOS>MOLECULE
guest-7_confgen4.mol2 : confsearch ligand conformer 124
          19          18           1
SMALL
USER_CHARGES
 
@<TRIPOS>ATOM
       1    C1      22.873843   18.782387   22.726972 C.2        1 MOL1         0.6115
       2    O1      23.700296   19.672923   22.708483 O.co2      1 MOL1        -0.6776
       3    O2      23.034818   17.728112   23.309135 O.co2      1 MOL1        -0.6776
       4    C2      21.555557   19.008269   21.995318 C.3        1 MOL1        -0.2013
       5    H1      21.213411   18.038263   21.616920 H          1 MOL1         0.0727
       6    H2      21.753005   19.646477   21.125800 H          1 MOL1         0.0727
       7    C3      20.471040   19.653000   22.896835 C.3        1 MOL1        -0.1910
       8    H3      20.254076   18.987903   23.743210 H          1 MOL1         0.0729
       9    H4      20.878006   20.575896   23.332542 H          1 MOL1         0.0729
      10    C4      19.163496   19.999600   22.141240 C.3        1 MOL1        -0.1909
      11    H5      19.387775   20.744016   21.365136 H          1 MOL1         0.0729
      12    H6      18.471770   20.489366   22.840114 H          1 MOL1         0.0729
      13    C5      18.442499   18.796983   21.484142 C.3        1 MOL1        -0.1884
      14    H7      17.544603   19.166292   20.969873 H          1 MOL1         0.0729
      15    H8      19.076966   18.353729   20.705304 H          1 MOL1         0.0729
      16    C6      18.022765   17.708714   22.495522 C.3        1 MOL1        -0.2899
      17    H9      17.405452   18.134463   23.297203 H          1 MOL1         0.0741
      18    H10     17.437175   16.925830   21.996531 H          1 MOL1         0.0741
      19    H11     18.898235   17.229343   22.951616 H          1 MOL1         0.0741
@<TRIPOS>BOND
    1     1     2    1
    2     1     3    2
    3     1     4    1
    4     4     5    1
    5     4     6    1
    6     4     7    1
    7     7     8    1
    8     7     9    1
    9     7    10    1
   10    10    11    1
   11    10    12    1
   12    10    13    1
   13    13    14    1
   14    13    15    1
   15    13    16    1
   16    16    17    1
   17    16    18    1
   18    16    19    1
@<TRIPOS>SUBSTRUCTURE
       1 MOL1            1 RESIDUE      1      MOL     
@<SCITEGIC>MOL_PROPERTY
VConf Rank
SciTegic.value.IntegerValue
124

@<SCITEGIC>MOL_PROPERTY
Conf_Id
SciTegic.value.IntegerValue
67

@<SCITEGIC>MOL_PROPERTY
Delta U+W
SciTegic.value.DoubleValue
0.308

@<SCITEGIC>MOL_PROPERTY
U+W
SciTegic.value.DoubleValue
-54.583

@<SCITEGIC>MOL_PROPERTY
Grad RMS
SciTegic.value.DoubleValue
0.000000

@<SCITEGIC>MOL_PROPERTY
U
SciTegic.value.DoubleValue
8.219

@<SCITEGIC>MOL_PROPERTY
W
SciTegic.value.DoubleValue
-62.802

@<SCITEGIC>MOL_PROPERTY
W(PB)
SciTegic.value.DoubleValue
-64.859

@<SCITEGIC>MOL_PROPERTY
W(SA)
SciTegic.value.DoubleValue
2.057

@<SCITEGIC>MOL_PROPERTY
Valence
SciTegic.value.DoubleValue
7.609

@<SCITEGIC>MOL_PROPERTY
Coulomb
SciTegic.value.DoubleValue
-0.089

@<SCITEGIC>MOL_PROPERTY
VdW
SciTegic.value.DoubleValue
0.699

@<SCITEGIC>MOL_PROPERTY
VdW6
SciTegic.value.DoubleValue
-6.924

@<SCITEGIC>MOL_PROPERTY
VdW12
SciTegic.value.DoubleValue
7.623

@<SCITEGIC>MOL_PROPERTY
Bond
SciTegic.value.DoubleValue
0.163

@<SCITEGIC>MOL_PROPERTY
Angle
SciTegic.value.DoubleValue
2.870

@<SCITEGIC>MOL_PROPERTY
Pdih
SciTegic.value.DoubleValue
4.576

@<SCITEGIC>MOL_PROPERTY
Idih
SciTegic.value.DoubleValue
0.001

@<SCITEGIC>MOL_PROPERTY
Tether
SciTegic.value.DoubleValue
0.000

@<TRIPOS>MOLECULE
guest-7_confgen4.mol2 : confsearch ligand conformer 125
          19          18           1
SMALL
USER_CHARGES
 
@<TRIPOS>ATOM
       1    C1      17.970215   17.497842   23.878801 C.2        1 MOL1         0.6115
       2    O1      16.891013   17.058872   23.533763 O.co2      1 MOL1        -0.6776
       3    O2      18.248005   17.770423   25.029824 O.co2      1 MOL1        -0.6776
       4    C2      19.026286   17.737792   22.805789 C.3        1 MOL1        -0.2013
       5    H1      18.890894   16.985478   22.019629 H          1 MOL1         0.0727
       6    H2      20.008563   17.562533   23.259196 H          1 MOL1         0.0727
       7    C3      18.954031   19.163436   22.200061 C.3        1 MOL1        -0.1910
       8    H3      17.932317   19.340656   21.836893 H          1 MOL1         0.0729
       9    H4      19.128834   19.906965   22.988976 H          1 MOL1         0.0729
      10    C4      19.940205   19.388346   21.026349 C.3        1 MOL1        -0.1909
      11    H5      19.791805   20.402339   20.630655 H          1 MOL1         0.0729
      12    H6      19.681433   18.702751   20.207942 H          1 MOL1         0.0729
      13    C5      21.436941   19.202397   21.377213 C.3        1 MOL1        -0.1884
      14    H7      21.630142   18.163861   21.676756 H          1 MOL1         0.0729
      15    H8      22.032336   19.371866   20.469543 H          1 MOL1         0.0729
      16    C6      21.930183   20.162839   22.480691 C.3        1 MOL1        -0.2899
      17    H9      21.442151   19.951468   23.440594 H          1 MOL1         0.0741
      18    H10     23.012721   20.055956   22.627331 H          1 MOL1         0.0741
      19    H11     21.726185   21.207532   22.212303 H          1 MOL1         0.0741
@<TRIPOS>BOND
    1     1     2    1
    2     1     3    2
    3     1     4    1
    4     4     5    1
    5     4     6    1
    6     4     7    1
    7     7     8    1
    8     7     9    1
    9     7    10    1
   10    10    11    1
   11    10    12    1
   12    10    13    1
   13    13    14    1
   14    13    15    1
   15    13    16    1
   16    16    17    1
   17    16    18    1
   18    16    19    1
@<TRIPOS>SUBSTRUCTURE
       1 MOL1            1 RESIDUE      1      MOL     
@<SCITEGIC>MOL_PROPERTY
VConf Rank
SciTegic.value.IntegerValue
125

@<SCITEGIC>MOL_PROPERTY
Conf_Id
SciTegic.value.IntegerValue
21

@<SCITEGIC>MOL_PROPERTY
Delta U+W
SciTegic.value.DoubleValue
0.319

@<SCITEGIC>MOL_PROPERTY
U+W
SciTegic.value.DoubleValue
-54.572

@<SCITEGIC>MOL_PROPERTY
Grad RMS
SciTegic.value.DoubleValue
0.000000

@<SCITEGIC>MOL_PROPERTY
U
SciTegic.value.DoubleValue
8.220

@<SCITEGIC>MOL_PROPERTY
W
SciTegic.value.DoubleValue
-62.792

@<SCITEGIC>MOL_PROPERTY
W(PB)
SciTegic.value.DoubleValue
-64.830

@<SCITEGIC>MOL_PROPERTY
W(SA)
SciTegic.value.DoubleValue
2.038

@<SCITEGIC>MOL_PROPERTY
Valence
SciTegic.value.DoubleValue
7.609

@<SCITEGIC>MOL_PROPERTY
Coulomb
SciTegic.value.DoubleValue
-0.088

@<SCITEGIC>MOL_PROPERTY
VdW
SciTegic.value.DoubleValue
0.699

@<SCITEGIC>MOL_PROPERTY
VdW6
SciTegic.value.DoubleValue
-6.924

@<SCITEGIC>MOL_PROPERTY
VdW12
SciTegic.value.DoubleValue
7.623

@<SCITEGIC>MOL_PROPERTY
Bond
SciTegic.value.DoubleValue
0.163

@<SCITEGIC>MOL_PROPERTY
Angle
SciTegic.value.DoubleValue
2.870

@<SCITEGIC>MOL_PROPERTY
Pdih
SciTegic.value.DoubleValue
4.576

@<SCITEGIC>MOL_PROPERTY
Idih
SciTegic.value.DoubleValue
0.000

@<SCITEGIC>MOL_PROPERTY
Tether
SciTegic.value.DoubleValue
0.000

@<TRIPOS>MOLECULE
guest-7_confgen4.mol2 : confsearch ligand conformer 126
          19          18           1
SMALL
USER_CHARGES
 
@<TRIPOS>ATOM
       1    C1      19.845684   16.186666   23.261232 C.2        1 MOL1         0.6115
       2    O1      20.565251   15.579582   24.029418 O.co2      1 MOL1        -0.6776
       3    O2      18.694965   15.873680   23.028557 O.co2      1 MOL1        -0.6776
       4    C2      20.412487   17.419119   22.565618 C.3        1 MOL1        -0.2013
       5    H1      19.940581   17.495760   21.581112 H          1 MOL1         0.0727
       6    H2      21.482092   17.248832   22.394347 H          1 MOL1         0.0727
       7    C3      20.206519   18.719955   23.385981 C.3        1 MOL1        -0.1910
       8    H3      19.140009   18.861789   23.608965 H          1 MOL1         0.0729
       9    H4      20.706948   18.590365   24.355606 H          1 MOL1         0.0729
      10    C4      20.782805   19.982271   22.695767 C.3        1 MOL1        -0.1909
      11    H5      21.643955   19.713922   22.068626 H          1 MOL1         0.0729
      12    H6      21.177438   20.647641   23.475845 H          1 MOL1         0.0729
      13    C5      19.754764   20.793331   21.869194 C.3        1 MOL1        -0.1884
      14    H7      18.941289   21.133435   22.524820 H          1 MOL1         0.0729
      15    H8      20.247486   21.701287   21.494981 H          1 MOL1         0.0729
      16    C6      19.158903   20.025604   20.671179 C.3        1 MOL1        -0.2899
      17    H9      18.543400   20.693937   20.055305 H          1 MOL1         0.0741
      18    H10     19.951379   19.611899   20.034148 H          1 MOL1         0.0741
      19    H11     18.515920   19.203203   21.008856 H          1 MOL1         0.0741
@<TRIPOS>BOND
    1     1     2    1
    2     1     3    2
    3     1     4    1
    4     4     5    1
    5     4     6    1
    6     4     7    1
    7     7     8    1
    8     7     9    1
    9     7    10    1
   10    10    11    1
   11    10    12    1
   12    10    13    1
   13    13    14    1
   14    13    15    1
   15    13    16    1
   16    16    17    1
   17    16    18    1
   18    16    19    1
@<TRIPOS>SUBSTRUCTURE
       1 MOL1            1 RESIDUE      1      MOL     
@<SCITEGIC>MOL_PROPERTY
VConf Rank
SciTegic.value.IntegerValue
126

@<SCITEGIC>MOL_PROPERTY
Conf_Id
SciTegic.value.IntegerValue
24

@<SCITEGIC>MOL_PROPERTY
Delta U+W
SciTegic.value.DoubleValue
2.477

@<SCITEGIC>MOL_PROPERTY
U+W
SciTegic.value.DoubleValue
-52.414

@<SCITEGIC>MOL_PROPERTY
Grad RMS
SciTegic.value.DoubleValue
0.000000

@<SCITEGIC>MOL_PROPERTY
U
SciTegic.value.DoubleValue
10.422

@<SCITEGIC>MOL_PROPERTY
W
SciTegic.value.DoubleValue
-62.836

@<SCITEGIC>MOL_PROPERTY
W(PB)
SciTegic.value.DoubleValue
-64.906

@<SCITEGIC>MOL_PROPERTY
W(SA)
SciTegic.value.DoubleValue
2.070

@<SCITEGIC>MOL_PROPERTY
Valence
SciTegic.value.DoubleValue
9.628

@<SCITEGIC>MOL_PROPERTY
Coulomb
SciTegic.value.DoubleValue
0.101

@<SCITEGIC>MOL_PROPERTY
VdW
SciTegic.value.DoubleValue
0.693

@<SCITEGIC>MOL_PROPERTY
VdW6
SciTegic.value.DoubleValue
-6.927

@<SCITEGIC>MOL_PROPERTY
VdW12
SciTegic.value.DoubleValue
7.620

@<SCITEGIC>MOL_PROPERTY
Bond
SciTegic.value.DoubleValue
0.173

@<SCITEGIC>MOL_PROPERTY
Angle
SciTegic.value.DoubleValue
2.989

@<SCITEGIC>MOL_PROPERTY
Pdih
SciTegic.value.DoubleValue
6.465

@<SCITEGIC>MOL_PROPERTY
Idih
SciTegic.value.DoubleValue
0.001

@<SCITEGIC>MOL_PROPERTY
Tether
SciTegic.value.DoubleValue
0.000

@<TRIPOS>MOLECULE
guest-7_confgen4.mol2 : confsearch ligand conformer 127
          19          18           1
SMALL
USER_CHARGES
 
@<TRIPOS>ATOM
       1    C1      18.497494   17.239818   21.113320 C.2        1 MOL1         0.6115
       2    O1      19.299546   17.078903   20.214705 O.co2      1 MOL1        -0.6776
       3    O2      17.759856   16.363195   21.518903 O.co2      1 MOL1        -0.6776
       4    C2      18.387855   18.623360   21.748948 C.3        1 MOL1        -0.2013
       5    H1      17.323067   18.882422   21.778454 H          1 MOL1         0.0727
       6    H2      18.868293   19.347965   21.083847 H          1 MOL1         0.0727
       7    C3      18.976537   18.707008   23.184703 C.3        1 MOL1        -0.1910
       8    H3      18.683144   19.656475   23.652320 H          1 MOL1         0.0729
       9    H4      18.510861   17.916284   23.789216 H          1 MOL1         0.0729
      10    C4      20.517518   18.544387   23.251117 C.3        1 MOL1        -0.1909
      11    H5      20.872376   17.901238   22.434268 H          1 MOL1         0.0729
      12    H6      20.763914   18.009992   24.178745 H          1 MOL1         0.0729
      13    C5      21.307753   19.876076   23.257321 C.3        1 MOL1        -0.1884
      14    H7      21.012152   20.476683   24.128581 H          1 MOL1         0.0729
      15    H8      22.374174   19.647126   23.389541 H          1 MOL1         0.0729
      16    C6      21.138906   20.716166   21.974630 C.3        1 MOL1        -0.2899
      17    H9      20.118521   21.110184   21.891447 H          1 MOL1         0.0741
      18    H10     21.824430   21.573340   21.984035 H          1 MOL1         0.0741
      19    H11     21.356409   20.117239   21.080503 H          1 MOL1         0.0741
@<TRIPOS>BOND
    1     1     2    1
    2     1     3    2
    3     1     4    1
    4     4     5    1
    5     4     6    1
    6     4     7    1
    7     7     8    1
    8     7     9    1
    9     7    10    1
   10    10    11    1
   11    10    12    1
   12    10    13    1
   13    13    14    1
   14    13    15    1
   15    13    16    1
   16    16    17    1
   17    16    18    1
   18    16    19    1
@<TRIPOS>SUBSTRUCTURE
       1 MOL1            1 RESIDUE      1      MOL     
@<SCITEGIC>MOL_PROPERTY
VConf Rank
SciTegic.value.IntegerValue
127

@<SCITEGIC>MOL_PROPERTY
Conf_Id
SciTegic.value.IntegerValue
4

@<SCITEGIC>MOL_PROPERTY
Delta U+W
SciTegic.value.DoubleValue
3.753

@<SCITEGIC>MOL_PROPERTY
U+W
SciTegic.value.DoubleValue
-51.138

@<SCITEGIC>MOL_PROPERTY
Grad RMS
SciTegic.value.DoubleValue
0.000000

@<SCITEGIC>MOL_PROPERTY
U
SciTegic.value.DoubleValue
12.334

@<SCITEGIC>MOL_PROPERTY
W
SciTegic.value.DoubleValue
-63.472

@<SCITEGIC>MOL_PROPERTY
W(PB)
SciTegic.value.DoubleValue
-65.500

@<SCITEGIC>MOL_PROPERTY
W(SA)
SciTegic.value.DoubleValue
2.028

@<SCITEGIC>MOL_PROPERTY
Valence
SciTegic.value.DoubleValue
9.984

@<SCITEGIC>MOL_PROPERTY
Coulomb
SciTegic.value.DoubleValue
1.767

@<SCITEGIC>MOL_PROPERTY
VdW
SciTegic.value.DoubleValue
0.583

@<SCITEGIC>MOL_PROPERTY
VdW6
SciTegic.value.DoubleValue
-7.767

@<SCITEGIC>MOL_PROPERTY
VdW12
SciTegic.value.DoubleValue
8.349

@<SCITEGIC>MOL_PROPERTY
Bond
SciTegic.value.DoubleValue
0.203

@<SCITEGIC>MOL_PROPERTY
Angle
SciTegic.value.DoubleValue
3.191

@<SCITEGIC>MOL_PROPERTY
Pdih
SciTegic.value.DoubleValue
6.589

@<SCITEGIC>MOL_PROPERTY
Idih
SciTegic.value.DoubleValue
0.001

@<SCITEGIC>MOL_PROPERTY
Tether
SciTegic.value.DoubleValue
0.000

@<TRIPOS>MOLECULE
guest-7_confgen4.mol2 : confsearch ligand conformer 128
          19          18           1
SMALL
USER_CHARGES
 
@<TRIPOS>ATOM
       1    C1      19.234076   16.498715   23.169404 C.2        1 MOL1         0.6115
       2    O1      18.559125   15.654404   22.613837 O.co2      1 MOL1        -0.6776
       3    O2      20.261443   16.248656   23.768303 O.co2      1 MOL1        -0.6776
       4    C2      18.747315   17.945151   23.136022 C.3        1 MOL1        -0.2013
       5    H1      19.270046   18.503534   23.919086 H          1 MOL1         0.0727
       6    H2      17.686445   17.935992   23.412115 H          1 MOL1         0.0727
       7    C3      18.911986   18.634996   21.753295 C.3        1 MOL1        -0.1910
       8    H3      18.429483   17.999913   20.997389 H          1 MOL1         0.0729
       9    H4      18.362131   19.585684   21.744032 H          1 MOL1         0.0729
      10    C4      20.385522   18.877865   21.334751 C.3        1 MOL1        -0.1909
      11    H5      20.454956   18.754108   20.245418 H          1 MOL1         0.0729
      12    H6      21.039772   18.106750   21.763871 H          1 MOL1         0.0729
      13    C5      20.930940   20.285713   21.678823 C.3        1 MOL1        -0.1884
      14    H7      21.945574   20.375856   21.267064 H          1 MOL1         0.0729
      15    H8      20.325076   21.050088   21.172995 H          1 MOL1         0.0729
      16    C6      20.983003   20.590422   23.190114 C.3        1 MOL1        -0.2899
      17    H9      21.520295   19.801270   23.732370 H          1 MOL1         0.0741
      18    H10     21.501026   21.540758   23.372571 H          1 MOL1         0.0741
      19    H11     19.973714   20.678337   23.610783 H          1 MOL1         0.0741
@<TRIPOS>BOND
    1     1     2    1
    2     1     3    2
    3     1     4    1
    4     4     5    1
    5     4     6    1
    6     4     7    1
    7     7     8    1
    8     7     9    1
    9     7    10    1
   10    10    11    1
   11    10    12    1
   12    10    13    1
   13    13    14    1
   14    13    15    1
   15    13    16    1
   16    16    17    1
   17    16    18    1
   18    16    19    1
@<TRIPOS>SUBSTRUCTURE
       1 MOL1            1 RESIDUE      1      MOL     
@<SCITEGIC>MOL_PROPERTY
VConf Rank
SciTegic.value.IntegerValue
128

@<SCITEGIC>MOL_PROPERTY
Conf_Id
SciTegic.value.IntegerValue
73

@<SCITEGIC>MOL_PROPERTY
Delta U+W
SciTegic.value.DoubleValue
3.707

@<SCITEGIC>MOL_PROPERTY
U+W
SciTegic.value.DoubleValue
-51.184

@<SCITEGIC>MOL_PROPERTY
Grad RMS
SciTegic.value.DoubleValue
0.000000

@<SCITEGIC>MOL_PROPERTY
U
SciTegic.value.DoubleValue
12.334

@<SCITEGIC>MOL_PROPERTY
W
SciTegic.value.DoubleValue
-63.519

@<SCITEGIC>MOL_PROPERTY
W(PB)
SciTegic.value.DoubleValue
-65.541

@<SCITEGIC>MOL_PROPERTY
W(SA)
SciTegic.value.DoubleValue
2.022

@<SCITEGIC>MOL_PROPERTY
Valence
SciTegic.value.DoubleValue
9.984

@<SCITEGIC>MOL_PROPERTY
Coulomb
SciTegic.value.DoubleValue
1.768

@<SCITEGIC>MOL_PROPERTY
VdW
SciTegic.value.DoubleValue
0.583

@<SCITEGIC>MOL_PROPERTY
VdW6
SciTegic.value.DoubleValue
-7.767

@<SCITEGIC>MOL_PROPERTY
VdW12
SciTegic.value.DoubleValue
8.350

@<SCITEGIC>MOL_PROPERTY
Bond
SciTegic.value.DoubleValue
0.203

@<SCITEGIC>MOL_PROPERTY
Angle
SciTegic.value.DoubleValue
3.192

@<SCITEGIC>MOL_PROPERTY
Pdih
SciTegic.value.DoubleValue
6.589

@<SCITEGIC>MOL_PROPERTY
Idih
SciTegic.value.DoubleValue
0.001

@<SCITEGIC>MOL_PROPERTY
Tether
SciTegic.value.DoubleValue
0.000

@<TRIPOS>MOLECULE
guest-7_confgen4.mol2 : confsearch ligand conformer 129
          19          18           1
SMALL
USER_CHARGES
 
@<TRIPOS>ATOM
       1    C1      19.295590   16.493842   22.382073 C.2        1 MOL1         0.6115
       2    O1      19.342820   16.342440   21.177266 O.co2      1 MOL1        -0.6776
       3    O2      19.633310   15.640908   23.179323 O.co2      1 MOL1        -0.6776
       4    C2      18.753424   17.812628   22.926303 C.3        1 MOL1        -0.2013
       5    H1      17.985658   17.568036   23.669525 H          1 MOL1         0.0727
       6    H2      18.242214   18.344224   22.115522 H          1 MOL1         0.0727
       7    C3      19.830593   18.720512   23.580308 C.3        1 MOL1        -0.1910
       8    H3      19.345041   19.607256   24.007846 H          1 MOL1         0.0729
       9    H4      20.276070   18.182503   24.428369 H          1 MOL1         0.0729
      10    C4      20.966322   19.160069   22.620619 C.3        1 MOL1        -0.1909
      11    H5      21.523090   18.271166   22.293599 H          1 MOL1         0.0729
      12    H6      21.682955   19.775472   23.181252 H          1 MOL1         0.0729
      13    C5      20.504634   19.944851   21.368350 C.3        1 MOL1        -0.1884
      14    H7      21.388121   20.185017   20.761170 H          1 MOL1         0.0729
      15    H8      19.868274   19.309041   20.738083 H          1 MOL1         0.0729
      16    C6      19.762814   21.255954   21.706561 C.3        1 MOL1        -0.2899
      17    H9      18.812092   21.056053   22.216539 H          1 MOL1         0.0741
      18    H10     20.374198   21.897162   22.354692 H          1 MOL1         0.0741
      19    H11     19.537410   21.816913   20.790421 H          1 MOL1         0.0741
@<TRIPOS>BOND
    1     1     2    1
    2     1     3    2
    3     1     4    1
    4     4     5    1
    5     4     6    1
    6     4     7    1
    7     7     8    1
    8     7     9    1
    9     7    10    1
   10    10    11    1
   11    10    12    1
   12    10    13    1
   13    13    14    1
   14    13    15    1
   15    13    16    1
   16    16    17    1
   17    16    18    1
   18    16    19    1
@<TRIPOS>SUBSTRUCTURE
       1 MOL1            1 RESIDUE      1      MOL     
@<SCITEGIC>MOL_PROPERTY
VConf Rank
SciTegic.value.IntegerValue
129

@<SCITEGIC>MOL_PROPERTY
Conf_Id
SciTegic.value.IntegerValue
56

@<SCITEGIC>MOL_PROPERTY
Delta U+W
SciTegic.value.DoubleValue
1.735

@<SCITEGIC>MOL_PROPERTY
U+W
SciTegic.value.DoubleValue
-53.156

@<SCITEGIC>MOL_PROPERTY
Grad RMS
SciTegic.value.DoubleValue
0.000000

@<SCITEGIC>MOL_PROPERTY
U
SciTegic.value.DoubleValue
10.214

@<SCITEGIC>MOL_PROPERTY
W
SciTegic.value.DoubleValue
-63.370

@<SCITEGIC>MOL_PROPERTY
W(PB)
SciTegic.value.DoubleValue
-65.388

@<SCITEGIC>MOL_PROPERTY
W(SA)
SciTegic.value.DoubleValue
2.018

@<SCITEGIC>MOL_PROPERTY
Valence
SciTegic.value.DoubleValue
7.868

@<SCITEGIC>MOL_PROPERTY
Coulomb
SciTegic.value.DoubleValue
1.968

@<SCITEGIC>MOL_PROPERTY
VdW
SciTegic.value.DoubleValue
0.378

@<SCITEGIC>MOL_PROPERTY
VdW6
SciTegic.value.DoubleValue
-8.067

@<SCITEGIC>MOL_PROPERTY
VdW12
SciTegic.value.DoubleValue
8.445

@<SCITEGIC>MOL_PROPERTY
Bond
SciTegic.value.DoubleValue
0.191

@<SCITEGIC>MOL_PROPERTY
Angle
SciTegic.value.DoubleValue
3.117

@<SCITEGIC>MOL_PROPERTY
Pdih
SciTegic.value.DoubleValue
4.559

@<SCITEGIC>MOL_PROPERTY
Idih
SciTegic.value.DoubleValue
0.001

@<SCITEGIC>MOL_PROPERTY
Tether
SciTegic.value.DoubleValue
0.000

@<TRIPOS>MOLECULE
guest-7_confgen4.mol2 : confsearch ligand conformer 130
          19          18           1
SMALL
USER_CHARGES
 
@<TRIPOS>ATOM
       1    C1      18.884430   19.664737   24.921619 C.2        1 MOL1         0.6115
       2    O1      19.044877   18.977812   25.910939 O.co2      1 MOL1        -0.6776
       3    O2      18.109792   20.599479   24.870944 O.co2      1 MOL1        -0.6776
       4    C2      19.682955   19.321465   23.669117 C.3        1 MOL1        -0.2013
       5    H1      20.644794   18.898420   23.982608 H          1 MOL1         0.0727
       6    H2      19.890541   20.258896   23.141254 H          1 MOL1         0.0727
       7    C3      18.940776   18.331906   22.735886 C.3        1 MOL1        -0.1910
       8    H3      18.620339   17.463513   23.328013 H          1 MOL1         0.0729
       9    H4      18.022092   18.805859   22.363618 H          1 MOL1         0.0729
      10    C4      19.785806   17.825286   21.540163 C.3        1 MOL1        -0.1909
      11    H5      19.174901   17.097081   20.989270 H          1 MOL1         0.0729
      12    H6      20.658953   17.266992   21.904749 H          1 MOL1         0.0729
      13    C5      20.230671   18.928894   20.548572 C.3        1 MOL1        -0.1884
      14    H7      20.217141   18.512660   19.531760 H          1 MOL1         0.0729
      15    H8      19.507637   19.756256   20.549366 H          1 MOL1         0.0729
      16    C6      21.654274   19.460807   20.826333 C.3        1 MOL1        -0.2899
      17    H9      21.928511   20.225734   20.088392 H          1 MOL1         0.0741
      18    H10     21.735420   19.912340   21.821397 H          1 MOL1         0.0741
      19    H11     22.392913   18.651362   20.760434 H          1 MOL1         0.0741
@<TRIPOS>BOND
    1     1     2    1
    2     1     3    2
    3     1     4    1
    4     4     5    1
    5     4     6    1
    6     4     7    1
    7     7     8    1
    8     7     9    1
    9     7    10    1
   10    10    11    1
   11    10    12    1
   12    10    13    1
   13    13    14    1
   14    13    15    1
   15    13    16    1
   16    16    17    1
   17    16    18    1
   18    16    19    1
@<TRIPOS>SUBSTRUCTURE
       1 MOL1            1 RESIDUE      1      MOL     
@<SCITEGIC>MOL_PROPERTY
VConf Rank
SciTegic.value.IntegerValue
130

@<SCITEGIC>MOL_PROPERTY
Conf_Id
SciTegic.value.IntegerValue
53

@<SCITEGIC>MOL_PROPERTY
Delta U+W
SciTegic.value.DoubleValue
2.279

@<SCITEGIC>MOL_PROPERTY
U+W
SciTegic.value.DoubleValue
-52.612

@<SCITEGIC>MOL_PROPERTY
Grad RMS
SciTegic.value.DoubleValue
0.000000

@<SCITEGIC>MOL_PROPERTY
U
SciTegic.value.DoubleValue
10.231

@<SCITEGIC>MOL_PROPERTY
W
SciTegic.value.DoubleValue
-62.843

@<SCITEGIC>MOL_PROPERTY
W(PB)
SciTegic.value.DoubleValue
-64.893

@<SCITEGIC>MOL_PROPERTY
W(SA)
SciTegic.value.DoubleValue
2.050

@<SCITEGIC>MOL_PROPERTY
Valence
SciTegic.value.DoubleValue
9.644

@<SCITEGIC>MOL_PROPERTY
Coulomb
SciTegic.value.DoubleValue
-0.164

@<SCITEGIC>MOL_PROPERTY
VdW
SciTegic.value.DoubleValue
0.751

@<SCITEGIC>MOL_PROPERTY
VdW6
SciTegic.value.DoubleValue
-6.881

@<SCITEGIC>MOL_PROPERTY
VdW12
SciTegic.value.DoubleValue
7.631

@<SCITEGIC>MOL_PROPERTY
Bond
SciTegic.value.DoubleValue
0.163

@<SCITEGIC>MOL_PROPERTY
Angle
SciTegic.value.DoubleValue
2.998

@<SCITEGIC>MOL_PROPERTY
Pdih
SciTegic.value.DoubleValue
6.482

@<SCITEGIC>MOL_PROPERTY
Idih
SciTegic.value.DoubleValue
0.001

@<SCITEGIC>MOL_PROPERTY
Tether
SciTegic.value.DoubleValue
0.000

@<TRIPOS>MOLECULE
guest-7_confgen4.mol2 : confsearch ligand conformer 131
          19          18           1
SMALL
USER_CHARGES
 
@<TRIPOS>ATOM
       1    C1      17.885332   19.066231   23.293294 C.2        1 MOL1         0.6115
       2    O1      17.394828   18.007565   22.953463 O.co2      1 MOL1        -0.6776
       3    O2      17.437662   20.147546   22.965273 O.co2      1 MOL1        -0.6776
       4    C2      19.084650   19.033908   24.238849 C.3        1 MOL1        -0.2013
       5    H1      19.323307   17.990217   24.476910 H          1 MOL1         0.0727
       6    H2      18.752905   19.500560   25.173624 H          1 MOL1         0.0727
       7    C3      20.353391   19.772930   23.727704 C.3        1 MOL1        -0.1910
       8    H3      20.073211   20.744419   23.297296 H          1 MOL1         0.0729
       9    H4      20.986725   19.998886   24.596179 H          1 MOL1         0.0729
      10    C4      21.209194   18.970813   22.716326 C.3        1 MOL1        -0.1909
      11    H5      21.491717   18.004306   23.155506 H          1 MOL1         0.0729
      12    H6      22.146210   19.519782   22.550059 H          1 MOL1         0.0729
      13    C5      20.521536   18.740196   21.352685 C.3        1 MOL1        -0.1884
      14    H7      19.652747   18.081023   21.475575 H          1 MOL1         0.0729
      15    H8      20.147593   19.695028   20.957893 H          1 MOL1         0.0729
      16    C6      21.487634   18.104888   20.332453 C.3        1 MOL1        -0.2899
      17    H9      21.856267   17.135455   20.692545 H          1 MOL1         0.0741
      18    H10     20.981619   17.939822   19.372376 H          1 MOL1         0.0741
      19    H11     22.353069   18.755781   20.151679 H          1 MOL1         0.0741
@<TRIPOS>BOND
    1     1     2    1
    2     1     3    2
    3     1     4    1
    4     4     5    1
    5     4     6    1
    6     4     7    1
    7     7     8    1
    8     7     9    1
    9     7    10    1
   10    10    11    1
   11    10    12    1
   12    10    13    1
   13    13    14    1
   14    13    15    1
   15    13    16    1
   16    16    17    1
   17    16    18    1
   18    16    19    1
@<TRIPOS>SUBSTRUCTURE
       1 MOL1            1 RESIDUE      1      MOL     
@<SCITEGIC>MOL_PROPERTY
VConf Rank
SciTegic.value.IntegerValue
131

@<SCITEGIC>MOL_PROPERTY
Conf_Id
SciTegic.value.IntegerValue
25

@<SCITEGIC>MOL_PROPERTY
Delta U+W
SciTegic.value.DoubleValue
2.065

@<SCITEGIC>MOL_PROPERTY
U+W
SciTegic.value.DoubleValue
-52.826

@<SCITEGIC>MOL_PROPERTY
Grad RMS
SciTegic.value.DoubleValue
0.000000

@<SCITEGIC>MOL_PROPERTY
U
SciTegic.value.DoubleValue
10.967

@<SCITEGIC>MOL_PROPERTY
W
SciTegic.value.DoubleValue
-63.794

@<SCITEGIC>MOL_PROPERTY
W(PB)
SciTegic.value.DoubleValue
-65.830

@<SCITEGIC>MOL_PROPERTY
W(SA)
SciTegic.value.DoubleValue
2.036

@<SCITEGIC>MOL_PROPERTY
Valence
SciTegic.value.DoubleValue
8.609

@<SCITEGIC>MOL_PROPERTY
Coulomb
SciTegic.value.DoubleValue
1.892

@<SCITEGIC>MOL_PROPERTY
VdW
SciTegic.value.DoubleValue
0.467

@<SCITEGIC>MOL_PROPERTY
VdW6
SciTegic.value.DoubleValue
-7.569

@<SCITEGIC>MOL_PROPERTY
VdW12
SciTegic.value.DoubleValue
8.036

@<SCITEGIC>MOL_PROPERTY
Bond
SciTegic.value.DoubleValue
0.170

@<SCITEGIC>MOL_PROPERTY
Angle
SciTegic.value.DoubleValue
3.195

@<SCITEGIC>MOL_PROPERTY
Pdih
SciTegic.value.DoubleValue
5.237

@<SCITEGIC>MOL_PROPERTY
Idih
SciTegic.value.DoubleValue
0.007

@<SCITEGIC>MOL_PROPERTY
Tether
SciTegic.value.DoubleValue
0.000

@<TRIPOS>MOLECULE
guest-7_confgen4.mol2 : confsearch ligand conformer 132
          19          18           1
SMALL
USER_CHARGES
 
@<TRIPOS>ATOM
       1    C1      20.756336   17.399927   24.333131 C.2        1 MOL1         0.6115
       2    O1      21.729367   17.879340   24.881422 O.co2      1 MOL1        -0.6776
       3    O2      20.748329   16.293359   23.830840 O.co2      1 MOL1        -0.6776
       4    C2      19.454592   18.199262   24.335851 C.3        1 MOL1        -0.2013
       5    H1      19.163492   18.310776   25.386779 H          1 MOL1         0.0727
       6    H2      18.669278   17.603875   23.854479 H          1 MOL1         0.0727
       7    C3      19.538739   19.607618   23.682720 C.3        1 MOL1        -0.1910
       8    H3      18.698495   20.206406   24.059362 H          1 MOL1         0.0729
       9    H4      20.450225   20.122031   24.017558 H          1 MOL1         0.0729
      10    C4      19.464269   19.611787   22.135750 C.3        1 MOL1        -0.1909
      11    H5      19.374787   20.654174   21.800442 H          1 MOL1         0.0729
      12    H6      18.547583   19.102635   21.808200 H          1 MOL1         0.0729
      13    C5      20.688531   18.972407   21.444410 C.3        1 MOL1        -0.1884
      14    H7      21.613314   19.410325   21.844908 H          1 MOL1         0.0729
      15    H8      20.723220   17.896703   21.659033 H          1 MOL1         0.0729
      16    C6      20.644040   19.173583   19.916213 C.3        1 MOL1        -0.2899
      17    H9      21.515668   18.706455   19.439662 H          1 MOL1         0.0741
      18    H10     19.740182   18.721410   19.487335 H          1 MOL1         0.0741
      19    H11     20.649098   20.240975   19.659374 H          1 MOL1         0.0741
@<TRIPOS>BOND
    1     1     2    1
    2     1     3    2
    3     1     4    1
    4     4     5    1
    5     4     6    1
    6     4     7    1
    7     7     8    1
    8     7     9    1
    9     7    10    1
   10    10    11    1
   11    10    12    1
   12    10    13    1
   13    13    14    1
   14    13    15    1
   15    13    16    1
   16    16    17    1
   17    16    18    1
   18    16    19    1
@<TRIPOS>SUBSTRUCTURE
       1 MOL1            1 RESIDUE      1      MOL     
@<SCITEGIC>MOL_PROPERTY
VConf Rank
SciTegic.value.IntegerValue
132

@<SCITEGIC>MOL_PROPERTY
Conf_Id
SciTegic.value.IntegerValue
52

@<SCITEGIC>MOL_PROPERTY
Delta U+W
SciTegic.value.DoubleValue
2.070

@<SCITEGIC>MOL_PROPERTY
U+W
SciTegic.value.DoubleValue
-52.822

@<SCITEGIC>MOL_PROPERTY
Grad RMS
SciTegic.value.DoubleValue
0.000000

@<SCITEGIC>MOL_PROPERTY
U
SciTegic.value.DoubleValue
10.967

@<SCITEGIC>MOL_PROPERTY
W
SciTegic.value.DoubleValue
-63.789

@<SCITEGIC>MOL_PROPERTY
W(PB)
SciTegic.value.DoubleValue
-65.837

@<SCITEGIC>MOL_PROPERTY
W(SA)
SciTegic.value.DoubleValue
2.048

@<SCITEGIC>MOL_PROPERTY
Valence
SciTegic.value.DoubleValue
8.609

@<SCITEGIC>MOL_PROPERTY
Coulomb
SciTegic.value.DoubleValue
1.892

@<SCITEGIC>MOL_PROPERTY
VdW
SciTegic.value.DoubleValue
0.467

@<SCITEGIC>MOL_PROPERTY
VdW6
SciTegic.value.DoubleValue
-7.569

@<SCITEGIC>MOL_PROPERTY
VdW12
SciTegic.value.DoubleValue
8.035

@<SCITEGIC>MOL_PROPERTY
Bond
SciTegic.value.DoubleValue
0.170

@<SCITEGIC>MOL_PROPERTY
Angle
SciTegic.value.DoubleValue
3.196

@<SCITEGIC>MOL_PROPERTY
Pdih
SciTegic.value.DoubleValue
5.237

@<SCITEGIC>MOL_PROPERTY
Idih
SciTegic.value.DoubleValue
0.007

@<SCITEGIC>MOL_PROPERTY
Tether
SciTegic.value.DoubleValue
0.000

@<TRIPOS>MOLECULE
guest-7_confgen4.mol2 : confsearch ligand conformer 133
          19          18           1
SMALL
USER_CHARGES
 
@<TRIPOS>ATOM
       1    C1      21.457666   17.470475   22.556479 C.2        1 MOL1         0.6115
       2    O1      21.282860   16.670762   23.455377 O.co2      1 MOL1        -0.6776
       3    O2      21.657859   17.142084   21.403752 O.co2      1 MOL1        -0.6776
       4    C2      21.557884   18.956408   22.904820 C.3        1 MOL1        -0.2013
       5    H1      21.562023   19.541462   21.977333 H          1 MOL1         0.0727
       6    H2      22.543248   19.093595   23.364726 H          1 MOL1         0.0727
       7    C3      20.470665   19.497731   23.876569 C.3        1 MOL1        -0.1910
       8    H3      20.283014   18.766606   24.675021 H          1 MOL1         0.0729
       9    H4      20.878268   20.386313   24.377206 H          1 MOL1         0.0729
      10    C4      19.131686   19.910239   23.213132 C.3        1 MOL1        -0.1909
      11    H5      19.305809   20.714041   22.484695 H          1 MOL1         0.0729
      12    H6      18.499005   20.352009   23.995130 H          1 MOL1         0.0729
      13    C5      18.342343   18.751597   22.557025 C.3        1 MOL1        -0.1884
      14    H7      18.640348   17.788188   22.993364 H          1 MOL1         0.0729
      15    H8      17.275357   18.873324   22.789127 H          1 MOL1         0.0729
      16    C6      18.498465   18.716616   21.021602 C.3        1 MOL1        -0.2899
      17    H9      18.110074   19.637501   20.567662 H          1 MOL1         0.0741
      18    H10     19.549012   18.610871   20.726817 H          1 MOL1         0.0741
      19    H11     17.943145   17.870405   20.597142 H          1 MOL1         0.0741
@<TRIPOS>BOND
    1     1     2    1
    2     1     3    2
    3     1     4    1
    4     4     5    1
    5     4     6    1
    6     4     7    1
    7     7     8    1
    8     7     9    1
    9     7    10    1
   10    10    11    1
   11    10    12    1
   12    10    13    1
   13    13    14    1
   14    13    15    1
   15    13    16    1
   16    16    17    1
   17    16    18    1
   18    16    19    1
@<TRIPOS>SUBSTRUCTURE
       1 MOL1            1 RESIDUE      1      MOL     
@<SCITEGIC>MOL_PROPERTY
VConf Rank
SciTegic.value.IntegerValue
133

@<SCITEGIC>MOL_PROPERTY
Conf_Id
SciTegic.value.IntegerValue
66

@<SCITEGIC>MOL_PROPERTY
Delta U+W
SciTegic.value.DoubleValue
5.819

@<SCITEGIC>MOL_PROPERTY
U+W
SciTegic.value.DoubleValue
-49.072

@<SCITEGIC>MOL_PROPERTY
Grad RMS
SciTegic.value.DoubleValue
0.000000

@<SCITEGIC>MOL_PROPERTY
U
SciTegic.value.DoubleValue
15.324

@<SCITEGIC>MOL_PROPERTY
W
SciTegic.value.DoubleValue
-64.396

@<SCITEGIC>MOL_PROPERTY
W(PB)
SciTegic.value.DoubleValue
-66.382

@<SCITEGIC>MOL_PROPERTY
W(SA)
SciTegic.value.DoubleValue
1.986

@<SCITEGIC>MOL_PROPERTY
Valence
SciTegic.value.DoubleValue
11.748

@<SCITEGIC>MOL_PROPERTY
Coulomb
SciTegic.value.DoubleValue
3.201

@<SCITEGIC>MOL_PROPERTY
VdW
SciTegic.value.DoubleValue
0.375

@<SCITEGIC>MOL_PROPERTY
VdW6
SciTegic.value.DoubleValue
-8.854

@<SCITEGIC>MOL_PROPERTY
VdW12
SciTegic.value.DoubleValue
9.229

@<SCITEGIC>MOL_PROPERTY
Bond
SciTegic.value.DoubleValue
0.216

@<SCITEGIC>MOL_PROPERTY
Angle
SciTegic.value.DoubleValue
3.812

@<SCITEGIC>MOL_PROPERTY
Pdih
SciTegic.value.DoubleValue
7.699

@<SCITEGIC>MOL_PROPERTY
Idih
SciTegic.value.DoubleValue
0.022

@<SCITEGIC>MOL_PROPERTY
Tether
SciTegic.value.DoubleValue
0.000

@<TRIPOS>MOLECULE
guest-7_confgen4.mol2 : confsearch ligand conformer 134
          19          18           1
SMALL
USER_CHARGES
 
@<TRIPOS>ATOM
       1    C1      18.645444   21.306467   20.092796 C.2        1 MOL1         0.6115
       2    O1      17.916000   22.277405   20.121996 O.co2      1 MOL1        -0.6776
       3    O2      19.172409   20.902931   19.074164 O.co2      1 MOL1        -0.6776
       4    C2      18.892687   20.578915   21.415376 C.3        1 MOL1        -0.2013
       5    H1      17.915728   20.274067   21.808654 H          1 MOL1         0.0727
       6    H2      19.307506   21.310597   22.118666 H          1 MOL1         0.0727
       7    C3      19.830614   19.345562   21.328391 C.3        1 MOL1        -0.1910
       8    H3      19.412362   18.619056   20.617952 H          1 MOL1         0.0729
       9    H4      20.805580   19.656667   20.928237 H          1 MOL1         0.0729
      10    C4      20.024539   18.673514   22.704983 C.3        1 MOL1        -0.1909
      11    H5      19.048625   18.363461   23.103239 H          1 MOL1         0.0729
      12    H6      20.442628   19.401594   23.413680 H          1 MOL1         0.0729
      13    C5      20.957192   17.447673   22.616284 C.3        1 MOL1        -0.1884
      14    H7      20.541424   16.716058   21.909623 H          1 MOL1         0.0729
      15    H8      21.935292   17.754082   22.220145 H          1 MOL1         0.0729
      16    C6      21.148457   16.779188   23.992342 C.3        1 MOL1        -0.2899
      17    H9      20.188435   16.434247   24.398293 H          1 MOL1         0.0741
      18    H10     21.813947   15.909935   23.910924 H          1 MOL1         0.0741
      19    H11     21.592788   17.480100   24.711170 H          1 MOL1         0.0741
@<TRIPOS>BOND
    1     1     2    1
    2     1     3    2
    3     1     4    1
    4     4     5    1
    5     4     6    1
    6     4     7    1
    7     7     8    1
    8     7     9    1
    9     7    10    1
   10    10    11    1
   11    10    12    1
   12    10    13    1
   13    13    14    1
   14    13    15    1
   15    13    16    1
   16    16    17    1
   17    16    18    1
   18    16    19    1
@<TRIPOS>SUBSTRUCTURE
       1 MOL1            1 RESIDUE      1      MOL     
@<SCITEGIC>MOL_PROPERTY
VConf Rank
SciTegic.value.IntegerValue
134

@<SCITEGIC>MOL_PROPERTY
Conf_Id
SciTegic.value.IntegerValue
0

@<SCITEGIC>MOL_PROPERTY
Delta U+W
SciTegic.value.DoubleValue
0.000

@<SCITEGIC>MOL_PROPERTY
U+W
SciTegic.value.DoubleValue
-54.891

@<SCITEGIC>MOL_PROPERTY
Grad RMS
SciTegic.value.DoubleValue
0.000000

@<SCITEGIC>MOL_PROPERTY
U
SciTegic.value.DoubleValue
6.966

@<SCITEGIC>MOL_PROPERTY
W
SciTegic.value.DoubleValue
-61.857

@<SCITEGIC>MOL_PROPERTY
W(PB)
SciTegic.value.DoubleValue
-63.965

@<SCITEGIC>MOL_PROPERTY
W(SA)
SciTegic.value.DoubleValue
2.108

@<SCITEGIC>MOL_PROPERTY
Valence
SciTegic.value.DoubleValue
7.175

@<SCITEGIC>MOL_PROPERTY
Coulomb
SciTegic.value.DoubleValue
-1.360

@<SCITEGIC>MOL_PROPERTY
VdW
SciTegic.value.DoubleValue
1.151

@<SCITEGIC>MOL_PROPERTY
VdW6
SciTegic.value.DoubleValue
-5.641

@<SCITEGIC>MOL_PROPERTY
VdW12
SciTegic.value.DoubleValue
6.792

@<SCITEGIC>MOL_PROPERTY
Bond
SciTegic.value.DoubleValue
0.119

@<SCITEGIC>MOL_PROPERTY
Angle
SciTegic.value.DoubleValue
2.715

@<SCITEGIC>MOL_PROPERTY
Pdih
SciTegic.value.DoubleValue
4.340

@<SCITEGIC>MOL_PROPERTY
Idih
SciTegic.value.DoubleValue
0.000

@<SCITEGIC>MOL_PROPERTY
Tether
SciTegic.value.DoubleValue
0.000

@<TRIPOS>MOLECULE
guest-7_confgen4.mol2 : confsearch ligand conformer 135
          19          18           1
SMALL
USER_CHARGES
 
@<TRIPOS>ATOM
       1    C1      20.549631   20.736445   24.943413 C.2        1 MOL1         0.6115
       2    O1      20.693915   21.929411   24.763986 O.co2      1 MOL1        -0.6776
       3    O2      20.108190   20.259207   25.969842 O.co2      1 MOL1        -0.6776
       4    C2      20.923909   19.787288   23.810546 C.3        1 MOL1        -0.2013
       5    H1      21.282130   18.850766   24.254781 H          1 MOL1         0.0727
       6    H2      21.764521   20.227480   23.260684 H          1 MOL1         0.0727
       7    C3      19.744769   19.504856   22.847231 C.3        1 MOL1        -0.1910
       8    H3      18.907100   19.076412   23.414942 H          1 MOL1         0.0729
       9    H4      19.389403   20.453276   22.420894 H          1 MOL1         0.0729
      10    C4      20.149553   18.542135   21.710154 C.3        1 MOL1        -0.1909
      11    H5      20.505606   17.595556   22.139581 H          1 MOL1         0.0729
      12    H6      20.987896   18.972659   21.145333 H          1 MOL1         0.0729
      13    C5      18.972960   18.262522   20.752125 C.3        1 MOL1        -0.1884
      14    H7      18.132931   17.829967   21.313142 H          1 MOL1         0.0729
      15    H8      18.615229   19.206907   20.318928 H          1 MOL1         0.0729
      16    C6      19.380649   17.300896   19.618097 C.3        1 MOL1        -0.2899
      17    H9      18.532703   17.113068   18.946668 H          1 MOL1         0.0741
      18    H10     20.199219   17.723000   19.020440 H          1 MOL1         0.0741
      19    H11     19.713343   16.335753   20.022122 H          1 MOL1         0.0741
@<TRIPOS>BOND
    1     1     2    1
    2     1     3    2
    3     1     4    1
    4     4     5    1
    5     4     6    1
    6     4     7    1
    7     7     8    1
    8     7     9    1
    9     7    10    1
   10    10    11    1
   11    10    12    1
   12    10    13    1
   13    13    14    1
   14    13    15    1
   15    13    16    1
   16    16    17    1
   17    16    18    1
   18    16    19    1
@<TRIPOS>SUBSTRUCTURE
       1 MOL1            1 RESIDUE      1      MOL     
@<SCITEGIC>MOL_PROPERTY
VConf Rank
SciTegic.value.IntegerValue
135

@<SCITEGIC>MOL_PROPERTY
Conf_Id
SciTegic.value.IntegerValue
18

@<SCITEGIC>MOL_PROPERTY
Delta U+W
SciTegic.value.DoubleValue
-1.199

@<SCITEGIC>MOL_PROPERTY
U+W
SciTegic.value.DoubleValue
-56.090

@<SCITEGIC>MOL_PROPERTY
Grad RMS
SciTegic.value.DoubleValue
0.000000

@<SCITEGIC>MOL_PROPERTY
U
SciTegic.value.DoubleValue
5.975

@<SCITEGIC>MOL_PROPERTY
W
SciTegic.value.DoubleValue
-62.066

@<SCITEGIC>MOL_PROPERTY
W(PB)
SciTegic.value.DoubleValue
-64.219

@<SCITEGIC>MOL_PROPERTY
W(SA)
SciTegic.value.DoubleValue
2.153

@<SCITEGIC>MOL_PROPERTY
Valence
SciTegic.value.DoubleValue
6.673

@<SCITEGIC>MOL_PROPERTY
Coulomb
SciTegic.value.DoubleValue
-1.307

@<SCITEGIC>MOL_PROPERTY
VdW
SciTegic.value.DoubleValue
0.610

@<SCITEGIC>MOL_PROPERTY
VdW6
SciTegic.value.DoubleValue
-5.351

@<SCITEGIC>MOL_PROPERTY
VdW12
SciTegic.value.DoubleValue
5.961

@<SCITEGIC>MOL_PROPERTY
Bond
SciTegic.value.DoubleValue
0.086

@<SCITEGIC>MOL_PROPERTY
Angle
SciTegic.value.DoubleValue
2.253

@<SCITEGIC>MOL_PROPERTY
Pdih
SciTegic.value.DoubleValue
4.333

@<SCITEGIC>MOL_PROPERTY
Idih
SciTegic.value.DoubleValue
0.001

@<SCITEGIC>MOL_PROPERTY
Tether
SciTegic.value.DoubleValue
0.000

@<TRIPOS>MOLECULE
guest-7_confgen4.mol2 : confsearch ligand conformer 136
          19          18           1
SMALL
USER_CHARGES
 
@<TRIPOS>ATOM
       1    C1      20.640584   21.714907   20.740107 C.2        1 MOL1         0.6115
       2    O1      19.789234   22.455403   20.289379 O.co2      1 MOL1        -0.6776
       3    O2      21.776652   22.068109   20.986804 O.co2      1 MOL1        -0.6776
       4    C2      20.256083   20.268771   21.032016 C.3        1 MOL1        -0.2013
       5    H1      21.141690   19.646980   20.859049 H          1 MOL1         0.0727
       6    H2      19.496802   19.964454   20.301678 H          1 MOL1         0.0727
       7    C3      19.721236   20.069264   22.474000 C.3        1 MOL1        -0.1910
       8    H3      20.505439   20.334986   23.196306 H          1 MOL1         0.0729
       9    H4      18.893146   20.771497   22.642992 H          1 MOL1         0.0729
      10    C4      19.217962   18.633185   22.753148 C.3        1 MOL1        -0.1909
      11    H5      18.428217   18.373740   22.034818 H          1 MOL1         0.0729
      12    H6      18.751726   18.614356   23.747776 H          1 MOL1         0.0729
      13    C5      20.337406   17.569291   22.703279 C.3        1 MOL1        -0.1884
      14    H7      20.766744   17.518296   21.694107 H          1 MOL1         0.0729
      15    H8      21.150962   17.854991   23.384286 H          1 MOL1         0.0729
      16    C6      19.808950   16.174541   23.094016 C.3        1 MOL1        -0.2899
      17    H9      20.614357   15.429854   23.050999 H          1 MOL1         0.0741
      18    H10     19.405671   16.178635   24.115160 H          1 MOL1         0.0741
      19    H11     19.011787   15.851598   22.411634 H          1 MOL1         0.0741
@<TRIPOS>BOND
    1     1     2    1
    2     1     3    2
    3     1     4    1
    4     4     5    1
    5     4     6    1
    6     4     7    1
    7     7     8    1
    8     7     9    1
    9     7    10    1
   10    10    11    1
   11    10    12    1
   12    10    13    1
   13    13    14    1
   14    13    15    1
   15    13    16    1
   16    16    17    1
   17    16    18    1
   18    16    19    1
@<TRIPOS>SUBSTRUCTURE
       1 MOL1            1 RESIDUE      1      MOL     
@<SCITEGIC>MOL_PROPERTY
VConf Rank
SciTegic.value.IntegerValue
136

@<SCITEGIC>MOL_PROPERTY
Conf_Id
SciTegic.value.IntegerValue
34

@<SCITEGIC>MOL_PROPERTY
Delta U+W
SciTegic.value.DoubleValue
-0.563

@<SCITEGIC>MOL_PROPERTY
U+W
SciTegic.value.DoubleValue
-55.455

@<SCITEGIC>MOL_PROPERTY
Grad RMS
SciTegic.value.DoubleValue
0.000000

@<SCITEGIC>MOL_PROPERTY
U
SciTegic.value.DoubleValue
6.914

@<SCITEGIC>MOL_PROPERTY
W
SciTegic.value.DoubleValue
-62.369

@<SCITEGIC>MOL_PROPERTY
W(PB)
SciTegic.value.DoubleValue
-64.446

@<SCITEGIC>MOL_PROPERTY
W(SA)
SciTegic.value.DoubleValue
2.077

@<SCITEGIC>MOL_PROPERTY
Valence
SciTegic.value.DoubleValue
7.196

@<SCITEGIC>MOL_PROPERTY
Coulomb
SciTegic.value.DoubleValue
-1.020

@<SCITEGIC>MOL_PROPERTY
VdW
SciTegic.value.DoubleValue
0.738

@<SCITEGIC>MOL_PROPERTY
VdW6
SciTegic.value.DoubleValue
-6.010

@<SCITEGIC>MOL_PROPERTY
VdW12
SciTegic.value.DoubleValue
6.748

@<SCITEGIC>MOL_PROPERTY
Bond
SciTegic.value.DoubleValue
0.126

@<SCITEGIC>MOL_PROPERTY
Angle
SciTegic.value.DoubleValue
2.499

@<SCITEGIC>MOL_PROPERTY
Pdih
SciTegic.value.DoubleValue
4.570

@<SCITEGIC>MOL_PROPERTY
Idih
SciTegic.value.DoubleValue
0.001

@<SCITEGIC>MOL_PROPERTY
Tether
SciTegic.value.DoubleValue
0.000

@<TRIPOS>MOLECULE
guest-7_confgen4.mol2 : confsearch ligand conformer 137
          19          18           1
SMALL
USER_CHARGES
 
@<TRIPOS>ATOM
       1    C1      16.935488   18.546372   23.158108 C.2        1 MOL1         0.6115
       2    O1      16.128494   17.839856   22.587245 O.co2      1 MOL1        -0.6776
       3    O2      16.626817   19.420210   23.943851 O.co2      1 MOL1        -0.6776
       4    C2      18.415273   18.339565   22.855080 C.3        1 MOL1        -0.2013
       5    H1      18.572117   17.277010   22.633974 H          1 MOL1         0.0727
       6    H2      18.977514   18.568590   23.767372 H          1 MOL1         0.0727
       7    C3      18.913327   19.210920   21.672767 C.3        1 MOL1        -0.1910
       8    H3      18.270771   19.023063   20.801415 H          1 MOL1         0.0729
       9    H4      18.792422   20.273779   21.923810 H          1 MOL1         0.0729
      10    C4      20.382023   18.931311   21.274931 C.3        1 MOL1        -0.1909
      11    H5      20.610485   19.499927   20.363068 H          1 MOL1         0.0729
      12    H6      20.497672   17.869815   21.016357 H          1 MOL1         0.0729
      13    C5      21.399482   19.313735   22.373131 C.3        1 MOL1        -0.1884
      14    H7      21.250127   20.361534   22.668224 H          1 MOL1         0.0729
      15    H8      21.236834   18.701548   23.269867 H          1 MOL1         0.0729
      16    C6      22.850985   19.119873   21.890615 C.3        1 MOL1        -0.2899
      17    H9      23.036314   18.073523   21.614549 H          1 MOL1         0.0741
      18    H10     23.061667   19.748119   21.015226 H          1 MOL1         0.0741
      19    H11     23.561235   19.392593   22.681980 H          1 MOL1         0.0741
@<TRIPOS>BOND
    1     1     2    1
    2     1     3    2
    3     1     4    1
    4     4     5    1
    5     4     6    1
    6     4     7    1
    7     7     8    1
    8     7     9    1
    9     7    10    1
   10    10    11    1
   11    10    12    1
   12    10    13    1
   13    13    14    1
   14    13    15    1
   15    13    16    1
   16    16    17    1
   17    16    18    1
   18    16    19    1
@<TRIPOS>SUBSTRUCTURE
       1 MOL1            1 RESIDUE      1      MOL     
@<SCITEGIC>MOL_PROPERTY
VConf Rank
SciTegic.value.IntegerValue
137

@<SCITEGIC>MOL_PROPERTY
Conf_Id
SciTegic.value.IntegerValue
33

@<SCITEGIC>MOL_PROPERTY
Delta U+W
SciTegic.value.DoubleValue
-0.526

@<SCITEGIC>MOL_PROPERTY
U+W
SciTegic.value.DoubleValue
-55.418

@<SCITEGIC>MOL_PROPERTY
Grad RMS
SciTegic.value.DoubleValue
0.000000

@<SCITEGIC>MOL_PROPERTY
U
SciTegic.value.DoubleValue
6.914

@<SCITEGIC>MOL_PROPERTY
W
SciTegic.value.DoubleValue
-62.332

@<SCITEGIC>MOL_PROPERTY
W(PB)
SciTegic.value.DoubleValue
-64.421

@<SCITEGIC>MOL_PROPERTY
W(SA)
SciTegic.value.DoubleValue
2.090

@<SCITEGIC>MOL_PROPERTY
Valence
SciTegic.value.DoubleValue
7.196

@<SCITEGIC>MOL_PROPERTY
Coulomb
SciTegic.value.DoubleValue
-1.020

@<SCITEGIC>MOL_PROPERTY
VdW
SciTegic.value.DoubleValue
0.738

@<SCITEGIC>MOL_PROPERTY
VdW6
SciTegic.value.DoubleValue
-6.010

@<SCITEGIC>MOL_PROPERTY
VdW12
SciTegic.value.DoubleValue
6.748

@<SCITEGIC>MOL_PROPERTY
Bond
SciTegic.value.DoubleValue
0.126

@<SCITEGIC>MOL_PROPERTY
Angle
SciTegic.value.DoubleValue
2.499

@<SCITEGIC>MOL_PROPERTY
Pdih
SciTegic.value.DoubleValue
4.570

@<SCITEGIC>MOL_PROPERTY
Idih
SciTegic.value.DoubleValue
0.001

@<SCITEGIC>MOL_PROPERTY
Tether
SciTegic.value.DoubleValue
0.000

@<TRIPOS>MOLECULE
guest-7_confgen4.mol2 : confsearch ligand conformer 138
          19          18           1
SMALL
USER_CHARGES
 
@<TRIPOS>ATOM
       1    C1      17.937174   16.553735   22.875540 C.2        1 MOL1         0.6115
       2    O1      18.011880   16.263252   24.052935 O.co2      1 MOL1        -0.6776
       3    O2      16.908736   16.491809   22.231550 O.co2      1 MOL1        -0.6776
       4    C2      19.199475   17.039397   22.171813 C.3        1 MOL1        -0.2013
       5    H1      19.151904   16.715481   21.125155 H          1 MOL1         0.0727
       6    H2      20.059856   16.535417   22.628405 H          1 MOL1         0.0727
       7    C3      19.378588   18.575772   22.248685 C.3        1 MOL1        -0.1910
       8    H3      18.505382   19.065834   21.796370 H          1 MOL1         0.0729
       9    H4      19.404733   18.878110   23.303924 H          1 MOL1         0.0729
      10    C4      20.667042   19.039427   21.530652 C.3        1 MOL1        -0.1909
      11    H5      20.654555   18.666273   20.497408 H          1 MOL1         0.0729
      12    H6      21.543851   18.587518   22.014378 H          1 MOL1         0.0729
      13    C5      20.830963   20.576463   21.495463 C.3        1 MOL1        -0.1884
      14    H7      21.700292   20.824069   20.870801 H          1 MOL1         0.0729
      15    H8      19.958265   21.031823   21.007229 H          1 MOL1         0.0729
      16    C6      21.029313   21.201819   22.893117 C.3        1 MOL1        -0.2899
      17    H9      21.879573   20.741076   23.412668 H          1 MOL1         0.0741
      18    H10     21.228617   22.277847   22.807192 H          1 MOL1         0.0741
      19    H11     20.135792   21.078690   23.517779 H          1 MOL1         0.0741
@<TRIPOS>BOND
    1     1     2    1
    2     1     3    2
    3     1     4    1
    4     4     5    1
    5     4     6    1
    6     4     7    1
    7     7     8    1
    8     7     9    1
    9     7    10    1
   10    10    11    1
   11    10    12    1
   12    10    13    1
   13    13    14    1
   14    13    15    1
   15    13    16    1
   16    16    17    1
   17    16    18    1
   18    16    19    1
@<TRIPOS>SUBSTRUCTURE
       1 MOL1            1 RESIDUE      1      MOL     
@<SCITEGIC>MOL_PROPERTY
VConf Rank
SciTegic.value.IntegerValue
138

@<SCITEGIC>MOL_PROPERTY
Conf_Id
SciTegic.value.IntegerValue
42

@<SCITEGIC>MOL_PROPERTY
Delta U+W
SciTegic.value.DoubleValue
-0.344

@<SCITEGIC>MOL_PROPERTY
U+W
SciTegic.value.DoubleValue
-55.236

@<SCITEGIC>MOL_PROPERTY
Grad RMS
SciTegic.value.DoubleValue
0.000000

@<SCITEGIC>MOL_PROPERTY
U
SciTegic.value.DoubleValue
7.244

@<SCITEGIC>MOL_PROPERTY
W
SciTegic.value.DoubleValue
-62.479

@<SCITEGIC>MOL_PROPERTY
W(PB)
SciTegic.value.DoubleValue
-64.610

@<SCITEGIC>MOL_PROPERTY
W(SA)
SciTegic.value.DoubleValue
2.130

@<SCITEGIC>MOL_PROPERTY
Valence
SciTegic.value.DoubleValue
7.174

@<SCITEGIC>MOL_PROPERTY
Coulomb
SciTegic.value.DoubleValue
-0.669

@<SCITEGIC>MOL_PROPERTY
VdW
SciTegic.value.DoubleValue
0.739

@<SCITEGIC>MOL_PROPERTY
VdW6
SciTegic.value.DoubleValue
-5.969

@<SCITEGIC>MOL_PROPERTY
VdW12
SciTegic.value.DoubleValue
6.708

@<SCITEGIC>MOL_PROPERTY
Bond
SciTegic.value.DoubleValue
0.116

@<SCITEGIC>MOL_PROPERTY
Angle
SciTegic.value.DoubleValue
2.481

@<SCITEGIC>MOL_PROPERTY
Pdih
SciTegic.value.DoubleValue
4.576

@<SCITEGIC>MOL_PROPERTY
Idih
SciTegic.value.DoubleValue
0.000

@<SCITEGIC>MOL_PROPERTY
Tether
SciTegic.value.DoubleValue
0.000

@<TRIPOS>MOLECULE
guest-7_confgen4.mol2 : confsearch ligand conformer 139
          19          18           1
SMALL
USER_CHARGES
 
@<TRIPOS>ATOM
       1    C1      17.806069   17.935718   24.224678 C.2        1 MOL1         0.6115
       2    O1      18.316761   17.405665   25.191352 O.co2      1 MOL1        -0.6776
       3    O2      16.755722   17.571335   23.734533 O.co2      1 MOL1        -0.6776
       4    C2      18.532174   19.111229   23.580128 C.3        1 MOL1        -0.2013
       5    H1      19.069741   19.653253   24.367503 H          1 MOL1         0.0727
       6    H2      17.778055   19.795225   23.172535 H          1 MOL1         0.0727
       7    C3      19.515618   18.674187   22.466451 C.3        1 MOL1        -0.1910
       8    H3      20.248423   17.976663   22.893157 H          1 MOL1         0.0729
       9    H4      18.964319   18.125051   21.690720 H          1 MOL1         0.0729
      10    C4      20.239815   19.884821   21.833550 C.3        1 MOL1        -0.1909
      11    H5      20.830528   20.405259   22.599845 H          1 MOL1         0.0729
      12    H6      19.489569   20.603881   21.477074 H          1 MOL1         0.0729
      13    C5      21.154701   19.501490   20.647536 C.3        1 MOL1        -0.1884
      14    H7      20.566181   18.985552   19.876316 H          1 MOL1         0.0729
      15    H8      21.534834   20.422110   20.183637 H          1 MOL1         0.0729
      16    C6      22.354217   18.621600   21.060825 C.3        1 MOL1        -0.2899
      17    H9      22.024897   17.640606   21.425441 H          1 MOL1         0.0741
      18    H10     23.018457   18.451328   20.203659 H          1 MOL1         0.0741
      19    H11     22.941434   19.104582   21.852697 H          1 MOL1         0.0741
@<TRIPOS>BOND
    1     1     2    1
    2     1     3    2
    3     1     4    1
    4     4     5    1
    5     4     6    1
    6     4     7    1
    7     7     8    1
    8     7     9    1
    9     7    10    1
   10    10    11    1
   11    10    12    1
   12    10    13    1
   13    13    14    1
   14    13    15    1
   15    13    16    1
   16    16    17    1
   17    16    18    1
   18    16    19    1
@<TRIPOS>SUBSTRUCTURE
       1 MOL1            1 RESIDUE      1      MOL     
@<SCITEGIC>MOL_PROPERTY
VConf Rank
SciTegic.value.IntegerValue
139

@<SCITEGIC>MOL_PROPERTY
Conf_Id
SciTegic.value.IntegerValue
41

@<SCITEGIC>MOL_PROPERTY
Delta U+W
SciTegic.value.DoubleValue
-0.361

@<SCITEGIC>MOL_PROPERTY
U+W
SciTegic.value.DoubleValue
-55.252

@<SCITEGIC>MOL_PROPERTY
Grad RMS
SciTegic.value.DoubleValue
0.000000

@<SCITEGIC>MOL_PROPERTY
U
SciTegic.value.DoubleValue
7.244

@<SCITEGIC>MOL_PROPERTY
W
SciTegic.value.DoubleValue
-62.496

@<SCITEGIC>MOL_PROPERTY
W(PB)
SciTegic.value.DoubleValue
-64.596

@<SCITEGIC>MOL_PROPERTY
W(SA)
SciTegic.value.DoubleValue
2.099

@<SCITEGIC>MOL_PROPERTY
Valence
SciTegic.value.DoubleValue
7.174

@<SCITEGIC>MOL_PROPERTY
Coulomb
SciTegic.value.DoubleValue
-0.669

@<SCITEGIC>MOL_PROPERTY
VdW
SciTegic.value.DoubleValue
0.739

@<SCITEGIC>MOL_PROPERTY
VdW6
SciTegic.value.DoubleValue
-5.969

@<SCITEGIC>MOL_PROPERTY
VdW12
SciTegic.value.DoubleValue
6.708

@<SCITEGIC>MOL_PROPERTY
Bond
SciTegic.value.DoubleValue
0.116

@<SCITEGIC>MOL_PROPERTY
Angle
SciTegic.value.DoubleValue
2.481

@<SCITEGIC>MOL_PROPERTY
Pdih
SciTegic.value.DoubleValue
4.576

@<SCITEGIC>MOL_PROPERTY
Idih
SciTegic.value.DoubleValue
0.000

@<SCITEGIC>MOL_PROPERTY
Tether
SciTegic.value.DoubleValue
0.000

@<TRIPOS>MOLECULE
guest-7_confgen4.mol2 : confsearch ligand conformer 140
          19          18           1
SMALL
USER_CHARGES
 
@<TRIPOS>ATOM
       1    C1      19.246928   17.466915   19.982944 C.2        1 MOL1         0.6115
       2    O1      19.611366   18.255265   19.133098 O.co2      1 MOL1        -0.6776
       3    O2      19.606005   16.306620   20.021172 O.co2      1 MOL1        -0.6776
       4    C2      18.267788   17.952315   21.048314 C.3        1 MOL1        -0.2013
       5    H1      17.476790   17.198021   21.134767 H          1 MOL1         0.0727
       6    H2      17.790441   18.873282   20.692017 H          1 MOL1         0.0727
       7    C3      18.913003   18.187348   22.438835 C.3        1 MOL1        -0.1910
       8    H3      18.119563   18.397208   23.168866 H          1 MOL1         0.0729
       9    H4      19.411238   17.265310   22.769349 H          1 MOL1         0.0729
      10    C4      19.923719   19.356002   22.435116 C.3        1 MOL1        -0.1909
      11    H5      19.424244   20.272288   22.091641 H          1 MOL1         0.0729
      12    H6      20.730315   19.145725   21.719149 H          1 MOL1         0.0729
      13    C5      20.529184   19.592013   23.834514 C.3        1 MOL1        -0.1884
      14    H7      19.727182   19.807019   24.554232 H          1 MOL1         0.0729
      15    H8      21.031579   18.677658   24.179520 H          1 MOL1         0.0729
      16    C6      21.537093   20.758651   23.827528 C.3        1 MOL1        -0.2899
      17    H9      21.053337   21.693674   23.515891 H          1 MOL1         0.0741
      18    H10     21.958017   20.912305   24.829676 H          1 MOL1         0.0741
      19    H11     22.367429   20.555987   23.138389 H          1 MOL1         0.0741
@<TRIPOS>BOND
    1     1     2    1
    2     1     3    2
    3     1     4    1
    4     4     5    1
    5     4     6    1
    6     4     7    1
    7     7     8    1
    8     7     9    1
    9     7    10    1
   10    10    11    1
   11    10    12    1
   12    10    13    1
   13    13    14    1
   14    13    15    1
   15    13    16    1
   16    16    17    1
   17    16    18    1
   18    16    19    1
@<TRIPOS>SUBSTRUCTURE
       1 MOL1            1 RESIDUE      1      MOL     
@<SCITEGIC>MOL_PROPERTY
VConf Rank
SciTegic.value.IntegerValue
140

@<SCITEGIC>MOL_PROPERTY
Conf_Id
SciTegic.value.IntegerValue
36

@<SCITEGIC>MOL_PROPERTY
Delta U+W
SciTegic.value.DoubleValue
-0.079

@<SCITEGIC>MOL_PROPERTY
U+W
SciTegic.value.DoubleValue
-54.971

@<SCITEGIC>MOL_PROPERTY
Grad RMS
SciTegic.value.DoubleValue
0.000000

@<SCITEGIC>MOL_PROPERTY
U
SciTegic.value.DoubleValue
8.266

@<SCITEGIC>MOL_PROPERTY
W
SciTegic.value.DoubleValue
-63.237

@<SCITEGIC>MOL_PROPERTY
W(PB)
SciTegic.value.DoubleValue
-65.340

@<SCITEGIC>MOL_PROPERTY
W(SA)
SciTegic.value.DoubleValue
2.103

@<SCITEGIC>MOL_PROPERTY
Valence
SciTegic.value.DoubleValue
6.935

@<SCITEGIC>MOL_PROPERTY
Coulomb
SciTegic.value.DoubleValue
0.874

@<SCITEGIC>MOL_PROPERTY
VdW
SciTegic.value.DoubleValue
0.457

@<SCITEGIC>MOL_PROPERTY
VdW6
SciTegic.value.DoubleValue
-6.205

@<SCITEGIC>MOL_PROPERTY
VdW12
SciTegic.value.DoubleValue
6.662

@<SCITEGIC>MOL_PROPERTY
Bond
SciTegic.value.DoubleValue
0.107

@<SCITEGIC>MOL_PROPERTY
Angle
SciTegic.value.DoubleValue
2.420

@<SCITEGIC>MOL_PROPERTY
Pdih
SciTegic.value.DoubleValue
4.407

@<SCITEGIC>MOL_PROPERTY
Idih
SciTegic.value.DoubleValue
0.001

@<SCITEGIC>MOL_PROPERTY
Tether
SciTegic.value.DoubleValue
0.000

@<TRIPOS>MOLECULE
guest-7_confgen4.mol2 : confsearch ligand conformer 141
          19          18           1
SMALL
USER_CHARGES
 
@<TRIPOS>ATOM
       1    C1      19.568443   19.291360   19.556720 C.2        1 MOL1         0.6115
       2    O1      20.655820   19.665095   19.163675 O.co2      1 MOL1        -0.6776
       3    O2      18.530256   19.875696   19.317137 O.co2      1 MOL1        -0.6776
       4    C2      19.497881   18.006861   20.377957 C.3        1 MOL1        -0.2013
       5    H1      20.422103   17.438068   20.218976 H          1 MOL1         0.0727
       6    H2      18.679116   17.401917   19.970802 H          1 MOL1         0.0727
       7    C3      19.266039   18.238421   21.893781 C.3        1 MOL1        -0.1910
       8    H3      18.352989   18.833292   22.035557 H          1 MOL1         0.0729
       9    H4      19.090494   17.269000   22.379520 H          1 MOL1         0.0729
      10    C4      20.460228   18.941575   22.577006 C.3        1 MOL1        -0.1909
      11    H5      20.631636   19.920218   22.107646 H          1 MOL1         0.0729
      12    H6      21.372726   18.349842   22.421349 H          1 MOL1         0.0729
      13    C5      20.221287   19.133219   24.089218 C.3        1 MOL1        -0.1884
      14    H7      19.310309   19.726902   24.247755 H          1 MOL1         0.0729
      15    H8      20.053398   18.157008   24.564883 H          1 MOL1         0.0729
      16    C6      21.414508   19.835001   24.767970 C.3        1 MOL1        -0.2899
      17    H9      21.585551   20.828124   24.332204 H          1 MOL1         0.0741
      18    H10     21.227796   19.963625   25.842065 H          1 MOL1         0.0741
      19    H11     22.334107   19.246590   24.651708 H          1 MOL1         0.0741
@<TRIPOS>BOND
    1     1     2    1
    2     1     3    2
    3     1     4    1
    4     4     5    1
    5     4     6    1
    6     4     7    1
    7     7     8    1
    8     7     9    1
    9     7    10    1
   10    10    11    1
   11    10    12    1
   12    10    13    1
   13    13    14    1
   14    13    15    1
   15    13    16    1
   16    16    17    1
   17    16    18    1
   18    16    19    1
@<TRIPOS>SUBSTRUCTURE
       1 MOL1            1 RESIDUE      1      MOL     
@<SCITEGIC>MOL_PROPERTY
VConf Rank
SciTegic.value.IntegerValue
141

@<SCITEGIC>MOL_PROPERTY
Conf_Id
SciTegic.value.IntegerValue
35

@<SCITEGIC>MOL_PROPERTY
Delta U+W
SciTegic.value.DoubleValue
-0.030

@<SCITEGIC>MOL_PROPERTY
U+W
SciTegic.value.DoubleValue
-54.921

@<SCITEGIC>MOL_PROPERTY
Grad RMS
SciTegic.value.DoubleValue
0.000000

@<SCITEGIC>MOL_PROPERTY
U
SciTegic.value.DoubleValue
8.267

@<SCITEGIC>MOL_PROPERTY
W
SciTegic.value.DoubleValue
-63.188

@<SCITEGIC>MOL_PROPERTY
W(PB)
SciTegic.value.DoubleValue
-65.294

@<SCITEGIC>MOL_PROPERTY
W(SA)
SciTegic.value.DoubleValue
2.106

@<SCITEGIC>MOL_PROPERTY
Valence
SciTegic.value.DoubleValue
6.935

@<SCITEGIC>MOL_PROPERTY
Coulomb
SciTegic.value.DoubleValue
0.875

@<SCITEGIC>MOL_PROPERTY
VdW
SciTegic.value.DoubleValue
0.457

@<SCITEGIC>MOL_PROPERTY
VdW6
SciTegic.value.DoubleValue
-6.205

@<SCITEGIC>MOL_PROPERTY
VdW12
SciTegic.value.DoubleValue
6.662

@<SCITEGIC>MOL_PROPERTY
Bond
SciTegic.value.DoubleValue
0.107

@<SCITEGIC>MOL_PROPERTY
Angle
SciTegic.value.DoubleValue
2.420

@<SCITEGIC>MOL_PROPERTY
Pdih
SciTegic.value.DoubleValue
4.407

@<SCITEGIC>MOL_PROPERTY
Idih
SciTegic.value.DoubleValue
0.001

@<SCITEGIC>MOL_PROPERTY
Tether
SciTegic.value.DoubleValue
0.000

@<TRIPOS>MOLECULE
guest-7_confgen4.mol2 : confsearch ligand conformer 142
          19          18           1
SMALL
USER_CHARGES
 
@<TRIPOS>ATOM
       1    C1      17.552640   20.343271   22.476580 C.2        1 MOL1         0.6115
       2    O1      16.675182   19.867660   21.783350 O.co2      1 MOL1        -0.6776
       3    O2      17.823104   21.527753   22.498888 O.co2      1 MOL1        -0.6776
       4    C2      18.341946   19.403301   23.383737 C.3        1 MOL1        -0.2013
       5    H1      17.618860   18.750729   23.887115 H          1 MOL1         0.0727
       6    H2      18.830308   19.997999   24.165271 H          1 MOL1         0.0727
       7    C3      19.389742   18.535881   22.638467 C.3        1 MOL1        -0.1910
       8    H3      19.789991   17.793559   23.340684 H          1 MOL1         0.0729
       9    H4      18.892910   17.976398   21.833814 H          1 MOL1         0.0729
      10    C4      20.549551   19.377171   22.053866 C.3        1 MOL1        -0.1909
      11    H5      21.069087   19.905701   22.864764 H          1 MOL1         0.0729
      12    H6      20.136323   20.152341   21.394033 H          1 MOL1         0.0729
      13    C5      21.567932   18.540874   21.244955 C.3        1 MOL1        -0.1884
      14    H7      21.051412   18.012607   20.431658 H          1 MOL1         0.0729
      15    H8      22.282947   19.224034   20.766136 H          1 MOL1         0.0729
      16    C6      22.351124   17.527973   22.107893 C.3        1 MOL1        -0.2899
      17    H9      21.690610   16.751837   22.514042 H          1 MOL1         0.0741
      18    H10     23.121244   17.027076   21.507099 H          1 MOL1         0.0741
      19    H11     22.850513   18.029888   22.946844 H          1 MOL1         0.0741
@<TRIPOS>BOND
    1     1     2    1
    2     1     3    2
    3     1     4    1
    4     4     5    1
    5     4     6    1
    6     4     7    1
    7     7     8    1
    8     7     9    1
    9     7    10    1
   10    10    11    1
   11    10    12    1
   12    10    13    1
   13    13    14    1
   14    13    15    1
   15    13    16    1
   16    16    17    1
   17    16    18    1
   18    16    19    1
@<TRIPOS>SUBSTRUCTURE
       1 MOL1            1 RESIDUE      1      MOL     
@<SCITEGIC>MOL_PROPERTY
VConf Rank
SciTegic.value.IntegerValue
142

@<SCITEGIC>MOL_PROPERTY
Conf_Id
SciTegic.value.IntegerValue
74

@<SCITEGIC>MOL_PROPERTY
Delta U+W
SciTegic.value.DoubleValue
0.797

@<SCITEGIC>MOL_PROPERTY
U+W
SciTegic.value.DoubleValue
-54.095

@<SCITEGIC>MOL_PROPERTY
Grad RMS
SciTegic.value.DoubleValue
0.000000

@<SCITEGIC>MOL_PROPERTY
U
SciTegic.value.DoubleValue
8.869

@<SCITEGIC>MOL_PROPERTY
W
SciTegic.value.DoubleValue
-62.964

@<SCITEGIC>MOL_PROPERTY
W(PB)
SciTegic.value.DoubleValue
-65.046

@<SCITEGIC>MOL_PROPERTY
W(SA)
SciTegic.value.DoubleValue
2.082

@<SCITEGIC>MOL_PROPERTY
Valence
SciTegic.value.DoubleValue
7.469

@<SCITEGIC>MOL_PROPERTY
Coulomb
SciTegic.value.DoubleValue
0.762

@<SCITEGIC>MOL_PROPERTY
VdW
SciTegic.value.DoubleValue
0.639

@<SCITEGIC>MOL_PROPERTY
VdW6
SciTegic.value.DoubleValue
-6.782

@<SCITEGIC>MOL_PROPERTY
VdW12
SciTegic.value.DoubleValue
7.421

@<SCITEGIC>MOL_PROPERTY
Bond
SciTegic.value.DoubleValue
0.141

@<SCITEGIC>MOL_PROPERTY
Angle
SciTegic.value.DoubleValue
2.667

@<SCITEGIC>MOL_PROPERTY
Pdih
SciTegic.value.DoubleValue
4.660

@<SCITEGIC>MOL_PROPERTY
Idih
SciTegic.value.DoubleValue
0.001

@<SCITEGIC>MOL_PROPERTY
Tether
SciTegic.value.DoubleValue
0.000

@<TRIPOS>MOLECULE
guest-7_confgen4.mol2 : confsearch ligand conformer 143
          19          18           1
SMALL
USER_CHARGES
 
@<TRIPOS>ATOM
       1    C1      18.583024   21.407505   23.004948 C.2        1 MOL1         0.6115
       2    O1      19.007547   22.395019   23.571533 O.co2      1 MOL1        -0.6776
       3    O2      17.608589   21.415889   22.279188 O.co2      1 MOL1        -0.6776
       4    C2      19.325065   20.090229   23.200852 C.3        1 MOL1        -0.2013
       5    H1      18.587323   19.281189   23.152368 H          1 MOL1         0.0727
       6    H2      19.749303   20.084787   24.211964 H          1 MOL1         0.0727
       7    C3      20.443846   19.869020   22.150146 C.3        1 MOL1        -0.1910
       8    H3      20.002803   19.838110   21.145007 H          1 MOL1         0.0729
       9    H4      21.114376   20.739351   22.160799 H          1 MOL1         0.0729
      10    C4      21.287245   18.594007   22.402632 C.3        1 MOL1        -0.1909
      11    H5      21.800424   18.692525   23.368933 H          1 MOL1         0.0729
      12    H6      22.079058   18.539036   21.643165 H          1 MOL1         0.0729
      13    C5      20.492745   17.264874   22.394031 C.3        1 MOL1        -0.1884
      14    H7      21.189383   16.439979   22.597316 H          1 MOL1         0.0729
      15    H8      19.762747   17.253994   23.214150 H          1 MOL1         0.0729
      16    C6      19.775438   16.989956   21.054894 C.3        1 MOL1        -0.2899
      17    H9      20.483657   17.018731   20.216665 H          1 MOL1         0.0741
      18    H10     19.305442   15.998107   21.067362 H          1 MOL1         0.0741
      19    H11     18.986771   17.729258   20.865940 H          1 MOL1         0.0741
@<TRIPOS>BOND
    1     1     2    1
    2     1     3    2
    3     1     4    1
    4     4     5    1
    5     4     6    1
    6     4     7    1
    7     7     8    1
    8     7     9    1
    9     7    10    1
   10    10    11    1
   11    10    12    1
   12    10    13    1
   13    13    14    1
   14    13    15    1
   15    13    16    1
   16    16    17    1
   17    16    18    1
   18    16    19    1
@<TRIPOS>SUBSTRUCTURE
       1 MOL1            1 RESIDUE      1      MOL     
@<SCITEGIC>MOL_PROPERTY
VConf Rank
SciTegic.value.IntegerValue
143

@<SCITEGIC>MOL_PROPERTY
Conf_Id
SciTegic.value.IntegerValue
67

@<SCITEGIC>MOL_PROPERTY
Delta U+W
SciTegic.value.DoubleValue
0.308

@<SCITEGIC>MOL_PROPERTY
U+W
SciTegic.value.DoubleValue
-54.583

@<SCITEGIC>MOL_PROPERTY
Grad RMS
SciTegic.value.DoubleValue
0.000000

@<SCITEGIC>MOL_PROPERTY
U
SciTegic.value.DoubleValue
8.219

@<SCITEGIC>MOL_PROPERTY
W
SciTegic.value.DoubleValue
-62.802

@<SCITEGIC>MOL_PROPERTY
W(PB)
SciTegic.value.DoubleValue
-64.859

@<SCITEGIC>MOL_PROPERTY
W(SA)
SciTegic.value.DoubleValue
2.057

@<SCITEGIC>MOL_PROPERTY
Valence
SciTegic.value.DoubleValue
7.609

@<SCITEGIC>MOL_PROPERTY
Coulomb
SciTegic.value.DoubleValue
-0.089

@<SCITEGIC>MOL_PROPERTY
VdW
SciTegic.value.DoubleValue
0.699

@<SCITEGIC>MOL_PROPERTY
VdW6
SciTegic.value.DoubleValue
-6.924

@<SCITEGIC>MOL_PROPERTY
VdW12
SciTegic.value.DoubleValue
7.623

@<SCITEGIC>MOL_PROPERTY
Bond
SciTegic.value.DoubleValue
0.163

@<SCITEGIC>MOL_PROPERTY
Angle
SciTegic.value.DoubleValue
2.870

@<SCITEGIC>MOL_PROPERTY
Pdih
SciTegic.value.DoubleValue
4.576

@<SCITEGIC>MOL_PROPERTY
Idih
SciTegic.value.DoubleValue
0.001

@<SCITEGIC>MOL_PROPERTY
Tether
SciTegic.value.DoubleValue
0.000

@<TRIPOS>MOLECULE
guest-7_confgen4.mol2 : confsearch ligand conformer 144
          19          18           1
SMALL
USER_CHARGES
 
@<TRIPOS>ATOM
       1    C1      17.209780   18.665525   21.389282 C.2        1 MOL1         0.6115
       2    O1      16.770203   18.648288   20.256632 O.co2      1 MOL1        -0.6776
       3    O2      16.548385   18.969009   22.362306 O.co2      1 MOL1        -0.6776
       4    C2      18.676423   18.305463   21.597924 C.3        1 MOL1        -0.2013
       5    H1      18.956733   17.563920   20.840364 H          1 MOL1         0.0727
       6    H2      18.765112   17.820995   22.576998 H          1 MOL1         0.0727
       7    C3      19.615053   19.536936   21.514060 C.3        1 MOL1        -0.1910
       8    H3      19.436205   20.052039   20.560183 H          1 MOL1         0.0729
       9    H4      19.349757   20.255207   22.301132 H          1 MOL1         0.0729
      10    C4      21.119220   19.176481   21.605041 C.3        1 MOL1        -0.1909
      11    H5      21.709474   20.096172   21.493017 H          1 MOL1         0.0729
      12    H6      21.384813   18.539862   20.750073 H          1 MOL1         0.0729
      13    C5      21.548838   18.462235   22.910101 C.3        1 MOL1        -0.1884
      14    H7      21.048174   17.488465   22.992063 H          1 MOL1         0.0729
      15    H8      22.624504   18.246145   22.852403 H          1 MOL1         0.0729
      16    C6      21.277629   19.295668   24.181019 C.3        1 MOL1        -0.2899
      17    H9      20.201554   19.438599   24.341957 H          1 MOL1         0.0741
      18    H10     21.681862   18.788486   25.066557 H          1 MOL1         0.0741
      19    H11     21.750544   20.283851   24.111196 H          1 MOL1         0.0741
@<TRIPOS>BOND
    1     1     2    1
    2     1     3    2
    3     1     4    1
    4     4     5    1
    5     4     6    1
    6     4     7    1
    7     7     8    1
    8     7     9    1
    9     7    10    1
   10    10    11    1
   11    10    12    1
   12    10    13    1
   13    13    14    1
   14    13    15    1
   15    13    16    1
   16    16    17    1
   17    16    18    1
   18    16    19    1
@<TRIPOS>SUBSTRUCTURE
       1 MOL1            1 RESIDUE      1      MOL     
@<SCITEGIC>MOL_PROPERTY
VConf Rank
SciTegic.value.IntegerValue
144

@<SCITEGIC>MOL_PROPERTY
Conf_Id
SciTegic.value.IntegerValue
21

@<SCITEGIC>MOL_PROPERTY
Delta U+W
SciTegic.value.DoubleValue
0.319

@<SCITEGIC>MOL_PROPERTY
U+W
SciTegic.value.DoubleValue
-54.572

@<SCITEGIC>MOL_PROPERTY
Grad RMS
SciTegic.value.DoubleValue
0.000000

@<SCITEGIC>MOL_PROPERTY
U
SciTegic.value.DoubleValue
8.220

@<SCITEGIC>MOL_PROPERTY
W
SciTegic.value.DoubleValue
-62.792

@<SCITEGIC>MOL_PROPERTY
W(PB)
SciTegic.value.DoubleValue
-64.830

@<SCITEGIC>MOL_PROPERTY
W(SA)
SciTegic.value.DoubleValue
2.038

@<SCITEGIC>MOL_PROPERTY
Valence
SciTegic.value.DoubleValue
7.609

@<SCITEGIC>MOL_PROPERTY
Coulomb
SciTegic.value.DoubleValue
-0.088

@<SCITEGIC>MOL_PROPERTY
VdW
SciTegic.value.DoubleValue
0.699

@<SCITEGIC>MOL_PROPERTY
VdW6
SciTegic.value.DoubleValue
-6.924

@<SCITEGIC>MOL_PROPERTY
VdW12
SciTegic.value.DoubleValue
7.623

@<SCITEGIC>MOL_PROPERTY
Bond
SciTegic.value.DoubleValue
0.163

@<SCITEGIC>MOL_PROPERTY
Angle
SciTegic.value.DoubleValue
2.870

@<SCITEGIC>MOL_PROPERTY
Pdih
SciTegic.value.DoubleValue
4.576

@<SCITEGIC>MOL_PROPERTY
Idih
SciTegic.value.DoubleValue
0.000

@<SCITEGIC>MOL_PROPERTY
Tether
SciTegic.value.DoubleValue
0.000

@<TRIPOS>MOLECULE
guest-7_confgen4.mol2 : confsearch ligand conformer 145
          19          18           1
SMALL
USER_CHARGES
 
@<TRIPOS>ATOM
       1    C1      22.744500   19.772886   22.145026 C.2        1 MOL1         0.6115
       2    O1      23.774513   19.142612   22.280180 O.co2      1 MOL1        -0.6776
       3    O2      22.671273   20.816630   21.527378 O.co2      1 MOL1        -0.6776
       4    C2      21.471093   19.213523   22.769229 C.3        1 MOL1        -0.2013
       5    H1      20.841121   20.059278   23.061902 H          1 MOL1         0.0727
       6    H2      21.748719   18.688474   23.690984 H          1 MOL1         0.0727
       7    C3      20.708662   18.252130   21.819484 C.3        1 MOL1        -0.1910
       8    H3      20.480691   18.758738   20.871507 H          1 MOL1         0.0729
       9    H4      21.382530   17.421484   21.567841 H          1 MOL1         0.0729
      10    C4      19.414175   17.669111   22.441044 C.3        1 MOL1        -0.1909
      11    H5      19.516374   17.592852   23.532207 H          1 MOL1         0.0729
      12    H6      19.296221   16.638401   22.079523 H          1 MOL1         0.0729
      13    C5      18.120125   18.439332   22.080345 C.3        1 MOL1        -0.1884
      14    H7      17.979660   18.433330   20.990624 H          1 MOL1         0.0729
      15    H8      17.263029   17.897474   22.503394 H          1 MOL1         0.0729
      16    C6      18.085884   19.894115   22.592328 C.3        1 MOL1        -0.2899
      17    H9      17.096989   20.338125   22.419830 H          1 MOL1         0.0741
      18    H10     18.294006   19.938350   23.669225 H          1 MOL1         0.0741
      19    H11     18.822309   20.515433   22.067506 H          1 MOL1         0.0741
@<TRIPOS>BOND
    1     1     2    1
    2     1     3    2
    3     1     4    1
    4     4     5    1
    5     4     6    1
    6     4     7    1
    7     7     8    1
    8     7     9    1
    9     7    10    1
   10    10    11    1
   11    10    12    1
   12    10    13    1
   13    13    14    1
   14    13    15    1
   15    13    16    1
   16    16    17    1
   17    16    18    1
   18    16    19    1
@<TRIPOS>SUBSTRUCTURE
       1 MOL1            1 RESIDUE      1      MOL     
@<SCITEGIC>MOL_PROPERTY
VConf Rank
SciTegic.value.IntegerValue
145

@<SCITEGIC>MOL_PROPERTY
Conf_Id
SciTegic.value.IntegerValue
24

@<SCITEGIC>MOL_PROPERTY
Delta U+W
SciTegic.value.DoubleValue
2.477

@<SCITEGIC>MOL_PROPERTY
U+W
SciTegic.value.DoubleValue
-52.414

@<SCITEGIC>MOL_PROPERTY
Grad RMS
SciTegic.value.DoubleValue
0.000000

@<SCITEGIC>MOL_PROPERTY
U
SciTegic.value.DoubleValue
10.422

@<SCITEGIC>MOL_PROPERTY
W
SciTegic.value.DoubleValue
-62.836

@<SCITEGIC>MOL_PROPERTY
W(PB)
SciTegic.value.DoubleValue
-64.906

@<SCITEGIC>MOL_PROPERTY
W(SA)
SciTegic.value.DoubleValue
2.070

@<SCITEGIC>MOL_PROPERTY
Valence
SciTegic.value.DoubleValue
9.628

@<SCITEGIC>MOL_PROPERTY
Coulomb
SciTegic.value.DoubleValue
0.101

@<SCITEGIC>MOL_PROPERTY
VdW
SciTegic.value.DoubleValue
0.693

@<SCITEGIC>MOL_PROPERTY
VdW6
SciTegic.value.DoubleValue
-6.927

@<SCITEGIC>MOL_PROPERTY
VdW12
SciTegic.value.DoubleValue
7.620

@<SCITEGIC>MOL_PROPERTY
Bond
SciTegic.value.DoubleValue
0.173

@<SCITEGIC>MOL_PROPERTY
Angle
SciTegic.value.DoubleValue
2.989

@<SCITEGIC>MOL_PROPERTY
Pdih
SciTegic.value.DoubleValue
6.465

@<SCITEGIC>MOL_PROPERTY
Idih
SciTegic.value.DoubleValue
0.001

@<SCITEGIC>MOL_PROPERTY
Tether
SciTegic.value.DoubleValue
0.000

@<TRIPOS>MOLECULE
guest-7_confgen4.mol2 : confsearch ligand conformer 146
          19          18           1
SMALL
USER_CHARGES
 
@<TRIPOS>ATOM
       1    C1      18.393916   16.991142   23.042657 C.2        1 MOL1         0.6115
       2    O1      19.279407   16.349042   23.572093 O.co2      1 MOL1        -0.6776
       3    O2      17.227196   16.927104   23.376929 O.co2      1 MOL1        -0.6776
       4    C2      18.758797   17.905864   21.876305 C.3        1 MOL1        -0.2013
       5    H1      18.049590   17.696739   21.066954 H          1 MOL1         0.0727
       6    H2      19.748472   17.617619   21.507943 H          1 MOL1         0.0727
       7    C3      18.710793   19.420063   22.222479 C.3        1 MOL1        -0.1910
       8    H3      18.779658   20.014561   21.301576 H          1 MOL1         0.0729
       9    H4      17.722601   19.639437   22.650130 H          1 MOL1         0.0729
      10    C4      19.801821   19.878555   23.224936 C.3        1 MOL1        -0.1909
      11    H5      20.067196   19.059014   23.906651 H          1 MOL1         0.0729
      12    H6      19.372186   20.665725   23.859412 H          1 MOL1         0.0729
      13    C5      21.080173   20.455765   22.568773 C.3        1 MOL1        -0.1884
      14    H7      20.818818   21.331347   21.958647 H          1 MOL1         0.0729
      15    H8      21.744057   20.822384   23.363759 H          1 MOL1         0.0729
      16    C6      21.858461   19.442598   21.704298 C.3        1 MOL1        -0.2899
      17    H9      21.294277   19.177250   20.801723 H          1 MOL1         0.0741
      18    H10     22.816714   19.869568   21.381458 H          1 MOL1         0.0741
      19    H11     22.068673   18.524083   22.267881 H          1 MOL1         0.0741
@<TRIPOS>BOND
    1     1     2    1
    2     1     3    2
    3     1     4    1
    4     4     5    1
    5     4     6    1
    6     4     7    1
    7     7     8    1
    8     7     9    1
    9     7    10    1
   10    10    11    1
   11    10    12    1
   12    10    13    1
   13    13    14    1
   14    13    15    1
   15    13    16    1
   16    16    17    1
   17    16    18    1
   18    16    19    1
@<TRIPOS>SUBSTRUCTURE
       1 MOL1            1 RESIDUE      1      MOL     
@<SCITEGIC>MOL_PROPERTY
VConf Rank
SciTegic.value.IntegerValue
146

@<SCITEGIC>MOL_PROPERTY
Conf_Id
SciTegic.value.IntegerValue
4

@<SCITEGIC>MOL_PROPERTY
Delta U+W
SciTegic.value.DoubleValue
3.753

@<SCITEGIC>MOL_PROPERTY
U+W
SciTegic.value.DoubleValue
-51.138

@<SCITEGIC>MOL_PROPERTY
Grad RMS
SciTegic.value.DoubleValue
0.000000

@<SCITEGIC>MOL_PROPERTY
U
SciTegic.value.DoubleValue
12.334

@<SCITEGIC>MOL_PROPERTY
W
SciTegic.value.DoubleValue
-63.472

@<SCITEGIC>MOL_PROPERTY
W(PB)
SciTegic.value.DoubleValue
-65.500

@<SCITEGIC>MOL_PROPERTY
W(SA)
SciTegic.value.DoubleValue
2.028

@<SCITEGIC>MOL_PROPERTY
Valence
SciTegic.value.DoubleValue
9.984

@<SCITEGIC>MOL_PROPERTY
Coulomb
SciTegic.value.DoubleValue
1.767

@<SCITEGIC>MOL_PROPERTY
VdW
SciTegic.value.DoubleValue
0.583

@<SCITEGIC>MOL_PROPERTY
VdW6
SciTegic.value.DoubleValue
-7.767

@<SCITEGIC>MOL_PROPERTY
VdW12
SciTegic.value.DoubleValue
8.349

@<SCITEGIC>MOL_PROPERTY
Bond
SciTegic.value.DoubleValue
0.203

@<SCITEGIC>MOL_PROPERTY
Angle
SciTegic.value.DoubleValue
3.191

@<SCITEGIC>MOL_PROPERTY
Pdih
SciTegic.value.DoubleValue
6.589

@<SCITEGIC>MOL_PROPERTY
Idih
SciTegic.value.DoubleValue
0.001

@<SCITEGIC>MOL_PROPERTY
Tether
SciTegic.value.DoubleValue
0.000

@<TRIPOS>MOLECULE
guest-7_confgen4.mol2 : confsearch ligand conformer 147
          19          18           1
SMALL
USER_CHARGES
 
@<TRIPOS>ATOM
       1    C1      22.236951   19.919466   23.047503 C.2        1 MOL1         0.6115
       2    O1      23.038727   19.600195   23.903245 O.co2      1 MOL1        -0.6776
       3    O2      22.552865   20.240442   21.918846 O.co2      1 MOL1        -0.6776
       4    C2      20.757345   19.945725   23.422079 C.3        1 MOL1        -0.2013
       5    H1      20.221968   20.537663   22.672940 H          1 MOL1         0.0727
       6    H2      20.673217   20.489410   24.370280 H          1 MOL1         0.0727
       7    C3      20.120900   18.536839   23.579929 C.3        1 MOL1        -0.1910
       8    H3      20.735212   17.964220   24.288634 H          1 MOL1         0.0729
       9    H4      19.129482   18.626368   24.043942 H          1 MOL1         0.0729
      10    C4      20.009397   17.736941   22.255843 C.3        1 MOL1        -0.1909
      11    H5      20.167919   16.674430   22.485461 H          1 MOL1         0.0729
      12    H6      20.818924   18.016414   21.567828 H          1 MOL1         0.0729
      13    C5      18.641413   17.859375   21.540628 C.3        1 MOL1        -0.1884
      14    H7      18.644802   17.193120   20.666988 H          1 MOL1         0.0729
      15    H8      17.844597   17.493629   22.202833 H          1 MOL1         0.0729
      16    C6      18.300952   19.288383   21.069905 C.3        1 MOL1        -0.2899
      17    H9      19.115923   19.708336   20.465796 H          1 MOL1         0.0741
      18    H10     17.390991   19.283880   20.456123 H          1 MOL1         0.0741
      19    H11     18.120344   19.953378   21.923439 H          1 MOL1         0.0741
@<TRIPOS>BOND
    1     1     2    1
    2     1     3    2
    3     1     4    1
    4     4     5    1
    5     4     6    1
    6     4     7    1
    7     7     8    1
    8     7     9    1
    9     7    10    1
   10    10    11    1
   11    10    12    1
   12    10    13    1
   13    13    14    1
   14    13    15    1
   15    13    16    1
   16    16    17    1
   17    16    18    1
   18    16    19    1
@<TRIPOS>SUBSTRUCTURE
       1 MOL1            1 RESIDUE      1      MOL     
@<SCITEGIC>MOL_PROPERTY
VConf Rank
SciTegic.value.IntegerValue
147

@<SCITEGIC>MOL_PROPERTY
Conf_Id
SciTegic.value.IntegerValue
73

@<SCITEGIC>MOL_PROPERTY
Delta U+W
SciTegic.value.DoubleValue
3.707

@<SCITEGIC>MOL_PROPERTY
U+W
SciTegic.value.DoubleValue
-51.184

@<SCITEGIC>MOL_PROPERTY
Grad RMS
SciTegic.value.DoubleValue
0.000000

@<SCITEGIC>MOL_PROPERTY
U
SciTegic.value.DoubleValue
12.334

@<SCITEGIC>MOL_PROPERTY
W
SciTegic.value.DoubleValue
-63.519

@<SCITEGIC>MOL_PROPERTY
W(PB)
SciTegic.value.DoubleValue
-65.541

@<SCITEGIC>MOL_PROPERTY
W(SA)
SciTegic.value.DoubleValue
2.022

@<SCITEGIC>MOL_PROPERTY
Valence
SciTegic.value.DoubleValue
9.984

@<SCITEGIC>MOL_PROPERTY
Coulomb
SciTegic.value.DoubleValue
1.768

@<SCITEGIC>MOL_PROPERTY
VdW
SciTegic.value.DoubleValue
0.583

@<SCITEGIC>MOL_PROPERTY
VdW6
SciTegic.value.DoubleValue
-7.767

@<SCITEGIC>MOL_PROPERTY
VdW12
SciTegic.value.DoubleValue
8.350

@<SCITEGIC>MOL_PROPERTY
Bond
SciTegic.value.DoubleValue
0.203

@<SCITEGIC>MOL_PROPERTY
Angle
SciTegic.value.DoubleValue
3.192

@<SCITEGIC>MOL_PROPERTY
Pdih
SciTegic.value.DoubleValue
6.589

@<SCITEGIC>MOL_PROPERTY
Idih
SciTegic.value.DoubleValue
0.001

@<SCITEGIC>MOL_PROPERTY
Tether
SciTegic.value.DoubleValue
0.000

@<TRIPOS>MOLECULE
guest-7_confgen4.mol2 : confsearch ligand conformer 148
          19          18           1
SMALL
USER_CHARGES
 
@<TRIPOS>ATOM
       1    C1      19.480139   18.176796   24.811528 C.2        1 MOL1         0.6115
       2    O1      18.666624   17.315663   24.540686 O.co2      1 MOL1        -0.6776
       3    O2      20.292552   18.073793   25.709601 O.co2      1 MOL1        -0.6776
       4    C2      19.461948   19.471245   24.003199 C.3        1 MOL1        -0.2013
       5    H1      19.444158   20.302190   24.717960 H          1 MOL1         0.0727
       6    H2      18.521080   19.523289   23.443419 H          1 MOL1         0.0727
       7    C3      20.675227   19.640885   23.048502 C.3        1 MOL1        -0.1910
       8    H3      20.620560   20.625108   22.565612 H          1 MOL1         0.0729
       9    H4      21.595816   19.650106   23.648121 H          1 MOL1         0.0729
      10    C4      20.799002   18.536241   21.967514 C.3        1 MOL1        -0.1909
      11    H5      20.975050   17.570435   22.460777 H          1 MOL1         0.0729
      12    H6      21.694496   18.733732   21.362798 H          1 MOL1         0.0729
      13    C5      19.578891   18.396701   21.024607 C.3        1 MOL1        -0.1884
      14    H7      19.774698   17.578009   20.318704 H          1 MOL1         0.0729
      15    H8      18.691542   18.095994   21.597871 H          1 MOL1         0.0729
      16    C6      19.273987   19.681001   20.223807 C.3        1 MOL1        -0.2899
      17    H9      18.961467   20.498674   20.885360 H          1 MOL1         0.0741
      18    H10     20.156136   20.010977   19.659944 H          1 MOL1         0.0741
      19    H11     18.461255   19.503208   19.507811 H          1 MOL1         0.0741
@<TRIPOS>BOND
    1     1     2    1
    2     1     3    2
    3     1     4    1
    4     4     5    1
    5     4     6    1
    6     4     7    1
    7     7     8    1
    8     7     9    1
    9     7    10    1
   10    10    11    1
   11    10    12    1
   12    10    13    1
   13    13    14    1
   14    13    15    1
   15    13    16    1
   16    16    17    1
   17    16    18    1
   18    16    19    1
@<TRIPOS>SUBSTRUCTURE
       1 MOL1            1 RESIDUE      1      MOL     
@<SCITEGIC>MOL_PROPERTY
VConf Rank
SciTegic.value.IntegerValue
148

@<SCITEGIC>MOL_PROPERTY
Conf_Id
SciTegic.value.IntegerValue
56

@<SCITEGIC>MOL_PROPERTY
Delta U+W
SciTegic.value.DoubleValue
1.735

@<SCITEGIC>MOL_PROPERTY
U+W
SciTegic.value.DoubleValue
-53.156

@<SCITEGIC>MOL_PROPERTY
Grad RMS
SciTegic.value.DoubleValue
0.000000

@<SCITEGIC>MOL_PROPERTY
U
SciTegic.value.DoubleValue
10.214

@<SCITEGIC>MOL_PROPERTY
W
SciTegic.value.DoubleValue
-63.370

@<SCITEGIC>MOL_PROPERTY
W(PB)
SciTegic.value.DoubleValue
-65.388

@<SCITEGIC>MOL_PROPERTY
W(SA)
SciTegic.value.DoubleValue
2.018

@<SCITEGIC>MOL_PROPERTY
Valence
SciTegic.value.DoubleValue
7.868

@<SCITEGIC>MOL_PROPERTY
Coulomb
SciTegic.value.DoubleValue
1.968

@<SCITEGIC>MOL_PROPERTY
VdW
SciTegic.value.DoubleValue
0.378

@<SCITEGIC>MOL_PROPERTY
VdW6
SciTegic.value.DoubleValue
-8.067

@<SCITEGIC>MOL_PROPERTY
VdW12
SciTegic.value.DoubleValue
8.445

@<SCITEGIC>MOL_PROPERTY
Bond
SciTegic.value.DoubleValue
0.191

@<SCITEGIC>MOL_PROPERTY
Angle
SciTegic.value.DoubleValue
3.117

@<SCITEGIC>MOL_PROPERTY
Pdih
SciTegic.value.DoubleValue
4.559

@<SCITEGIC>MOL_PROPERTY
Idih
SciTegic.value.DoubleValue
0.001

@<SCITEGIC>MOL_PROPERTY
Tether
SciTegic.value.DoubleValue
0.000

@<TRIPOS>MOLECULE
guest-7_confgen4.mol2 : confsearch ligand conformer 149
          19          18           1
SMALL
USER_CHARGES
 
@<TRIPOS>ATOM
       1    C1      20.292494   21.827776   21.875530 C.2        1 MOL1         0.6115
       2    O1      21.115716   22.489820   22.475836 O.co2      1 MOL1        -0.6776
       3    O2      19.402911   22.310325   21.203101 O.co2      1 MOL1        -0.6776
       4    C2      20.367102   20.309357   21.989869 C.3        1 MOL1        -0.2013
       5    H1      21.419370   20.027638   22.115351 H          1 MOL1         0.0727
       6    H2      20.023392   19.888173   21.038566 H          1 MOL1         0.0727
       7    C3      19.519755   19.752760   23.161696 C.3        1 MOL1        -0.1910
       8    H3      19.788392   20.295621   24.078504 H          1 MOL1         0.0729
       9    H4      18.458859   19.969833   22.975756 H          1 MOL1         0.0729
      10    C4      19.702876   18.235849   23.418484 C.3        1 MOL1        -0.1909
      11    H5      19.098304   17.974583   24.297805 H          1 MOL1         0.0729
      12    H6      20.743806   18.023413   23.698371 H          1 MOL1         0.0729
      13    C5      19.266089   17.323657   22.245356 C.3        1 MOL1        -0.1884
      14    H7      18.823394   16.407396   22.659877 H          1 MOL1         0.0729
      15    H8      18.472377   17.808543   21.660365 H          1 MOL1         0.0729
      16    C6      20.436041   16.912472   21.324016 C.3        1 MOL1        -0.2899
      17    H9      20.078903   16.254480   20.521287 H          1 MOL1         0.0741
      18    H10     20.913388   17.780930   20.856534 H          1 MOL1         0.0741
      19    H11     21.203653   16.366872   21.888130 H          1 MOL1         0.0741
@<TRIPOS>BOND
    1     1     2    1
    2     1     3    2
    3     1     4    1
    4     4     5    1
    5     4     6    1
    6     4     7    1
    7     7     8    1
    8     7     9    1
    9     7    10    1
   10    10    11    1
   11    10    12    1
   12    10    13    1
   13    13    14    1
   14    13    15    1
   15    13    16    1
   16    16    17    1
   17    16    18    1
   18    16    19    1
@<TRIPOS>SUBSTRUCTURE
       1 MOL1            1 RESIDUE      1      MOL     
@<SCITEGIC>MOL_PROPERTY
VConf Rank
SciTegic.value.IntegerValue
149

@<SCITEGIC>MOL_PROPERTY
Conf_Id
SciTegic.value.IntegerValue
53

@<SCITEGIC>MOL_PROPERTY
Delta U+W
SciTegic.value.DoubleValue
2.279

@<SCITEGIC>MOL_PROPERTY
U+W
SciTegic.value.DoubleValue
-52.612

@<SCITEGIC>MOL_PROPERTY
Grad RMS
SciTegic.value.DoubleValue
0.000000

@<SCITEGIC>MOL_PROPERTY
U
SciTegic.value.DoubleValue
10.231

@<SCITEGIC>MOL_PROPERTY
W
SciTegic.value.DoubleValue
-62.843

@<SCITEGIC>MOL_PROPERTY
W(PB)
SciTegic.value.DoubleValue
-64.893

@<SCITEGIC>MOL_PROPERTY
W(SA)
SciTegic.value.DoubleValue
2.050

@<SCITEGIC>MOL_PROPERTY
Valence
SciTegic.value.DoubleValue
9.644

@<SCITEGIC>MOL_PROPERTY
Coulomb
SciTegic.value.DoubleValue
-0.164

@<SCITEGIC>MOL_PROPERTY
VdW
SciTegic.value.DoubleValue
0.751

@<SCITEGIC>MOL_PROPERTY
VdW6
SciTegic.value.DoubleValue
-6.881

@<SCITEGIC>MOL_PROPERTY
VdW12
SciTegic.value.DoubleValue
7.631

@<SCITEGIC>MOL_PROPERTY
Bond
SciTegic.value.DoubleValue
0.163

@<SCITEGIC>MOL_PROPERTY
Angle
SciTegic.value.DoubleValue
2.998

@<SCITEGIC>MOL_PROPERTY
Pdih
SciTegic.value.DoubleValue
6.482

@<SCITEGIC>MOL_PROPERTY
Idih
SciTegic.value.DoubleValue
0.001

@<SCITEGIC>MOL_PROPERTY
Tether
SciTegic.value.DoubleValue
0.000

@<TRIPOS>MOLECULE
guest-7_confgen4.mol2 : confsearch ligand conformer 150
          19          18           1
SMALL
USER_CHARGES
 
@<TRIPOS>ATOM
       1    C1      21.782088   19.451117   20.783372 C.2        1 MOL1         0.6115
       2    O1      22.709259   19.922783   21.411655 O.co2      1 MOL1        -0.6776
       3    O2      21.210421   20.042053   19.888253 O.co2      1 MOL1        -0.6776
       4    C2      21.361309   18.014854   21.089273 C.3        1 MOL1        -0.2013
       5    H1      22.009808   17.613211   21.877343 H          1 MOL1         0.0727
       6    H2      21.570701   17.432867   20.184249 H          1 MOL1         0.0727
       7    C3      19.866828   17.828601   21.475231 C.3        1 MOL1        -0.1910
       8    H3      19.228939   18.409752   20.794861 H          1 MOL1         0.0729
       9    H4      19.603137   16.775195   21.310249 H          1 MOL1         0.0729
      10    C4      19.527857   18.174399   22.946353 C.3        1 MOL1        -0.1909
      11    H5      20.163810   17.584944   23.620845 H          1 MOL1         0.0729
      12    H6      18.494081   17.858423   23.142507 H          1 MOL1         0.0729
      13    C5      19.660341   19.674980   23.287350 C.3        1 MOL1        -0.1884
      14    H7      20.711711   19.983735   23.226547 H          1 MOL1         0.0729
      15    H8      19.105988   20.274415   22.551981 H          1 MOL1         0.0729
      16    C6      19.132885   19.981775   24.703508 C.3        1 MOL1        -0.2899
      17    H9      19.688846   19.413458   25.460662 H          1 MOL1         0.0741
      18    H10     19.241990   21.049638   24.933314 H          1 MOL1         0.0741
      19    H11     18.069597   19.723160   24.792138 H          1 MOL1         0.0741
@<TRIPOS>BOND
    1     1     2    1
    2     1     3    2
    3     1     4    1
    4     4     5    1
    5     4     6    1
    6     4     7    1
    7     7     8    1
    8     7     9    1
    9     7    10    1
   10    10    11    1
   11    10    12    1
   12    10    13    1
   13    13    14    1
   14    13    15    1
   15    13    16    1
   16    16    17    1
   17    16    18    1
   18    16    19    1
@<TRIPOS>SUBSTRUCTURE
       1 MOL1            1 RESIDUE      1      MOL     
@<SCITEGIC>MOL_PROPERTY
VConf Rank
SciTegic.value.IntegerValue
150

@<SCITEGIC>MOL_PROPERTY
Conf_Id
SciTegic.value.IntegerValue
25

@<SCITEGIC>MOL_PROPERTY
Delta U+W
SciTegic.value.DoubleValue
2.065

@<SCITEGIC>MOL_PROPERTY
U+W
SciTegic.value.DoubleValue
-52.826

@<SCITEGIC>MOL_PROPERTY
Grad RMS
SciTegic.value.DoubleValue
0.000000

@<SCITEGIC>MOL_PROPERTY
U
SciTegic.value.DoubleValue
10.967

@<SCITEGIC>MOL_PROPERTY
W
SciTegic.value.DoubleValue
-63.794

@<SCITEGIC>MOL_PROPERTY
W(PB)
SciTegic.value.DoubleValue
-65.830

@<SCITEGIC>MOL_PROPERTY
W(SA)
SciTegic.value.DoubleValue
2.036

@<SCITEGIC>MOL_PROPERTY
Valence
SciTegic.value.DoubleValue
8.609

@<SCITEGIC>MOL_PROPERTY
Coulomb
SciTegic.value.DoubleValue
1.892

@<SCITEGIC>MOL_PROPERTY
VdW
SciTegic.value.DoubleValue
0.467

@<SCITEGIC>MOL_PROPERTY
VdW6
SciTegic.value.DoubleValue
-7.569

@<SCITEGIC>MOL_PROPERTY
VdW12
SciTegic.value.DoubleValue
8.036

@<SCITEGIC>MOL_PROPERTY
Bond
SciTegic.value.DoubleValue
0.170

@<SCITEGIC>MOL_PROPERTY
Angle
SciTegic.value.DoubleValue
3.195

@<SCITEGIC>MOL_PROPERTY
Pdih
SciTegic.value.DoubleValue
5.237

@<SCITEGIC>MOL_PROPERTY
Idih
SciTegic.value.DoubleValue
0.007

@<SCITEGIC>MOL_PROPERTY
Tether
SciTegic.value.DoubleValue
0.000

@<TRIPOS>MOLECULE
guest-7_confgen4.mol2 : confsearch ligand conformer 151
          19          18           1
SMALL
USER_CHARGES
 
@<TRIPOS>ATOM
       1    C1      21.979518   17.310034   22.603572 C.2        1 MOL1         0.6115
       2    O1      23.004801   17.934268   22.412854 O.co2      1 MOL1        -0.6776
       3    O2      21.618376   16.385468   21.902425 O.co2      1 MOL1        -0.6776
       4    C2      21.135186   17.658113   23.828084 C.3        1 MOL1        -0.2013
       5    H1      21.761758   17.451402   24.703470 H          1 MOL1         0.0727
       6    H2      20.283805   16.968797   23.882100 H          1 MOL1         0.0727
       7    C3      20.640694   19.130476   23.897025 C.3        1 MOL1        -0.1910
       8    H3      20.383554   19.352872   24.941456 H          1 MOL1         0.0729
       9    H4      21.460741   19.813730   23.635813 H          1 MOL1         0.0729
      10    C4      19.395507   19.438872   23.029223 C.3        1 MOL1        -0.1909
      11    H5      19.048295   20.451367   23.276830 H          1 MOL1         0.0729
      12    H6      18.577661   18.757393   23.300427 H          1 MOL1         0.0729
      13    C5      19.652837   19.361573   21.508242 C.3        1 MOL1        -0.1884
      14    H7      20.534410   19.963883   21.248539 H          1 MOL1         0.0729
      15    H8      19.872951   18.327041   21.215495 H          1 MOL1         0.0729
      16    C6      18.435277   19.858158   20.702770 C.3        1 MOL1        -0.2899
      17    H9      18.630965   19.788741   19.624840 H          1 MOL1         0.0741
      18    H10     17.545373   19.254937   20.925375 H          1 MOL1         0.0741
      19    H11     18.207836   20.905926   20.938929 H          1 MOL1         0.0741
@<TRIPOS>BOND
    1     1     2    1
    2     1     3    2
    3     1     4    1
    4     4     5    1
    5     4     6    1
    6     4     7    1
    7     7     8    1
    8     7     9    1
    9     7    10    1
   10    10    11    1
   11    10    12    1
   12    10    13    1
   13    13    14    1
   14    13    15    1
   15    13    16    1
   16    16    17    1
   17    16    18    1
   18    16    19    1
@<TRIPOS>SUBSTRUCTURE
       1 MOL1            1 RESIDUE      1      MOL     
@<SCITEGIC>MOL_PROPERTY
VConf Rank
SciTegic.value.IntegerValue
151

@<SCITEGIC>MOL_PROPERTY
Conf_Id
SciTegic.value.IntegerValue
52

@<SCITEGIC>MOL_PROPERTY
Delta U+W
SciTegic.value.DoubleValue
2.070

@<SCITEGIC>MOL_PROPERTY
U+W
SciTegic.value.DoubleValue
-52.822

@<SCITEGIC>MOL_PROPERTY
Grad RMS
SciTegic.value.DoubleValue
0.000000

@<SCITEGIC>MOL_PROPERTY
U
SciTegic.value.DoubleValue
10.967

@<SCITEGIC>MOL_PROPERTY
W
SciTegic.value.DoubleValue
-63.789

@<SCITEGIC>MOL_PROPERTY
W(PB)
SciTegic.value.DoubleValue
-65.837

@<SCITEGIC>MOL_PROPERTY
W(SA)
SciTegic.value.DoubleValue
2.048

@<SCITEGIC>MOL_PROPERTY
Valence
SciTegic.value.DoubleValue
8.609

@<SCITEGIC>MOL_PROPERTY
Coulomb
SciTegic.value.DoubleValue
1.892

@<SCITEGIC>MOL_PROPERTY
VdW
SciTegic.value.DoubleValue
0.467

@<SCITEGIC>MOL_PROPERTY
VdW6
SciTegic.value.DoubleValue
-7.569

@<SCITEGIC>MOL_PROPERTY
VdW12
SciTegic.value.DoubleValue
8.035

@<SCITEGIC>MOL_PROPERTY
Bond
SciTegic.value.DoubleValue
0.170

@<SCITEGIC>MOL_PROPERTY
Angle
SciTegic.value.DoubleValue
3.196

@<SCITEGIC>MOL_PROPERTY
Pdih
SciTegic.value.DoubleValue
5.237

@<SCITEGIC>MOL_PROPERTY
Idih
SciTegic.value.DoubleValue
0.007

@<SCITEGIC>MOL_PROPERTY
Tether
SciTegic.value.DoubleValue
0.000

@<TRIPOS>MOLECULE
guest-7_confgen4.mol2 : confsearch ligand conformer 152
          19          18           1
SMALL
USER_CHARGES
 
@<TRIPOS>ATOM
       1    C1      20.976762   18.325544   24.341509 C.2        1 MOL1         0.6115
       2    O1      20.664426   17.190012   24.643385 O.co2      1 MOL1        -0.6776
       3    O2      22.128994   18.679959   24.188375 O.co2      1 MOL1        -0.6776
       4    C2      19.884466   19.394006   24.273249 C.3        1 MOL1        -0.2013
       5    H1      20.307463   20.310751   23.845242 H          1 MOL1         0.0727
       6    H2      19.623067   19.626290   25.311994 H          1 MOL1         0.0727
       7    C3      18.591448   18.990943   23.508385 C.3        1 MOL1        -0.1910
       8    H3      18.319485   17.954315   23.750704 H          1 MOL1         0.0729
       9    H4      17.768035   19.610651   23.888265 H          1 MOL1         0.0729
      10    C4      18.643200   19.177385   21.970289 C.3        1 MOL1        -0.1909
      11    H5      18.815466   20.234600   21.726042 H          1 MOL1         0.0729
      12    H6      17.645112   18.941839   21.576202 H          1 MOL1         0.0729
      13    C5      19.670706   18.281665   21.236867 C.3        1 MOL1        -0.1884
      14    H7      19.912895   17.398416   21.843968 H          1 MOL1         0.0729
      15    H8      19.213193   17.899854   20.313801 H          1 MOL1         0.0729
      16    C6      20.959753   19.040501   20.855231 C.3        1 MOL1        -0.2899
      17    H9      20.738411   19.866524   20.167023 H          1 MOL1         0.0741
      18    H10     21.455846   19.459456   21.738463 H          1 MOL1         0.0741
      19    H11     21.670005   18.367516   20.357987 H          1 MOL1         0.0741
@<TRIPOS>BOND
    1     1     2    1
    2     1     3    2
    3     1     4    1
    4     4     5    1
    5     4     6    1
    6     4     7    1
    7     7     8    1
    8     7     9    1
    9     7    10    1
   10    10    11    1
   11    10    12    1
   12    10    13    1
   13    13    14    1
   14    13    15    1
   15    13    16    1
   16    16    17    1
   17    16    18    1
   18    16    19    1
@<TRIPOS>SUBSTRUCTURE
       1 MOL1            1 RESIDUE      1      MOL     
@<SCITEGIC>MOL_PROPERTY
VConf Rank
SciTegic.value.IntegerValue
152

@<SCITEGIC>MOL_PROPERTY
Conf_Id
SciTegic.value.IntegerValue
66

@<SCITEGIC>MOL_PROPERTY
Delta U+W
SciTegic.value.DoubleValue
5.819

@<SCITEGIC>MOL_PROPERTY
U+W
SciTegic.value.DoubleValue
-49.072

@<SCITEGIC>MOL_PROPERTY
Grad RMS
SciTegic.value.DoubleValue
0.000000

@<SCITEGIC>MOL_PROPERTY
U
SciTegic.value.DoubleValue
15.324

@<SCITEGIC>MOL_PROPERTY
W
SciTegic.value.DoubleValue
-64.396

@<SCITEGIC>MOL_PROPERTY
W(PB)
SciTegic.value.DoubleValue
-66.382

@<SCITEGIC>MOL_PROPERTY
W(SA)
SciTegic.value.DoubleValue
1.986

@<SCITEGIC>MOL_PROPERTY
Valence
SciTegic.value.DoubleValue
11.748

@<SCITEGIC>MOL_PROPERTY
Coulomb
SciTegic.value.DoubleValue
3.201

@<SCITEGIC>MOL_PROPERTY
VdW
SciTegic.value.DoubleValue
0.375

@<SCITEGIC>MOL_PROPERTY
VdW6
SciTegic.value.DoubleValue
-8.854

@<SCITEGIC>MOL_PROPERTY
VdW12
SciTegic.value.DoubleValue
9.229

@<SCITEGIC>MOL_PROPERTY
Bond
SciTegic.value.DoubleValue
0.216

@<SCITEGIC>MOL_PROPERTY
Angle
SciTegic.value.DoubleValue
3.812

@<SCITEGIC>MOL_PROPERTY
Pdih
SciTegic.value.DoubleValue
7.699

@<SCITEGIC>MOL_PROPERTY
Idih
SciTegic.value.DoubleValue
0.022

@<SCITEGIC>MOL_PROPERTY
Tether
SciTegic.value.DoubleValue
0.000

@<TRIPOS>MOLECULE
guest-7_confgen4.mol2 : confsearch ligand conformer 153
          19          18           1
SMALL
USER_CHARGES
 
@<TRIPOS>ATOM
       1    C1      20.461248   21.223485   24.598520 C.2        1 MOL1         0.6115
       2    O1      19.939489   22.200412   25.097564 O.co2      1 MOL1        -0.6776
       3    O2      21.523361   20.771019   24.979749 O.co2      1 MOL1        -0.6776
       4    C2      19.723141   20.553862   23.438142 C.3        1 MOL1        -0.2013
       5    H1      19.579686   21.312921   22.660131 H          1 MOL1         0.0727
       6    H2      18.727113   20.274742   23.801556 H          1 MOL1         0.0727
       7    C3      20.427809   19.310373   22.833485 C.3        1 MOL1        -0.1910
       8    H3      21.427222   19.595459   22.476599 H          1 MOL1         0.0729
       9    H4      20.573802   18.556217   23.619235 H          1 MOL1         0.0729
      10    C4      19.615917   18.698992   21.671028 C.3        1 MOL1        -0.1909
      11    H5      19.470996   19.454668   20.886744 H          1 MOL1         0.0729
      12    H6      18.617144   18.414824   22.029985 H          1 MOL1         0.0729
      13    C5      20.318180   17.463030   21.071345 C.3        1 MOL1        -0.1884
      14    H7      21.317049   17.743608   20.709368 H          1 MOL1         0.0729
      15    H8      20.463191   16.703844   21.852435 H          1 MOL1         0.0729
      16    C6      19.504914   16.855323   19.911051 C.3        1 MOL1        -0.2899
      17    H9      19.371628   17.584153   19.100827 H          1 MOL1         0.0741
      18    H10     20.018448   15.978018   19.496651 H          1 MOL1         0.0741
      19    H11     18.511319   16.536571   20.252499 H          1 MOL1         0.0741
@<TRIPOS>BOND
    1     1     2    1
    2     1     3    2
    3     1     4    1
    4     4     5    1
    5     4     6    1
    6     4     7    1
    7     7     8    1
    8     7     9    1
    9     7    10    1
   10    10    11    1
   11    10    12    1
   12    10    13    1
   13    13    14    1
   14    13    15    1
   15    13    16    1
   16    16    17    1
   17    16    18    1
   18    16    19    1
@<TRIPOS>SUBSTRUCTURE
       1 MOL1            1 RESIDUE      1      MOL     
@<SCITEGIC>MOL_PROPERTY
VConf Rank
SciTegic.value.IntegerValue
153

@<SCITEGIC>MOL_PROPERTY
Conf_Id
SciTegic.value.IntegerValue
0

@<SCITEGIC>MOL_PROPERTY
Delta U+W
SciTegic.value.DoubleValue
0.000

@<SCITEGIC>MOL_PROPERTY
U+W
SciTegic.value.DoubleValue
-54.891

@<SCITEGIC>MOL_PROPERTY
Grad RMS
SciTegic.value.DoubleValue
0.000000

@<SCITEGIC>MOL_PROPERTY
U
SciTegic.value.DoubleValue
6.966

@<SCITEGIC>MOL_PROPERTY
W
SciTegic.value.DoubleValue
-61.857

@<SCITEGIC>MOL_PROPERTY
W(PB)
SciTegic.value.DoubleValue
-63.965

@<SCITEGIC>MOL_PROPERTY
W(SA)
SciTegic.value.DoubleValue
2.108

@<SCITEGIC>MOL_PROPERTY
Valence
SciTegic.value.DoubleValue
7.175

@<SCITEGIC>MOL_PROPERTY
Coulomb
SciTegic.value.DoubleValue
-1.360

@<SCITEGIC>MOL_PROPERTY
VdW
SciTegic.value.DoubleValue
1.151

@<SCITEGIC>MOL_PROPERTY
VdW6
SciTegic.value.DoubleValue
-5.641

@<SCITEGIC>MOL_PROPERTY
VdW12
SciTegic.value.DoubleValue
6.792

@<SCITEGIC>MOL_PROPERTY
Bond
SciTegic.value.DoubleValue
0.119

@<SCITEGIC>MOL_PROPERTY
Angle
SciTegic.value.DoubleValue
2.715

@<SCITEGIC>MOL_PROPERTY
Pdih
SciTegic.value.DoubleValue
4.340

@<SCITEGIC>MOL_PROPERTY
Idih
SciTegic.value.DoubleValue
0.000

@<SCITEGIC>MOL_PROPERTY
Tether
SciTegic.value.DoubleValue
0.000

@<TRIPOS>MOLECULE
guest-7_confgen4.mol2 : confsearch ligand conformer 154
          19          18           1
SMALL
USER_CHARGES
 
@<TRIPOS>ATOM
       1    C1      21.280345   22.021636   22.482725 C.2        1 MOL1         0.6115
       2    O1      22.366574   22.047742   23.026422 O.co2      1 MOL1        -0.6776
       3    O2      20.924879   22.832764   21.650921 O.co2      1 MOL1        -0.6776
       4    C2      20.318249   20.897235   22.849418 C.3        1 MOL1        -0.2013
       5    H1      19.295202   21.283938   22.768316 H          1 MOL1         0.0727
       6    H2      20.483703   20.636631   23.901775 H          1 MOL1         0.0727
       7    C3      20.488023   19.644020   21.955695 C.3        1 MOL1        -0.1910
       8    H3      20.331793   19.924078   20.904643 H          1 MOL1         0.0729
       9    H4      21.520461   19.276817   22.038055 H          1 MOL1         0.0729
      10    C4      19.503298   18.521240   22.347241 C.3        1 MOL1        -0.1909
      11    H5      18.472217   18.891829   22.265210 H          1 MOL1         0.0729
      12    H6      19.661125   18.244405   23.398737 H          1 MOL1         0.0729
      13    C5      19.674631   17.274109   21.455231 C.3        1 MOL1        -0.1884
      14    H7      19.515631   17.546602   20.402634 H          1 MOL1         0.0729
      15    H8      20.704382   16.899190   21.536110 H          1 MOL1         0.0729
      16    C6      18.689829   16.155119   21.848912 C.3        1 MOL1        -0.2899
      17    H9      18.825265   15.276438   21.204951 H          1 MOL1         0.0741
      18    H10     18.847856   15.840758   22.888926 H          1 MOL1         0.0741
      19    H11     17.650196   16.493049   21.746987 H          1 MOL1         0.0741
@<TRIPOS>BOND
    1     1     2    1
    2     1     3    2
    3     1     4    1
    4     4     5    1
    5     4     6    1
    6     4     7    1
    7     7     8    1
    8     7     9    1
    9     7    10    1
   10    10    11    1
   11    10    12    1
   12    10    13    1
   13    13    14    1
   14    13    15    1
   15    13    16    1
   16    16    17    1
   17    16    18    1
   18    16    19    1
@<TRIPOS>SUBSTRUCTURE
       1 MOL1            1 RESIDUE      1      MOL     
@<SCITEGIC>MOL_PROPERTY
VConf Rank
SciTegic.value.IntegerValue
154

@<SCITEGIC>MOL_PROPERTY
Conf_Id
SciTegic.value.IntegerValue
18

@<SCITEGIC>MOL_PROPERTY
Delta U+W
SciTegic.value.DoubleValue
-1.199

@<SCITEGIC>MOL_PROPERTY
U+W
SciTegic.value.DoubleValue
-56.090

@<SCITEGIC>MOL_PROPERTY
Grad RMS
SciTegic.value.DoubleValue
0.000000

@<SCITEGIC>MOL_PROPERTY
U
SciTegic.value.DoubleValue
5.975

@<SCITEGIC>MOL_PROPERTY
W
SciTegic.value.DoubleValue
-62.066

@<SCITEGIC>MOL_PROPERTY
W(PB)
SciTegic.value.DoubleValue
-64.219

@<SCITEGIC>MOL_PROPERTY
W(SA)
SciTegic.value.DoubleValue
2.153

@<SCITEGIC>MOL_PROPERTY
Valence
SciTegic.value.DoubleValue
6.673

@<SCITEGIC>MOL_PROPERTY
Coulomb
SciTegic.value.DoubleValue
-1.307

@<SCITEGIC>MOL_PROPERTY
VdW
SciTegic.value.DoubleValue
0.610

@<SCITEGIC>MOL_PROPERTY
VdW6
SciTegic.value.DoubleValue
-5.351

@<SCITEGIC>MOL_PROPERTY
VdW12
SciTegic.value.DoubleValue
5.961

@<SCITEGIC>MOL_PROPERTY
Bond
SciTegic.value.DoubleValue
0.086

@<SCITEGIC>MOL_PROPERTY
Angle
SciTegic.value.DoubleValue
2.253

@<SCITEGIC>MOL_PROPERTY
Pdih
SciTegic.value.DoubleValue
4.333

@<SCITEGIC>MOL_PROPERTY
Idih
SciTegic.value.DoubleValue
0.001

@<SCITEGIC>MOL_PROPERTY
Tether
SciTegic.value.DoubleValue
0.000

@<TRIPOS>MOLECULE
guest-7_confgen4.mol2 : confsearch ligand conformer 155
          19          18           1
SMALL
USER_CHARGES
 
@<TRIPOS>ATOM
       1    C1      21.582835   19.179701   24.960517 C.2        1 MOL1         0.6115
       2    O1      21.851691   20.241923   25.485577 O.co2      1 MOL1        -0.6776
       3    O2      21.592547   18.117075   25.549579 O.co2      1 MOL1        -0.6776
       4    C2      21.191163   19.183324   23.487105 C.3        1 MOL1        -0.2013
       5    H1      21.540605   18.242560   23.046996 H          1 MOL1         0.0727
       6    H2      21.735651   19.996432   22.992232 H          1 MOL1         0.0727
       7    C3      19.664727   19.353611   23.272222 C.3        1 MOL1        -0.1910
       8    H3      19.132815   18.510260   23.733891 H          1 MOL1         0.0729
       9    H4      19.332883   20.257109   23.802311 H          1 MOL1         0.0729
      10    C4      19.260090   19.475480   21.783951 C.3        1 MOL1        -0.1909
      11    H5      19.787029   20.324618   21.327545 H          1 MOL1         0.0729
      12    H6      18.188199   19.710838   21.732265 H          1 MOL1         0.0729
      13    C5      19.532439   18.193045   20.966211 C.3        1 MOL1        -0.1884
      14    H7      20.609431   17.981317   20.941320 H          1 MOL1         0.0729
      15    H8      19.047505   17.334398   21.450804 H          1 MOL1         0.0729
      16    C6      19.014106   18.324510   19.520072 C.3        1 MOL1        -0.2899
      17    H9      19.217365   17.407668   18.951586 H          1 MOL1         0.0741
      18    H10     17.930267   18.499021   19.505087 H          1 MOL1         0.0741
      19    H11     19.503301   19.159968   19.002285 H          1 MOL1         0.0741
@<TRIPOS>BOND
    1     1     2    1
    2     1     3    2
    3     1     4    1
    4     4     5    1
    5     4     6    1
    6     4     7    1
    7     7     8    1
    8     7     9    1
    9     7    10    1
   10    10    11    1
   11    10    12    1
   12    10    13    1
   13    13    14    1
   14    13    15    1
   15    13    16    1
   16    16    17    1
   17    16    18    1
   18    16    19    1
@<TRIPOS>SUBSTRUCTURE
       1 MOL1            1 RESIDUE      1      MOL     
@<SCITEGIC>MOL_PROPERTY
VConf Rank
SciTegic.value.IntegerValue
155

@<SCITEGIC>MOL_PROPERTY
Conf_Id
SciTegic.value.IntegerValue
34

@<SCITEGIC>MOL_PROPERTY
Delta U+W
SciTegic.value.DoubleValue
-0.563

@<SCITEGIC>MOL_PROPERTY
U+W
SciTegic.value.DoubleValue
-55.455

@<SCITEGIC>MOL_PROPERTY
Grad RMS
SciTegic.value.DoubleValue
0.000000

@<SCITEGIC>MOL_PROPERTY
U
SciTegic.value.DoubleValue
6.914

@<SCITEGIC>MOL_PROPERTY
W
SciTegic.value.DoubleValue
-62.369

@<SCITEGIC>MOL_PROPERTY
W(PB)
SciTegic.value.DoubleValue
-64.446

@<SCITEGIC>MOL_PROPERTY
W(SA)
SciTegic.value.DoubleValue
2.077

@<SCITEGIC>MOL_PROPERTY
Valence
SciTegic.value.DoubleValue
7.196

@<SCITEGIC>MOL_PROPERTY
Coulomb
SciTegic.value.DoubleValue
-1.020

@<SCITEGIC>MOL_PROPERTY
VdW
SciTegic.value.DoubleValue
0.738

@<SCITEGIC>MOL_PROPERTY
VdW6
SciTegic.value.DoubleValue
-6.010

@<SCITEGIC>MOL_PROPERTY
VdW12
SciTegic.value.DoubleValue
6.748

@<SCITEGIC>MOL_PROPERTY
Bond
SciTegic.value.DoubleValue
0.126

@<SCITEGIC>MOL_PROPERTY
Angle
SciTegic.value.DoubleValue
2.499

@<SCITEGIC>MOL_PROPERTY
Pdih
SciTegic.value.DoubleValue
4.570

@<SCITEGIC>MOL_PROPERTY
Idih
SciTegic.value.DoubleValue
0.001

@<SCITEGIC>MOL_PROPERTY
Tether
SciTegic.value.DoubleValue
0.000

@<TRIPOS>MOLECULE
guest-7_confgen4.mol2 : confsearch ligand conformer 156
          19          18           1
SMALL
USER_CHARGES
 
@<TRIPOS>ATOM
       1    C1      18.228686   21.618455   22.244615 C.2        1 MOL1         0.6115
       2    O1      17.013930   21.633259   22.265574 O.co2      1 MOL1        -0.6776
       3    O2      18.907274   22.574694   21.926201 O.co2      1 MOL1        -0.6776
       4    C2      18.939690   20.322275   22.617107 C.3        1 MOL1        -0.2013
       5    H1      18.328520   19.801333   23.363834 H          1 MOL1         0.0727
       6    H2      19.886704   20.588452   23.099972 H          1 MOL1         0.0727
       7    C3      19.189415   19.401827   21.394162 C.3        1 MOL1        -0.1910
       8    H3      18.232862   19.229692   20.881524 H          1 MOL1         0.0729
       9    H4      19.839089   19.917381   20.673442 H          1 MOL1         0.0729
      10    C4      19.805272   18.032447   21.767049 C.3        1 MOL1        -0.1909
      11    H5      19.836040   17.406689   20.864557 H          1 MOL1         0.0729
      12    H6      19.149233   17.515936   22.481079 H          1 MOL1         0.0729
      13    C5      21.231114   18.139088   22.352809 C.3        1 MOL1        -0.1884
      14    H7      21.874892   18.700230   21.661478 H          1 MOL1         0.0729
      15    H8      21.211532   18.697580   23.297830 H          1 MOL1         0.0729
      16    C6      21.843284   16.746855   22.606185 C.3        1 MOL1        -0.2899
      17    H9      21.233366   16.173338   23.316456 H          1 MOL1         0.0741
      18    H10     21.914163   16.172645   21.673100 H          1 MOL1         0.0741
      19    H11     22.853979   16.839165   23.024594 H          1 MOL1         0.0741
@<TRIPOS>BOND
    1     1     2    1
    2     1     3    2
    3     1     4    1
    4     4     5    1
    5     4     6    1
    6     4     7    1
    7     7     8    1
    8     7     9    1
    9     7    10    1
   10    10    11    1
   11    10    12    1
   12    10    13    1
   13    13    14    1
   14    13    15    1
   15    13    16    1
   16    16    17    1
   17    16    18    1
   18    16    19    1
@<TRIPOS>SUBSTRUCTURE
       1 MOL1            1 RESIDUE      1      MOL     
@<SCITEGIC>MOL_PROPERTY
VConf Rank
SciTegic.value.IntegerValue
156

@<SCITEGIC>MOL_PROPERTY
Conf_Id
SciTegic.value.IntegerValue
33

@<SCITEGIC>MOL_PROPERTY
Delta U+W
SciTegic.value.DoubleValue
-0.526

@<SCITEGIC>MOL_PROPERTY
U+W
SciTegic.value.DoubleValue
-55.418

@<SCITEGIC>MOL_PROPERTY
Grad RMS
SciTegic.value.DoubleValue
0.000000

@<SCITEGIC>MOL_PROPERTY
U
SciTegic.value.DoubleValue
6.914

@<SCITEGIC>MOL_PROPERTY
W
SciTegic.value.DoubleValue
-62.332

@<SCITEGIC>MOL_PROPERTY
W(PB)
SciTegic.value.DoubleValue
-64.421

@<SCITEGIC>MOL_PROPERTY
W(SA)
SciTegic.value.DoubleValue
2.090

@<SCITEGIC>MOL_PROPERTY
Valence
SciTegic.value.DoubleValue
7.196

@<SCITEGIC>MOL_PROPERTY
Coulomb
SciTegic.value.DoubleValue
-1.020

@<SCITEGIC>MOL_PROPERTY
VdW
SciTegic.value.DoubleValue
0.738

@<SCITEGIC>MOL_PROPERTY
VdW6
SciTegic.value.DoubleValue
-6.010

@<SCITEGIC>MOL_PROPERTY
VdW12
SciTegic.value.DoubleValue
6.748

@<SCITEGIC>MOL_PROPERTY
Bond
SciTegic.value.DoubleValue
0.126

@<SCITEGIC>MOL_PROPERTY
Angle
SciTegic.value.DoubleValue
2.499

@<SCITEGIC>MOL_PROPERTY
Pdih
SciTegic.value.DoubleValue
4.570

@<SCITEGIC>MOL_PROPERTY
Idih
SciTegic.value.DoubleValue
0.001

@<SCITEGIC>MOL_PROPERTY
Tether
SciTegic.value.DoubleValue
0.000

@<TRIPOS>MOLECULE
guest-7_confgen4.mol2 : confsearch ligand conformer 157
          19          18           1
SMALL
USER_CHARGES
 
@<TRIPOS>ATOM
       1    C1      22.324250   20.762942   23.195798 C.2        1 MOL1         0.6115
       2    O1      21.902985   21.716281   23.820217 O.co2      1 MOL1        -0.6776
       3    O2      23.370347   20.200457   23.451797 O.co2      1 MOL1        -0.6776
       4    C2      21.485635   20.232276   22.038379 C.3        1 MOL1        -0.2013
       5    H1      22.168112   19.834386   21.277730 H          1 MOL1         0.0727
       6    H2      20.954083   21.078351   21.586343 H          1 MOL1         0.0727
       7    C3      20.477485   19.141090   22.475858 C.3        1 MOL1        -0.1910
       8    H3      21.023806   18.305538   22.934796 H          1 MOL1         0.0729
       9    H4      19.818112   19.556151   23.249533 H          1 MOL1         0.0729
      10    C4      19.639067   18.624143   21.284019 C.3        1 MOL1        -0.1909
      11    H5      20.318038   18.279550   20.492029 H          1 MOL1         0.0729
      12    H6      19.055048   19.450337   20.855846 H          1 MOL1         0.0729
      13    C5      18.691582   17.461159   21.658620 C.3        1 MOL1        -0.1884
      14    H7      18.224886   17.077143   20.741030 H          1 MOL1         0.0729
      15    H8      19.272834   16.630460   22.082191 H          1 MOL1         0.0729
      16    C6      17.579116   17.873575   22.646640 C.3        1 MOL1        -0.2899
      17    H9      17.002526   18.722641   22.257042 H          1 MOL1         0.0741
      18    H10     16.883953   17.040165   22.811318 H          1 MOL1         0.0741
      19    H11     17.994123   18.157167   23.621878 H          1 MOL1         0.0741
@<TRIPOS>BOND
    1     1     2    1
    2     1     3    2
    3     1     4    1
    4     4     5    1
    5     4     6    1
    6     4     7    1
    7     7     8    1
    8     7     9    1
    9     7    10    1
   10    10    11    1
   11    10    12    1
   12    10    13    1
   13    13    14    1
   14    13    15    1
   15    13    16    1
   16    16    17    1
   17    16    18    1
   18    16    19    1
@<TRIPOS>SUBSTRUCTURE
       1 MOL1            1 RESIDUE      1      MOL     
@<SCITEGIC>MOL_PROPERTY
VConf Rank
SciTegic.value.IntegerValue
157

@<SCITEGIC>MOL_PROPERTY
Conf_Id
SciTegic.value.IntegerValue
42

@<SCITEGIC>MOL_PROPERTY
Delta U+W
SciTegic.value.DoubleValue
-0.344

@<SCITEGIC>MOL_PROPERTY
U+W
SciTegic.value.DoubleValue
-55.236

@<SCITEGIC>MOL_PROPERTY
Grad RMS
SciTegic.value.DoubleValue
0.000000

@<SCITEGIC>MOL_PROPERTY
U
SciTegic.value.DoubleValue
7.244

@<SCITEGIC>MOL_PROPERTY
W
SciTegic.value.DoubleValue
-62.479

@<SCITEGIC>MOL_PROPERTY
W(PB)
SciTegic.value.DoubleValue
-64.610

@<SCITEGIC>MOL_PROPERTY
W(SA)
SciTegic.value.DoubleValue
2.130

@<SCITEGIC>MOL_PROPERTY
Valence
SciTegic.value.DoubleValue
7.174

@<SCITEGIC>MOL_PROPERTY
Coulomb
SciTegic.value.DoubleValue
-0.669

@<SCITEGIC>MOL_PROPERTY
VdW
SciTegic.value.DoubleValue
0.739

@<SCITEGIC>MOL_PROPERTY
VdW6
SciTegic.value.DoubleValue
-5.969

@<SCITEGIC>MOL_PROPERTY
VdW12
SciTegic.value.DoubleValue
6.708

@<SCITEGIC>MOL_PROPERTY
Bond
SciTegic.value.DoubleValue
0.116

@<SCITEGIC>MOL_PROPERTY
Angle
SciTegic.value.DoubleValue
2.481

@<SCITEGIC>MOL_PROPERTY
Pdih
SciTegic.value.DoubleValue
4.576

@<SCITEGIC>MOL_PROPERTY
Idih
SciTegic.value.DoubleValue
0.000

@<SCITEGIC>MOL_PROPERTY
Tether
SciTegic.value.DoubleValue
0.000

@<TRIPOS>MOLECULE
guest-7_confgen4.mol2 : confsearch ligand conformer 158
          19          18           1
SMALL
USER_CHARGES
 
@<TRIPOS>ATOM
       1    C1      21.498575   18.239766   19.499968 C.2        1 MOL1         0.6115
       2    O1      22.596952   17.769831   19.721213 O.co2      1 MOL1        -0.6776
       3    O2      21.250392   18.948788   18.545014 O.co2      1 MOL1        -0.6776
       4    C2      20.374252   17.938104   20.484548 C.3        1 MOL1        -0.2013
       5    H1      20.543773   16.937245   20.899605 H          1 MOL1         0.0727
       6    H2      19.431978   17.901596   19.924669 H          1 MOL1         0.0727
       7    C3      20.278013   18.979924   21.626385 C.3        1 MOL1        -0.1910
       8    H3      21.237185   19.012076   22.159842 H          1 MOL1         0.0729
       9    H4      20.117742   19.977497   21.194644 H          1 MOL1         0.0729
      10    C4      19.132988   18.647532   22.610810 C.3        1 MOL1        -0.1909
      11    H5      19.318870   17.671344   23.079332 H          1 MOL1         0.0729
      12    H6      18.194727   18.549123   22.047806 H          1 MOL1         0.0729
      13    C5      18.936763   19.718705   23.708386 C.3        1 MOL1        -0.1884
      14    H7      18.744990   20.695701   23.243598 H          1 MOL1         0.0729
      15    H8      18.037351   19.468927   24.287967 H          1 MOL1         0.0729
      16    C6      20.135626   19.829710   24.674955 C.3        1 MOL1        -0.2899
      17    H9      21.034593   20.189260   24.158886 H          1 MOL1         0.0741
      18    H10     19.911945   20.537101   25.483971 H          1 MOL1         0.0741
      19    H11     20.364801   18.857323   25.130038 H          1 MOL1         0.0741
@<TRIPOS>BOND
    1     1     2    1
    2     1     3    2
    3     1     4    1
    4     4     5    1
    5     4     6    1
    6     4     7    1
    7     7     8    1
    8     7     9    1
    9     7    10    1
   10    10    11    1
   11    10    12    1
   12    10    13    1
   13    13    14    1
   14    13    15    1
   15    13    16    1
   16    16    17    1
   17    16    18    1
   18    16    19    1
@<TRIPOS>SUBSTRUCTURE
       1 MOL1            1 RESIDUE      1      MOL     
@<SCITEGIC>MOL_PROPERTY
VConf Rank
SciTegic.value.IntegerValue
158

@<SCITEGIC>MOL_PROPERTY
Conf_Id
SciTegic.value.IntegerValue
41

@<SCITEGIC>MOL_PROPERTY
Delta U+W
SciTegic.value.DoubleValue
-0.361

@<SCITEGIC>MOL_PROPERTY
U+W
SciTegic.value.DoubleValue
-55.252

@<SCITEGIC>MOL_PROPERTY
Grad RMS
SciTegic.value.DoubleValue
0.000000

@<SCITEGIC>MOL_PROPERTY
U
SciTegic.value.DoubleValue
7.244

@<SCITEGIC>MOL_PROPERTY
W
SciTegic.value.DoubleValue
-62.496

@<SCITEGIC>MOL_PROPERTY
W(PB)
SciTegic.value.DoubleValue
-64.596

@<SCITEGIC>MOL_PROPERTY
W(SA)
SciTegic.value.DoubleValue
2.099

@<SCITEGIC>MOL_PROPERTY
Valence
SciTegic.value.DoubleValue
7.174

@<SCITEGIC>MOL_PROPERTY
Coulomb
SciTegic.value.DoubleValue
-0.669

@<SCITEGIC>MOL_PROPERTY
VdW
SciTegic.value.DoubleValue
0.739

@<SCITEGIC>MOL_PROPERTY
VdW6
SciTegic.value.DoubleValue
-5.969

@<SCITEGIC>MOL_PROPERTY
VdW12
SciTegic.value.DoubleValue
6.708

@<SCITEGIC>MOL_PROPERTY
Bond
SciTegic.value.DoubleValue
0.116

@<SCITEGIC>MOL_PROPERTY
Angle
SciTegic.value.DoubleValue
2.481

@<SCITEGIC>MOL_PROPERTY
Pdih
SciTegic.value.DoubleValue
4.576

@<SCITEGIC>MOL_PROPERTY
Idih
SciTegic.value.DoubleValue
0.000

@<SCITEGIC>MOL_PROPERTY
Tether
SciTegic.value.DoubleValue
0.000

@<TRIPOS>MOLECULE
guest-7_confgen4.mol2 : confsearch ligand conformer 159
          19          18           1
SMALL
USER_CHARGES
 
@<TRIPOS>ATOM
       1    C1      19.862751   18.748294   25.197425 C.2        1 MOL1         0.6115
       2    O1      18.936254   19.482395   25.478939 O.co2      1 MOL1        -0.6776
       3    O2      19.970102   17.611895   25.614263 O.co2      1 MOL1        -0.6776
       4    C2      20.963834   19.288204   24.288878 C.3        1 MOL1        -0.2013
       5    H1      21.924876   19.023284   24.745306 H          1 MOL1         0.0727
       6    H2      20.906951   20.383514   24.282160 H          1 MOL1         0.0727
       7    C3      20.911121   18.740677   22.838868 C.3        1 MOL1        -0.1910
       8    H3      21.810964   19.068881   22.301189 H          1 MOL1         0.0729
       9    H4      20.940096   17.642409   22.863321 H          1 MOL1         0.0729
      10    C4      19.657339   19.214214   22.070036 C.3        1 MOL1        -0.1909
      11    H5      19.626035   20.312368   22.059623 H          1 MOL1         0.0729
      12    H6      18.752311   18.874990   22.592791 H          1 MOL1         0.0729
      13    C5      19.641549   18.683871   20.621212 C.3        1 MOL1        -0.1884
      14    H7      20.542628   19.023605   20.091998 H          1 MOL1         0.0729
      15    H8      19.670358   17.585423   20.628745 H          1 MOL1         0.0729
      16    C6      18.389479   19.158115   19.856758 C.3        1 MOL1        -0.2899
      17    H9      18.351621   20.254234   19.806790 H          1 MOL1         0.0741
      18    H10     18.394108   18.771815   18.829218 H          1 MOL1         0.0741
      19    H11     17.472843   18.805420   20.347497 H          1 MOL1         0.0741
@<TRIPOS>BOND
    1     1     2    1
    2     1     3    2
    3     1     4    1
    4     4     5    1
    5     4     6    1
    6     4     7    1
    7     7     8    1
    8     7     9    1
    9     7    10    1
   10    10    11    1
   11    10    12    1
   12    10    13    1
   13    13    14    1
   14    13    15    1
   15    13    16    1
   16    16    17    1
   17    16    18    1
   18    16    19    1
@<TRIPOS>SUBSTRUCTURE
       1 MOL1            1 RESIDUE      1      MOL     
@<SCITEGIC>MOL_PROPERTY
VConf Rank
SciTegic.value.IntegerValue
159

@<SCITEGIC>MOL_PROPERTY
Conf_Id
SciTegic.value.IntegerValue
36

@<SCITEGIC>MOL_PROPERTY
Delta U+W
SciTegic.value.DoubleValue
-0.079

@<SCITEGIC>MOL_PROPERTY
U+W
SciTegic.value.DoubleValue
-54.971

@<SCITEGIC>MOL_PROPERTY
Grad RMS
SciTegic.value.DoubleValue
0.000000

@<SCITEGIC>MOL_PROPERTY
U
SciTegic.value.DoubleValue
8.266

@<SCITEGIC>MOL_PROPERTY
W
SciTegic.value.DoubleValue
-63.237

@<SCITEGIC>MOL_PROPERTY
W(PB)
SciTegic.value.DoubleValue
-65.340

@<SCITEGIC>MOL_PROPERTY
W(SA)
SciTegic.value.DoubleValue
2.103

@<SCITEGIC>MOL_PROPERTY
Valence
SciTegic.value.DoubleValue
6.935

@<SCITEGIC>MOL_PROPERTY
Coulomb
SciTegic.value.DoubleValue
0.874

@<SCITEGIC>MOL_PROPERTY
VdW
SciTegic.value.DoubleValue
0.457

@<SCITEGIC>MOL_PROPERTY
VdW6
SciTegic.value.DoubleValue
-6.205

@<SCITEGIC>MOL_PROPERTY
VdW12
SciTegic.value.DoubleValue
6.662

@<SCITEGIC>MOL_PROPERTY
Bond
SciTegic.value.DoubleValue
0.107

@<SCITEGIC>MOL_PROPERTY
Angle
SciTegic.value.DoubleValue
2.420

@<SCITEGIC>MOL_PROPERTY
Pdih
SciTegic.value.DoubleValue
4.407

@<SCITEGIC>MOL_PROPERTY
Idih
SciTegic.value.DoubleValue
0.001

@<SCITEGIC>MOL_PROPERTY
Tether
SciTegic.value.DoubleValue
0.000

@<TRIPOS>MOLECULE
guest-7_confgen4.mol2 : confsearch ligand conformer 160
          19          18           1
SMALL
USER_CHARGES
 
@<TRIPOS>ATOM
       1    C1      19.577613   21.746625   22.638631 C.2        1 MOL1         0.6115
       2    O1      19.077283   21.742954   23.745974 O.co2      1 MOL1        -0.6776
       3    O2      19.061130   22.267453   21.669784 O.co2      1 MOL1        -0.6776
       4    C2      20.938581   21.080190   22.457036 C.3        1 MOL1        -0.2013
       5    H1      21.409655   20.971402   23.441537 H          1 MOL1         0.0727
       6    H2      21.566417   21.768808   21.879336 H          1 MOL1         0.0727
       7    C3      20.878600   19.707509   21.737841 C.3        1 MOL1        -0.1910
       8    H3      20.379029   19.827198   20.766381 H          1 MOL1         0.0729
       9    H4      21.902653   19.370488   21.527444 H          1 MOL1         0.0729
      10    C4      20.149408   18.630793   22.572271 C.3        1 MOL1        -0.1909
      11    H5      19.118179   18.953055   22.772613 H          1 MOL1         0.0729
      12    H6      20.644537   18.524181   23.547212 H          1 MOL1         0.0729
      13    C5      20.129241   17.266495   21.851932 C.3        1 MOL1        -0.1884
      14    H7      19.632336   17.369767   20.877307 H          1 MOL1         0.0729
      15    H8      21.158389   16.936983   21.652665 H          1 MOL1         0.0729
      16    C6      19.401047   16.194408   22.687003 C.3        1 MOL1        -0.2899
      17    H9      18.358820   16.484083   22.874873 H          1 MOL1         0.0741
      18    H10     19.395575   15.231344   22.160158 H          1 MOL1         0.0741
      19    H11     19.896194   16.048081   23.655932 H          1 MOL1         0.0741
@<TRIPOS>BOND
    1     1     2    1
    2     1     3    2
    3     1     4    1
    4     4     5    1
    5     4     6    1
    6     4     7    1
    7     7     8    1
    8     7     9    1
    9     7    10    1
   10    10    11    1
   11    10    12    1
   12    10    13    1
   13    13    14    1
   14    13    15    1
   15    13    16    1
   16    16    17    1
   17    16    18    1
   18    16    19    1
@<TRIPOS>SUBSTRUCTURE
       1 MOL1            1 RESIDUE      1      MOL     
@<SCITEGIC>MOL_PROPERTY
VConf Rank
SciTegic.value.IntegerValue
160

@<SCITEGIC>MOL_PROPERTY
Conf_Id
SciTegic.value.IntegerValue
35

@<SCITEGIC>MOL_PROPERTY
Delta U+W
SciTegic.value.DoubleValue
-0.030

@<SCITEGIC>MOL_PROPERTY
U+W
SciTegic.value.DoubleValue
-54.921

@<SCITEGIC>MOL_PROPERTY
Grad RMS
SciTegic.value.DoubleValue
0.000000

@<SCITEGIC>MOL_PROPERTY
U
SciTegic.value.DoubleValue
8.267

@<SCITEGIC>MOL_PROPERTY
W
SciTegic.value.DoubleValue
-63.188

@<SCITEGIC>MOL_PROPERTY
W(PB)
SciTegic.value.DoubleValue
-65.294

@<SCITEGIC>MOL_PROPERTY
W(SA)
SciTegic.value.DoubleValue
2.106

@<SCITEGIC>MOL_PROPERTY
Valence
SciTegic.value.DoubleValue
6.935

@<SCITEGIC>MOL_PROPERTY
Coulomb
SciTegic.value.DoubleValue
0.875

@<SCITEGIC>MOL_PROPERTY
VdW
SciTegic.value.DoubleValue
0.457

@<SCITEGIC>MOL_PROPERTY
VdW6
SciTegic.value.DoubleValue
-6.205

@<SCITEGIC>MOL_PROPERTY
VdW12
SciTegic.value.DoubleValue
6.662

@<SCITEGIC>MOL_PROPERTY
Bond
SciTegic.value.DoubleValue
0.107

@<SCITEGIC>MOL_PROPERTY
Angle
SciTegic.value.DoubleValue
2.420

@<SCITEGIC>MOL_PROPERTY
Pdih
SciTegic.value.DoubleValue
4.407

@<SCITEGIC>MOL_PROPERTY
Idih
SciTegic.value.DoubleValue
0.001

@<SCITEGIC>MOL_PROPERTY
Tether
SciTegic.value.DoubleValue
0.000

@<TRIPOS>MOLECULE
guest-7_confgen4.mol2 : confsearch ligand conformer 161
          19          18           1
SMALL
USER_CHARGES
 
@<TRIPOS>ATOM
       1    C1      21.415392   20.778087   20.518710 C.2        1 MOL1         0.6115
       2    O1      22.616508   20.840624   20.692249 O.co2      1 MOL1        -0.6776
       3    O2      20.697543   21.754749   20.432293 O.co2      1 MOL1        -0.6776
       4    C2      20.779275   19.397617   20.380362 C.3        1 MOL1        -0.2013
       5    H1      21.405001   18.816508   19.692704 H          1 MOL1         0.0727
       6    H2      19.799514   19.509338   19.900211 H          1 MOL1         0.0727
       7    C3      20.633761   18.630384   21.720474 C.3        1 MOL1        -0.1910
       8    H3      20.315220   17.603424   21.500845 H          1 MOL1         0.0729
       9    H4      21.615779   18.560850   22.208464 H          1 MOL1         0.0729
      10    C4      19.617608   19.296440   22.678850 C.3        1 MOL1        -0.1909
      11    H5      18.627647   19.330174   22.203815 H          1 MOL1         0.0729
      12    H6      19.914179   20.340241   22.850754 H          1 MOL1         0.0729
      13    C5      19.510541   18.588290   24.049211 C.3        1 MOL1        -0.1884
      14    H7      20.499046   18.554901   24.527807 H          1 MOL1         0.0729
      15    H8      18.867718   19.189594   24.706807 H          1 MOL1         0.0729
      16    C6      18.929073   17.160913   23.956959 C.3        1 MOL1        -0.2899
      17    H9      19.599145   16.489701   23.405505 H          1 MOL1         0.0741
      18    H10     18.788590   16.738502   24.960338 H          1 MOL1         0.0741
      19    H11     17.953888   17.165716   23.452839 H          1 MOL1         0.0741
@<TRIPOS>BOND
    1     1     2    1
    2     1     3    2
    3     1     4    1
    4     4     5    1
    5     4     6    1
    6     4     7    1
    7     7     8    1
    8     7     9    1
    9     7    10    1
   10    10    11    1
   11    10    12    1
   12    10    13    1
   13    13    14    1
   14    13    15    1
   15    13    16    1
   16    16    17    1
   17    16    18    1
   18    16    19    1
@<TRIPOS>SUBSTRUCTURE
       1 MOL1            1 RESIDUE      1      MOL     
@<SCITEGIC>MOL_PROPERTY
VConf Rank
SciTegic.value.IntegerValue
161

@<SCITEGIC>MOL_PROPERTY
Conf_Id
SciTegic.value.IntegerValue
74

@<SCITEGIC>MOL_PROPERTY
Delta U+W
SciTegic.value.DoubleValue
0.797

@<SCITEGIC>MOL_PROPERTY
U+W
SciTegic.value.DoubleValue
-54.095

@<SCITEGIC>MOL_PROPERTY
Grad RMS
SciTegic.value.DoubleValue
0.000000

@<SCITEGIC>MOL_PROPERTY
U
SciTegic.value.DoubleValue
8.869

@<SCITEGIC>MOL_PROPERTY
W
SciTegic.value.DoubleValue
-62.964

@<SCITEGIC>MOL_PROPERTY
W(PB)
SciTegic.value.DoubleValue
-65.046

@<SCITEGIC>MOL_PROPERTY
W(SA)
SciTegic.value.DoubleValue
2.082

@<SCITEGIC>MOL_PROPERTY
Valence
SciTegic.value.DoubleValue
7.469

@<SCITEGIC>MOL_PROPERTY
Coulomb
SciTegic.value.DoubleValue
0.762

@<SCITEGIC>MOL_PROPERTY
VdW
SciTegic.value.DoubleValue
0.639

@<SCITEGIC>MOL_PROPERTY
VdW6
SciTegic.value.DoubleValue
-6.782

@<SCITEGIC>MOL_PROPERTY
VdW12
SciTegic.value.DoubleValue
7.421

@<SCITEGIC>MOL_PROPERTY
Bond
SciTegic.value.DoubleValue
0.141

@<SCITEGIC>MOL_PROPERTY
Angle
SciTegic.value.DoubleValue
2.667

@<SCITEGIC>MOL_PROPERTY
Pdih
SciTegic.value.DoubleValue
4.660

@<SCITEGIC>MOL_PROPERTY
Idih
SciTegic.value.DoubleValue
0.001

@<SCITEGIC>MOL_PROPERTY
Tether
SciTegic.value.DoubleValue
0.000

@<TRIPOS>MOLECULE
guest-7_confgen4.mol2 : confsearch ligand conformer 162
          19          18           1
SMALL
USER_CHARGES
 
@<TRIPOS>ATOM
       1    C1      17.098870   18.923526   21.753867 C.2        1 MOL1         0.6115
       2    O1      16.498943   18.486968   20.791616 O.co2      1 MOL1        -0.6776
       3    O2      16.589937   19.089069   22.844694 O.co2      1 MOL1        -0.6776
       4    C2      18.575531   19.264267   21.587773 C.3        1 MOL1        -0.2013
       5    H1      18.799567   20.108968   22.249171 H          1 MOL1         0.0727
       6    H2      18.733077   19.605659   20.557731 H          1 MOL1         0.0727
       7    C3      19.507656   18.065658   21.902522 C.3        1 MOL1        -0.1910
       8    H3      19.368978   17.756984   22.947160 H          1 MOL1         0.0729
       9    H4      19.198479   17.208207   21.289018 H          1 MOL1         0.0729
      10    C4      21.004304   18.355630   21.625594 C.3        1 MOL1        -0.1909
      11    H5      21.134438   18.561799   20.554448 H          1 MOL1         0.0729
      12    H6      21.583706   17.445339   21.831612 H          1 MOL1         0.0729
      13    C5      21.610119   19.528189   22.435528 C.3        1 MOL1        -0.1884
      14    H7      22.663046   19.646433   22.144937 H          1 MOL1         0.0729
      15    H8      21.114221   20.470460   22.167538 H          1 MOL1         0.0729
      16    C6      21.537615   19.317878   23.963242 C.3        1 MOL1        -0.2899
      17    H9      22.008059   18.369019   24.251998 H          1 MOL1         0.0741
      18    H10     22.059871   20.128350   24.487835 H          1 MOL1         0.0741
      19    H11     20.498372   19.309164   24.315612 H          1 MOL1         0.0741
@<TRIPOS>BOND
    1     1     2    1
    2     1     3    2
    3     1     4    1
    4     4     5    1
    5     4     6    1
    6     4     7    1
    7     7     8    1
    8     7     9    1
    9     7    10    1
   10    10    11    1
   11    10    12    1
   12    10    13    1
   13    13    14    1
   14    13    15    1
   15    13    16    1
   16    16    17    1
   17    16    18    1
   18    16    19    1
@<TRIPOS>SUBSTRUCTURE
       1 MOL1            1 RESIDUE      1      MOL     
@<SCITEGIC>MOL_PROPERTY
VConf Rank
SciTegic.value.IntegerValue
162

@<SCITEGIC>MOL_PROPERTY
Conf_Id
SciTegic.value.IntegerValue
67

@<SCITEGIC>MOL_PROPERTY
Delta U+W
SciTegic.value.DoubleValue
0.308

@<SCITEGIC>MOL_PROPERTY
U+W
SciTegic.value.DoubleValue
-54.583

@<SCITEGIC>MOL_PROPERTY
Grad RMS
SciTegic.value.DoubleValue
0.000000

@<SCITEGIC>MOL_PROPERTY
U
SciTegic.value.DoubleValue
8.219

@<SCITEGIC>MOL_PROPERTY
W
SciTegic.value.DoubleValue
-62.802

@<SCITEGIC>MOL_PROPERTY
W(PB)
SciTegic.value.DoubleValue
-64.859

@<SCITEGIC>MOL_PROPERTY
W(SA)
SciTegic.value.DoubleValue
2.057

@<SCITEGIC>MOL_PROPERTY
Valence
SciTegic.value.DoubleValue
7.609

@<SCITEGIC>MOL_PROPERTY
Coulomb
SciTegic.value.DoubleValue
-0.089

@<SCITEGIC>MOL_PROPERTY
VdW
SciTegic.value.DoubleValue
0.699

@<SCITEGIC>MOL_PROPERTY
VdW6
SciTegic.value.DoubleValue
-6.924

@<SCITEGIC>MOL_PROPERTY
VdW12
SciTegic.value.DoubleValue
7.623

@<SCITEGIC>MOL_PROPERTY
Bond
SciTegic.value.DoubleValue
0.163

@<SCITEGIC>MOL_PROPERTY
Angle
SciTegic.value.DoubleValue
2.870

@<SCITEGIC>MOL_PROPERTY
Pdih
SciTegic.value.DoubleValue
4.576

@<SCITEGIC>MOL_PROPERTY
Idih
SciTegic.value.DoubleValue
0.001

@<SCITEGIC>MOL_PROPERTY
Tether
SciTegic.value.DoubleValue
0.000

@<TRIPOS>MOLECULE
guest-7_confgen4.mol2 : confsearch ligand conformer 163
          19          18           1
SMALL
USER_CHARGES
 
@<TRIPOS>ATOM
       1    C1      22.258800   18.291209   20.567207 C.2        1 MOL1         0.6115
       2    O1      22.971205   19.038698   19.926769 O.co2      1 MOL1        -0.6776
       3    O2      22.110203   17.114470   20.303530 O.co2      1 MOL1        -0.6776
       4    C2      21.494823   18.866302   21.754567 C.3        1 MOL1        -0.2013
       5    H1      22.101628   19.666050   22.195641 H          1 MOL1         0.0727
       6    H2      21.402068   18.074671   22.506815 H          1 MOL1         0.0727
       7    C3      20.096455   19.410000   21.362716 C.3        1 MOL1        -0.1910
       8    H3      20.216251   20.133564   20.544607 H          1 MOL1         0.0729
       9    H4      19.484900   18.592779   20.957838 H          1 MOL1         0.0729
      10    C4      19.352776   20.105360   22.530680 C.3        1 MOL1        -0.1909
      11    H5      18.397077   20.497076   22.156545 H          1 MOL1         0.0729
      12    H6      19.934118   20.980420   22.851780 H          1 MOL1         0.0729
      13    C5      19.078029   19.210237   23.764037 C.3        1 MOL1        -0.1884
      14    H7      20.024744   18.890651   24.219235 H          1 MOL1         0.0729
      15    H8      18.563699   19.812606   24.525415 H          1 MOL1         0.0729
      16    C6      18.211961   17.973638   23.441318 C.3        1 MOL1        -0.2899
      17    H9      18.737655   17.282958   22.769846 H          1 MOL1         0.0741
      18    H10     17.969311   17.424189   24.360036 H          1 MOL1         0.0741
      19    H11     17.268559   18.268472   22.963726 H          1 MOL1         0.0741
@<TRIPOS>BOND
    1     1     2    1
    2     1     3    2
    3     1     4    1
    4     4     5    1
    5     4     6    1
    6     4     7    1
    7     7     8    1
    8     7     9    1
    9     7    10    1
   10    10    11    1
   11    10    12    1
   12    10    13    1
   13    13    14    1
   14    13    15    1
   15    13    16    1
   16    16    17    1
   17    16    18    1
   18    16    19    1
@<TRIPOS>SUBSTRUCTURE
       1 MOL1            1 RESIDUE      1      MOL     
@<SCITEGIC>MOL_PROPERTY
VConf Rank
SciTegic.value.IntegerValue
163

@<SCITEGIC>MOL_PROPERTY
Conf_Id
SciTegic.value.IntegerValue
21

@<SCITEGIC>MOL_PROPERTY
Delta U+W
SciTegic.value.DoubleValue
0.319

@<SCITEGIC>MOL_PROPERTY
U+W
SciTegic.value.DoubleValue
-54.572

@<SCITEGIC>MOL_PROPERTY
Grad RMS
SciTegic.value.DoubleValue
0.000000

@<SCITEGIC>MOL_PROPERTY
U
SciTegic.value.DoubleValue
8.220

@<SCITEGIC>MOL_PROPERTY
W
SciTegic.value.DoubleValue
-62.792

@<SCITEGIC>MOL_PROPERTY
W(PB)
SciTegic.value.DoubleValue
-64.830

@<SCITEGIC>MOL_PROPERTY
W(SA)
SciTegic.value.DoubleValue
2.038

@<SCITEGIC>MOL_PROPERTY
Valence
SciTegic.value.DoubleValue
7.609

@<SCITEGIC>MOL_PROPERTY
Coulomb
SciTegic.value.DoubleValue
-0.088

@<SCITEGIC>MOL_PROPERTY
VdW
SciTegic.value.DoubleValue
0.699

@<SCITEGIC>MOL_PROPERTY
VdW6
SciTegic.value.DoubleValue
-6.924

@<SCITEGIC>MOL_PROPERTY
VdW12
SciTegic.value.DoubleValue
7.623

@<SCITEGIC>MOL_PROPERTY
Bond
SciTegic.value.DoubleValue
0.163

@<SCITEGIC>MOL_PROPERTY
Angle
SciTegic.value.DoubleValue
2.870

@<SCITEGIC>MOL_PROPERTY
Pdih
SciTegic.value.DoubleValue
4.576

@<SCITEGIC>MOL_PROPERTY
Idih
SciTegic.value.DoubleValue
0.000

@<SCITEGIC>MOL_PROPERTY
Tether
SciTegic.value.DoubleValue
0.000

@<TRIPOS>MOLECULE
guest-7_confgen4.mol2 : confsearch ligand conformer 164
          19          18           1
SMALL
USER_CHARGES
 
@<TRIPOS>ATOM
       1    C1      17.205877   18.397015   22.936269 C.2        1 MOL1         0.6115
       2    O1      16.630297   17.349172   23.153458 O.co2      1 MOL1        -0.6776
       3    O2      16.798887   19.478100   23.312921 O.co2      1 MOL1        -0.6776
       4    C2      18.519932   18.350076   22.164818 C.3        1 MOL1        -0.2013
       5    H1      18.602340   19.274948   21.585470 H          1 MOL1         0.0727
       6    H2      18.459481   17.526211   21.443724 H          1 MOL1         0.0727
       7    C3      19.752102   18.158314   23.088170 C.3        1 MOL1        -0.1910
       8    H3      19.781908   18.950684   23.848790 H          1 MOL1         0.0729
       9    H4      19.620478   17.214394   23.635058 H          1 MOL1         0.0729
      10    C4      21.096463   18.102053   22.319097 C.3        1 MOL1        -0.1909
      11    H5      20.942321   17.690923   21.312067 H          1 MOL1         0.0729
      12    H6      21.755060   17.389770   22.834728 H          1 MOL1         0.0729
      13    C5      21.848973   19.452691   22.232989 C.3        1 MOL1        -0.1884
      14    H7      22.077464   19.812136   23.245831 H          1 MOL1         0.0729
      15    H8      22.817007   19.281276   21.742356 H          1 MOL1         0.0729
      16    C6      21.091152   20.551280   21.459358 C.3        1 MOL1        -0.2899
      17    H9      21.729578   21.433576   21.322322 H          1 MOL1         0.0741
      18    H10     20.786563   20.195908   20.466426 H          1 MOL1         0.0741
      19    H11     20.195991   20.873753   22.005706 H          1 MOL1         0.0741
@<TRIPOS>BOND
    1     1     2    1
    2     1     3    2
    3     1     4    1
    4     4     5    1
    5     4     6    1
    6     4     7    1
    7     7     8    1
    8     7     9    1
    9     7    10    1
   10    10    11    1
   11    10    12    1
   12    10    13    1
   13    13    14    1
   14    13    15    1
   15    13    16    1
   16    16    17    1
   17    16    18    1
   18    16    19    1
@<TRIPOS>SUBSTRUCTURE
       1 MOL1            1 RESIDUE      1      MOL     
@<SCITEGIC>MOL_PROPERTY
VConf Rank
SciTegic.value.IntegerValue
164

@<SCITEGIC>MOL_PROPERTY
Conf_Id
SciTegic.value.IntegerValue
24

@<SCITEGIC>MOL_PROPERTY
Delta U+W
SciTegic.value.DoubleValue
2.477

@<SCITEGIC>MOL_PROPERTY
U+W
SciTegic.value.DoubleValue
-52.414

@<SCITEGIC>MOL_PROPERTY
Grad RMS
SciTegic.value.DoubleValue
0.000000

@<SCITEGIC>MOL_PROPERTY
U
SciTegic.value.DoubleValue
10.422

@<SCITEGIC>MOL_PROPERTY
W
SciTegic.value.DoubleValue
-62.836

@<SCITEGIC>MOL_PROPERTY
W(PB)
SciTegic.value.DoubleValue
-64.906

@<SCITEGIC>MOL_PROPERTY
W(SA)
SciTegic.value.DoubleValue
2.070

@<SCITEGIC>MOL_PROPERTY
Valence
SciTegic.value.DoubleValue
9.628

@<SCITEGIC>MOL_PROPERTY
Coulomb
SciTegic.value.DoubleValue
0.101

@<SCITEGIC>MOL_PROPERTY
VdW
SciTegic.value.DoubleValue
0.693

@<SCITEGIC>MOL_PROPERTY
VdW6
SciTegic.value.DoubleValue
-6.927

@<SCITEGIC>MOL_PROPERTY
VdW12
SciTegic.value.DoubleValue
7.620

@<SCITEGIC>MOL_PROPERTY
Bond
SciTegic.value.DoubleValue
0.173

@<SCITEGIC>MOL_PROPERTY
Angle
SciTegic.value.DoubleValue
2.989

@<SCITEGIC>MOL_PROPERTY
Pdih
SciTegic.value.DoubleValue
6.465

@<SCITEGIC>MOL_PROPERTY
Idih
SciTegic.value.DoubleValue
0.001

@<SCITEGIC>MOL_PROPERTY
Tether
SciTegic.value.DoubleValue
0.000

@<TRIPOS>MOLECULE
guest-7_confgen4.mol2 : confsearch ligand conformer 165
          19          18           1
SMALL
USER_CHARGES
 
@<TRIPOS>ATOM
       1    C1      18.646004   18.850523   20.109619 C.2        1 MOL1         0.6115
       2    O1      19.337251   19.658833   19.521825 O.co2      1 MOL1        -0.6776
       3    O2      18.119001   17.898840   19.567732 O.co2      1 MOL1        -0.6776
       4    C2      18.400871   19.054830   21.602402 C.3        1 MOL1        -0.2013
       5    H1      17.321727   18.958134   21.769301 H          1 MOL1         0.0727
       6    H2      18.666326   20.085571   21.858015 H          1 MOL1         0.0727
       7    C3      19.153471   18.042646   22.510155 C.3        1 MOL1        -0.1910
       8    H3      18.776036   18.113661   23.539101 H          1 MOL1         0.0729
       9    H4      18.905041   17.028757   22.166868 H          1 MOL1         0.0729
      10    C4      20.695604   18.207814   22.505165 C.3        1 MOL1        -0.1909
      11    H5      21.037706   18.599985   21.537707 H          1 MOL1         0.0729
      12    H6      21.145310   17.209778   22.597206 H          1 MOL1         0.0729
      13    C5      21.255557   19.078517   23.656788 C.3        1 MOL1        -0.1884
      14    H7      20.985453   18.630698   24.623073 H          1 MOL1         0.0729
      15    H8      22.352893   19.059463   23.605371 H          1 MOL1         0.0729
      16    C6      20.785577   20.547381   23.623423 C.3        1 MOL1        -0.2899
      17    H9      19.713265   20.624521   23.841486 H          1 MOL1         0.0741
      18    H10     21.319717   21.138664   24.378312 H          1 MOL1         0.0741
      19    H11     20.975994   20.999244   22.641055 H          1 MOL1         0.0741
@<TRIPOS>BOND
    1     1     2    1
    2     1     3    2
    3     1     4    1
    4     4     5    1
    5     4     6    1
    6     4     7    1
    7     7     8    1
    8     7     9    1
    9     7    10    1
   10    10    11    1
   11    10    12    1
   12    10    13    1
   13    13    14    1
   14    13    15    1
   15    13    16    1
   16    16    17    1
   17    16    18    1
   18    16    19    1
@<TRIPOS>SUBSTRUCTURE
       1 MOL1            1 RESIDUE      1      MOL     
@<SCITEGIC>MOL_PROPERTY
VConf Rank
SciTegic.value.IntegerValue
165

@<SCITEGIC>MOL_PROPERTY
Conf_Id
SciTegic.value.IntegerValue
4

@<SCITEGIC>MOL_PROPERTY
Delta U+W
SciTegic.value.DoubleValue
3.753

@<SCITEGIC>MOL_PROPERTY
U+W
SciTegic.value.DoubleValue
-51.138

@<SCITEGIC>MOL_PROPERTY
Grad RMS
SciTegic.value.DoubleValue
0.000000

@<SCITEGIC>MOL_PROPERTY
U
SciTegic.value.DoubleValue
12.334

@<SCITEGIC>MOL_PROPERTY
W
SciTegic.value.DoubleValue
-63.472

@<SCITEGIC>MOL_PROPERTY
W(PB)
SciTegic.value.DoubleValue
-65.500

@<SCITEGIC>MOL_PROPERTY
W(SA)
SciTegic.value.DoubleValue
2.028

@<SCITEGIC>MOL_PROPERTY
Valence
SciTegic.value.DoubleValue
9.984

@<SCITEGIC>MOL_PROPERTY
Coulomb
SciTegic.value.DoubleValue
1.767

@<SCITEGIC>MOL_PROPERTY
VdW
SciTegic.value.DoubleValue
0.583

@<SCITEGIC>MOL_PROPERTY
VdW6
SciTegic.value.DoubleValue
-7.767

@<SCITEGIC>MOL_PROPERTY
VdW12
SciTegic.value.DoubleValue
8.349

@<SCITEGIC>MOL_PROPERTY
Bond
SciTegic.value.DoubleValue
0.203

@<SCITEGIC>MOL_PROPERTY
Angle
SciTegic.value.DoubleValue
3.191

@<SCITEGIC>MOL_PROPERTY
Pdih
SciTegic.value.DoubleValue
6.589

@<SCITEGIC>MOL_PROPERTY
Idih
SciTegic.value.DoubleValue
0.001

@<SCITEGIC>MOL_PROPERTY
Tether
SciTegic.value.DoubleValue
0.000

@<TRIPOS>MOLECULE
guest-7_confgen4.mol2 : confsearch ligand conformer 166
          19          18           1
SMALL
USER_CHARGES
 
@<TRIPOS>ATOM
       1    C1      21.838805   17.729837   23.742368 C.2        1 MOL1         0.6115
       2    O1      22.205772   17.866288   24.892928 O.co2      1 MOL1        -0.6776
       3    O2      21.740927   16.650214   23.193252 O.co2      1 MOL1        -0.6776
       4    C2      21.512129   18.985359   22.937895 C.3        1 MOL1        -0.2013
       5    H1      21.510268   18.723643   21.875008 H          1 MOL1         0.0727
       6    H2      22.339448   19.689115   23.086304 H          1 MOL1         0.0727
       7    C3      20.177591   19.668181   23.347408 C.3        1 MOL1        -0.1910
       8    H3      20.205662   19.845623   24.431502 H          1 MOL1         0.0729
       9    H4      20.108872   20.660171   22.881074 H          1 MOL1         0.0729
      10    C4      18.909744   18.841304   23.009306 C.3        1 MOL1        -0.1909
      11    H5      18.168494   19.015294   23.801177 H          1 MOL1         0.0729
      12    H6      19.131683   17.765875   23.040915 H          1 MOL1         0.0729
      13    C5      18.242842   19.204373   21.659741 C.3        1 MOL1        -0.1884
      14    H7      17.316367   18.621966   21.561770 H          1 MOL1         0.0729
      15    H8      17.941929   20.261049   21.669146 H          1 MOL1         0.0729
      16    C6      19.127986   18.934541   20.425533 C.3        1 MOL1        -0.2899
      17    H9      19.505116   17.903405   20.429609 H          1 MOL1         0.0741
      18    H10     18.554036   19.082409   19.501685 H          1 MOL1         0.0741
      19    H11     19.984257   19.619567   20.395624 H          1 MOL1         0.0741
@<TRIPOS>BOND
    1     1     2    1
    2     1     3    2
    3     1     4    1
    4     4     5    1
    5     4     6    1
    6     4     7    1
    7     7     8    1
    8     7     9    1
    9     7    10    1
   10    10    11    1
   11    10    12    1
   12    10    13    1
   13    13    14    1
   14    13    15    1
   15    13    16    1
   16    16    17    1
   17    16    18    1
   18    16    19    1
@<TRIPOS>SUBSTRUCTURE
       1 MOL1            1 RESIDUE      1      MOL     
@<SCITEGIC>MOL_PROPERTY
VConf Rank
SciTegic.value.IntegerValue
166

@<SCITEGIC>MOL_PROPERTY
Conf_Id
SciTegic.value.IntegerValue
73

@<SCITEGIC>MOL_PROPERTY
Delta U+W
SciTegic.value.DoubleValue
3.707

@<SCITEGIC>MOL_PROPERTY
U+W
SciTegic.value.DoubleValue
-51.184

@<SCITEGIC>MOL_PROPERTY
Grad RMS
SciTegic.value.DoubleValue
0.000000

@<SCITEGIC>MOL_PROPERTY
U
SciTegic.value.DoubleValue
12.334

@<SCITEGIC>MOL_PROPERTY
W
SciTegic.value.DoubleValue
-63.519

@<SCITEGIC>MOL_PROPERTY
W(PB)
SciTegic.value.DoubleValue
-65.541

@<SCITEGIC>MOL_PROPERTY
W(SA)
SciTegic.value.DoubleValue
2.022

@<SCITEGIC>MOL_PROPERTY
Valence
SciTegic.value.DoubleValue
9.984

@<SCITEGIC>MOL_PROPERTY
Coulomb
SciTegic.value.DoubleValue
1.768

@<SCITEGIC>MOL_PROPERTY
VdW
SciTegic.value.DoubleValue
0.583

@<SCITEGIC>MOL_PROPERTY
VdW6
SciTegic.value.DoubleValue
-7.767

@<SCITEGIC>MOL_PROPERTY
VdW12
SciTegic.value.DoubleValue
8.350

@<SCITEGIC>MOL_PROPERTY
Bond
SciTegic.value.DoubleValue
0.203

@<SCITEGIC>MOL_PROPERTY
Angle
SciTegic.value.DoubleValue
3.192

@<SCITEGIC>MOL_PROPERTY
Pdih
SciTegic.value.DoubleValue
6.589

@<SCITEGIC>MOL_PROPERTY
Idih
SciTegic.value.DoubleValue
0.001

@<SCITEGIC>MOL_PROPERTY
Tether
SciTegic.value.DoubleValue
0.000

@<TRIPOS>MOLECULE
guest-7_confgen4.mol2 : confsearch ligand conformer 167
          19          18           1
SMALL
USER_CHARGES
 
@<TRIPOS>ATOM
       1    C1      22.250535   18.577836   23.245458 C.2        1 MOL1         0.6115
       2    O1      21.980548   18.550384   24.429969 O.co2      1 MOL1        -0.6776
       3    O2      23.119331   17.895126   22.739236 O.co2      1 MOL1        -0.6776
       4    C2      21.480951   19.543693   22.348693 C.3        1 MOL1        -0.2013
       5    H1      22.219653   20.115424   21.775009 H          1 MOL1         0.0727
       6    H2      20.952695   20.266159   22.981374 H          1 MOL1         0.0727
       7    C3      20.493977   18.851519   21.369384 C.3        1 MOL1        -0.1910
       8    H3      20.041707   19.609004   20.716288 H          1 MOL1         0.0729
       9    H4      21.064442   18.185094   20.707903 H          1 MOL1         0.0729
      10    C4      19.378142   18.026630   22.061167 C.3        1 MOL1        -0.1909
      11    H5      19.837500   17.196411   22.615069 H          1 MOL1         0.0729
      12    H6      18.751601   17.562790   21.287285 H          1 MOL1         0.0729
      13    C5      18.470324   18.825847   23.027778 C.3        1 MOL1        -0.1884
      14    H7      17.735244   18.137241   23.466385 H          1 MOL1         0.0729
      15    H8      19.062200   19.212052   23.868596 H          1 MOL1         0.0729
      16    C6      17.716962   19.985814   22.341779 C.3        1 MOL1        -0.2899
      17    H9      18.411364   20.757667   21.986870 H          1 MOL1         0.0741
      18    H10     17.135489   19.623636   21.484033 H          1 MOL1         0.0741
      19    H11     17.021966   20.461720   23.045547 H          1 MOL1         0.0741
@<TRIPOS>BOND
    1     1     2    1
    2     1     3    2
    3     1     4    1
    4     4     5    1
    5     4     6    1
    6     4     7    1
    7     7     8    1
    8     7     9    1
    9     7    10    1
   10    10    11    1
   11    10    12    1
   12    10    13    1
   13    13    14    1
   14    13    15    1
   15    13    16    1
   16    16    17    1
   17    16    18    1
   18    16    19    1
@<TRIPOS>SUBSTRUCTURE
       1 MOL1            1 RESIDUE      1      MOL     
@<SCITEGIC>MOL_PROPERTY
VConf Rank
SciTegic.value.IntegerValue
167

@<SCITEGIC>MOL_PROPERTY
Conf_Id
SciTegic.value.IntegerValue
56

@<SCITEGIC>MOL_PROPERTY
Delta U+W
SciTegic.value.DoubleValue
1.735

@<SCITEGIC>MOL_PROPERTY
U+W
SciTegic.value.DoubleValue
-53.156

@<SCITEGIC>MOL_PROPERTY
Grad RMS
SciTegic.value.DoubleValue
0.000000

@<SCITEGIC>MOL_PROPERTY
U
SciTegic.value.DoubleValue
10.214

@<SCITEGIC>MOL_PROPERTY
W
SciTegic.value.DoubleValue
-63.370

@<SCITEGIC>MOL_PROPERTY
W(PB)
SciTegic.value.DoubleValue
-65.388

@<SCITEGIC>MOL_PROPERTY
W(SA)
SciTegic.value.DoubleValue
2.018

@<SCITEGIC>MOL_PROPERTY
Valence
SciTegic.value.DoubleValue
7.868

@<SCITEGIC>MOL_PROPERTY
Coulomb
SciTegic.value.DoubleValue
1.968

@<SCITEGIC>MOL_PROPERTY
VdW
SciTegic.value.DoubleValue
0.378

@<SCITEGIC>MOL_PROPERTY
VdW6
SciTegic.value.DoubleValue
-8.067

@<SCITEGIC>MOL_PROPERTY
VdW12
SciTegic.value.DoubleValue
8.445

@<SCITEGIC>MOL_PROPERTY
Bond
SciTegic.value.DoubleValue
0.191

@<SCITEGIC>MOL_PROPERTY
Angle
SciTegic.value.DoubleValue
3.117

@<SCITEGIC>MOL_PROPERTY
Pdih
SciTegic.value.DoubleValue
4.559

@<SCITEGIC>MOL_PROPERTY
Idih
SciTegic.value.DoubleValue
0.001

@<SCITEGIC>MOL_PROPERTY
Tether
SciTegic.value.DoubleValue
0.000

@<TRIPOS>MOLECULE
guest-7_confgen4.mol2 : confsearch ligand conformer 168
          19          18           1
SMALL
USER_CHARGES
 
@<TRIPOS>ATOM
       1    C1      21.602920   20.807008   23.840835 C.2        1 MOL1         0.6115
       2    O1      22.803512   20.913349   23.687101 O.co2      1 MOL1        -0.6776
       3    O2      20.998316   21.300797   24.771964 O.co2      1 MOL1        -0.6776
       4    C2      20.815640   19.991456   22.821374 C.3        1 MOL1        -0.2013
       5    H1      21.311112   20.091199   21.848267 H          1 MOL1         0.0727
       6    H2      19.820869   20.442251   22.733483 H          1 MOL1         0.0727
       7    C3      20.695958   18.496581   23.211245 C.3        1 MOL1        -0.1910
       8    H3      21.700415   18.109307   23.431434 H          1 MOL1         0.0729
       9    H4      20.122314   18.411116   24.144424 H          1 MOL1         0.0729
      10    C4      20.053231   17.601655   22.121978 C.3        1 MOL1        -0.1909
      11    H5      20.073157   16.566982   22.490797 H          1 MOL1         0.0729
      12    H6      20.673163   17.607006   21.214974 H          1 MOL1         0.0729
      13    C5      18.587584   17.960096   21.771970 C.3        1 MOL1        -0.1884
      14    H7      18.040985   17.031133   21.558435 H          1 MOL1         0.0729
      15    H8      18.088911   18.415306   22.638813 H          1 MOL1         0.0729
      16    C6      18.462779   18.880409   20.537396 C.3        1 MOL1        -0.2899
      17    H9      17.407360   19.090223   20.320729 H          1 MOL1         0.0741
      18    H10     18.969716   19.839854   20.689379 H          1 MOL1         0.0741
      19    H11     18.898882   18.403769   19.649837 H          1 MOL1         0.0741
@<TRIPOS>BOND
    1     1     2    1
    2     1     3    2
    3     1     4    1
    4     4     5    1
    5     4     6    1
    6     4     7    1
    7     7     8    1
    8     7     9    1
    9     7    10    1
   10    10    11    1
   11    10    12    1
   12    10    13    1
   13    13    14    1
   14    13    15    1
   15    13    16    1
   16    16    17    1
   17    16    18    1
   18    16    19    1
@<TRIPOS>SUBSTRUCTURE
       1 MOL1            1 RESIDUE      1      MOL     
@<SCITEGIC>MOL_PROPERTY
VConf Rank
SciTegic.value.IntegerValue
168

@<SCITEGIC>MOL_PROPERTY
Conf_Id
SciTegic.value.IntegerValue
53

@<SCITEGIC>MOL_PROPERTY
Delta U+W
SciTegic.value.DoubleValue
2.279

@<SCITEGIC>MOL_PROPERTY
U+W
SciTegic.value.DoubleValue
-52.612

@<SCITEGIC>MOL_PROPERTY
Grad RMS
SciTegic.value.DoubleValue
0.000000

@<SCITEGIC>MOL_PROPERTY
U
SciTegic.value.DoubleValue
10.231

@<SCITEGIC>MOL_PROPERTY
W
SciTegic.value.DoubleValue
-62.843

@<SCITEGIC>MOL_PROPERTY
W(PB)
SciTegic.value.DoubleValue
-64.893

@<SCITEGIC>MOL_PROPERTY
W(SA)
SciTegic.value.DoubleValue
2.050

@<SCITEGIC>MOL_PROPERTY
Valence
SciTegic.value.DoubleValue
9.644

@<SCITEGIC>MOL_PROPERTY
Coulomb
SciTegic.value.DoubleValue
-0.164

@<SCITEGIC>MOL_PROPERTY
VdW
SciTegic.value.DoubleValue
0.751

@<SCITEGIC>MOL_PROPERTY
VdW6
SciTegic.value.DoubleValue
-6.881

@<SCITEGIC>MOL_PROPERTY
VdW12
SciTegic.value.DoubleValue
7.631

@<SCITEGIC>MOL_PROPERTY
Bond
SciTegic.value.DoubleValue
0.163

@<SCITEGIC>MOL_PROPERTY
Angle
SciTegic.value.DoubleValue
2.998

@<SCITEGIC>MOL_PROPERTY
Pdih
SciTegic.value.DoubleValue
6.482

@<SCITEGIC>MOL_PROPERTY
Idih
SciTegic.value.DoubleValue
0.001

@<SCITEGIC>MOL_PROPERTY
Tether
SciTegic.value.DoubleValue
0.000

@<TRIPOS>MOLECULE
guest-7_confgen4.mol2 : confsearch ligand conformer 169
          19          18           1
SMALL
USER_CHARGES
 
@<TRIPOS>ATOM
       1    C1      18.058569   19.236410   23.642324 C.2        1 MOL1         0.6115
       2    O1      18.394171   19.467267   24.787283 O.co2      1 MOL1        -0.6776
       3    O2      17.306400   18.332737   23.334325 O.co2      1 MOL1        -0.6776
       4    C2      18.553366   20.175121   22.543470 C.3        1 MOL1        -0.2013
       5    H1      19.170470   20.960622   22.996341 H          1 MOL1         0.0727
       6    H2      17.663752   20.670525   22.137532 H          1 MOL1         0.0727
       7    C3      19.324105   19.488545   21.380844 C.3        1 MOL1        -0.1910
       8    H3      18.796681   18.576386   21.068863 H          1 MOL1         0.0729
       9    H4      19.300121   20.162590   20.513950 H          1 MOL1         0.0729
      10    C4      20.807851   19.166127   21.686165 C.3        1 MOL1        -0.1909
      11    H5      21.330637   20.083204   21.990299 H          1 MOL1         0.0729
      12    H6      21.284591   18.834075   20.753711 H          1 MOL1         0.0729
      13    C5      21.007115   18.074433   22.760442 C.3        1 MOL1        -0.1884
      14    H7      20.656730   18.436783   23.735295 H          1 MOL1         0.0729
      15    H8      20.403894   17.190826   22.509920 H          1 MOL1         0.0729
      16    C6      22.489158   17.667024   22.884539 C.3        1 MOL1        -0.2899
      17    H9      23.110987   18.528865   23.160070 H          1 MOL1         0.0741
      18    H10     22.614729   16.897486   23.657254 H          1 MOL1         0.0741
      19    H11     22.866271   17.260330   21.937066 H          1 MOL1         0.0741
@<TRIPOS>BOND
    1     1     2    1
    2     1     3    2
    3     1     4    1
    4     4     5    1
    5     4     6    1
    6     4     7    1
    7     7     8    1
    8     7     9    1
    9     7    10    1
   10    10    11    1
   11    10    12    1
   12    10    13    1
   13    13    14    1
   14    13    15    1
   15    13    16    1
   16    16    17    1
   17    16    18    1
   18    16    19    1
@<TRIPOS>SUBSTRUCTURE
       1 MOL1            1 RESIDUE      1      MOL     
@<SCITEGIC>MOL_PROPERTY
VConf Rank
SciTegic.value.IntegerValue
169

@<SCITEGIC>MOL_PROPERTY
Conf_Id
SciTegic.value.IntegerValue
25

@<SCITEGIC>MOL_PROPERTY
Delta U+W
SciTegic.value.DoubleValue
2.065

@<SCITEGIC>MOL_PROPERTY
U+W
SciTegic.value.DoubleValue
-52.826

@<SCITEGIC>MOL_PROPERTY
Grad RMS
SciTegic.value.DoubleValue
0.000000

@<SCITEGIC>MOL_PROPERTY
U
SciTegic.value.DoubleValue
10.967

@<SCITEGIC>MOL_PROPERTY
W
SciTegic.value.DoubleValue
-63.794

@<SCITEGIC>MOL_PROPERTY
W(PB)
SciTegic.value.DoubleValue
-65.830

@<SCITEGIC>MOL_PROPERTY
W(SA)
SciTegic.value.DoubleValue
2.036

@<SCITEGIC>MOL_PROPERTY
Valence
SciTegic.value.DoubleValue
8.609

@<SCITEGIC>MOL_PROPERTY
Coulomb
SciTegic.value.DoubleValue
1.892

@<SCITEGIC>MOL_PROPERTY
VdW
SciTegic.value.DoubleValue
0.467

@<SCITEGIC>MOL_PROPERTY
VdW6
SciTegic.value.DoubleValue
-7.569

@<SCITEGIC>MOL_PROPERTY
VdW12
SciTegic.value.DoubleValue
8.036

@<SCITEGIC>MOL_PROPERTY
Bond
SciTegic.value.DoubleValue
0.170

@<SCITEGIC>MOL_PROPERTY
Angle
SciTegic.value.DoubleValue
3.195

@<SCITEGIC>MOL_PROPERTY
Pdih
SciTegic.value.DoubleValue
5.237

@<SCITEGIC>MOL_PROPERTY
Idih
SciTegic.value.DoubleValue
0.007

@<SCITEGIC>MOL_PROPERTY
Tether
SciTegic.value.DoubleValue
0.000

@<TRIPOS>MOLECULE
guest-7_confgen4.mol2 : confsearch ligand conformer 170
          19          18           1
SMALL
USER_CHARGES
 
@<TRIPOS>ATOM
       1    C1      21.795868   20.393977   23.302165 C.2        1 MOL1         0.6115
       2    O1      21.305109   21.079782   24.177422 O.co2      1 MOL1        -0.6776
       3    O2      22.265792   20.850209   22.278507 O.co2      1 MOL1        -0.6776
       4    C2      21.891456   18.886421   23.529375 C.3        1 MOL1        -0.2013
       5    H1      22.542730   18.746542   24.399949 H          1 MOL1         0.0727
       6    H2      22.406372   18.428888   22.675883 H          1 MOL1         0.0727
       7    C3      20.538088   18.166999   23.790057 C.3        1 MOL1        -0.1910
       8    H3      20.752631   17.212012   24.288443 H          1 MOL1         0.0729
       9    H4      19.934853   18.749479   24.500245 H          1 MOL1         0.0729
      10    C4      19.710448   17.859039   22.517716 C.3        1 MOL1        -0.1909
      11    H5      18.864952   17.219545   22.806148 H          1 MOL1         0.0729
      12    H6      20.316722   17.270663   21.815518 H          1 MOL1         0.0729
      13    C5      19.161462   19.114085   21.804239 C.3        1 MOL1        -0.1884
      14    H7      18.639851   19.755692   22.527882 H          1 MOL1         0.0729
      15    H8      19.988865   19.704003   21.389742 H          1 MOL1         0.0729
      16    C6      18.196956   18.738341   20.661268 C.3        1 MOL1        -0.2899
      17    H9      17.822842   19.640168   20.159479 H          1 MOL1         0.0741
      18    H10     18.702207   18.117222   19.910074 H          1 MOL1         0.0741
      19    H11     17.332340   18.179984   21.043357 H          1 MOL1         0.0741
@<TRIPOS>BOND
    1     1     2    1
    2     1     3    2
    3     1     4    1
    4     4     5    1
    5     4     6    1
    6     4     7    1
    7     7     8    1
    8     7     9    1
    9     7    10    1
   10    10    11    1
   11    10    12    1
   12    10    13    1
   13    13    14    1
   14    13    15    1
   15    13    16    1
   16    16    17    1
   17    16    18    1
   18    16    19    1
@<TRIPOS>SUBSTRUCTURE
       1 MOL1            1 RESIDUE      1      MOL     
@<SCITEGIC>MOL_PROPERTY
VConf Rank
SciTegic.value.IntegerValue
170

@<SCITEGIC>MOL_PROPERTY
Conf_Id
SciTegic.value.IntegerValue
52

@<SCITEGIC>MOL_PROPERTY
Delta U+W
SciTegic.value.DoubleValue
2.070

@<SCITEGIC>MOL_PROPERTY
U+W
SciTegic.value.DoubleValue
-52.822

@<SCITEGIC>MOL_PROPERTY
Grad RMS
SciTegic.value.DoubleValue
0.000000

@<SCITEGIC>MOL_PROPERTY
U
SciTegic.value.DoubleValue
10.967

@<SCITEGIC>MOL_PROPERTY
W
SciTegic.value.DoubleValue
-63.789

@<SCITEGIC>MOL_PROPERTY
W(PB)
SciTegic.value.DoubleValue
-65.837

@<SCITEGIC>MOL_PROPERTY
W(SA)
SciTegic.value.DoubleValue
2.048

@<SCITEGIC>MOL_PROPERTY
Valence
SciTegic.value.DoubleValue
8.609

@<SCITEGIC>MOL_PROPERTY
Coulomb
SciTegic.value.DoubleValue
1.892

@<SCITEGIC>MOL_PROPERTY
VdW
SciTegic.value.DoubleValue
0.467

@<SCITEGIC>MOL_PROPERTY
VdW6
SciTegic.value.DoubleValue
-7.569

@<SCITEGIC>MOL_PROPERTY
VdW12
SciTegic.value.DoubleValue
8.035

@<SCITEGIC>MOL_PROPERTY
Bond
SciTegic.value.DoubleValue
0.170

@<SCITEGIC>MOL_PROPERTY
Angle
SciTegic.value.DoubleValue
3.196

@<SCITEGIC>MOL_PROPERTY
Pdih
SciTegic.value.DoubleValue
5.237

@<SCITEGIC>MOL_PROPERTY
Idih
SciTegic.value.DoubleValue
0.007

@<SCITEGIC>MOL_PROPERTY
Tether
SciTegic.value.DoubleValue
0.000

@<TRIPOS>MOLECULE
guest-7_confgen4.mol2 : confsearch ligand conformer 171
          19          18           1
SMALL
USER_CHARGES
 
@<TRIPOS>ATOM
       1    C1      20.707805   20.112490   21.077439 C.2        1 MOL1         0.6115
       2    O1      20.518939   19.566297   20.007804 O.co2      1 MOL1        -0.6776
       3    O2      20.415855   21.272290   21.292676 O.co2      1 MOL1        -0.6776
       4    C2      21.462420   19.350417   22.167936 C.3        1 MOL1        -0.2013
       5    H1      21.411874   19.921052   23.103007 H          1 MOL1         0.0727
       6    H2      22.514679   19.346336   21.861328 H          1 MOL1         0.0727
       7    C3      21.003953   17.883647   22.408276 C.3        1 MOL1        -0.1910
       8    H3      20.799944   17.391689   21.447215 H          1 MOL1         0.0729
       9    H4      21.846831   17.335053   22.849817 H          1 MOL1         0.0729
      10    C4      19.789617   17.713421   23.356742 C.3        1 MOL1        -0.1909
      11    H5      20.030144   18.116048   24.350259 H          1 MOL1         0.0729
      12    H6      19.635273   16.635715   23.504029 H          1 MOL1         0.0729
      13    C5      18.463627   18.319962   22.837273 C.3        1 MOL1        -0.1884
      14    H7      18.489431   18.420015   21.743344 H          1 MOL1         0.0729
      15    H8      17.643831   17.623035   23.059483 H          1 MOL1         0.0729
      16    C6      18.130416   19.677368   23.492666 C.3        1 MOL1        -0.2899
      17    H9      18.004057   19.567618   24.577528 H          1 MOL1         0.0741
      18    H10     18.923217   20.413801   23.316989 H          1 MOL1         0.0741
      19    H11     17.196818   20.083971   23.083170 H          1 MOL1         0.0741
@<TRIPOS>BOND
    1     1     2    1
    2     1     3    2
    3     1     4    1
    4     4     5    1
    5     4     6    1
    6     4     7    1
    7     7     8    1
    8     7     9    1
    9     7    10    1
   10    10    11    1
   11    10    12    1
   12    10    13    1
   13    13    14    1
   14    13    15    1
   15    13    16    1
   16    16    17    1
   17    16    18    1
   18    16    19    1
@<TRIPOS>SUBSTRUCTURE
       1 MOL1            1 RESIDUE      1      MOL     
@<SCITEGIC>MOL_PROPERTY
VConf Rank
SciTegic.value.IntegerValue
171

@<SCITEGIC>MOL_PROPERTY
Conf_Id
SciTegic.value.IntegerValue
66

@<SCITEGIC>MOL_PROPERTY
Delta U+W
SciTegic.value.DoubleValue
5.819

@<SCITEGIC>MOL_PROPERTY
U+W
SciTegic.value.DoubleValue
-49.072

@<SCITEGIC>MOL_PROPERTY
Grad RMS
SciTegic.value.DoubleValue
0.000000

@<SCITEGIC>MOL_PROPERTY
U
SciTegic.value.DoubleValue
15.324

@<SCITEGIC>MOL_PROPERTY
W
SciTegic.value.DoubleValue
-64.396

@<SCITEGIC>MOL_PROPERTY
W(PB)
SciTegic.value.DoubleValue
-66.382

@<SCITEGIC>MOL_PROPERTY
W(SA)
SciTegic.value.DoubleValue
1.986

@<SCITEGIC>MOL_PROPERTY
Valence
SciTegic.value.DoubleValue
11.748

@<SCITEGIC>MOL_PROPERTY
Coulomb
SciTegic.value.DoubleValue
3.201

@<SCITEGIC>MOL_PROPERTY
VdW
SciTegic.value.DoubleValue
0.375

@<SCITEGIC>MOL_PROPERTY
VdW6
SciTegic.value.DoubleValue
-8.854

@<SCITEGIC>MOL_PROPERTY
VdW12
SciTegic.value.DoubleValue
9.229

@<SCITEGIC>MOL_PROPERTY
Bond
SciTegic.value.DoubleValue
0.216

@<SCITEGIC>MOL_PROPERTY
Angle
SciTegic.value.DoubleValue
3.812

@<SCITEGIC>MOL_PROPERTY
Pdih
SciTegic.value.DoubleValue
7.699

@<SCITEGIC>MOL_PROPERTY
Idih
SciTegic.value.DoubleValue
0.022

@<SCITEGIC>MOL_PROPERTY
Tether
SciTegic.value.DoubleValue
0.000

@<TRIPOS>MOLECULE
guest-7_confgen4.mol2 : confsearch ligand conformer 172
          19          18           1
SMALL
USER_CHARGES
 
@<TRIPOS>ATOM
       1    C1      22.869773   20.617843   21.496822 C.2        1 MOL1         0.6115
       2    O1      23.292759   21.562879   20.861486 O.co2      1 MOL1        -0.6776
       3    O2      23.574438   19.927164   22.207141 O.co2      1 MOL1        -0.6776
       4    C2      21.376806   20.307646   21.376392 C.3        1 MOL1        -0.2013
       5    H1      21.161583   20.142814   20.314055 H          1 MOL1         0.0727
       6    H2      20.830068   21.208699   21.678436 H          1 MOL1         0.0727
       7    C3      20.883086   19.092425   22.205796 C.3        1 MOL1        -0.1910
       8    H3      21.438750   18.194260   21.902470 H          1 MOL1         0.0729
       9    H4      21.106938   19.261242   23.268274 H          1 MOL1         0.0729
      10    C4      19.368505   18.851743   22.025858 C.3        1 MOL1        -0.1909
      11    H5      19.146940   18.683384   20.962977 H          1 MOL1         0.0729
      12    H6      18.814942   19.750902   22.329550 H          1 MOL1         0.0729
      13    C5      18.879770   17.643260   22.851146 C.3        1 MOL1        -0.1884
      14    H7      19.429886   16.741292   22.548954 H          1 MOL1         0.0729
      15    H8      19.097814   17.808732   23.915368 H          1 MOL1         0.0729
      16    C6      17.367332   17.405858   22.669038 C.3        1 MOL1        -0.2899
      17    H9      17.124942   17.206227   21.616985 H          1 MOL1         0.0741
      18    H10     17.036964   16.543431   23.262489 H          1 MOL1         0.0741
      19    H11     16.790360   18.281721   22.993675 H          1 MOL1         0.0741
@<TRIPOS>BOND
    1     1     2    1
    2     1     3    2
    3     1     4    1
    4     4     5    1
    5     4     6    1
    6     4     7    1
    7     7     8    1
    8     7     9    1
    9     7    10    1
   10    10    11    1
   11    10    12    1
   12    10    13    1
   13    13    14    1
   14    13    15    1
   15    13    16    1
   16    16    17    1
   17    16    18    1
   18    16    19    1
@<TRIPOS>SUBSTRUCTURE
       1 MOL1            1 RESIDUE      1      MOL     
@<SCITEGIC>MOL_PROPERTY
VConf Rank
SciTegic.value.IntegerValue
172

@<SCITEGIC>MOL_PROPERTY
Conf_Id
SciTegic.value.IntegerValue
0

@<SCITEGIC>MOL_PROPERTY
Delta U+W
SciTegic.value.DoubleValue
0.000

@<SCITEGIC>MOL_PROPERTY
U+W
SciTegic.value.DoubleValue
-54.891

@<SCITEGIC>MOL_PROPERTY
Grad RMS
SciTegic.value.DoubleValue
0.000000

@<SCITEGIC>MOL_PROPERTY
U
SciTegic.value.DoubleValue
6.966

@<SCITEGIC>MOL_PROPERTY
W
SciTegic.value.DoubleValue
-61.857

@<SCITEGIC>MOL_PROPERTY
W(PB)
SciTegic.value.DoubleValue
-63.965

@<SCITEGIC>MOL_PROPERTY
W(SA)
SciTegic.value.DoubleValue
2.108

@<SCITEGIC>MOL_PROPERTY
Valence
SciTegic.value.DoubleValue
7.175

@<SCITEGIC>MOL_PROPERTY
Coulomb
SciTegic.value.DoubleValue
-1.360

@<SCITEGIC>MOL_PROPERTY
VdW
SciTegic.value.DoubleValue
1.151

@<SCITEGIC>MOL_PROPERTY
VdW6
SciTegic.value.DoubleValue
-5.641

@<SCITEGIC>MOL_PROPERTY
VdW12
SciTegic.value.DoubleValue
6.792

@<SCITEGIC>MOL_PROPERTY
Bond
SciTegic.value.DoubleValue
0.119

@<SCITEGIC>MOL_PROPERTY
Angle
SciTegic.value.DoubleValue
2.715

@<SCITEGIC>MOL_PROPERTY
Pdih
SciTegic.value.DoubleValue
4.340

@<SCITEGIC>MOL_PROPERTY
Idih
SciTegic.value.DoubleValue
0.000

@<SCITEGIC>MOL_PROPERTY
Tether
SciTegic.value.DoubleValue
0.000

@<TRIPOS>MOLECULE
guest-7_confgen4.mol2 : confsearch ligand conformer 173
          19          18           1
SMALL
USER_CHARGES
 
@<TRIPOS>ATOM
       1    C1      21.102554   19.171913   25.311820 C.2        1 MOL1         0.6115
       2    O1      20.585159   18.416049   26.110039 O.co2      1 MOL1        -0.6776
       3    O2      22.247569   19.567481   25.404815 O.co2      1 MOL1        -0.6776
       4    C2      20.276040   19.633176   24.116629 C.3        1 MOL1        -0.2013
       5    H1      20.597725   20.647355   23.850734 H          1 MOL1         0.0727
       6    H2      19.227603   19.697934   24.431797 H          1 MOL1         0.0727
       7    C3      20.409053   18.692688   22.893558 C.3        1 MOL1        -0.1910
       8    H3      21.465606   18.628601   22.598364 H          1 MOL1         0.0729
       9    H4      20.095538   17.679041   23.179528 H          1 MOL1         0.0729
      10    C4      19.563176   19.181469   21.698062 C.3        1 MOL1        -0.1909
      11    H5      19.878030   20.195475   21.415482 H          1 MOL1         0.0729
      12    H6      18.507766   19.245677   21.996693 H          1 MOL1         0.0729
      13    C5      19.697676   18.242719   20.481086 C.3        1 MOL1        -0.1884
      14    H7      20.751922   18.177359   20.178124 H          1 MOL1         0.0729
      15    H8      19.381717   17.227685   20.759242 H          1 MOL1         0.0729
      16    C6      18.851861   18.733800   19.289283 C.3        1 MOL1        -0.2899
      17    H9      18.959160   18.055138   18.433121 H          1 MOL1         0.0741
      18    H10     17.787522   18.778615   19.554987 H          1 MOL1         0.0741
      19    H11     19.167980   19.735428   18.969545 H          1 MOL1         0.0741
@<TRIPOS>BOND
    1     1     2    1
    2     1     3    2
    3     1     4    1
    4     4     5    1
    5     4     6    1
    6     4     7    1
    7     7     8    1
    8     7     9    1
    9     7    10    1
   10    10    11    1
   11    10    12    1
   12    10    13    1
   13    13    14    1
   14    13    15    1
   15    13    16    1
   16    16    17    1
   17    16    18    1
   18    16    19    1
@<TRIPOS>SUBSTRUCTURE
       1 MOL1            1 RESIDUE      1      MOL     
@<SCITEGIC>MOL_PROPERTY
VConf Rank
SciTegic.value.IntegerValue
173

@<SCITEGIC>MOL_PROPERTY
Conf_Id
SciTegic.value.IntegerValue
18

@<SCITEGIC>MOL_PROPERTY
Delta U+W
SciTegic.value.DoubleValue
-1.199

@<SCITEGIC>MOL_PROPERTY
U+W
SciTegic.value.DoubleValue
-56.090

@<SCITEGIC>MOL_PROPERTY
Grad RMS
SciTegic.value.DoubleValue
0.000000

@<SCITEGIC>MOL_PROPERTY
U
SciTegic.value.DoubleValue
5.975

@<SCITEGIC>MOL_PROPERTY
W
SciTegic.value.DoubleValue
-62.066

@<SCITEGIC>MOL_PROPERTY
W(PB)
SciTegic.value.DoubleValue
-64.219

@<SCITEGIC>MOL_PROPERTY
W(SA)
SciTegic.value.DoubleValue
2.153

@<SCITEGIC>MOL_PROPERTY
Valence
SciTegic.value.DoubleValue
6.673

@<SCITEGIC>MOL_PROPERTY
Coulomb
SciTegic.value.DoubleValue
-1.307

@<SCITEGIC>MOL_PROPERTY
VdW
SciTegic.value.DoubleValue
0.610

@<SCITEGIC>MOL_PROPERTY
VdW6
SciTegic.value.DoubleValue
-5.351

@<SCITEGIC>MOL_PROPERTY
VdW12
SciTegic.value.DoubleValue
5.961

@<SCITEGIC>MOL_PROPERTY
Bond
SciTegic.value.DoubleValue
0.086

@<SCITEGIC>MOL_PROPERTY
Angle
SciTegic.value.DoubleValue
2.253

@<SCITEGIC>MOL_PROPERTY
Pdih
SciTegic.value.DoubleValue
4.333

@<SCITEGIC>MOL_PROPERTY
Idih
SciTegic.value.DoubleValue
0.001

@<SCITEGIC>MOL_PROPERTY
Tether
SciTegic.value.DoubleValue
0.000

@<TRIPOS>MOLECULE
guest-7_confgen4.mol2 : confsearch ligand conformer 174
          19          18           1
SMALL
USER_CHARGES
 
@<TRIPOS>ATOM
       1    C1      17.805173   16.723956   23.049448 C.2        1 MOL1         0.6115
       2    O1      17.698215   15.636616   22.517903 O.co2      1 MOL1        -0.6776
       3    O2      17.342944   16.986566   24.141987 O.co2      1 MOL1        -0.6776
       4    C2      18.580180   17.811829   22.314425 C.3        1 MOL1        -0.2013
       5    H1      18.126914   18.775759   22.571781 H          1 MOL1         0.0727
       6    H2      18.438062   17.662317   21.237412 H          1 MOL1         0.0727
       7    C3      20.092122   17.809163   22.659684 C.3        1 MOL1        -0.1910
       8    H3      20.223779   18.003976   23.733008 H          1 MOL1         0.0729
       9    H4      20.493839   16.803108   22.475562 H          1 MOL1         0.0729
      10    C4      20.915286   18.829460   21.838144 C.3        1 MOL1        -0.1909
      11    H5      20.788300   18.626708   20.765869 H          1 MOL1         0.0729
      12    H6      21.980545   18.676659   22.059250 H          1 MOL1         0.0729
      13    C5      20.546345   20.299763   22.137484 C.3        1 MOL1        -0.1884
      14    H7      19.504278   20.494434   21.851900 H          1 MOL1         0.0729
      15    H8      20.624169   20.489100   23.217004 H          1 MOL1         0.0729
      16    C6      21.464977   21.278371   21.378728 C.3        1 MOL1        -0.2899
      17    H9      21.188814   22.317726   21.599099 H          1 MOL1         0.0741
      18    H10     22.514450   21.137966   21.669038 H          1 MOL1         0.0741
      19    H11     21.386258   21.129381   20.293827 H          1 MOL1         0.0741
@<TRIPOS>BOND
    1     1     2    1
    2     1     3    2
    3     1     4    1
    4     4     5    1
    5     4     6    1
    6     4     7    1
    7     7     8    1
    8     7     9    1
    9     7    10    1
   10    10    11    1
   11    10    12    1
   12    10    13    1
   13    13    14    1
   14    13    15    1
   15    13    16    1
   16    16    17    1
   17    16    18    1
   18    16    19    1
@<TRIPOS>SUBSTRUCTURE
       1 MOL1            1 RESIDUE      1      MOL     
@<SCITEGIC>MOL_PROPERTY
VConf Rank
SciTegic.value.IntegerValue
174

@<SCITEGIC>MOL_PROPERTY
Conf_Id
SciTegic.value.IntegerValue
34

@<SCITEGIC>MOL_PROPERTY
Delta U+W
SciTegic.value.DoubleValue
-0.563

@<SCITEGIC>MOL_PROPERTY
U+W
SciTegic.value.DoubleValue
-55.455

@<SCITEGIC>MOL_PROPERTY
Grad RMS
SciTegic.value.DoubleValue
0.000000

@<SCITEGIC>MOL_PROPERTY
U
SciTegic.value.DoubleValue
6.914

@<SCITEGIC>MOL_PROPERTY
W
SciTegic.value.DoubleValue
-62.369

@<SCITEGIC>MOL_PROPERTY
W(PB)
SciTegic.value.DoubleValue
-64.446

@<SCITEGIC>MOL_PROPERTY
W(SA)
SciTegic.value.DoubleValue
2.077

@<SCITEGIC>MOL_PROPERTY
Valence
SciTegic.value.DoubleValue
7.196

@<SCITEGIC>MOL_PROPERTY
Coulomb
SciTegic.value.DoubleValue
-1.020

@<SCITEGIC>MOL_PROPERTY
VdW
SciTegic.value.DoubleValue
0.738

@<SCITEGIC>MOL_PROPERTY
VdW6
SciTegic.value.DoubleValue
-6.010

@<SCITEGIC>MOL_PROPERTY
VdW12
SciTegic.value.DoubleValue
6.748

@<SCITEGIC>MOL_PROPERTY
Bond
SciTegic.value.DoubleValue
0.126

@<SCITEGIC>MOL_PROPERTY
Angle
SciTegic.value.DoubleValue
2.499

@<SCITEGIC>MOL_PROPERTY
Pdih
SciTegic.value.DoubleValue
4.570

@<SCITEGIC>MOL_PROPERTY
Idih
SciTegic.value.DoubleValue
0.001

@<SCITEGIC>MOL_PROPERTY
Tether
SciTegic.value.DoubleValue
0.000

@<TRIPOS>MOLECULE
guest-7_confgen4.mol2 : confsearch ligand conformer 175
          19          18           1
SMALL
USER_CHARGES
 
@<TRIPOS>ATOM
       1    C1      19.867731   20.184756   19.232198 C.2        1 MOL1         0.6115
       2    O1      20.671970   20.995741   18.817719 O.co2      1 MOL1        -0.6776
       3    O2      18.778586   19.999236   18.726621 O.co2      1 MOL1        -0.6776
       4    C2      20.236833   19.371034   20.467503 C.3        1 MOL1        -0.2013
       5    H1      21.322468   19.216536   20.461361 H          1 MOL1         0.0727
       6    H2      19.767325   18.385682   20.370097 H          1 MOL1         0.0727
       7    C3      19.801660   20.055657   21.789282 C.3        1 MOL1        -0.1910
       8    H3      20.215130   21.073480   21.811676 H          1 MOL1         0.0729
       9    H4      18.708399   20.164702   21.803420 H          1 MOL1         0.0729
      10    C4      20.268609   19.303057   23.057775 C.3        1 MOL1        -0.1909
      11    H5      20.022862   19.915017   23.936483 H          1 MOL1         0.0729
      12    H6      21.362623   19.203193   23.044784 H          1 MOL1         0.0729
      13    C5      19.620283   17.909805   23.219132 C.3        1 MOL1        -0.1884
      14    H7      18.526182   18.003373   23.180959 H          1 MOL1         0.0729
      15    H8      19.915593   17.256109   22.387967 H          1 MOL1         0.0729
      16    C6      20.031080   17.246191   24.548841 C.3        1 MOL1        -0.2899
      17    H9      21.119843   17.115191   24.602135 H          1 MOL1         0.0741
      18    H10     19.716488   17.855581   25.406198 H          1 MOL1         0.0741
      19    H11     19.565381   16.257001   24.647420 H          1 MOL1         0.0741
@<TRIPOS>BOND
    1     1     2    1
    2     1     3    2
    3     1     4    1
    4     4     5    1
    5     4     6    1
    6     4     7    1
    7     7     8    1
    8     7     9    1
    9     7    10    1
   10    10    11    1
   11    10    12    1
   12    10    13    1
   13    13    14    1
   14    13    15    1
   15    13    16    1
   16    16    17    1
   17    16    18    1
   18    16    19    1
@<TRIPOS>SUBSTRUCTURE
       1 MOL1            1 RESIDUE      1      MOL     
@<SCITEGIC>MOL_PROPERTY
VConf Rank
SciTegic.value.IntegerValue
175

@<SCITEGIC>MOL_PROPERTY
Conf_Id
SciTegic.value.IntegerValue
33

@<SCITEGIC>MOL_PROPERTY
Delta U+W
SciTegic.value.DoubleValue
-0.526

@<SCITEGIC>MOL_PROPERTY
U+W
SciTegic.value.DoubleValue
-55.418

@<SCITEGIC>MOL_PROPERTY
Grad RMS
SciTegic.value.DoubleValue
0.000000

@<SCITEGIC>MOL_PROPERTY
U
SciTegic.value.DoubleValue
6.914

@<SCITEGIC>MOL_PROPERTY
W
SciTegic.value.DoubleValue
-62.332

@<SCITEGIC>MOL_PROPERTY
W(PB)
SciTegic.value.DoubleValue
-64.421

@<SCITEGIC>MOL_PROPERTY
W(SA)
SciTegic.value.DoubleValue
2.090

@<SCITEGIC>MOL_PROPERTY
Valence
SciTegic.value.DoubleValue
7.196

@<SCITEGIC>MOL_PROPERTY
Coulomb
SciTegic.value.DoubleValue
-1.020

@<SCITEGIC>MOL_PROPERTY
VdW
SciTegic.value.DoubleValue
0.738

@<SCITEGIC>MOL_PROPERTY
VdW6
SciTegic.value.DoubleValue
-6.010

@<SCITEGIC>MOL_PROPERTY
VdW12
SciTegic.value.DoubleValue
6.748

@<SCITEGIC>MOL_PROPERTY
Bond
SciTegic.value.DoubleValue
0.126

@<SCITEGIC>MOL_PROPERTY
Angle
SciTegic.value.DoubleValue
2.499

@<SCITEGIC>MOL_PROPERTY
Pdih
SciTegic.value.DoubleValue
4.570

@<SCITEGIC>MOL_PROPERTY
Idih
SciTegic.value.DoubleValue
0.001

@<SCITEGIC>MOL_PROPERTY
Tether
SciTegic.value.DoubleValue
0.000

@<TRIPOS>MOLECULE
guest-7_confgen4.mol2 : confsearch ligand conformer 176
          19          18           1
SMALL
USER_CHARGES
 
@<TRIPOS>ATOM
       1    C1      19.874489   15.936206   23.201148 C.2        1 MOL1         0.6115
       2    O1      20.965027   15.433938   23.014940 O.co2      1 MOL1        -0.6776
       3    O2      19.160161   15.662088   24.144991 O.co2      1 MOL1        -0.6776
       4    C2      19.382863   16.980747   22.205288 C.3        1 MOL1        -0.2013
       5    H1      18.290534   16.905107   22.143842 H          1 MOL1         0.0727
       6    H2      19.781800   16.723708   21.216599 H          1 MOL1         0.0727
       7    C3      19.798456   18.422169   22.590032 C.3        1 MOL1        -0.1910
       8    H3      19.399797   18.661081   23.585637 H          1 MOL1         0.0729
       9    H4      20.893006   18.468723   22.663619 H          1 MOL1         0.0729
      10    C4      19.290067   19.459161   21.562000 C.3        1 MOL1        -0.1909
      11    H5      18.202814   19.348151   21.449973 H          1 MOL1         0.0729
      12    H6      19.727731   19.249110   20.576437 H          1 MOL1         0.0729
      13    C5      19.595529   20.921023   21.962300 C.3        1 MOL1        -0.1884
      14    H7      19.101994   21.592969   21.246649 H          1 MOL1         0.0729
      15    H8      19.154504   21.136671   22.945315 H          1 MOL1         0.0729
      16    C6      21.104972   21.244716   21.987913 C.3        1 MOL1        -0.2899
      17    H9      21.573755   21.009225   21.023578 H          1 MOL1         0.0741
      18    H10     21.265153   22.311716   22.189892 H          1 MOL1         0.0741
      19    H11     21.623337   20.677306   22.770911 H          1 MOL1         0.0741
@<TRIPOS>BOND
    1     1     2    1
    2     1     3    2
    3     1     4    1
    4     4     5    1
    5     4     6    1
    6     4     7    1
    7     7     8    1
    8     7     9    1
    9     7    10    1
   10    10    11    1
   11    10    12    1
   12    10    13    1
   13    13    14    1
   14    13    15    1
   15    13    16    1
   16    16    17    1
   17    16    18    1
   18    16    19    1
@<TRIPOS>SUBSTRUCTURE
       1 MOL1            1 RESIDUE      1      MOL     
@<SCITEGIC>MOL_PROPERTY
VConf Rank
SciTegic.value.IntegerValue
176

@<SCITEGIC>MOL_PROPERTY
Conf_Id
SciTegic.value.IntegerValue
42

@<SCITEGIC>MOL_PROPERTY
Delta U+W
SciTegic.value.DoubleValue
-0.344

@<SCITEGIC>MOL_PROPERTY
U+W
SciTegic.value.DoubleValue
-55.236

@<SCITEGIC>MOL_PROPERTY
Grad RMS
SciTegic.value.DoubleValue
0.000000

@<SCITEGIC>MOL_PROPERTY
U
SciTegic.value.DoubleValue
7.244

@<SCITEGIC>MOL_PROPERTY
W
SciTegic.value.DoubleValue
-62.479

@<SCITEGIC>MOL_PROPERTY
W(PB)
SciTegic.value.DoubleValue
-64.610

@<SCITEGIC>MOL_PROPERTY
W(SA)
SciTegic.value.DoubleValue
2.130

@<SCITEGIC>MOL_PROPERTY
Valence
SciTegic.value.DoubleValue
7.174

@<SCITEGIC>MOL_PROPERTY
Coulomb
SciTegic.value.DoubleValue
-0.669

@<SCITEGIC>MOL_PROPERTY
VdW
SciTegic.value.DoubleValue
0.739

@<SCITEGIC>MOL_PROPERTY
VdW6
SciTegic.value.DoubleValue
-5.969

@<SCITEGIC>MOL_PROPERTY
VdW12
SciTegic.value.DoubleValue
6.708

@<SCITEGIC>MOL_PROPERTY
Bond
SciTegic.value.DoubleValue
0.116

@<SCITEGIC>MOL_PROPERTY
Angle
SciTegic.value.DoubleValue
2.481

@<SCITEGIC>MOL_PROPERTY
Pdih
SciTegic.value.DoubleValue
4.576

@<SCITEGIC>MOL_PROPERTY
Idih
SciTegic.value.DoubleValue
0.000

@<SCITEGIC>MOL_PROPERTY
Tether
SciTegic.value.DoubleValue
0.000

@<TRIPOS>MOLECULE
guest-7_confgen4.mol2 : confsearch ligand conformer 177
          19          18           1
SMALL
USER_CHARGES
 
@<TRIPOS>ATOM
       1    C1      22.747670   17.804259   20.998418 C.2        1 MOL1         0.6115
       2    O1      22.779848   18.032021   19.805393 O.co2      1 MOL1        -0.6776
       3    O2      23.211109   16.801515   21.504357 O.co2      1 MOL1        -0.6776
       4    C2      22.072550   18.824172   21.908633 C.3        1 MOL1        -0.2013
       5    H1      22.223510   19.820379   21.475608 H          1 MOL1         0.0727
       6    H2      22.587475   18.810045   22.876792 H          1 MOL1         0.0727
       7    C3      20.560677   18.550346   22.102807 C.3        1 MOL1        -0.1910
       8    H3      20.070431   18.550748   21.120320 H          1 MOL1         0.0729
       9    H4      20.425595   17.546270   22.528041 H          1 MOL1         0.0729
      10    C4      19.901692   19.600865   23.026282 C.3        1 MOL1        -0.1909
      11    H5      19.993832   20.599104   22.576799 H          1 MOL1         0.0729
      12    H6      20.450818   19.635631   23.977200 H          1 MOL1         0.0729
      13    C5      18.414482   19.305462   23.328825 C.3        1 MOL1        -0.1884
      14    H7      18.318811   18.309872   23.783769 H          1 MOL1         0.0729
      15    H8      18.057637   20.024871   24.078730 H          1 MOL1         0.0729
      16    C6      17.507780   19.396275   22.082432 C.3        1 MOL1        -0.2899
      17    H9      17.754017   18.617346   21.350051 H          1 MOL1         0.0741
      18    H10     16.454725   19.266460   22.363794 H          1 MOL1         0.0741
      19    H11     17.608857   20.373913   21.593387 H          1 MOL1         0.0741
@<TRIPOS>BOND
    1     1     2    1
    2     1     3    2
    3     1     4    1
    4     4     5    1
    5     4     6    1
    6     4     7    1
    7     7     8    1
    8     7     9    1
    9     7    10    1
   10    10    11    1
   11    10    12    1
   12    10    13    1
   13    13    14    1
   14    13    15    1
   15    13    16    1
   16    16    17    1
   17    16    18    1
   18    16    19    1
@<TRIPOS>SUBSTRUCTURE
       1 MOL1            1 RESIDUE      1      MOL     
@<SCITEGIC>MOL_PROPERTY
VConf Rank
SciTegic.value.IntegerValue
177

@<SCITEGIC>MOL_PROPERTY
Conf_Id
SciTegic.value.IntegerValue
41

@<SCITEGIC>MOL_PROPERTY
Delta U+W
SciTegic.value.DoubleValue
-0.361

@<SCITEGIC>MOL_PROPERTY
U+W
SciTegic.value.DoubleValue
-55.252

@<SCITEGIC>MOL_PROPERTY
Grad RMS
SciTegic.value.DoubleValue
0.000000

@<SCITEGIC>MOL_PROPERTY
U
SciTegic.value.DoubleValue
7.244

@<SCITEGIC>MOL_PROPERTY
W
SciTegic.value.DoubleValue
-62.496

@<SCITEGIC>MOL_PROPERTY
W(PB)
SciTegic.value.DoubleValue
-64.596

@<SCITEGIC>MOL_PROPERTY
W(SA)
SciTegic.value.DoubleValue
2.099

@<SCITEGIC>MOL_PROPERTY
Valence
SciTegic.value.DoubleValue
7.174

@<SCITEGIC>MOL_PROPERTY
Coulomb
SciTegic.value.DoubleValue
-0.669

@<SCITEGIC>MOL_PROPERTY
VdW
SciTegic.value.DoubleValue
0.739

@<SCITEGIC>MOL_PROPERTY
VdW6
SciTegic.value.DoubleValue
-5.969

@<SCITEGIC>MOL_PROPERTY
VdW12
SciTegic.value.DoubleValue
6.708

@<SCITEGIC>MOL_PROPERTY
Bond
SciTegic.value.DoubleValue
0.116

@<SCITEGIC>MOL_PROPERTY
Angle
SciTegic.value.DoubleValue
2.481

@<SCITEGIC>MOL_PROPERTY
Pdih
SciTegic.value.DoubleValue
4.576

@<SCITEGIC>MOL_PROPERTY
Idih
SciTegic.value.DoubleValue
0.000

@<SCITEGIC>MOL_PROPERTY
Tether
SciTegic.value.DoubleValue
0.000

@<TRIPOS>MOLECULE
guest-7_confgen4.mol2 : confsearch ligand conformer 178
          19          18           1
SMALL
USER_CHARGES
 
@<TRIPOS>ATOM
       1    C1      19.290937   21.796420   22.356380 C.2        1 MOL1         0.6115
       2    O1      20.266857   22.192535   22.962371 O.co2      1 MOL1        -0.6776
       3    O2      18.932631   22.252157   21.288391 O.co2      1 MOL1        -0.6776
       4    C2      18.455705   20.681082   22.979079 C.3        1 MOL1        -0.2013
       5    H1      17.403007   20.977787   22.902230 H          1 MOL1         0.0727
       6    H2      18.691492   20.622109   24.048618 H          1 MOL1         0.0727
       7    C3      18.653113   19.295822   22.310368 C.3        1 MOL1        -0.1910
       8    H3      17.918723   18.592115   22.725099 H          1 MOL1         0.0729
       9    H4      18.441114   19.377251   21.235167 H          1 MOL1         0.0729
      10    C4      20.075606   18.731020   22.522087 C.3        1 MOL1        -0.1909
      11    H5      20.287571   18.663806   23.597997 H          1 MOL1         0.0729
      12    H6      20.815664   19.421583   22.094465 H          1 MOL1         0.0729
      13    C5      20.239709   17.339530   21.876000 C.3        1 MOL1        -0.1884
      14    H7      19.504627   16.643276   22.302983 H          1 MOL1         0.0729
      15    H8      20.030592   17.404364   20.799180 H          1 MOL1         0.0729
      16    C6      21.659939   16.778695   22.089042 C.3        1 MOL1        -0.2899
      17    H9      21.884380   16.673847   23.158640 H          1 MOL1         0.0741
      18    H10     21.759260   15.789643   21.623210 H          1 MOL1         0.0741
      19    H11     22.414292   17.440566   21.643709 H          1 MOL1         0.0741
@<TRIPOS>BOND
    1     1     2    1
    2     1     3    2
    3     1     4    1
    4     4     5    1
    5     4     6    1
    6     4     7    1
    7     7     8    1
    8     7     9    1
    9     7    10    1
   10    10    11    1
   11    10    12    1
   12    10    13    1
   13    13    14    1
   14    13    15    1
   15    13    16    1
   16    16    17    1
   17    16    18    1
   18    16    19    1
@<TRIPOS>SUBSTRUCTURE
       1 MOL1            1 RESIDUE      1      MOL     
@<SCITEGIC>MOL_PROPERTY
VConf Rank
SciTegic.value.IntegerValue
178

@<SCITEGIC>MOL_PROPERTY
Conf_Id
SciTegic.value.IntegerValue
36

@<SCITEGIC>MOL_PROPERTY
Delta U+W
SciTegic.value.DoubleValue
-0.079

@<SCITEGIC>MOL_PROPERTY
U+W
SciTegic.value.DoubleValue
-54.971

@<SCITEGIC>MOL_PROPERTY
Grad RMS
SciTegic.value.DoubleValue
0.000000

@<SCITEGIC>MOL_PROPERTY
U
SciTegic.value.DoubleValue
8.266

@<SCITEGIC>MOL_PROPERTY
W
SciTegic.value.DoubleValue
-63.237

@<SCITEGIC>MOL_PROPERTY
W(PB)
SciTegic.value.DoubleValue
-65.340

@<SCITEGIC>MOL_PROPERTY
W(SA)
SciTegic.value.DoubleValue
2.103

@<SCITEGIC>MOL_PROPERTY
Valence
SciTegic.value.DoubleValue
6.935

@<SCITEGIC>MOL_PROPERTY
Coulomb
SciTegic.value.DoubleValue
0.874

@<SCITEGIC>MOL_PROPERTY
VdW
SciTegic.value.DoubleValue
0.457

@<SCITEGIC>MOL_PROPERTY
VdW6
SciTegic.value.DoubleValue
-6.205

@<SCITEGIC>MOL_PROPERTY
VdW12
SciTegic.value.DoubleValue
6.662

@<SCITEGIC>MOL_PROPERTY
Bond
SciTegic.value.DoubleValue
0.107

@<SCITEGIC>MOL_PROPERTY
Angle
SciTegic.value.DoubleValue
2.420

@<SCITEGIC>MOL_PROPERTY
Pdih
SciTegic.value.DoubleValue
4.407

@<SCITEGIC>MOL_PROPERTY
Idih
SciTegic.value.DoubleValue
0.001

@<SCITEGIC>MOL_PROPERTY
Tether
SciTegic.value.DoubleValue
0.000

@<TRIPOS>MOLECULE
guest-7_confgen4.mol2 : confsearch ligand conformer 179
          19          18           1
SMALL
USER_CHARGES
 
@<TRIPOS>ATOM
       1    C1      22.395986   17.951889   20.888710 C.2        1 MOL1         0.6115
       2    O1      22.963203   18.996561   20.636762 O.co2      1 MOL1        -0.6776
       3    O2      22.129933   17.112851   20.050909 O.co2      1 MOL1        -0.6776
       4    C2      22.015265   17.666379   22.338842 C.3        1 MOL1        -0.2013
       5    H1      22.604206   18.322326   22.991430 H          1 MOL1         0.0727
       6    H2      22.322605   16.637892   22.562146 H          1 MOL1         0.0727
       7    C3      20.502665   17.831212   22.638784 C.3        1 MOL1        -0.1910
       8    H3      19.924829   17.190021   21.958629 H          1 MOL1         0.0729
       9    H4      20.300574   17.474411   23.657797 H          1 MOL1         0.0729
      10    C4      20.027044   19.295465   22.508178 C.3        1 MOL1        -0.1909
      11    H5      20.210293   19.654559   21.485978 H          1 MOL1         0.0729
      12    H6      20.616362   19.934246   23.180258 H          1 MOL1         0.0729
      13    C5      18.527571   19.440887   22.841401 C.3        1 MOL1        -0.1884
      14    H7      17.935508   18.804701   22.168941 H          1 MOL1         0.0729
      15    H8      18.338921   19.087098   23.864473 H          1 MOL1         0.0729
      16    C6      18.056129   20.902908   22.710183 C.3        1 MOL1        -0.2899
      17    H9      18.204472   21.272923   21.687184 H          1 MOL1         0.0741
      18    H10     16.988281   20.988109   22.950036 H          1 MOL1         0.0741
      19    H11     18.610841   21.557378   23.395288 H          1 MOL1         0.0741
@<TRIPOS>BOND
    1     1     2    1
    2     1     3    2
    3     1     4    1
    4     4     5    1
    5     4     6    1
    6     4     7    1
    7     7     8    1
    8     7     9    1
    9     7    10    1
   10    10    11    1
   11    10    12    1
   12    10    13    1
   13    13    14    1
   14    13    15    1
   15    13    16    1
   16    16    17    1
   17    16    18    1
   18    16    19    1
@<TRIPOS>SUBSTRUCTURE
       1 MOL1            1 RESIDUE      1      MOL     
@<SCITEGIC>MOL_PROPERTY
VConf Rank
SciTegic.value.IntegerValue
179

@<SCITEGIC>MOL_PROPERTY
Conf_Id
SciTegic.value.IntegerValue
35

@<SCITEGIC>MOL_PROPERTY
Delta U+W
SciTegic.value.DoubleValue
-0.030

@<SCITEGIC>MOL_PROPERTY
U+W
SciTegic.value.DoubleValue
-54.921

@<SCITEGIC>MOL_PROPERTY
Grad RMS
SciTegic.value.DoubleValue
0.000000

@<SCITEGIC>MOL_PROPERTY
U
SciTegic.value.DoubleValue
8.267

@<SCITEGIC>MOL_PROPERTY
W
SciTegic.value.DoubleValue
-63.188

@<SCITEGIC>MOL_PROPERTY
W(PB)
SciTegic.value.DoubleValue
-65.294

@<SCITEGIC>MOL_PROPERTY
W(SA)
SciTegic.value.DoubleValue
2.106

@<SCITEGIC>MOL_PROPERTY
Valence
SciTegic.value.DoubleValue
6.935

@<SCITEGIC>MOL_PROPERTY
Coulomb
SciTegic.value.DoubleValue
0.875

@<SCITEGIC>MOL_PROPERTY
VdW
SciTegic.value.DoubleValue
0.457

@<SCITEGIC>MOL_PROPERTY
VdW6
SciTegic.value.DoubleValue
-6.205

@<SCITEGIC>MOL_PROPERTY
VdW12
SciTegic.value.DoubleValue
6.662

@<SCITEGIC>MOL_PROPERTY
Bond
SciTegic.value.DoubleValue
0.107

@<SCITEGIC>MOL_PROPERTY
Angle
SciTegic.value.DoubleValue
2.420

@<SCITEGIC>MOL_PROPERTY
Pdih
SciTegic.value.DoubleValue
4.407

@<SCITEGIC>MOL_PROPERTY
Idih
SciTegic.value.DoubleValue
0.001

@<SCITEGIC>MOL_PROPERTY
Tether
SciTegic.value.DoubleValue
0.000

@<TRIPOS>MOLECULE
guest-7_confgen4.mol2 : confsearch ligand conformer 180
          19          18           1
SMALL
USER_CHARGES
 
@<TRIPOS>ATOM
       1    C1      21.561577   21.177526   21.252073 C.2        1 MOL1         0.6115
       2    O1      20.902106   22.197480   21.213351 O.co2      1 MOL1        -0.6776
       3    O2      22.232487   20.775831   20.321929 O.co2      1 MOL1        -0.6776
       4    C2      21.563025   20.370355   22.547431 C.3        1 MOL1        -0.2013
       5    H1      21.704527   21.077435   23.373330 H          1 MOL1         0.0727
       6    H2      22.435588   19.705834   22.545731 H          1 MOL1         0.0727
       7    C3      20.267409   19.551257   22.784453 C.3        1 MOL1        -0.1910
       8    H3      20.299462   19.135057   23.799392 H          1 MOL1         0.0729
       9    H4      19.399312   20.223649   22.744148 H          1 MOL1         0.0729
      10    C4      20.092429   18.406415   21.758098 C.3        1 MOL1        -0.1909
      11    H5      20.942726   17.714247   21.826769 H          1 MOL1         0.0729
      12    H6      20.115482   18.825268   20.742689 H          1 MOL1         0.0729
      13    C5      18.771118   17.622350   21.931902 C.3        1 MOL1        -0.1884
      14    H7      17.918535   18.311890   21.861563 H          1 MOL1         0.0729
      15    H8      18.668521   16.916053   21.096533 H          1 MOL1         0.0729
      16    C6      18.695785   16.836046   23.258578 C.3        1 MOL1        -0.2899
      17    H9      18.676030   17.510229   24.123858 H          1 MOL1         0.0741
      18    H10     17.783336   16.226733   23.291909 H          1 MOL1         0.0741
      19    H11     19.555973   16.162400   23.365462 H          1 MOL1         0.0741
@<TRIPOS>BOND
    1     1     2    1
    2     1     3    2
    3     1     4    1
    4     4     5    1
    5     4     6    1
    6     4     7    1
    7     7     8    1
    8     7     9    1
    9     7    10    1
   10    10    11    1
   11    10    12    1
   12    10    13    1
   13    13    14    1
   14    13    15    1
   15    13    16    1
   16    16    17    1
   17    16    18    1
   18    16    19    1
@<TRIPOS>SUBSTRUCTURE
       1 MOL1            1 RESIDUE      1      MOL     
@<SCITEGIC>MOL_PROPERTY
VConf Rank
SciTegic.value.IntegerValue
180

@<SCITEGIC>MOL_PROPERTY
Conf_Id
SciTegic.value.IntegerValue
74

@<SCITEGIC>MOL_PROPERTY
Delta U+W
SciTegic.value.DoubleValue
0.797

@<SCITEGIC>MOL_PROPERTY
U+W
SciTegic.value.DoubleValue
-54.095

@<SCITEGIC>MOL_PROPERTY
Grad RMS
SciTegic.value.DoubleValue
0.000000

@<SCITEGIC>MOL_PROPERTY
U
SciTegic.value.DoubleValue
8.869

@<SCITEGIC>MOL_PROPERTY
W
SciTegic.value.DoubleValue
-62.964

@<SCITEGIC>MOL_PROPERTY
W(PB)
SciTegic.value.DoubleValue
-65.046

@<SCITEGIC>MOL_PROPERTY
W(SA)
SciTegic.value.DoubleValue
2.082

@<SCITEGIC>MOL_PROPERTY
Valence
SciTegic.value.DoubleValue
7.469

@<SCITEGIC>MOL_PROPERTY
Coulomb
SciTegic.value.DoubleValue
0.762

@<SCITEGIC>MOL_PROPERTY
VdW
SciTegic.value.DoubleValue
0.639

@<SCITEGIC>MOL_PROPERTY
VdW6
SciTegic.value.DoubleValue
-6.782

@<SCITEGIC>MOL_PROPERTY
VdW12
SciTegic.value.DoubleValue
7.421

@<SCITEGIC>MOL_PROPERTY
Bond
SciTegic.value.DoubleValue
0.141

@<SCITEGIC>MOL_PROPERTY
Angle
SciTegic.value.DoubleValue
2.667

@<SCITEGIC>MOL_PROPERTY
Pdih
SciTegic.value.DoubleValue
4.660

@<SCITEGIC>MOL_PROPERTY
Idih
SciTegic.value.DoubleValue
0.001

@<SCITEGIC>MOL_PROPERTY
Tether
SciTegic.value.DoubleValue
0.000

@<TRIPOS>MOLECULE
guest-7_confgen4.mol2 : confsearch ligand conformer 181
          19          18           1
SMALL
USER_CHARGES
 
@<TRIPOS>ATOM
       1    C1      19.154420   17.445530   19.910353 C.2        1 MOL1         0.6115
       2    O1      18.037276   17.242776   19.477569 O.co2      1 MOL1        -0.6776
       3    O2      20.157790   17.404720   19.226317 O.co2      1 MOL1        -0.6776
       4    C2      19.302682   17.788278   21.388446 C.3        1 MOL1        -0.2013
       5    H1      20.263603   17.386415   21.729470 H          1 MOL1         0.0727
       6    H2      18.514699   17.262954   21.941141 H          1 MOL1         0.0727
       7    C3      19.223159   19.312465   21.662526 C.3        1 MOL1        -0.1910
       8    H3      20.039448   19.823556   21.135045 H          1 MOL1         0.0729
       9    H4      18.291369   19.700434   21.228423 H          1 MOL1         0.0729
      10    C4      19.252559   19.673150   23.169102 C.3        1 MOL1        -0.1909
      11    H5      18.370807   19.235691   23.656889 H          1 MOL1         0.0729
      12    H6      19.147603   20.761709   23.273051 H          1 MOL1         0.0729
      13    C5      20.520839   19.217789   23.932000 C.3        1 MOL1        -0.1884
      14    H7      20.420405   19.514094   24.985183 H          1 MOL1         0.0729
      15    H8      20.591197   18.122043   23.930946 H          1 MOL1         0.0729
      16    C6      21.824064   19.823692   23.368191 C.3        1 MOL1        -0.2899
      17    H9      21.767206   20.919557   23.338581 H          1 MOL1         0.0741
      18    H10     22.680172   19.545763   23.996403 H          1 MOL1         0.0741
      19    H11     22.025488   19.460949   22.352261 H          1 MOL1         0.0741
@<TRIPOS>BOND
    1     1     2    1
    2     1     3    2
    3     1     4    1
    4     4     5    1
    5     4     6    1
    6     4     7    1
    7     7     8    1
    8     7     9    1
    9     7    10    1
   10    10    11    1
   11    10    12    1
   12    10    13    1
   13    13    14    1
   14    13    15    1
   15    13    16    1
   16    16    17    1
   17    16    18    1
   18    16    19    1
@<TRIPOS>SUBSTRUCTURE
       1 MOL1            1 RESIDUE      1      MOL     
@<SCITEGIC>MOL_PROPERTY
VConf Rank
SciTegic.value.IntegerValue
181

@<SCITEGIC>MOL_PROPERTY
Conf_Id
SciTegic.value.IntegerValue
67

@<SCITEGIC>MOL_PROPERTY
Delta U+W
SciTegic.value.DoubleValue
0.308

@<SCITEGIC>MOL_PROPERTY
U+W
SciTegic.value.DoubleValue
-54.583

@<SCITEGIC>MOL_PROPERTY
Grad RMS
SciTegic.value.DoubleValue
0.000000

@<SCITEGIC>MOL_PROPERTY
U
SciTegic.value.DoubleValue
8.219

@<SCITEGIC>MOL_PROPERTY
W
SciTegic.value.DoubleValue
-62.802

@<SCITEGIC>MOL_PROPERTY
W(PB)
SciTegic.value.DoubleValue
-64.859

@<SCITEGIC>MOL_PROPERTY
W(SA)
SciTegic.value.DoubleValue
2.057

@<SCITEGIC>MOL_PROPERTY
Valence
SciTegic.value.DoubleValue
7.609

@<SCITEGIC>MOL_PROPERTY
Coulomb
SciTegic.value.DoubleValue
-0.089

@<SCITEGIC>MOL_PROPERTY
VdW
SciTegic.value.DoubleValue
0.699

@<SCITEGIC>MOL_PROPERTY
VdW6
SciTegic.value.DoubleValue
-6.924

@<SCITEGIC>MOL_PROPERTY
VdW12
SciTegic.value.DoubleValue
7.623

@<SCITEGIC>MOL_PROPERTY
Bond
SciTegic.value.DoubleValue
0.163

@<SCITEGIC>MOL_PROPERTY
Angle
SciTegic.value.DoubleValue
2.870

@<SCITEGIC>MOL_PROPERTY
Pdih
SciTegic.value.DoubleValue
4.576

@<SCITEGIC>MOL_PROPERTY
Idih
SciTegic.value.DoubleValue
0.001

@<SCITEGIC>MOL_PROPERTY
Tether
SciTegic.value.DoubleValue
0.000

@<TRIPOS>MOLECULE
guest-7_confgen4.mol2 : confsearch ligand conformer 182
          19          18           1
SMALL
USER_CHARGES
 
@<TRIPOS>ATOM
       1    C1      18.021746   17.759026   24.137481 C.2        1 MOL1         0.6115
       2    O1      18.082684   16.724306   24.771565 O.co2      1 MOL1        -0.6776
       3    O2      16.977709   18.307091   23.844339 O.co2      1 MOL1        -0.6776
       4    C2      19.325996   18.393382   23.667649 C.3        1 MOL1        -0.2013
       5    H1      20.100263   18.172629   24.412051 H          1 MOL1         0.0727
       6    H2      19.183862   19.480052   23.657362 H          1 MOL1         0.0727
       7    C3      19.769207   17.890139   22.269472 C.3        1 MOL1        -0.1910
       8    H3      19.813793   16.792471   22.287850 H          1 MOL1         0.0729
       9    H4      19.004137   18.150294   21.525991 H          1 MOL1         0.0729
      10    C4      21.151221   18.432139   21.825630 C.3        1 MOL1        -0.1909
      11    H5      21.405505   17.993392   20.851146 H          1 MOL1         0.0729
      12    H6      21.916105   18.074020   22.528124 H          1 MOL1         0.0729
      13    C5      21.253113   19.973819   21.721989 C.3        1 MOL1        -0.1884
      14    H7      21.105372   20.430960   22.709311 H          1 MOL1         0.0729
      15    H8      22.275050   20.236736   21.416048 H          1 MOL1         0.0729
      16    C6      20.259602   20.585676   20.711066 C.3        1 MOL1        -0.2899
      17    H9      19.221414   20.446436   21.038244 H          1 MOL1         0.0741
      18    H10     20.433470   21.664390   20.606376 H          1 MOL1         0.0741
      19    H11     20.374015   20.126393   19.720612 H          1 MOL1         0.0741
@<TRIPOS>BOND
    1     1     2    1
    2     1     3    2
    3     1     4    1
    4     4     5    1
    5     4     6    1
    6     4     7    1
    7     7     8    1
    8     7     9    1
    9     7    10    1
   10    10    11    1
   11    10    12    1
   12    10    13    1
   13    13    14    1
   14    13    15    1
   15    13    16    1
   16    16    17    1
   17    16    18    1
   18    16    19    1
@<TRIPOS>SUBSTRUCTURE
       1 MOL1            1 RESIDUE      1      MOL     
@<SCITEGIC>MOL_PROPERTY
VConf Rank
SciTegic.value.IntegerValue
182

@<SCITEGIC>MOL_PROPERTY
Conf_Id
SciTegic.value.IntegerValue
21

@<SCITEGIC>MOL_PROPERTY
Delta U+W
SciTegic.value.DoubleValue
0.319

@<SCITEGIC>MOL_PROPERTY
U+W
SciTegic.value.DoubleValue
-54.572

@<SCITEGIC>MOL_PROPERTY
Grad RMS
SciTegic.value.DoubleValue
0.000000

@<SCITEGIC>MOL_PROPERTY
U
SciTegic.value.DoubleValue
8.220

@<SCITEGIC>MOL_PROPERTY
W
SciTegic.value.DoubleValue
-62.792

@<SCITEGIC>MOL_PROPERTY
W(PB)
SciTegic.value.DoubleValue
-64.830

@<SCITEGIC>MOL_PROPERTY
W(SA)
SciTegic.value.DoubleValue
2.038

@<SCITEGIC>MOL_PROPERTY
Valence
SciTegic.value.DoubleValue
7.609

@<SCITEGIC>MOL_PROPERTY
Coulomb
SciTegic.value.DoubleValue
-0.088

@<SCITEGIC>MOL_PROPERTY
VdW
SciTegic.value.DoubleValue
0.699

@<SCITEGIC>MOL_PROPERTY
VdW6
SciTegic.value.DoubleValue
-6.924

@<SCITEGIC>MOL_PROPERTY
VdW12
SciTegic.value.DoubleValue
7.623

@<SCITEGIC>MOL_PROPERTY
Bond
SciTegic.value.DoubleValue
0.163

@<SCITEGIC>MOL_PROPERTY
Angle
SciTegic.value.DoubleValue
2.870

@<SCITEGIC>MOL_PROPERTY
Pdih
SciTegic.value.DoubleValue
4.576

@<SCITEGIC>MOL_PROPERTY
Idih
SciTegic.value.DoubleValue
0.000

@<SCITEGIC>MOL_PROPERTY
Tether
SciTegic.value.DoubleValue
0.000

@<TRIPOS>MOLECULE
guest-7_confgen4.mol2 : confsearch ligand conformer 183
          19          18           1
SMALL
USER_CHARGES
 
@<TRIPOS>ATOM
       1    C1      21.685018   17.006540   23.671265 C.2        1 MOL1         0.6115
       2    O1      22.825014   17.114073   24.077816 O.co2      1 MOL1        -0.6776
       3    O2      20.894672   16.186894   24.095276 O.co2      1 MOL1        -0.6776
       4    C2      21.215610   17.964842   22.582506 C.3        1 MOL1        -0.2013
       5    H1      20.484361   17.436624   21.962762 H          1 MOL1         0.0727
       6    H2      22.073970   18.192380   21.939210 H          1 MOL1         0.0727
       7    C3      20.617870   19.277537   23.154461 C.3        1 MOL1        -0.1910
       8    H3      19.794611   19.048905   23.845297 H          1 MOL1         0.0729
       9    H4      21.395070   19.768029   23.756768 H          1 MOL1         0.0729
      10    C4      20.141205   20.266333   22.060379 C.3        1 MOL1        -0.1909
      11    H5      20.741755   20.144082   21.148627 H          1 MOL1         0.0729
      12    H6      20.339319   21.287583   22.413612 H          1 MOL1         0.0729
      13    C5      18.633177   20.176301   21.720295 C.3        1 MOL1        -0.1884
      14    H7      18.039465   20.388252   22.620206 H          1 MOL1         0.0729
      15    H8      18.390990   20.968896   20.998954 H          1 MOL1         0.0729
      16    C6      18.197743   18.820048   21.128121 C.3        1 MOL1        -0.2899
      17    H9      17.154752   18.866734   20.789292 H          1 MOL1         0.0741
      18    H10     18.821750   18.546822   20.267343 H          1 MOL1         0.0741
      19    H11     18.265523   18.021404   21.877367 H          1 MOL1         0.0741
@<TRIPOS>BOND
    1     1     2    1
    2     1     3    2
    3     1     4    1
    4     4     5    1
    5     4     6    1
    6     4     7    1
    7     7     8    1
    8     7     9    1
    9     7    10    1
   10    10    11    1
   11    10    12    1
   12    10    13    1
   13    13    14    1
   14    13    15    1
   15    13    16    1
   16    16    17    1
   17    16    18    1
   18    16    19    1
@<TRIPOS>SUBSTRUCTURE
       1 MOL1            1 RESIDUE      1      MOL     
@<SCITEGIC>MOL_PROPERTY
VConf Rank
SciTegic.value.IntegerValue
183

@<SCITEGIC>MOL_PROPERTY
Conf_Id
SciTegic.value.IntegerValue
24

@<SCITEGIC>MOL_PROPERTY
Delta U+W
SciTegic.value.DoubleValue
2.477

@<SCITEGIC>MOL_PROPERTY
U+W
SciTegic.value.DoubleValue
-52.414

@<SCITEGIC>MOL_PROPERTY
Grad RMS
SciTegic.value.DoubleValue
0.000000

@<SCITEGIC>MOL_PROPERTY
U
SciTegic.value.DoubleValue
10.422

@<SCITEGIC>MOL_PROPERTY
W
SciTegic.value.DoubleValue
-62.836

@<SCITEGIC>MOL_PROPERTY
W(PB)
SciTegic.value.DoubleValue
-64.906

@<SCITEGIC>MOL_PROPERTY
W(SA)
SciTegic.value.DoubleValue
2.070

@<SCITEGIC>MOL_PROPERTY
Valence
SciTegic.value.DoubleValue
9.628

@<SCITEGIC>MOL_PROPERTY
Coulomb
SciTegic.value.DoubleValue
0.101

@<SCITEGIC>MOL_PROPERTY
VdW
SciTegic.value.DoubleValue
0.693

@<SCITEGIC>MOL_PROPERTY
VdW6
SciTegic.value.DoubleValue
-6.927

@<SCITEGIC>MOL_PROPERTY
VdW12
SciTegic.value.DoubleValue
7.620

@<SCITEGIC>MOL_PROPERTY
Bond
SciTegic.value.DoubleValue
0.173

@<SCITEGIC>MOL_PROPERTY
Angle
SciTegic.value.DoubleValue
2.989

@<SCITEGIC>MOL_PROPERTY
Pdih
SciTegic.value.DoubleValue
6.465

@<SCITEGIC>MOL_PROPERTY
Idih
SciTegic.value.DoubleValue
0.001

@<SCITEGIC>MOL_PROPERTY
Tether
SciTegic.value.DoubleValue
0.000

@<TRIPOS>MOLECULE
guest-7_confgen4.mol2 : confsearch ligand conformer 184
          19          18           1
SMALL
USER_CHARGES
 
@<TRIPOS>ATOM
       1    C1      21.669079   17.514374   21.287108 C.2        1 MOL1         0.6115
       2    O1      21.611025   18.024695   20.185794 O.co2      1 MOL1        -0.6776
       3    O2      22.678629   17.013121   21.741672 O.co2      1 MOL1        -0.6776
       4    C2      20.400732   17.473235   22.135540 C.3        1 MOL1        -0.2013
       5    H1      20.290341   16.446280   22.502873 H          1 MOL1         0.0727
       6    H2      19.542870   17.666760   21.483732 H          1 MOL1         0.0727
       7    C3      20.416798   18.451407   23.342958 C.3        1 MOL1        -0.1910
       8    H3      19.579087   18.225120   24.016209 H          1 MOL1         0.0729
       9    H4      21.330307   18.259932   23.922935 H          1 MOL1         0.0729
      10    C4      20.381134   19.950753   22.947779 C.3        1 MOL1        -0.1909
      11    H5      20.866570   20.104007   21.974295 H          1 MOL1         0.0729
      12    H6      20.988011   20.508822   23.673756 H          1 MOL1         0.0729
      13    C5      18.967559   20.582926   22.939360 C.3        1 MOL1        -0.1884
      14    H7      18.522808   20.506015   23.941100 H          1 MOL1         0.0729
      15    H8      19.067963   21.656704   22.729420 H          1 MOL1         0.0729
      16    C6      18.006177   19.965442   21.903013 C.3        1 MOL1        -0.2899
      17    H9      17.743344   18.934998   22.172199 H          1 MOL1         0.0741
      18    H10     17.073572   20.542096   21.853051 H          1 MOL1         0.0741
      19    H11     18.456797   19.961172   20.901810 H          1 MOL1         0.0741
@<TRIPOS>BOND
    1     1     2    1
    2     1     3    2
    3     1     4    1
    4     4     5    1
    5     4     6    1
    6     4     7    1
    7     7     8    1
    8     7     9    1
    9     7    10    1
   10    10    11    1
   11    10    12    1
   12    10    13    1
   13    13    14    1
   14    13    15    1
   15    13    16    1
   16    16    17    1
   17    16    18    1
   18    16    19    1
@<TRIPOS>SUBSTRUCTURE
       1 MOL1            1 RESIDUE      1      MOL     
@<SCITEGIC>MOL_PROPERTY
VConf Rank
SciTegic.value.IntegerValue
184

@<SCITEGIC>MOL_PROPERTY
Conf_Id
SciTegic.value.IntegerValue
4

@<SCITEGIC>MOL_PROPERTY
Delta U+W
SciTegic.value.DoubleValue
3.753

@<SCITEGIC>MOL_PROPERTY
U+W
SciTegic.value.DoubleValue
-51.138

@<SCITEGIC>MOL_PROPERTY
Grad RMS
SciTegic.value.DoubleValue
0.000000

@<SCITEGIC>MOL_PROPERTY
U
SciTegic.value.DoubleValue
12.334

@<SCITEGIC>MOL_PROPERTY
W
SciTegic.value.DoubleValue
-63.472

@<SCITEGIC>MOL_PROPERTY
W(PB)
SciTegic.value.DoubleValue
-65.500

@<SCITEGIC>MOL_PROPERTY
W(SA)
SciTegic.value.DoubleValue
2.028

@<SCITEGIC>MOL_PROPERTY
Valence
SciTegic.value.DoubleValue
9.984

@<SCITEGIC>MOL_PROPERTY
Coulomb
SciTegic.value.DoubleValue
1.767

@<SCITEGIC>MOL_PROPERTY
VdW
SciTegic.value.DoubleValue
0.583

@<SCITEGIC>MOL_PROPERTY
VdW6
SciTegic.value.DoubleValue
-7.767

@<SCITEGIC>MOL_PROPERTY
VdW12
SciTegic.value.DoubleValue
8.349

@<SCITEGIC>MOL_PROPERTY
Bond
SciTegic.value.DoubleValue
0.203

@<SCITEGIC>MOL_PROPERTY
Angle
SciTegic.value.DoubleValue
3.191

@<SCITEGIC>MOL_PROPERTY
Pdih
SciTegic.value.DoubleValue
6.589

@<SCITEGIC>MOL_PROPERTY
Idih
SciTegic.value.DoubleValue
0.001

@<SCITEGIC>MOL_PROPERTY
Tether
SciTegic.value.DoubleValue
0.000

@<TRIPOS>MOLECULE
guest-7_confgen4.mol2 : confsearch ligand conformer 185
          19          18           1
SMALL
USER_CHARGES
 
@<TRIPOS>ATOM
       1    C1      18.187394   16.971160   22.693172 C.2        1 MOL1         0.6115
       2    O1      17.830391   16.105816   21.918058 O.co2      1 MOL1        -0.6776
       3    O2      18.402881   16.768387   23.871791 O.co2      1 MOL1        -0.6776
       4    C2      18.344406   18.393257   22.160990 C.3        1 MOL1        -0.2013
       5    H1      18.355859   19.081224   23.012341 H          1 MOL1         0.0727
       6    H2      17.441806   18.624019   21.583221 H          1 MOL1         0.0727
       7    C3      19.595442   18.596369   21.261774 C.3        1 MOL1        -0.1910
       8    H3      19.568526   17.838631   20.466385 H          1 MOL1         0.0729
       9    H4      19.534993   19.568549   20.754383 H          1 MOL1         0.0729
      10    C4      20.946178   18.481716   22.015327 C.3        1 MOL1        -0.1909
      11    H5      21.677273   18.022682   21.335937 H          1 MOL1         0.0729
      12    H6      20.855642   17.791374   22.865054 H          1 MOL1         0.0729
      13    C5      21.536833   19.831753   22.491170 C.3        1 MOL1        -0.1884
      14    H7      22.524318   19.642558   22.934151 H          1 MOL1         0.0729
      15    H8      21.708848   20.485268   21.624838 H          1 MOL1         0.0729
      16    C6      20.665342   20.572063   23.526546 C.3        1 MOL1        -0.2899
      17    H9      20.414889   19.916376   24.370841 H          1 MOL1         0.0741
      18    H10     21.198310   21.446266   23.922138 H          1 MOL1         0.0741
      19    H11     19.732595   20.930749   23.074127 H          1 MOL1         0.0741
@<TRIPOS>BOND
    1     1     2    1
    2     1     3    2
    3     1     4    1
    4     4     5    1
    5     4     6    1
    6     4     7    1
    7     7     8    1
    8     7     9    1
    9     7    10    1
   10    10    11    1
   11    10    12    1
   12    10    13    1
   13    13    14    1
   14    13    15    1
   15    13    16    1
   16    16    17    1
   17    16    18    1
   18    16    19    1
@<TRIPOS>SUBSTRUCTURE
       1 MOL1            1 RESIDUE      1      MOL     
@<SCITEGIC>MOL_PROPERTY
VConf Rank
SciTegic.value.IntegerValue
185

@<SCITEGIC>MOL_PROPERTY
Conf_Id
SciTegic.value.IntegerValue
73

@<SCITEGIC>MOL_PROPERTY
Delta U+W
SciTegic.value.DoubleValue
3.707

@<SCITEGIC>MOL_PROPERTY
U+W
SciTegic.value.DoubleValue
-51.184

@<SCITEGIC>MOL_PROPERTY
Grad RMS
SciTegic.value.DoubleValue
0.000000

@<SCITEGIC>MOL_PROPERTY
U
SciTegic.value.DoubleValue
12.334

@<SCITEGIC>MOL_PROPERTY
W
SciTegic.value.DoubleValue
-63.519

@<SCITEGIC>MOL_PROPERTY
W(PB)
SciTegic.value.DoubleValue
-65.541

@<SCITEGIC>MOL_PROPERTY
W(SA)
SciTegic.value.DoubleValue
2.022

@<SCITEGIC>MOL_PROPERTY
Valence
SciTegic.value.DoubleValue
9.984

@<SCITEGIC>MOL_PROPERTY
Coulomb
SciTegic.value.DoubleValue
1.768

@<SCITEGIC>MOL_PROPERTY
VdW
SciTegic.value.DoubleValue
0.583

@<SCITEGIC>MOL_PROPERTY
VdW6
SciTegic.value.DoubleValue
-7.767

@<SCITEGIC>MOL_PROPERTY
VdW12
SciTegic.value.DoubleValue
8.350

@<SCITEGIC>MOL_PROPERTY
Bond
SciTegic.value.DoubleValue
0.203

@<SCITEGIC>MOL_PROPERTY
Angle
SciTegic.value.DoubleValue
3.192

@<SCITEGIC>MOL_PROPERTY
Pdih
SciTegic.value.DoubleValue
6.589

@<SCITEGIC>MOL_PROPERTY
Idih
SciTegic.value.DoubleValue
0.001

@<SCITEGIC>MOL_PROPERTY
Tether
SciTegic.value.DoubleValue
0.000

@<TRIPOS>MOLECULE
guest-7_confgen4.mol2 : confsearch ligand conformer 186
          19          18           1
SMALL
USER_CHARGES
 
@<TRIPOS>ATOM
       1    C1      17.572811   17.793643   22.326691 C.2        1 MOL1         0.6115
       2    O1      17.665895   17.381151   21.187438 O.co2      1 MOL1        -0.6776
       3    O2      17.014446   17.183976   23.217586 O.co2      1 MOL1        -0.6776
       4    C2      18.159390   19.164686   22.651484 C.3        1 MOL1        -0.2013
       5    H1      17.380093   19.739832   23.164878 H          1 MOL1         0.0727
       6    H2      18.365321   19.690733   21.712248 H          1 MOL1         0.0727
       7    C3      19.432002   19.116537   23.540534 C.3        1 MOL1        -0.1910
       8    H3      19.741310   20.140952   23.785005 H          1 MOL1         0.0729
       9    H4      19.174373   18.642949   24.497849 H          1 MOL1         0.0729
      10    C4      20.623420   18.348345   22.912443 C.3        1 MOL1        -0.1909
      11    H5      20.342215   17.294046   22.784149 H          1 MOL1         0.0729
      12    H6      21.460123   18.352880   23.624131 H          1 MOL1         0.0729
      13    C5      21.119554   18.898509   21.552889 C.3        1 MOL1        -0.1884
      14    H7      21.947872   18.267858   21.202082 H          1 MOL1         0.0729
      15    H8      20.327992   18.806112   20.797020 H          1 MOL1         0.0729
      16    C6      21.605584   20.362135   21.625327 C.3        1 MOL1        -0.2899
      17    H9      20.780289   21.045077   21.862791 H          1 MOL1         0.0741
      18    H10     22.382939   20.480371   22.391325 H          1 MOL1         0.0741
      19    H11     22.029001   20.674255   20.661951 H          1 MOL1         0.0741
@<TRIPOS>BOND
    1     1     2    1
    2     1     3    2
    3     1     4    1
    4     4     5    1
    5     4     6    1
    6     4     7    1
    7     7     8    1
    8     7     9    1
    9     7    10    1
   10    10    11    1
   11    10    12    1
   12    10    13    1
   13    13    14    1
   14    13    15    1
   15    13    16    1
   16    16    17    1
   17    16    18    1
   18    16    19    1
@<TRIPOS>SUBSTRUCTURE
       1 MOL1            1 RESIDUE      1      MOL     
@<SCITEGIC>MOL_PROPERTY
VConf Rank
SciTegic.value.IntegerValue
186

@<SCITEGIC>MOL_PROPERTY
Conf_Id
SciTegic.value.IntegerValue
56

@<SCITEGIC>MOL_PROPERTY
Delta U+W
SciTegic.value.DoubleValue
1.735

@<SCITEGIC>MOL_PROPERTY
U+W
SciTegic.value.DoubleValue
-53.156

@<SCITEGIC>MOL_PROPERTY
Grad RMS
SciTegic.value.DoubleValue
0.000000

@<SCITEGIC>MOL_PROPERTY
U
SciTegic.value.DoubleValue
10.214

@<SCITEGIC>MOL_PROPERTY
W
SciTegic.value.DoubleValue
-63.370

@<SCITEGIC>MOL_PROPERTY
W(PB)
SciTegic.value.DoubleValue
-65.388

@<SCITEGIC>MOL_PROPERTY
W(SA)
SciTegic.value.DoubleValue
2.018

@<SCITEGIC>MOL_PROPERTY
Valence
SciTegic.value.DoubleValue
7.868

@<SCITEGIC>MOL_PROPERTY
Coulomb
SciTegic.value.DoubleValue
1.968

@<SCITEGIC>MOL_PROPERTY
VdW
SciTegic.value.DoubleValue
0.378

@<SCITEGIC>MOL_PROPERTY
VdW6
SciTegic.value.DoubleValue
-8.067

@<SCITEGIC>MOL_PROPERTY
VdW12
SciTegic.value.DoubleValue
8.445

@<SCITEGIC>MOL_PROPERTY
Bond
SciTegic.value.DoubleValue
0.191

@<SCITEGIC>MOL_PROPERTY
Angle
SciTegic.value.DoubleValue
3.117

@<SCITEGIC>MOL_PROPERTY
Pdih
SciTegic.value.DoubleValue
4.559

@<SCITEGIC>MOL_PROPERTY
Idih
SciTegic.value.DoubleValue
0.001

@<SCITEGIC>MOL_PROPERTY
Tether
SciTegic.value.DoubleValue
0.000

@<TRIPOS>MOLECULE
guest-7_confgen4.mol2 : confsearch ligand conformer 187
          19          18           1
SMALL
USER_CHARGES
 
@<TRIPOS>ATOM
       1    C1      17.489469   17.470258   22.875648 C.2        1 MOL1         0.6115
       2    O1      16.856158   16.875763   22.026027 O.co2      1 MOL1        -0.6776
       3    O2      17.073305   17.684606   23.996914 O.co2      1 MOL1        -0.6776
       4    C2      18.872978   17.994434   22.507710 C.3        1 MOL1        -0.2013
       5    H1      19.311365   17.312381   21.769470 H          1 MOL1         0.0727
       6    H2      19.494609   17.949906   23.408876 H          1 MOL1         0.0727
       7    C3      18.838970   19.439255   21.948860 C.3        1 MOL1        -0.1910
       8    H3      18.100245   19.484625   21.136687 H          1 MOL1         0.0729
       9    H4      18.477862   20.121079   22.731109 H          1 MOL1         0.0729
      10    C4      20.198145   19.945884   21.404374 C.3        1 MOL1        -0.1909
      11    H5      20.034434   20.950687   20.991408 H          1 MOL1         0.0729
      12    H6      20.520890   19.324413   20.557847 H          1 MOL1         0.0729
      13    C5      21.325381   20.037861   22.462668 C.3        1 MOL1        -0.1884
      14    H7      21.949167   20.913339   22.235136 H          1 MOL1         0.0729
      15    H8      20.899032   20.217548   23.459285 H          1 MOL1         0.0729
      16    C6      22.241507   18.794153   22.487813 C.3        1 MOL1        -0.2899
      17    H9      23.032051   18.915432   23.239615 H          1 MOL1         0.0741
      18    H10     21.685990   17.881653   22.731457 H          1 MOL1         0.0741
      19    H11     22.725267   18.646222   21.513532 H          1 MOL1         0.0741
@<TRIPOS>BOND
    1     1     2    1
    2     1     3    2
    3     1     4    1
    4     4     5    1
    5     4     6    1
    6     4     7    1
    7     7     8    1
    8     7     9    1
    9     7    10    1
   10    10    11    1
   11    10    12    1
   12    10    13    1
   13    13    14    1
   14    13    15    1
   15    13    16    1
   16    16    17    1
   17    16    18    1
   18    16    19    1
@<TRIPOS>SUBSTRUCTURE
       1 MOL1            1 RESIDUE      1      MOL     
@<SCITEGIC>MOL_PROPERTY
VConf Rank
SciTegic.value.IntegerValue
187

@<SCITEGIC>MOL_PROPERTY
Conf_Id
SciTegic.value.IntegerValue
53

@<SCITEGIC>MOL_PROPERTY
Delta U+W
SciTegic.value.DoubleValue
2.279

@<SCITEGIC>MOL_PROPERTY
U+W
SciTegic.value.DoubleValue
-52.612

@<SCITEGIC>MOL_PROPERTY
Grad RMS
SciTegic.value.DoubleValue
0.000000

@<SCITEGIC>MOL_PROPERTY
U
SciTegic.value.DoubleValue
10.231

@<SCITEGIC>MOL_PROPERTY
W
SciTegic.value.DoubleValue
-62.843

@<SCITEGIC>MOL_PROPERTY
W(PB)
SciTegic.value.DoubleValue
-64.893

@<SCITEGIC>MOL_PROPERTY
W(SA)
SciTegic.value.DoubleValue
2.050

@<SCITEGIC>MOL_PROPERTY
Valence
SciTegic.value.DoubleValue
9.644

@<SCITEGIC>MOL_PROPERTY
Coulomb
SciTegic.value.DoubleValue
-0.164

@<SCITEGIC>MOL_PROPERTY
VdW
SciTegic.value.DoubleValue
0.751

@<SCITEGIC>MOL_PROPERTY
VdW6
SciTegic.value.DoubleValue
-6.881

@<SCITEGIC>MOL_PROPERTY
VdW12
SciTegic.value.DoubleValue
7.631

@<SCITEGIC>MOL_PROPERTY
Bond
SciTegic.value.DoubleValue
0.163

@<SCITEGIC>MOL_PROPERTY
Angle
SciTegic.value.DoubleValue
2.998

@<SCITEGIC>MOL_PROPERTY
Pdih
SciTegic.value.DoubleValue
6.482

@<SCITEGIC>MOL_PROPERTY
Idih
SciTegic.value.DoubleValue
0.001

@<SCITEGIC>MOL_PROPERTY
Tether
SciTegic.value.DoubleValue
0.000

@<TRIPOS>MOLECULE
guest-7_confgen4.mol2 : confsearch ligand conformer 188
          19          18           1
SMALL
USER_CHARGES
 
@<TRIPOS>ATOM
       1    C1      19.761857   16.832765   21.317939 C.2        1 MOL1         0.6115
       2    O1      18.576030   16.635016   21.495595 O.co2      1 MOL1        -0.6776
       3    O2      20.627103   16.037449   21.627890 O.co2      1 MOL1        -0.6776
       4    C2      20.178919   18.117380   20.604283 C.3        1 MOL1        -0.2013
       5    H1      19.279969   18.690764   20.347295 H          1 MOL1         0.0727
       6    H2      20.635601   17.809229   19.656597 H          1 MOL1         0.0727
       7    C3      21.184217   19.012727   21.382006 C.3        1 MOL1        -0.1910
       8    H3      21.980738   18.392236   21.815696 H          1 MOL1         0.0729
       9    H4      21.677892   19.675237   20.658278 H          1 MOL1         0.0729
      10    C4      20.548036   19.902934   22.478127 C.3        1 MOL1        -0.1909
      11    H5      19.757922   20.525493   22.036567 H          1 MOL1         0.0729
      12    H6      21.317563   20.595727   22.845380 H          1 MOL1         0.0729
      13    C5      19.978126   19.114491   23.677766 C.3        1 MOL1        -0.1884
      14    H7      19.118077   18.512226   23.358392 H          1 MOL1         0.0729
      15    H8      20.736249   18.416152   24.058514 H          1 MOL1         0.0729
      16    C6      19.531045   20.057346   24.813099 C.3        1 MOL1        -0.2899
      17    H9      18.753561   20.749712   24.464522 H          1 MOL1         0.0741
      18    H10     19.121025   19.482453   25.653591 H          1 MOL1         0.0741
      19    H11     20.375666   20.650024   25.188155 H          1 MOL1         0.0741
@<TRIPOS>BOND
    1     1     2    1
    2     1     3    2
    3     1     4    1
    4     4     5    1
    5     4     6    1
    6     4     7    1
    7     7     8    1
    8     7     9    1
    9     7    10    1
   10    10    11    1
   11    10    12    1
   12    10    13    1
   13    13    14    1
   14    13    15    1
   15    13    16    1
   16    16    17    1
   17    16    18    1
   18    16    19    1
@<TRIPOS>SUBSTRUCTURE
       1 MOL1            1 RESIDUE      1      MOL     
@<SCITEGIC>MOL_PROPERTY
VConf Rank
SciTegic.value.IntegerValue
188

@<SCITEGIC>MOL_PROPERTY
Conf_Id
SciTegic.value.IntegerValue
25

@<SCITEGIC>MOL_PROPERTY
Delta U+W
SciTegic.value.DoubleValue
2.065

@<SCITEGIC>MOL_PROPERTY
U+W
SciTegic.value.DoubleValue
-52.826

@<SCITEGIC>MOL_PROPERTY
Grad RMS
SciTegic.value.DoubleValue
0.000000

@<SCITEGIC>MOL_PROPERTY
U
SciTegic.value.DoubleValue
10.967

@<SCITEGIC>MOL_PROPERTY
W
SciTegic.value.DoubleValue
-63.794

@<SCITEGIC>MOL_PROPERTY
W(PB)
SciTegic.value.DoubleValue
-65.830

@<SCITEGIC>MOL_PROPERTY
W(SA)
SciTegic.value.DoubleValue
2.036

@<SCITEGIC>MOL_PROPERTY
Valence
SciTegic.value.DoubleValue
8.609

@<SCITEGIC>MOL_PROPERTY
Coulomb
SciTegic.value.DoubleValue
1.892

@<SCITEGIC>MOL_PROPERTY
VdW
SciTegic.value.DoubleValue
0.467

@<SCITEGIC>MOL_PROPERTY
VdW6
SciTegic.value.DoubleValue
-7.569

@<SCITEGIC>MOL_PROPERTY
VdW12
SciTegic.value.DoubleValue
8.036

@<SCITEGIC>MOL_PROPERTY
Bond
SciTegic.value.DoubleValue
0.170

@<SCITEGIC>MOL_PROPERTY
Angle
SciTegic.value.DoubleValue
3.195

@<SCITEGIC>MOL_PROPERTY
Pdih
SciTegic.value.DoubleValue
5.237

@<SCITEGIC>MOL_PROPERTY
Idih
SciTegic.value.DoubleValue
0.007

@<SCITEGIC>MOL_PROPERTY
Tether
SciTegic.value.DoubleValue
0.000

@<TRIPOS>MOLECULE
guest-7_confgen4.mol2 : confsearch ligand conformer 189
          19          18           1
SMALL
USER_CHARGES
 
@<TRIPOS>ATOM
       1    C1      17.804457   19.018583   21.803406 C.2        1 MOL1         0.6115
       2    O1      17.500985   17.995023   21.222480 O.co2      1 MOL1        -0.6776
       3    O2      17.746702   20.120131   21.293398 O.co2      1 MOL1        -0.6776
       4    C2      18.212856   18.925384   23.272423 C.3        1 MOL1        -0.2013
       5    H1      17.339546   18.539993   23.811337 H          1 MOL1         0.0727
       6    H2      18.397259   19.936100   23.656314 H          1 MOL1         0.0727
       7    C3      19.432979   18.007500   23.565538 C.3        1 MOL1        -0.1910
       8    H3      19.401012   17.730556   24.627939 H          1 MOL1         0.0729
       9    H4      19.337463   17.067021   23.005254 H          1 MOL1         0.0729
      10    C4      20.813132   18.653212   23.288204 C.3        1 MOL1        -0.1909
      11    H5      21.589894   17.979611   23.675389 H          1 MOL1         0.0729
      12    H6      20.904751   19.588738   23.856741 H          1 MOL1         0.0729
      13    C5      21.092779   18.924532   21.793628 C.3        1 MOL1        -0.1884
      14    H7      20.903516   18.014226   21.208036 H          1 MOL1         0.0729
      15    H8      20.410084   19.696734   21.416749 H          1 MOL1         0.0729
      16    C6      22.545026   19.390117   21.565491 C.3        1 MOL1        -0.2899
      17    H9      22.724767   19.586705   20.500554 H          1 MOL1         0.0741
      18    H10     22.752280   20.314369   22.120615 H          1 MOL1         0.0741
      19    H11     23.260057   18.624516   21.893976 H          1 MOL1         0.0741
@<TRIPOS>BOND
    1     1     2    1
    2     1     3    2
    3     1     4    1
    4     4     5    1
    5     4     6    1
    6     4     7    1
    7     7     8    1
    8     7     9    1
    9     7    10    1
   10    10    11    1
   11    10    12    1
   12    10    13    1
   13    13    14    1
   14    13    15    1
   15    13    16    1
   16    16    17    1
   17    16    18    1
   18    16    19    1
@<TRIPOS>SUBSTRUCTURE
       1 MOL1            1 RESIDUE      1      MOL     
@<SCITEGIC>MOL_PROPERTY
VConf Rank
SciTegic.value.IntegerValue
189

@<SCITEGIC>MOL_PROPERTY
Conf_Id
SciTegic.value.IntegerValue
52

@<SCITEGIC>MOL_PROPERTY
Delta U+W
SciTegic.value.DoubleValue
2.070

@<SCITEGIC>MOL_PROPERTY
U+W
SciTegic.value.DoubleValue
-52.822

@<SCITEGIC>MOL_PROPERTY
Grad RMS
SciTegic.value.DoubleValue
0.000000

@<SCITEGIC>MOL_PROPERTY
U
SciTegic.value.DoubleValue
10.967

@<SCITEGIC>MOL_PROPERTY
W
SciTegic.value.DoubleValue
-63.789

@<SCITEGIC>MOL_PROPERTY
W(PB)
SciTegic.value.DoubleValue
-65.837

@<SCITEGIC>MOL_PROPERTY
W(SA)
SciTegic.value.DoubleValue
2.048

@<SCITEGIC>MOL_PROPERTY
Valence
SciTegic.value.DoubleValue
8.609

@<SCITEGIC>MOL_PROPERTY
Coulomb
SciTegic.value.DoubleValue
1.892

@<SCITEGIC>MOL_PROPERTY
VdW
SciTegic.value.DoubleValue
0.467

@<SCITEGIC>MOL_PROPERTY
VdW6
SciTegic.value.DoubleValue
-7.569

@<SCITEGIC>MOL_PROPERTY
VdW12
SciTegic.value.DoubleValue
8.035

@<SCITEGIC>MOL_PROPERTY
Bond
SciTegic.value.DoubleValue
0.170

@<SCITEGIC>MOL_PROPERTY
Angle
SciTegic.value.DoubleValue
3.196

@<SCITEGIC>MOL_PROPERTY
Pdih
SciTegic.value.DoubleValue
5.237

@<SCITEGIC>MOL_PROPERTY
Idih
SciTegic.value.DoubleValue
0.007

@<SCITEGIC>MOL_PROPERTY
Tether
SciTegic.value.DoubleValue
0.000

@<TRIPOS>MOLECULE
guest-7_confgen4.mol2 : confsearch ligand conformer 190
          19          18           1
SMALL
USER_CHARGES
 
@<TRIPOS>ATOM
       1    C1      19.321187   16.818739   22.889484 C.2        1 MOL1         0.6115
       2    O1      19.156824   16.635114   24.080023 O.co2      1 MOL1        -0.6776
       3    O2      18.504156   16.499896   22.048355 O.co2      1 MOL1        -0.6776
       4    C2      20.668810   17.359606   22.409113 C.3        1 MOL1        -0.2013
       5    H1      20.595456   17.606408   21.343165 H          1 MOL1         0.0727
       6    H2      21.375295   16.525419   22.488399 H          1 MOL1         0.0727
       7    C3      21.232617   18.572103   23.203683 C.3        1 MOL1        -0.1910
       8    H3      21.059555   18.429462   24.279315 H          1 MOL1         0.0729
       9    H4      22.323579   18.580384   23.076844 H          1 MOL1         0.0729
      10    C4      20.702136   19.960531   22.763186 C.3        1 MOL1        -0.1909
      11    H5      20.964040   20.146212   21.712489 H          1 MOL1         0.0729
      12    H6      21.245954   20.719661   23.341935 H          1 MOL1         0.0729
      13    C5      19.186777   20.183099   22.987111 C.3        1 MOL1        -0.1884
      14    H7      18.809016   19.502762   23.762865 H          1 MOL1         0.0729
      15    H8      19.030887   21.200081   23.372589 H          1 MOL1         0.0729
      16    C6      18.362483   20.029645   21.690919 C.3        1 MOL1        -0.2899
      17    H9      18.666557   20.773718   20.943370 H          1 MOL1         0.0741
      18    H10     18.489780   19.034450   21.249205 H          1 MOL1         0.0741
      19    H11     17.293621   20.172937   21.894932 H          1 MOL1         0.0741
@<TRIPOS>BOND
    1     1     2    1
    2     1     3    2
    3     1     4    1
    4     4     5    1
    5     4     6    1
    6     4     7    1
    7     7     8    1
    8     7     9    1
    9     7    10    1
   10    10    11    1
   11    10    12    1
   12    10    13    1
   13    13    14    1
   14    13    15    1
   15    13    16    1
   16    16    17    1
   17    16    18    1
   18    16    19    1
@<TRIPOS>SUBSTRUCTURE
       1 MOL1            1 RESIDUE      1      MOL     
@<SCITEGIC>MOL_PROPERTY
VConf Rank
SciTegic.value.IntegerValue
190

@<SCITEGIC>MOL_PROPERTY
Conf_Id
SciTegic.value.IntegerValue
66

@<SCITEGIC>MOL_PROPERTY
Delta U+W
SciTegic.value.DoubleValue
5.819

@<SCITEGIC>MOL_PROPERTY
U+W
SciTegic.value.DoubleValue
-49.072

@<SCITEGIC>MOL_PROPERTY
Grad RMS
SciTegic.value.DoubleValue
0.000000

@<SCITEGIC>MOL_PROPERTY
U
SciTegic.value.DoubleValue
15.324

@<SCITEGIC>MOL_PROPERTY
W
SciTegic.value.DoubleValue
-64.396

@<SCITEGIC>MOL_PROPERTY
W(PB)
SciTegic.value.DoubleValue
-66.382

@<SCITEGIC>MOL_PROPERTY
W(SA)
SciTegic.value.DoubleValue
1.986

@<SCITEGIC>MOL_PROPERTY
Valence
SciTegic.value.DoubleValue
11.748

@<SCITEGIC>MOL_PROPERTY
Coulomb
SciTegic.value.DoubleValue
3.201

@<SCITEGIC>MOL_PROPERTY
VdW
SciTegic.value.DoubleValue
0.375

@<SCITEGIC>MOL_PROPERTY
VdW6
SciTegic.value.DoubleValue
-8.854

@<SCITEGIC>MOL_PROPERTY
VdW12
SciTegic.value.DoubleValue
9.229

@<SCITEGIC>MOL_PROPERTY
Bond
SciTegic.value.DoubleValue
0.216

@<SCITEGIC>MOL_PROPERTY
Angle
SciTegic.value.DoubleValue
3.812

@<SCITEGIC>MOL_PROPERTY
Pdih
SciTegic.value.DoubleValue
7.699

@<SCITEGIC>MOL_PROPERTY
Idih
SciTegic.value.DoubleValue
0.022

@<SCITEGIC>MOL_PROPERTY
Tether
SciTegic.value.DoubleValue
0.000

@<TRIPOS>MOLECULE
guest-7_confgen4.mol2 : confsearch ligand conformer 191
          19          18           1
SMALL
USER_CHARGES
 
@<TRIPOS>ATOM
       1    C1      17.065359   17.162787   21.730571 C.2        1 MOL1         0.6115
       2    O1      16.550246   16.328578   21.013343 O.co2      1 MOL1        -0.6776
       3    O2      16.497096   17.660964   22.682959 O.co2      1 MOL1        -0.6776
       4    C2      18.496223   17.585620   21.393651 C.3        1 MOL1        -0.2013
       5    H1      18.492558   17.960483   20.363353 H          1 MOL1         0.0727
       6    H2      19.115613   16.681018   21.403698 H          1 MOL1         0.0727
       7    C3      19.111876   18.652762   22.337373 C.3        1 MOL1        -0.1910
       8    H3      18.483563   19.554198   22.327211 H          1 MOL1         0.0729
       9    H4      19.107220   18.273410   23.368653 H          1 MOL1         0.0729
      10    C4      20.553990   19.020028   21.925443 C.3        1 MOL1        -0.1909
      11    H5      20.556338   19.398858   20.894117 H          1 MOL1         0.0729
      12    H6      21.180344   18.117412   21.936159 H          1 MOL1         0.0729
      13    C5      21.164123   20.081017   22.864822 C.3        1 MOL1        -0.1884
      14    H7      20.541370   20.986325   22.855450 H          1 MOL1         0.0729
      15    H8      21.165414   19.704991   23.897341 H          1 MOL1         0.0729
      16    C6      22.603794   20.445337   22.450564 C.3        1 MOL1        -0.2899
      17    H9      22.627861   20.854127   21.431872 H          1 MOL1         0.0741
      18    H10     23.022057   21.200476   23.128744 H          1 MOL1         0.0741
      19    H11     23.256612   19.563131   22.481590 H          1 MOL1         0.0741
@<TRIPOS>BOND
    1     1     2    1
    2     1     3    2
    3     1     4    1
    4     4     5    1
    5     4     6    1
    6     4     7    1
    7     7     8    1
    8     7     9    1
    9     7    10    1
   10    10    11    1
   11    10    12    1
   12    10    13    1
   13    13    14    1
   14    13    15    1
   15    13    16    1
   16    16    17    1
   17    16    18    1
   18    16    19    1
@<TRIPOS>SUBSTRUCTURE
       1 MOL1            1 RESIDUE      1      MOL     
@<SCITEGIC>MOL_PROPERTY
VConf Rank
SciTegic.value.IntegerValue
191

@<SCITEGIC>MOL_PROPERTY
Conf_Id
SciTegic.value.IntegerValue
0

@<SCITEGIC>MOL_PROPERTY
Delta U+W
SciTegic.value.DoubleValue
0.000

@<SCITEGIC>MOL_PROPERTY
U+W
SciTegic.value.DoubleValue
-54.891

@<SCITEGIC>MOL_PROPERTY
Grad RMS
SciTegic.value.DoubleValue
0.000000

@<SCITEGIC>MOL_PROPERTY
U
SciTegic.value.DoubleValue
6.966

@<SCITEGIC>MOL_PROPERTY
W
SciTegic.value.DoubleValue
-61.857

@<SCITEGIC>MOL_PROPERTY
W(PB)
SciTegic.value.DoubleValue
-63.965

@<SCITEGIC>MOL_PROPERTY
W(SA)
SciTegic.value.DoubleValue
2.108

@<SCITEGIC>MOL_PROPERTY
Valence
SciTegic.value.DoubleValue
7.175

@<SCITEGIC>MOL_PROPERTY
Coulomb
SciTegic.value.DoubleValue
-1.360

@<SCITEGIC>MOL_PROPERTY
VdW
SciTegic.value.DoubleValue
1.151

@<SCITEGIC>MOL_PROPERTY
VdW6
SciTegic.value.DoubleValue
-5.641

@<SCITEGIC>MOL_PROPERTY
VdW12
SciTegic.value.DoubleValue
6.792

@<SCITEGIC>MOL_PROPERTY
Bond
SciTegic.value.DoubleValue
0.119

@<SCITEGIC>MOL_PROPERTY
Angle
SciTegic.value.DoubleValue
2.715

@<SCITEGIC>MOL_PROPERTY
Pdih
SciTegic.value.DoubleValue
4.340

@<SCITEGIC>MOL_PROPERTY
Idih
SciTegic.value.DoubleValue
0.000

@<SCITEGIC>MOL_PROPERTY
Tether
SciTegic.value.DoubleValue
0.000

@<TRIPOS>MOLECULE
guest-7_confgen4.mol2 : confsearch ligand conformer 192
          19          18           1
SMALL
USER_CHARGES
 
@<TRIPOS>ATOM
       1    C1      21.345066   15.947429   22.899404 C.2        1 MOL1         0.6115
       2    O1      21.049916   15.034397   22.154126 O.co2      1 MOL1        -0.6776
       3    O2      22.405556   16.019228   23.487952 O.co2      1 MOL1        -0.6776
       4    C2      20.337425   17.075464   23.090628 C.3        1 MOL1        -0.2013
       5    H1      20.447113   17.461137   24.111395 H          1 MOL1         0.0727
       6    H2      19.329885   16.649589   23.011640 H          1 MOL1         0.0727
       7    C3      20.514810   18.221705   22.064578 C.3        1 MOL1        -0.1910
       8    H3      21.532127   18.628789   22.147636 H          1 MOL1         0.0729
       9    H4      20.414987   17.817136   21.047766 H          1 MOL1         0.0729
      10    C4      19.483306   19.350166   22.279523 C.3        1 MOL1        -0.1909
      11    H5      19.584707   19.751563   23.297261 H          1 MOL1         0.0729
      12    H6      18.467422   18.939820   22.197129 H          1 MOL1         0.0729
      13    C5      19.662434   20.490690   21.256053 C.3        1 MOL1        -0.1884
      14    H7      20.676960   20.905094   21.336678 H          1 MOL1         0.0729
      15    H8      19.559702   20.093460   20.236667 H          1 MOL1         0.0729
      16    C6      18.630945   21.615697   21.473644 C.3        1 MOL1        -0.2899
      17    H9      18.772607   22.417974   20.737850 H          1 MOL1         0.0741
      18    H10     17.606536   21.235288   21.367351 H          1 MOL1         0.0741
      19    H11     18.732152   22.052973   22.475627 H          1 MOL1         0.0741
@<TRIPOS>BOND
    1     1     2    1
    2     1     3    2
    3     1     4    1
    4     4     5    1
    5     4     6    1
    6     4     7    1
    7     7     8    1
    8     7     9    1
    9     7    10    1
   10    10    11    1
   11    10    12    1
   12    10    13    1
   13    13    14    1
   14    13    15    1
   15    13    16    1
   16    16    17    1
   17    16    18    1
   18    16    19    1
@<TRIPOS>SUBSTRUCTURE
       1 MOL1            1 RESIDUE      1      MOL     
@<SCITEGIC>MOL_PROPERTY
VConf Rank
SciTegic.value.IntegerValue
192

@<SCITEGIC>MOL_PROPERTY
Conf_Id
SciTegic.value.IntegerValue
18

@<SCITEGIC>MOL_PROPERTY
Delta U+W
SciTegic.value.DoubleValue
-1.199

@<SCITEGIC>MOL_PROPERTY
U+W
SciTegic.value.DoubleValue
-56.090

@<SCITEGIC>MOL_PROPERTY
Grad RMS
SciTegic.value.DoubleValue
0.000000

@<SCITEGIC>MOL_PROPERTY
U
SciTegic.value.DoubleValue
5.975

@<SCITEGIC>MOL_PROPERTY
W
SciTegic.value.DoubleValue
-62.066

@<SCITEGIC>MOL_PROPERTY
W(PB)
SciTegic.value.DoubleValue
-64.219

@<SCITEGIC>MOL_PROPERTY
W(SA)
SciTegic.value.DoubleValue
2.153

@<SCITEGIC>MOL_PROPERTY
Valence
SciTegic.value.DoubleValue
6.673

@<SCITEGIC>MOL_PROPERTY
Coulomb
SciTegic.value.DoubleValue
-1.307

@<SCITEGIC>MOL_PROPERTY
VdW
SciTegic.value.DoubleValue
0.610

@<SCITEGIC>MOL_PROPERTY
VdW6
SciTegic.value.DoubleValue
-5.351

@<SCITEGIC>MOL_PROPERTY
VdW12
SciTegic.value.DoubleValue
5.961

@<SCITEGIC>MOL_PROPERTY
Bond
SciTegic.value.DoubleValue
0.086

@<SCITEGIC>MOL_PROPERTY
Angle
SciTegic.value.DoubleValue
2.253

@<SCITEGIC>MOL_PROPERTY
Pdih
SciTegic.value.DoubleValue
4.333

@<SCITEGIC>MOL_PROPERTY
Idih
SciTegic.value.DoubleValue
0.001

@<SCITEGIC>MOL_PROPERTY
Tether
SciTegic.value.DoubleValue
0.000

@<TRIPOS>MOLECULE
guest-7_confgen4.mol2 : confsearch ligand conformer 193
          19          18           1
SMALL
USER_CHARGES
 
@<TRIPOS>ATOM
       1    C1      21.626935   17.448796   19.847666 C.2        1 MOL1         0.6115
       2    O1      22.056107   18.019528   18.864627 O.co2      1 MOL1        -0.6776
       3    O2      22.024587   16.363464   20.222084 O.co2      1 MOL1        -0.6776
       4    C2      20.545219   18.142290   20.668225 C.3        1 MOL1        -0.2013
       5    H1      19.897915   17.365530   21.090699 H          1 MOL1         0.0727
       6    H2      19.931523   18.741566   19.985030 H          1 MOL1         0.0727
       7    C3      21.126678   19.039817   21.791405 C.3        1 MOL1        -0.1910
       8    H3      21.702422   18.421636   22.494030 H          1 MOL1         0.0729
       9    H4      21.839414   19.746548   21.344235 H          1 MOL1         0.0729
      10    C4      20.050402   19.841660   22.560957 C.3        1 MOL1        -0.1909
      11    H5      19.482239   20.464986   21.856924 H          1 MOL1         0.0729
      12    H6      20.556207   20.532537   23.249335 H          1 MOL1         0.0729
      13    C5      19.079867   18.950155   23.367674 C.3        1 MOL1        -0.1884
      14    H7      18.507695   18.303245   22.689820 H          1 MOL1         0.0729
      15    H8      19.650812   18.290367   24.035483 H          1 MOL1         0.0729
      16    C6      18.096882   19.795969   24.201706 C.3        1 MOL1        -0.2899
      17    H9      17.412780   19.149146   24.766254 H          1 MOL1         0.0741
      18    H10     18.634172   20.429248   24.919803 H          1 MOL1         0.0741
      19    H11     17.492791   20.446373   23.555598 H          1 MOL1         0.0741
@<TRIPOS>BOND
    1     1     2    1
    2     1     3    2
    3     1     4    1
    4     4     5    1
    5     4     6    1
    6     4     7    1
    7     7     8    1
    8     7     9    1
    9     7    10    1
   10    10    11    1
   11    10    12    1
   12    10    13    1
   13    13    14    1
   14    13    15    1
   15    13    16    1
   16    16    17    1
   17    16    18    1
   18    16    19    1
@<TRIPOS>SUBSTRUCTURE
       1 MOL1            1 RESIDUE      1      MOL     
@<SCITEGIC>MOL_PROPERTY
VConf Rank
SciTegic.value.IntegerValue
193

@<SCITEGIC>MOL_PROPERTY
Conf_Id
SciTegic.value.IntegerValue
34

@<SCITEGIC>MOL_PROPERTY
Delta U+W
SciTegic.value.DoubleValue
-0.563

@<SCITEGIC>MOL_PROPERTY
U+W
SciTegic.value.DoubleValue
-55.455

@<SCITEGIC>MOL_PROPERTY
Grad RMS
SciTegic.value.DoubleValue
0.000000

@<SCITEGIC>MOL_PROPERTY
U
SciTegic.value.DoubleValue
6.914

@<SCITEGIC>MOL_PROPERTY
W
SciTegic.value.DoubleValue
-62.369

@<SCITEGIC>MOL_PROPERTY
W(PB)
SciTegic.value.DoubleValue
-64.446

@<SCITEGIC>MOL_PROPERTY
W(SA)
SciTegic.value.DoubleValue
2.077

@<SCITEGIC>MOL_PROPERTY
Valence
SciTegic.value.DoubleValue
7.196

@<SCITEGIC>MOL_PROPERTY
Coulomb
SciTegic.value.DoubleValue
-1.020

@<SCITEGIC>MOL_PROPERTY
VdW
SciTegic.value.DoubleValue
0.738

@<SCITEGIC>MOL_PROPERTY
VdW6
SciTegic.value.DoubleValue
-6.010

@<SCITEGIC>MOL_PROPERTY
VdW12
SciTegic.value.DoubleValue
6.748

@<SCITEGIC>MOL_PROPERTY
Bond
SciTegic.value.DoubleValue
0.126

@<SCITEGIC>MOL_PROPERTY
Angle
SciTegic.value.DoubleValue
2.499

@<SCITEGIC>MOL_PROPERTY
Pdih
SciTegic.value.DoubleValue
4.570

@<SCITEGIC>MOL_PROPERTY
Idih
SciTegic.value.DoubleValue
0.001

@<SCITEGIC>MOL_PROPERTY
Tether
SciTegic.value.DoubleValue
0.000

@<TRIPOS>MOLECULE
guest-7_confgen4.mol2 : confsearch ligand conformer 194
          19          18           1
SMALL
USER_CHARGES
 
@<TRIPOS>ATOM
       1    C1      19.953000   15.952392   20.956857 C.2        1 MOL1         0.6115
       2    O1      18.945765   15.285472   20.826526 O.co2      1 MOL1        -0.6776
       3    O2      21.074571   15.485226   20.946985 O.co2      1 MOL1        -0.6776
       4    C2      19.799942   17.454755   21.166228 C.3        1 MOL1        -0.2013
       5    H1      18.906743   17.784892   20.622430 H          1 MOL1         0.0727
       6    H2      20.663122   17.945551   20.702671 H          1 MOL1         0.0727
       7    C3      19.688723   17.843880   22.663357 C.3        1 MOL1        -0.1910
       8    H3      18.872071   17.266048   23.117903 H          1 MOL1         0.0729
       9    H4      20.607452   17.548253   23.188572 H          1 MOL1         0.0729
      10    C4      19.417198   19.349735   22.891830 C.3        1 MOL1        -0.1909
      11    H5      19.235801   19.512644   23.963076 H          1 MOL1         0.0729
      12    H6      18.493599   19.640187   22.372589 H          1 MOL1         0.0729
      13    C5      20.579544   20.259772   22.435435 C.3        1 MOL1        -0.1884
      14    H7      21.513578   19.937121   22.915793 H          1 MOL1         0.0729
      15    H8      20.728296   20.169187   21.351446 H          1 MOL1         0.0729
      16    C6      20.309612   21.737623   22.782364 C.3        1 MOL1        -0.2899
      17    H9      19.394500   22.094968   22.292178 H          1 MOL1         0.0741
      18    H10     20.193514   21.872415   23.865756 H          1 MOL1         0.0741
      19    H11     21.142014   22.371220   22.449573 H          1 MOL1         0.0741
@<TRIPOS>BOND
    1     1     2    1
    2     1     3    2
    3     1     4    1
    4     4     5    1
    5     4     6    1
    6     4     7    1
    7     7     8    1
    8     7     9    1
    9     7    10    1
   10    10    11    1
   11    10    12    1
   12    10    13    1
   13    13    14    1
   14    13    15    1
   15    13    16    1
   16    16    17    1
   17    16    18    1
   18    16    19    1
@<TRIPOS>SUBSTRUCTURE
       1 MOL1            1 RESIDUE      1      MOL     
@<SCITEGIC>MOL_PROPERTY
VConf Rank
SciTegic.value.IntegerValue
194

@<SCITEGIC>MOL_PROPERTY
Conf_Id
SciTegic.value.IntegerValue
33

@<SCITEGIC>MOL_PROPERTY
Delta U+W
SciTegic.value.DoubleValue
-0.526

@<SCITEGIC>MOL_PROPERTY
U+W
SciTegic.value.DoubleValue
-55.418

@<SCITEGIC>MOL_PROPERTY
Grad RMS
SciTegic.value.DoubleValue
0.000000

@<SCITEGIC>MOL_PROPERTY
U
SciTegic.value.DoubleValue
6.914

@<SCITEGIC>MOL_PROPERTY
W
SciTegic.value.DoubleValue
-62.332

@<SCITEGIC>MOL_PROPERTY
W(PB)
SciTegic.value.DoubleValue
-64.421

@<SCITEGIC>MOL_PROPERTY
W(SA)
SciTegic.value.DoubleValue
2.090

@<SCITEGIC>MOL_PROPERTY
Valence
SciTegic.value.DoubleValue
7.196

@<SCITEGIC>MOL_PROPERTY
Coulomb
SciTegic.value.DoubleValue
-1.020

@<SCITEGIC>MOL_PROPERTY
VdW
SciTegic.value.DoubleValue
0.738

@<SCITEGIC>MOL_PROPERTY
VdW6
SciTegic.value.DoubleValue
-6.010

@<SCITEGIC>MOL_PROPERTY
VdW12
SciTegic.value.DoubleValue
6.748

@<SCITEGIC>MOL_PROPERTY
Bond
SciTegic.value.DoubleValue
0.126

@<SCITEGIC>MOL_PROPERTY
Angle
SciTegic.value.DoubleValue
2.499

@<SCITEGIC>MOL_PROPERTY
Pdih
SciTegic.value.DoubleValue
4.570

@<SCITEGIC>MOL_PROPERTY
Idih
SciTegic.value.DoubleValue
0.001

@<SCITEGIC>MOL_PROPERTY
Tether
SciTegic.value.DoubleValue
0.000

@<TRIPOS>MOLECULE
guest-7_confgen4.mol2 : confsearch ligand conformer 195
          19          18           1
SMALL
USER_CHARGES
 
@<TRIPOS>ATOM
       1    C1      22.502590   17.239351   22.829376 C.2        1 MOL1         0.6115
       2    O1      22.751651   16.527134   21.877045 O.co2      1 MOL1        -0.6776
       3    O2      23.355092   17.747058   23.530602 O.co2      1 MOL1        -0.6776
       4    C2      21.040253   17.526014   23.151703 C.3        1 MOL1        -0.2013
       5    H1      20.947835   17.644249   24.238054 H          1 MOL1         0.0727
       6    H2      20.450005   16.645690   22.869988 H          1 MOL1         0.0727
       7    C3      20.499719   18.784428   22.428752 C.3        1 MOL1        -0.1910
       8    H3      21.106488   19.655047   22.713521 H          1 MOL1         0.0729
       9    H4      20.619617   18.650912   21.345508 H          1 MOL1         0.0729
      10    C4      19.015227   19.048892   22.770811 C.3        1 MOL1        -0.1909
      11    H5      18.904886   19.108069   23.862286 H          1 MOL1         0.0729
      12    H6      18.402008   18.198897   22.441452 H          1 MOL1         0.0729
      13    C5      18.465429   20.354045   22.150420 C.3        1 MOL1        -0.1884
      14    H7      17.450939   20.527218   22.535211 H          1 MOL1         0.0729
      15    H8      19.072951   21.207426   22.482060 H          1 MOL1         0.0729
      16    C6      18.412838   20.322250   20.607671 C.3        1 MOL1        -0.2899
      17    H9      17.834427   19.459672   20.251924 H          1 MOL1         0.0741
      18    H10     17.935236   21.231932   20.221255 H          1 MOL1         0.0741
      19    H11     19.418799   20.265530   20.173425 H          1 MOL1         0.0741
@<TRIPOS>BOND
    1     1     2    1
    2     1     3    2
    3     1     4    1
    4     4     5    1
    5     4     6    1
    6     4     7    1
    7     7     8    1
    8     7     9    1
    9     7    10    1
   10    10    11    1
   11    10    12    1
   12    10    13    1
   13    13    14    1
   14    13    15    1
   15    13    16    1
   16    16    17    1
   17    16    18    1
   18    16    19    1
@<TRIPOS>SUBSTRUCTURE
       1 MOL1            1 RESIDUE      1      MOL     
@<SCITEGIC>MOL_PROPERTY
VConf Rank
SciTegic.value.IntegerValue
195

@<SCITEGIC>MOL_PROPERTY
Conf_Id
SciTegic.value.IntegerValue
42

@<SCITEGIC>MOL_PROPERTY
Delta U+W
SciTegic.value.DoubleValue
-0.344

@<SCITEGIC>MOL_PROPERTY
U+W
SciTegic.value.DoubleValue
-55.236

@<SCITEGIC>MOL_PROPERTY
Grad RMS
SciTegic.value.DoubleValue
0.000000

@<SCITEGIC>MOL_PROPERTY
U
SciTegic.value.DoubleValue
7.244

@<SCITEGIC>MOL_PROPERTY
W
SciTegic.value.DoubleValue
-62.479

@<SCITEGIC>MOL_PROPERTY
W(PB)
SciTegic.value.DoubleValue
-64.610

@<SCITEGIC>MOL_PROPERTY
W(SA)
SciTegic.value.DoubleValue
2.130

@<SCITEGIC>MOL_PROPERTY
Valence
SciTegic.value.DoubleValue
7.174

@<SCITEGIC>MOL_PROPERTY
Coulomb
SciTegic.value.DoubleValue
-0.669

@<SCITEGIC>MOL_PROPERTY
VdW
SciTegic.value.DoubleValue
0.739

@<SCITEGIC>MOL_PROPERTY
VdW6
SciTegic.value.DoubleValue
-5.969

@<SCITEGIC>MOL_PROPERTY
VdW12
SciTegic.value.DoubleValue
6.708

@<SCITEGIC>MOL_PROPERTY
Bond
SciTegic.value.DoubleValue
0.116

@<SCITEGIC>MOL_PROPERTY
Angle
SciTegic.value.DoubleValue
2.481

@<SCITEGIC>MOL_PROPERTY
Pdih
SciTegic.value.DoubleValue
4.576

@<SCITEGIC>MOL_PROPERTY
Idih
SciTegic.value.DoubleValue
0.000

@<SCITEGIC>MOL_PROPERTY
Tether
SciTegic.value.DoubleValue
0.000

@<TRIPOS>MOLECULE
guest-7_confgen4.mol2 : confsearch ligand conformer 196
          19          18           1
SMALL
USER_CHARGES
 
@<TRIPOS>ATOM
       1    C1      21.393675   21.811552   22.080647 C.2        1 MOL1         0.6115
       2    O1      20.810457   22.576762   22.822625 O.co2      1 MOL1        -0.6776
       3    O2      21.874416   22.143250   21.015232 O.co2      1 MOL1        -0.6776
       4    C2      21.513028   20.350911   22.501105 C.3        1 MOL1        -0.2013
       5    H1      21.574984   20.314996   23.595454 H          1 MOL1         0.0727
       6    H2      22.460050   19.960186   22.109745 H          1 MOL1         0.0727
       7    C3      20.330364   19.482841   22.004914 C.3        1 MOL1        -0.1910
       8    H3      19.393401   19.903440   22.393266 H          1 MOL1         0.0729
       9    H4      20.275824   19.536554   20.908840 H          1 MOL1         0.0729
      10    C4      20.475515   18.008734   22.448310 C.3        1 MOL1        -0.1909
      11    H5      20.480601   17.950610   23.545398 H          1 MOL1         0.0729
      12    H6      21.449745   17.628433   22.111800 H          1 MOL1         0.0729
      13    C5      19.368309   17.087008   21.886965 C.3        1 MOL1        -0.1884
      14    H7      19.363759   17.138149   20.789382 H          1 MOL1         0.0729
      15    H8      19.609153   16.047285   22.148143 H          1 MOL1         0.0729
      16    C6      17.961747   17.422132   22.428378 C.3        1 MOL1        -0.2899
      17    H9      17.629299   18.412933   22.094407 H          1 MOL1         0.0741
      18    H10     17.228149   16.687907   22.071044 H          1 MOL1         0.0741
      19    H11     17.949042   17.405871   23.525981 H          1 MOL1         0.0741
@<TRIPOS>BOND
    1     1     2    1
    2     1     3    2
    3     1     4    1
    4     4     5    1
    5     4     6    1
    6     4     7    1
    7     7     8    1
    8     7     9    1
    9     7    10    1
   10    10    11    1
   11    10    12    1
   12    10    13    1
   13    13    14    1
   14    13    15    1
   15    13    16    1
   16    16    17    1
   17    16    18    1
   18    16    19    1
@<TRIPOS>SUBSTRUCTURE
       1 MOL1            1 RESIDUE      1      MOL     
@<SCITEGIC>MOL_PROPERTY
VConf Rank
SciTegic.value.IntegerValue
196

@<SCITEGIC>MOL_PROPERTY
Conf_Id
SciTegic.value.IntegerValue
41

@<SCITEGIC>MOL_PROPERTY
Delta U+W
SciTegic.value.DoubleValue
-0.361

@<SCITEGIC>MOL_PROPERTY
U+W
SciTegic.value.DoubleValue
-55.252

@<SCITEGIC>MOL_PROPERTY
Grad RMS
SciTegic.value.DoubleValue
0.000000

@<SCITEGIC>MOL_PROPERTY
U
SciTegic.value.DoubleValue
7.244

@<SCITEGIC>MOL_PROPERTY
W
SciTegic.value.DoubleValue
-62.496

@<SCITEGIC>MOL_PROPERTY
W(PB)
SciTegic.value.DoubleValue
-64.596

@<SCITEGIC>MOL_PROPERTY
W(SA)
SciTegic.value.DoubleValue
2.099

@<SCITEGIC>MOL_PROPERTY
Valence
SciTegic.value.DoubleValue
7.174

@<SCITEGIC>MOL_PROPERTY
Coulomb
SciTegic.value.DoubleValue
-0.669

@<SCITEGIC>MOL_PROPERTY
VdW
SciTegic.value.DoubleValue
0.739

@<SCITEGIC>MOL_PROPERTY
VdW6
SciTegic.value.DoubleValue
-5.969

@<SCITEGIC>MOL_PROPERTY
VdW12
SciTegic.value.DoubleValue
6.708

@<SCITEGIC>MOL_PROPERTY
Bond
SciTegic.value.DoubleValue
0.116

@<SCITEGIC>MOL_PROPERTY
Angle
SciTegic.value.DoubleValue
2.481

@<SCITEGIC>MOL_PROPERTY
Pdih
SciTegic.value.DoubleValue
4.576

@<SCITEGIC>MOL_PROPERTY
Idih
SciTegic.value.DoubleValue
0.000

@<SCITEGIC>MOL_PROPERTY
Tether
SciTegic.value.DoubleValue
0.000

@<TRIPOS>MOLECULE
guest-7_confgen4.mol2 : confsearch ligand conformer 197
          19          18           1
SMALL
USER_CHARGES
 
@<TRIPOS>ATOM
       1    C1      18.338099   19.770267   20.026484 C.2        1 MOL1         0.6115
       2    O1      18.242717   18.697142   19.464473 O.co2      1 MOL1        -0.6776
       3    O2      17.390644   20.496887   20.252389 O.co2      1 MOL1        -0.6776
       4    C2      19.725082   20.243265   20.452976 C.3        1 MOL1        -0.2013
       5    H1      19.825329   21.289342   20.140270 H          1 MOL1         0.0727
       6    H2      20.477049   19.671899   19.895236 H          1 MOL1         0.0727
       7    C3      19.989583   20.131044   21.976963 C.3        1 MOL1        -0.1910
       8    H3      20.946495   20.617759   22.209262 H          1 MOL1         0.0729
       9    H4      19.212574   20.684116   22.522855 H          1 MOL1         0.0729
      10    C4      20.031191   18.666186   22.466625 C.3        1 MOL1        -0.1909
      11    H5      20.800303   18.114366   21.908958 H          1 MOL1         0.0729
      12    H6      19.070744   18.176935   22.253090 H          1 MOL1         0.0729
      13    C5      20.326675   18.577427   23.978384 C.3        1 MOL1        -0.1884
      14    H7      21.288452   19.061618   24.197413 H          1 MOL1         0.0729
      15    H8      19.557402   19.126616   24.538816 H          1 MOL1         0.0729
      16    C6      20.367625   17.114679   24.463836 C.3        1 MOL1        -0.2899
      17    H9      21.150444   16.549307   23.941385 H          1 MOL1         0.0741
      18    H10     20.578245   17.070020   25.540280 H          1 MOL1         0.0741
      19    H11     19.406568   16.614733   24.285322 H          1 MOL1         0.0741
@<TRIPOS>BOND
    1     1     2    1
    2     1     3    2
    3     1     4    1
    4     4     5    1
    5     4     6    1
    6     4     7    1
    7     7     8    1
    8     7     9    1
    9     7    10    1
   10    10    11    1
   11    10    12    1
   12    10    13    1
   13    13    14    1
   14    13    15    1
   15    13    16    1
   16    16    17    1
   17    16    18    1
   18    16    19    1
@<TRIPOS>SUBSTRUCTURE
       1 MOL1            1 RESIDUE      1      MOL     
@<SCITEGIC>MOL_PROPERTY
VConf Rank
SciTegic.value.IntegerValue
197

@<SCITEGIC>MOL_PROPERTY
Conf_Id
SciTegic.value.IntegerValue
36

@<SCITEGIC>MOL_PROPERTY
Delta U+W
SciTegic.value.DoubleValue
-0.079

@<SCITEGIC>MOL_PROPERTY
U+W
SciTegic.value.DoubleValue
-54.971

@<SCITEGIC>MOL_PROPERTY
Grad RMS
SciTegic.value.DoubleValue
0.000000

@<SCITEGIC>MOL_PROPERTY
U
SciTegic.value.DoubleValue
8.266

@<SCITEGIC>MOL_PROPERTY
W
SciTegic.value.DoubleValue
-63.237

@<SCITEGIC>MOL_PROPERTY
W(PB)
SciTegic.value.DoubleValue
-65.340

@<SCITEGIC>MOL_PROPERTY
W(SA)
SciTegic.value.DoubleValue
2.103

@<SCITEGIC>MOL_PROPERTY
Valence
SciTegic.value.DoubleValue
6.935

@<SCITEGIC>MOL_PROPERTY
Coulomb
SciTegic.value.DoubleValue
0.874

@<SCITEGIC>MOL_PROPERTY
VdW
SciTegic.value.DoubleValue
0.457

@<SCITEGIC>MOL_PROPERTY
VdW6
SciTegic.value.DoubleValue
-6.205

@<SCITEGIC>MOL_PROPERTY
VdW12
SciTegic.value.DoubleValue
6.662

@<SCITEGIC>MOL_PROPERTY
Bond
SciTegic.value.DoubleValue
0.107

@<SCITEGIC>MOL_PROPERTY
Angle
SciTegic.value.DoubleValue
2.420

@<SCITEGIC>MOL_PROPERTY
Pdih
SciTegic.value.DoubleValue
4.407

@<SCITEGIC>MOL_PROPERTY
Idih
SciTegic.value.DoubleValue
0.001

@<SCITEGIC>MOL_PROPERTY
Tether
SciTegic.value.DoubleValue
0.000

@<TRIPOS>MOLECULE
guest-7_confgen4.mol2 : confsearch ligand conformer 198
          19          18           1
SMALL
USER_CHARGES
 
@<TRIPOS>ATOM
       1    C1      18.739497   17.633096   20.222381 C.2        1 MOL1         0.6115
       2    O1      18.131181   18.575468   19.755007 O.co2      1 MOL1        -0.6776
       3    O2      18.214173   16.583012   20.535494 O.co2      1 MOL1        -0.6776
       4    C2      20.248700   17.765548   20.407073 C.3        1 MOL1        -0.2013
       5    H1      20.606385   18.595155   19.785140 H          1 MOL1         0.0727
       6    H2      20.708781   16.851948   20.012397 H          1 MOL1         0.0727
       7    C3      20.688948   17.972180   21.879682 C.3        1 MOL1        -0.1910
       8    H3      20.299439   17.149084   22.494847 H          1 MOL1         0.0729
       9    H4      21.784602   17.917279   21.935026 H          1 MOL1         0.0729
      10    C4      20.217040   19.325573   22.456693 C.3        1 MOL1        -0.1909
      11    H5      19.120222   19.381295   22.420543 H          1 MOL1         0.0729
      12    H6      20.598023   20.144329   21.830977 H          1 MOL1         0.0729
      13    C5      20.692624   19.523466   23.911087 C.3        1 MOL1        -0.1884
      14    H7      20.310918   18.707018   24.539727 H          1 MOL1         0.0729
      15    H8      21.789500   19.472941   23.952808 H          1 MOL1         0.0729
      16    C6      20.220204   20.874648   24.483893 C.3        1 MOL1        -0.2899
      17    H9      19.124210   20.939744   24.483096 H          1 MOL1         0.0741
      18    H10     20.566468   20.998721   25.518201 H          1 MOL1         0.0741
      19    H11     20.613770   21.711312   23.891858 H          1 MOL1         0.0741
@<TRIPOS>BOND
    1     1     2    1
    2     1     3    2
    3     1     4    1
    4     4     5    1
    5     4     6    1
    6     4     7    1
    7     7     8    1
    8     7     9    1
    9     7    10    1
   10    10    11    1
   11    10    12    1
   12    10    13    1
   13    13    14    1
   14    13    15    1
   15    13    16    1
   16    16    17    1
   17    16    18    1
   18    16    19    1
@<TRIPOS>SUBSTRUCTURE
       1 MOL1            1 RESIDUE      1      MOL     
@<SCITEGIC>MOL_PROPERTY
VConf Rank
SciTegic.value.IntegerValue
198

@<SCITEGIC>MOL_PROPERTY
Conf_Id
SciTegic.value.IntegerValue
35

@<SCITEGIC>MOL_PROPERTY
Delta U+W
SciTegic.value.DoubleValue
-0.030

@<SCITEGIC>MOL_PROPERTY
U+W
SciTegic.value.DoubleValue
-54.921

@<SCITEGIC>MOL_PROPERTY
Grad RMS
SciTegic.value.DoubleValue
0.000000

@<SCITEGIC>MOL_PROPERTY
U
SciTegic.value.DoubleValue
8.267

@<SCITEGIC>MOL_PROPERTY
W
SciTegic.value.DoubleValue
-63.188

@<SCITEGIC>MOL_PROPERTY
W(PB)
SciTegic.value.DoubleValue
-65.294

@<SCITEGIC>MOL_PROPERTY
W(SA)
SciTegic.value.DoubleValue
2.106

@<SCITEGIC>MOL_PROPERTY
Valence
SciTegic.value.DoubleValue
6.935

@<SCITEGIC>MOL_PROPERTY
Coulomb
SciTegic.value.DoubleValue
0.875

@<SCITEGIC>MOL_PROPERTY
VdW
SciTegic.value.DoubleValue
0.457

@<SCITEGIC>MOL_PROPERTY
VdW6
SciTegic.value.DoubleValue
-6.205

@<SCITEGIC>MOL_PROPERTY
VdW12
SciTegic.value.DoubleValue
6.662

@<SCITEGIC>MOL_PROPERTY
Bond
SciTegic.value.DoubleValue
0.107

@<SCITEGIC>MOL_PROPERTY
Angle
SciTegic.value.DoubleValue
2.420

@<SCITEGIC>MOL_PROPERTY
Pdih
SciTegic.value.DoubleValue
4.407

@<SCITEGIC>MOL_PROPERTY
Idih
SciTegic.value.DoubleValue
0.001

@<SCITEGIC>MOL_PROPERTY
Tether
SciTegic.value.DoubleValue
0.000

@<TRIPOS>MOLECULE
guest-7_confgen4.mol2 : confsearch ligand conformer 199
          19          18           1
SMALL
USER_CHARGES
 
@<TRIPOS>ATOM
       1    C1      21.672004   21.323696   22.020466 C.2        1 MOL1         0.6115
       2    O1      22.195422   21.681530   23.057143 O.co2      1 MOL1        -0.6776
       3    O2      21.053491   22.070220   21.287808 O.co2      1 MOL1        -0.6776
       4    C2      21.819143   19.861797   21.607330 C.3        1 MOL1        -0.2013
       5    H1      22.871526   19.587094   21.745612 H          1 MOL1         0.0727
       6    H2      21.607611   19.777443   20.534438 H          1 MOL1         0.0727
       7    C3      20.920137   18.883990   22.408206 C.3        1 MOL1        -0.1910
       8    H3      21.207060   17.856644   22.150166 H          1 MOL1         0.0729
       9    H4      21.114706   19.007797   23.482517 H          1 MOL1         0.0729
      10    C4      19.413823   19.091181   22.120500 C.3        1 MOL1        -0.1909
      11    H5      19.215066   18.929193   21.052290 H          1 MOL1         0.0729
      12    H6      19.146658   20.136035   22.330094 H          1 MOL1         0.0729
      13    C5      18.495987   18.175178   22.962726 C.3        1 MOL1        -0.1884
      14    H7      18.691066   18.336542   24.031939 H          1 MOL1         0.0729
      15    H8      17.451452   18.469130   22.790212 H          1 MOL1         0.0729
      16    C6      18.651685   16.676331   22.626225 C.3        1 MOL1        -0.2899
      17    H9      19.649467   16.306761   22.893566 H          1 MOL1         0.0741
      18    H10     17.917006   16.080071   23.182694 H          1 MOL1         0.0741
      19    H11     18.492115   16.495421   21.555265 H          1 MOL1         0.0741
@<TRIPOS>BOND
    1     1     2    1
    2     1     3    2
    3     1     4    1
    4     4     5    1
    5     4     6    1
    6     4     7    1
    7     7     8    1
    8     7     9    1
    9     7    10    1
   10    10    11    1
   11    10    12    1
   12    10    13    1
   13    13    14    1
   14    13    15    1
   15    13    16    1
   16    16    17    1
   17    16    18    1
   18    16    19    1
@<TRIPOS>SUBSTRUCTURE
       1 MOL1            1 RESIDUE      1      MOL     
@<SCITEGIC>MOL_PROPERTY
VConf Rank
SciTegic.value.IntegerValue
199

@<SCITEGIC>MOL_PROPERTY
Conf_Id
SciTegic.value.IntegerValue
74

@<SCITEGIC>MOL_PROPERTY
Delta U+W
SciTegic.value.DoubleValue
0.797

@<SCITEGIC>MOL_PROPERTY
U+W
SciTegic.value.DoubleValue
-54.095

@<SCITEGIC>MOL_PROPERTY
Grad RMS
SciTegic.value.DoubleValue
0.000000

@<SCITEGIC>MOL_PROPERTY
U
SciTegic.value.DoubleValue
8.869

@<SCITEGIC>MOL_PROPERTY
W
SciTegic.value.DoubleValue
-62.964

@<SCITEGIC>MOL_PROPERTY
W(PB)
SciTegic.value.DoubleValue
-65.046

@<SCITEGIC>MOL_PROPERTY
W(SA)
SciTegic.value.DoubleValue
2.082

@<SCITEGIC>MOL_PROPERTY
Valence
SciTegic.value.DoubleValue
7.469

@<SCITEGIC>MOL_PROPERTY
Coulomb
SciTegic.value.DoubleValue
0.762

@<SCITEGIC>MOL_PROPERTY
VdW
SciTegic.value.DoubleValue
0.639

@<SCITEGIC>MOL_PROPERTY
VdW6
SciTegic.value.DoubleValue
-6.782

@<SCITEGIC>MOL_PROPERTY
VdW12
SciTegic.value.DoubleValue
7.421

@<SCITEGIC>MOL_PROPERTY
Bond
SciTegic.value.DoubleValue
0.141

@<SCITEGIC>MOL_PROPERTY
Angle
SciTegic.value.DoubleValue
2.667

@<SCITEGIC>MOL_PROPERTY
Pdih
SciTegic.value.DoubleValue
4.660

@<SCITEGIC>MOL_PROPERTY
Idih
SciTegic.value.DoubleValue
0.001

@<SCITEGIC>MOL_PROPERTY
Tether
SciTegic.value.DoubleValue
0.000

@<TRIPOS>MOLECULE
guest-7_confgen4.mol2 : confsearch ligand conformer 200
          19          18           1
SMALL
USER_CHARGES
 
@<TRIPOS>ATOM
       1    C1      19.267263   17.225696   24.576878 C.2        1 MOL1         0.6115
       2    O1      18.234767   17.187373   25.216335 O.co2      1 MOL1        -0.6776
       3    O2      20.051884   16.300283   24.511287 O.co2      1 MOL1        -0.6776
       4    C2      19.585858   18.497843   23.799473 C.3        1 MOL1        -0.2013
       5    H1      20.675411   18.615238   23.783618 H          1 MOL1         0.0727
       6    H2      19.174016   19.349041   24.354634 H          1 MOL1         0.0727
       7    C3      19.020582   18.476932   22.355653 C.3        1 MOL1        -0.1910
       8    H3      19.468538   17.643858   21.797889 H          1 MOL1         0.0729
       9    H4      17.943162   18.266662   22.402043 H          1 MOL1         0.0729
      10    C4      19.230569   19.806948   21.589042 C.3        1 MOL1        -0.1909
      11    H5      18.688270   20.607497   22.110413 H          1 MOL1         0.0729
      12    H6      18.763973   19.720200   20.598313 H          1 MOL1         0.0729
      13    C5      20.706617   20.239784   21.410622 C.3        1 MOL1        -0.1884
      14    H7      20.727480   21.196208   20.870346 H          1 MOL1         0.0729
      15    H8      21.165757   20.434349   22.388857 H          1 MOL1         0.0729
      16    C6      21.555492   19.211636   20.632343 C.3        1 MOL1        -0.2899
      17    H9      21.102203   18.984407   19.658728 H          1 MOL1         0.0741
      18    H10     22.564779   19.603965   20.452811 H          1 MOL1         0.0741
      19    H11     21.658165   18.273646   21.192612 H          1 MOL1         0.0741
@<TRIPOS>BOND
    1     1     2    1
    2     1     3    2
    3     1     4    1
    4     4     5    1
    5     4     6    1
    6     4     7    1
    7     7     8    1
    8     7     9    1
    9     7    10    1
   10    10    11    1
   11    10    12    1
   12    10    13    1
   13    13    14    1
   14    13    15    1
   15    13    16    1
   16    16    17    1
   17    16    18    1
   18    16    19    1
@<TRIPOS>SUBSTRUCTURE
       1 MOL1            1 RESIDUE      1      MOL     
@<SCITEGIC>MOL_PROPERTY
VConf Rank
SciTegic.value.IntegerValue
200

@<SCITEGIC>MOL_PROPERTY
Conf_Id
SciTegic.value.IntegerValue
67

@<SCITEGIC>MOL_PROPERTY
Delta U+W
SciTegic.value.DoubleValue
0.308

@<SCITEGIC>MOL_PROPERTY
U+W
SciTegic.value.DoubleValue
-54.583

@<SCITEGIC>MOL_PROPERTY
Grad RMS
SciTegic.value.DoubleValue
0.000000

@<SCITEGIC>MOL_PROPERTY
U
SciTegic.value.DoubleValue
8.219

@<SCITEGIC>MOL_PROPERTY
W
SciTegic.value.DoubleValue
-62.802

@<SCITEGIC>MOL_PROPERTY
W(PB)
SciTegic.value.DoubleValue
-64.859

@<SCITEGIC>MOL_PROPERTY
W(SA)
SciTegic.value.DoubleValue
2.057

@<SCITEGIC>MOL_PROPERTY
Valence
SciTegic.value.DoubleValue
7.609

@<SCITEGIC>MOL_PROPERTY
Coulomb
SciTegic.value.DoubleValue
-0.089

@<SCITEGIC>MOL_PROPERTY
VdW
SciTegic.value.DoubleValue
0.699

@<SCITEGIC>MOL_PROPERTY
VdW6
SciTegic.value.DoubleValue
-6.924

@<SCITEGIC>MOL_PROPERTY
VdW12
SciTegic.value.DoubleValue
7.623

@<SCITEGIC>MOL_PROPERTY
Bond
SciTegic.value.DoubleValue
0.163

@<SCITEGIC>MOL_PROPERTY
Angle
SciTegic.value.DoubleValue
2.870

@<SCITEGIC>MOL_PROPERTY
Pdih
SciTegic.value.DoubleValue
4.576

@<SCITEGIC>MOL_PROPERTY
Idih
SciTegic.value.DoubleValue
0.001

@<SCITEGIC>MOL_PROPERTY
Tether
SciTegic.value.DoubleValue
0.000

@<TRIPOS>MOLECULE
guest-7_confgen4.mol2 : confsearch ligand conformer 201
          19          18           1
SMALL
USER_CHARGES
 
@<TRIPOS>ATOM
       1    C1      20.810007   17.205391   24.521991 C.2        1 MOL1         0.6115
       2    O1      21.752144   16.441437   24.593927 O.co2      1 MOL1        -0.6776
       3    O2      19.812712   17.109116   25.209346 O.co2      1 MOL1        -0.6776
       4    C2      20.875115   18.334543   23.499741 C.3        1 MOL1        -0.2013
       5    H1      21.923281   18.638574   23.393587 H          1 MOL1         0.0727
       6    H2      20.327608   19.189837   23.911891 H          1 MOL1         0.0727
       7    C3      20.293060   17.930384   22.120446 C.3        1 MOL1        -0.1910
       8    H3      20.800163   17.017961   21.777621 H          1 MOL1         0.0729
       9    H4      19.233507   17.664737   22.232512 H          1 MOL1         0.0729
      10    C4      20.457587   19.023284   21.034526 C.3        1 MOL1        -0.1909
      11    H5      20.061015   18.639083   20.084842 H          1 MOL1         0.0729
      12    H6      21.528822   19.199422   20.866526 H          1 MOL1         0.0729
      13    C5      19.774174   20.376277   21.351160 C.3        1 MOL1        -0.1884
      14    H7      20.228104   20.831372   22.241355 H          1 MOL1         0.0729
      15    H8      19.971288   21.069824   20.522173 H          1 MOL1         0.0729
      16    C6      18.247395   20.258925   21.547562 C.3        1 MOL1        -0.2899
      17    H9      18.004431   19.665832   22.438336 H          1 MOL1         0.0741
      18    H10     17.799223   21.252487   21.677139 H          1 MOL1         0.0741
      19    H11     17.774628   19.784863   20.677627 H          1 MOL1         0.0741
@<TRIPOS>BOND
    1     1     2    1
    2     1     3    2
    3     1     4    1
    4     4     5    1
    5     4     6    1
    6     4     7    1
    7     7     8    1
    8     7     9    1
    9     7    10    1
   10    10    11    1
   11    10    12    1
   12    10    13    1
   13    13    14    1
   14    13    15    1
   15    13    16    1
   16    16    17    1
   17    16    18    1
   18    16    19    1
@<TRIPOS>SUBSTRUCTURE
       1 MOL1            1 RESIDUE      1      MOL     
@<SCITEGIC>MOL_PROPERTY
VConf Rank
SciTegic.value.IntegerValue
201

@<SCITEGIC>MOL_PROPERTY
Conf_Id
SciTegic.value.IntegerValue
21

@<SCITEGIC>MOL_PROPERTY
Delta U+W
SciTegic.value.DoubleValue
0.319

@<SCITEGIC>MOL_PROPERTY
U+W
SciTegic.value.DoubleValue
-54.572

@<SCITEGIC>MOL_PROPERTY
Grad RMS
SciTegic.value.DoubleValue
0.000000

@<SCITEGIC>MOL_PROPERTY
U
SciTegic.value.DoubleValue
8.220

@<SCITEGIC>MOL_PROPERTY
W
SciTegic.value.DoubleValue
-62.792

@<SCITEGIC>MOL_PROPERTY
W(PB)
SciTegic.value.DoubleValue
-64.830

@<SCITEGIC>MOL_PROPERTY
W(SA)
SciTegic.value.DoubleValue
2.038

@<SCITEGIC>MOL_PROPERTY
Valence
SciTegic.value.DoubleValue
7.609

@<SCITEGIC>MOL_PROPERTY
Coulomb
SciTegic.value.DoubleValue
-0.088

@<SCITEGIC>MOL_PROPERTY
VdW
SciTegic.value.DoubleValue
0.699

@<SCITEGIC>MOL_PROPERTY
VdW6
SciTegic.value.DoubleValue
-6.924

@<SCITEGIC>MOL_PROPERTY
VdW12
SciTegic.value.DoubleValue
7.623

@<SCITEGIC>MOL_PROPERTY
Bond
SciTegic.value.DoubleValue
0.163

@<SCITEGIC>MOL_PROPERTY
Angle
SciTegic.value.DoubleValue
2.870

@<SCITEGIC>MOL_PROPERTY
Pdih
SciTegic.value.DoubleValue
4.576

@<SCITEGIC>MOL_PROPERTY
Idih
SciTegic.value.DoubleValue
0.000

@<SCITEGIC>MOL_PROPERTY
Tether
SciTegic.value.DoubleValue
0.000

@<TRIPOS>MOLECULE
guest-7_confgen4.mol2 : confsearch ligand conformer 202
          19          18           1
SMALL
USER_CHARGES
 
@<TRIPOS>ATOM
       1    C1      19.748040   21.800929   22.183754 C.2        1 MOL1         0.6115
       2    O1      20.369749   22.671444   22.760053 O.co2      1 MOL1        -0.6776
       3    O2      19.153709   21.978769   21.139055 O.co2      1 MOL1        -0.6776
       4    C2      19.728307   20.404904   22.795968 C.3        1 MOL1        -0.2013
       5    H1      18.767647   19.943010   22.547757 H          1 MOL1         0.0727
       6    H2      19.757737   20.513543   23.886710 H          1 MOL1         0.0727
       7    C3      20.911799   19.522564   22.318038 C.3        1 MOL1        -0.1910
       8    H3      20.918465   19.460308   21.221060 H          1 MOL1         0.0729
       9    H4      21.845508   20.027924   22.601222 H          1 MOL1         0.0729
      10    C4      20.910510   18.101298   22.936058 C.3        1 MOL1        -0.1909
      11    H5      20.446379   18.119234   23.931628 H          1 MOL1         0.0729
      12    H6      21.954110   17.798909   23.098637 H          1 MOL1         0.0729
      13    C5      20.243113   17.014875   22.057323 C.3        1 MOL1        -0.1884
      14    H7      20.771202   16.942763   21.096501 H          1 MOL1         0.0729
      15    H8      20.369649   16.041517   22.551041 H          1 MOL1         0.0729
      16    C6      18.739915   17.245404   21.798581 C.3        1 MOL1        -0.2899
      17    H9      18.301974   16.379555   21.285427 H          1 MOL1         0.0741
      18    H10     18.195456   17.392176   22.740387 H          1 MOL1         0.0741
      19    H11     18.578604   18.123153   21.160355 H          1 MOL1         0.0741
@<TRIPOS>BOND
    1     1     2    1
    2     1     3    2
    3     1     4    1
    4     4     5    1
    5     4     6    1
    6     4     7    1
    7     7     8    1
    8     7     9    1
    9     7    10    1
   10    10    11    1
   11    10    12    1
   12    10    13    1
   13    13    14    1
   14    13    15    1
   15    13    16    1
   16    16    17    1
   17    16    18    1
   18    16    19    1
@<TRIPOS>SUBSTRUCTURE
       1 MOL1            1 RESIDUE      1      MOL     
@<SCITEGIC>MOL_PROPERTY
VConf Rank
SciTegic.value.IntegerValue
202

@<SCITEGIC>MOL_PROPERTY
Conf_Id
SciTegic.value.IntegerValue
24

@<SCITEGIC>MOL_PROPERTY
Delta U+W
SciTegic.value.DoubleValue
2.477

@<SCITEGIC>MOL_PROPERTY
U+W
SciTegic.value.DoubleValue
-52.414

@<SCITEGIC>MOL_PROPERTY
Grad RMS
SciTegic.value.DoubleValue
0.000000

@<SCITEGIC>MOL_PROPERTY
U
SciTegic.value.DoubleValue
10.422

@<SCITEGIC>MOL_PROPERTY
W
SciTegic.value.DoubleValue
-62.836

@<SCITEGIC>MOL_PROPERTY
W(PB)
SciTegic.value.DoubleValue
-64.906

@<SCITEGIC>MOL_PROPERTY
W(SA)
SciTegic.value.DoubleValue
2.070

@<SCITEGIC>MOL_PROPERTY
Valence
SciTegic.value.DoubleValue
9.628

@<SCITEGIC>MOL_PROPERTY
Coulomb
SciTegic.value.DoubleValue
0.101

@<SCITEGIC>MOL_PROPERTY
VdW
SciTegic.value.DoubleValue
0.693

@<SCITEGIC>MOL_PROPERTY
VdW6
SciTegic.value.DoubleValue
-6.927

@<SCITEGIC>MOL_PROPERTY
VdW12
SciTegic.value.DoubleValue
7.620

@<SCITEGIC>MOL_PROPERTY
Bond
SciTegic.value.DoubleValue
0.173

@<SCITEGIC>MOL_PROPERTY
Angle
SciTegic.value.DoubleValue
2.989

@<SCITEGIC>MOL_PROPERTY
Pdih
SciTegic.value.DoubleValue
6.465

@<SCITEGIC>MOL_PROPERTY
Idih
SciTegic.value.DoubleValue
0.001

@<SCITEGIC>MOL_PROPERTY
Tether
SciTegic.value.DoubleValue
0.000

@<TRIPOS>MOLECULE
guest-7_confgen4.mol2 : confsearch ligand conformer 203
          19          18           1
SMALL
USER_CHARGES
 
@<TRIPOS>ATOM
       1    C1      21.010157   20.840849   20.895713 C.2        1 MOL1         0.6115
       2    O1      21.599869   20.058221   20.177087 O.co2      1 MOL1        -0.6776
       3    O2      20.615965   21.928145   20.522247 O.co2      1 MOL1        -0.6776
       4    C2      20.776089   20.452681   22.353372 C.3        1 MOL1        -0.2013
       5    H1      21.091295   21.303016   22.969272 H          1 MOL1         0.0727
       6    H2      21.444251   19.621731   22.600986 H          1 MOL1         0.0727
       7    C3      19.299195   20.099325   22.683311 C.3        1 MOL1        -0.1910
       8    H3      19.166740   20.033073   23.771566 H          1 MOL1         0.0729
       9    H4      18.667939   20.935885   22.352829 H          1 MOL1         0.0729
      10    C4      18.791846   18.795751   22.013408 C.3        1 MOL1        -0.1909
      11    H5      19.307717   18.627764   21.058178 H          1 MOL1         0.0729
      12    H6      17.732189   18.933831   21.758766 H          1 MOL1         0.0729
      13    C5      18.896234   17.530867   22.900583 C.3        1 MOL1        -0.1884
      14    H7      18.303714   17.671477   23.815105 H          1 MOL1         0.0729
      15    H8      18.436674   16.690046   22.363016 H          1 MOL1         0.0729
      16    C6      20.340366   17.143540   23.280079 C.3        1 MOL1        -0.2899
      17    H9      20.781453   17.881151   23.961789 H          1 MOL1         0.0741
      18    H10     20.355858   16.171611   23.789874 H          1 MOL1         0.0741
      19    H11     20.975253   17.068899   22.387424 H          1 MOL1         0.0741
@<TRIPOS>BOND
    1     1     2    1
    2     1     3    2
    3     1     4    1
    4     4     5    1
    5     4     6    1
    6     4     7    1
    7     7     8    1
    8     7     9    1
    9     7    10    1
   10    10    11    1
   11    10    12    1
   12    10    13    1
   13    13    14    1
   14    13    15    1
   15    13    16    1
   16    16    17    1
   17    16    18    1
   18    16    19    1
@<TRIPOS>SUBSTRUCTURE
       1 MOL1            1 RESIDUE      1      MOL     
@<SCITEGIC>MOL_PROPERTY
VConf Rank
SciTegic.value.IntegerValue
203

@<SCITEGIC>MOL_PROPERTY
Conf_Id
SciTegic.value.IntegerValue
4

@<SCITEGIC>MOL_PROPERTY
Delta U+W
SciTegic.value.DoubleValue
3.753

@<SCITEGIC>MOL_PROPERTY
U+W
SciTegic.value.DoubleValue
-51.138

@<SCITEGIC>MOL_PROPERTY
Grad RMS
SciTegic.value.DoubleValue
0.000000

@<SCITEGIC>MOL_PROPERTY
U
SciTegic.value.DoubleValue
12.334

@<SCITEGIC>MOL_PROPERTY
W
SciTegic.value.DoubleValue
-63.472

@<SCITEGIC>MOL_PROPERTY
W(PB)
SciTegic.value.DoubleValue
-65.500

@<SCITEGIC>MOL_PROPERTY
W(SA)
SciTegic.value.DoubleValue
2.028

@<SCITEGIC>MOL_PROPERTY
Valence
SciTegic.value.DoubleValue
9.984

@<SCITEGIC>MOL_PROPERTY
Coulomb
SciTegic.value.DoubleValue
1.767

@<SCITEGIC>MOL_PROPERTY
VdW
SciTegic.value.DoubleValue
0.583

@<SCITEGIC>MOL_PROPERTY
VdW6
SciTegic.value.DoubleValue
-7.767

@<SCITEGIC>MOL_PROPERTY
VdW12
SciTegic.value.DoubleValue
8.349

@<SCITEGIC>MOL_PROPERTY
Bond
SciTegic.value.DoubleValue
0.203

@<SCITEGIC>MOL_PROPERTY
Angle
SciTegic.value.DoubleValue
3.191

@<SCITEGIC>MOL_PROPERTY
Pdih
SciTegic.value.DoubleValue
6.589

@<SCITEGIC>MOL_PROPERTY
Idih
SciTegic.value.DoubleValue
0.001

@<SCITEGIC>MOL_PROPERTY
Tether
SciTegic.value.DoubleValue
0.000

@<TRIPOS>MOLECULE
guest-7_confgen4.mol2 : confsearch ligand conformer 204
          19          18           1
SMALL
USER_CHARGES
 
@<TRIPOS>ATOM
       1    C1      20.436375   21.446668   22.208458 C.2        1 MOL1         0.6115
       2    O1      21.492173   22.048228   22.230597 O.co2      1 MOL1        -0.6776
       3    O2      19.535791   21.700961   21.433232 O.co2      1 MOL1        -0.6776
       4    C2      20.222040   20.332131   23.229290 C.3        1 MOL1        -0.2013
       5    H1      19.150094   20.117979   23.286738 H          1 MOL1         0.0727
       6    H2      20.515620   20.729014   24.208090 H          1 MOL1         0.0727
       7    C3      21.034651   19.040806   22.934199 C.3        1 MOL1        -0.1910
       8    H3      22.090409   19.322934   22.818820 H          1 MOL1         0.0729
       9    H4      20.994952   18.369688   23.802679 H          1 MOL1         0.0729
      10    C4      20.579321   18.279129   21.662194 C.3        1 MOL1        -0.1909
      11    H5      21.468913   17.836904   21.193315 H          1 MOL1         0.0729
      12    H6      20.169060   18.978367   20.920872 H          1 MOL1         0.0729
      13    C5      19.571667   17.132408   21.922129 C.3        1 MOL1        -0.1884
      14    H7      19.383669   16.612648   20.972571 H          1 MOL1         0.0729
      15    H8      20.022837   16.389917   22.594702 H          1 MOL1         0.0729
      16    C6      18.221669   17.598506   22.505067 C.3        1 MOL1        -0.2899
      17    H9      17.782404   18.396005   21.891448 H          1 MOL1         0.0741
      18    H10     17.509182   16.764213   22.538173 H          1 MOL1         0.0741
      19    H11     18.341101   17.971708   23.529670 H          1 MOL1         0.0741
@<TRIPOS>BOND
    1     1     2    1
    2     1     3    2
    3     1     4    1
    4     4     5    1
    5     4     6    1
    6     4     7    1
    7     7     8    1
    8     7     9    1
    9     7    10    1
   10    10    11    1
   11    10    12    1
   12    10    13    1
   13    13    14    1
   14    13    15    1
   15    13    16    1
   16    16    17    1
   17    16    18    1
   18    16    19    1
@<TRIPOS>SUBSTRUCTURE
       1 MOL1            1 RESIDUE      1      MOL     
@<SCITEGIC>MOL_PROPERTY
VConf Rank
SciTegic.value.IntegerValue
204

@<SCITEGIC>MOL_PROPERTY
Conf_Id
SciTegic.value.IntegerValue
73

@<SCITEGIC>MOL_PROPERTY
Delta U+W
SciTegic.value.DoubleValue
3.707

@<SCITEGIC>MOL_PROPERTY
U+W
SciTegic.value.DoubleValue
-51.184

@<SCITEGIC>MOL_PROPERTY
Grad RMS
SciTegic.value.DoubleValue
0.000000

@<SCITEGIC>MOL_PROPERTY
U
SciTegic.value.DoubleValue
12.334

@<SCITEGIC>MOL_PROPERTY
W
SciTegic.value.DoubleValue
-63.519

@<SCITEGIC>MOL_PROPERTY
W(PB)
SciTegic.value.DoubleValue
-65.541

@<SCITEGIC>MOL_PROPERTY
W(SA)
SciTegic.value.DoubleValue
2.022

@<SCITEGIC>MOL_PROPERTY
Valence
SciTegic.value.DoubleValue
9.984

@<SCITEGIC>MOL_PROPERTY
Coulomb
SciTegic.value.DoubleValue
1.768

@<SCITEGIC>MOL_PROPERTY
VdW
SciTegic.value.DoubleValue
0.583

@<SCITEGIC>MOL_PROPERTY
VdW6
SciTegic.value.DoubleValue
-7.767

@<SCITEGIC>MOL_PROPERTY
VdW12
SciTegic.value.DoubleValue
8.350

@<SCITEGIC>MOL_PROPERTY
Bond
SciTegic.value.DoubleValue
0.203

@<SCITEGIC>MOL_PROPERTY
Angle
SciTegic.value.DoubleValue
3.192

@<SCITEGIC>MOL_PROPERTY
Pdih
SciTegic.value.DoubleValue
6.589

@<SCITEGIC>MOL_PROPERTY
Idih
SciTegic.value.DoubleValue
0.001

@<SCITEGIC>MOL_PROPERTY
Tether
SciTegic.value.DoubleValue
0.000

@<TRIPOS>MOLECULE
guest-7_confgen4.mol2 : confsearch ligand conformer 205
          19          18           1
SMALL
USER_CHARGES
 
@<TRIPOS>ATOM
       1    C1      21.257958   19.111814   20.228035 C.2        1 MOL1         0.6115
       2    O1      20.400843   18.683003   19.480915 O.co2      1 MOL1        -0.6776
       3    O2      22.084164   19.939316   19.896697 O.co2      1 MOL1        -0.6776
       4    C2      21.322891   18.559883   21.649471 C.3        1 MOL1        -0.2013
       5    H1      22.359234   18.253765   21.833740 H          1 MOL1         0.0727
       6    H2      20.716305   17.648462   21.701050 H          1 MOL1         0.0727
       7    C3      20.883595   19.570620   22.743865 C.3        1 MOL1        -0.1910
       8    H3      21.031320   19.119084   23.733389 H          1 MOL1         0.0729
       9    H4      21.552505   20.441433   22.707067 H          1 MOL1         0.0729
      10    C4      19.419863   20.064116   22.609536 C.3        1 MOL1        -0.1909
      11    H5      19.314468   20.620830   21.668237 H          1 MOL1         0.0729
      12    H6      19.216552   20.786561   23.411615 H          1 MOL1         0.0729
      13    C5      18.342769   18.952680   22.651923 C.3        1 MOL1        -0.1884
      14    H7      17.355158   19.418475   22.531271 H          1 MOL1         0.0729
      15    H8      18.464789   18.276229   21.795203 H          1 MOL1         0.0729
      16    C6      18.352149   18.140823   23.965116 C.3        1 MOL1        -0.2899
      17    H9      19.280604   17.565950   24.071902 H          1 MOL1         0.0741
      18    H10     18.253005   18.801591   24.836075 H          1 MOL1         0.0741
      19    H11     17.516458   17.429413   23.982714 H          1 MOL1         0.0741
@<TRIPOS>BOND
    1     1     2    1
    2     1     3    2
    3     1     4    1
    4     4     5    1
    5     4     6    1
    6     4     7    1
    7     7     8    1
    8     7     9    1
    9     7    10    1
   10    10    11    1
   11    10    12    1
   12    10    13    1
   13    13    14    1
   14    13    15    1
   15    13    16    1
   16    16    17    1
   17    16    18    1
   18    16    19    1
@<TRIPOS>SUBSTRUCTURE
       1 MOL1            1 RESIDUE      1      MOL     
@<SCITEGIC>MOL_PROPERTY
VConf Rank
SciTegic.value.IntegerValue
205

@<SCITEGIC>MOL_PROPERTY
Conf_Id
SciTegic.value.IntegerValue
56

@<SCITEGIC>MOL_PROPERTY
Delta U+W
SciTegic.value.DoubleValue
1.735

@<SCITEGIC>MOL_PROPERTY
U+W
SciTegic.value.DoubleValue
-53.156

@<SCITEGIC>MOL_PROPERTY
Grad RMS
SciTegic.value.DoubleValue
0.000000

@<SCITEGIC>MOL_PROPERTY
U
SciTegic.value.DoubleValue
10.214

@<SCITEGIC>MOL_PROPERTY
W
SciTegic.value.DoubleValue
-63.370

@<SCITEGIC>MOL_PROPERTY
W(PB)
SciTegic.value.DoubleValue
-65.388

@<SCITEGIC>MOL_PROPERTY
W(SA)
SciTegic.value.DoubleValue
2.018

@<SCITEGIC>MOL_PROPERTY
Valence
SciTegic.value.DoubleValue
7.868

@<SCITEGIC>MOL_PROPERTY
Coulomb
SciTegic.value.DoubleValue
1.968

@<SCITEGIC>MOL_PROPERTY
VdW
SciTegic.value.DoubleValue
0.378

@<SCITEGIC>MOL_PROPERTY
VdW6
SciTegic.value.DoubleValue
-8.067

@<SCITEGIC>MOL_PROPERTY
VdW12
SciTegic.value.DoubleValue
8.445

@<SCITEGIC>MOL_PROPERTY
Bond
SciTegic.value.DoubleValue
0.191

@<SCITEGIC>MOL_PROPERTY
Angle
SciTegic.value.DoubleValue
3.117

@<SCITEGIC>MOL_PROPERTY
Pdih
SciTegic.value.DoubleValue
4.559

@<SCITEGIC>MOL_PROPERTY
Idih
SciTegic.value.DoubleValue
0.001

@<SCITEGIC>MOL_PROPERTY
Tether
SciTegic.value.DoubleValue
0.000

@<TRIPOS>MOLECULE
guest-7_confgen4.mol2 : confsearch ligand conformer 206
          19          18           1
SMALL
USER_CHARGES
 
@<TRIPOS>ATOM
       1    C1      22.067696   20.843130   23.013034 C.2        1 MOL1         0.6115
       2    O1      21.853698   21.867352   23.630721 O.co2      1 MOL1        -0.6776
       3    O2      23.123333   20.597803   22.463653 O.co2      1 MOL1        -0.6776
       4    C2      20.942997   19.819771   22.903368 C.3        1 MOL1        -0.2013
       5    H1      20.335838   19.880684   23.814426 H          1 MOL1         0.0727
       6    H2      21.401535   18.824988   22.877694 H          1 MOL1         0.0727
       7    C3      20.054915   20.034895   21.651966 C.3        1 MOL1        -0.1910
       8    H3      19.725276   21.082890   21.630900 H          1 MOL1         0.0729
       9    H4      20.661462   19.885346   20.748124 H          1 MOL1         0.0729
      10    C4      18.801930   19.125432   21.593676 C.3        1 MOL1        -0.1909
      11    H5      18.231182   19.406845   20.698117 H          1 MOL1         0.0729
      12    H6      18.142235   19.336706   22.446417 H          1 MOL1         0.0729
      13    C5      19.106365   17.608833   21.513965 C.3        1 MOL1        -0.1884
      14    H7      18.351964   17.133171   20.872120 H          1 MOL1         0.0729
      15    H8      20.074937   17.439584   21.023526 H          1 MOL1         0.0729
      16    C6      19.072107   16.906609   22.889623 C.3        1 MOL1        -0.2899
      17    H9      19.276058   15.833880   22.777675 H          1 MOL1         0.0741
      18    H10     19.818556   17.318492   23.577943 H          1 MOL1         0.0741
      19    H11     18.084737   17.013087   23.357484 H          1 MOL1         0.0741
@<TRIPOS>BOND
    1     1     2    1
    2     1     3    2
    3     1     4    1
    4     4     5    1
    5     4     6    1
    6     4     7    1
    7     7     8    1
    8     7     9    1
    9     7    10    1
   10    10    11    1
   11    10    12    1
   12    10    13    1
   13    13    14    1
   14    13    15    1
   15    13    16    1
   16    16    17    1
   17    16    18    1
   18    16    19    1
@<TRIPOS>SUBSTRUCTURE
       1 MOL1            1 RESIDUE      1      MOL     
@<SCITEGIC>MOL_PROPERTY
VConf Rank
SciTegic.value.IntegerValue
206

@<SCITEGIC>MOL_PROPERTY
Conf_Id
SciTegic.value.IntegerValue
53

@<SCITEGIC>MOL_PROPERTY
Delta U+W
SciTegic.value.DoubleValue
2.279

@<SCITEGIC>MOL_PROPERTY
U+W
SciTegic.value.DoubleValue
-52.612

@<SCITEGIC>MOL_PROPERTY
Grad RMS
SciTegic.value.DoubleValue
0.000000

@<SCITEGIC>MOL_PROPERTY
U
SciTegic.value.DoubleValue
10.231

@<SCITEGIC>MOL_PROPERTY
W
SciTegic.value.DoubleValue
-62.843

@<SCITEGIC>MOL_PROPERTY
W(PB)
SciTegic.value.DoubleValue
-64.893

@<SCITEGIC>MOL_PROPERTY
W(SA)
SciTegic.value.DoubleValue
2.050

@<SCITEGIC>MOL_PROPERTY
Valence
SciTegic.value.DoubleValue
9.644

@<SCITEGIC>MOL_PROPERTY
Coulomb
SciTegic.value.DoubleValue
-0.164

@<SCITEGIC>MOL_PROPERTY
VdW
SciTegic.value.DoubleValue
0.751

@<SCITEGIC>MOL_PROPERTY
VdW6
SciTegic.value.DoubleValue
-6.881

@<SCITEGIC>MOL_PROPERTY
VdW12
SciTegic.value.DoubleValue
7.631

@<SCITEGIC>MOL_PROPERTY
Bond
SciTegic.value.DoubleValue
0.163

@<SCITEGIC>MOL_PROPERTY
Angle
SciTegic.value.DoubleValue
2.998

@<SCITEGIC>MOL_PROPERTY
Pdih
SciTegic.value.DoubleValue
6.482

@<SCITEGIC>MOL_PROPERTY
Idih
SciTegic.value.DoubleValue
0.001

@<SCITEGIC>MOL_PROPERTY
Tether
SciTegic.value.DoubleValue
0.000

@<TRIPOS>MOLECULE
guest-7_confgen4.mol2 : confsearch ligand conformer 207
          19          18           1
SMALL
USER_CHARGES
 
@<TRIPOS>ATOM
       1    C1      21.342276   17.703347   24.237769 C.2        1 MOL1         0.6115
       2    O1      22.484421   18.104950   24.132534 O.co2      1 MOL1        -0.6776
       3    O2      21.036494   16.528998   24.169605 O.co2      1 MOL1        -0.6776
       4    C2      20.245498   18.722375   24.541319 C.3        1 MOL1        -0.2013
       5    H1      20.696946   19.718503   24.624066 H          1 MOL1         0.0727
       6    H2      19.857349   18.470715   25.535115 H          1 MOL1         0.0727
       7    C3      19.065196   18.748829   23.529730 C.3        1 MOL1        -0.1910
       8    H3      18.752086   17.722580   23.292419 H          1 MOL1         0.0729
       9    H4      18.205315   19.219954   24.024770 H          1 MOL1         0.0729
      10    C4      19.345786   19.533841   22.224471 C.3        1 MOL1        -0.1909
      11    H5      19.651165   20.560460   22.468665 H          1 MOL1         0.0729
      12    H6      18.403329   19.616935   21.666009 H          1 MOL1         0.0729
      13    C5      20.406423   18.879960   21.311749 C.3        1 MOL1        -0.1884
      14    H7      21.389731   18.905763   21.798418 H          1 MOL1         0.0729
      15    H8      20.156141   17.822619   21.148083 H          1 MOL1         0.0729
      16    C6      20.505018   19.601472   19.952509 C.3        1 MOL1        -0.2899
      17    H9      20.779824   20.655833   20.087276 H          1 MOL1         0.0741
      18    H10     21.268332   19.130372   19.319688 H          1 MOL1         0.0741
      19    H11     19.548268   19.561853   19.415499 H          1 MOL1         0.0741
@<TRIPOS>BOND
    1     1     2    1
    2     1     3    2
    3     1     4    1
    4     4     5    1
    5     4     6    1
    6     4     7    1
    7     7     8    1
    8     7     9    1
    9     7    10    1
   10    10    11    1
   11    10    12    1
   12    10    13    1
   13    13    14    1
   14    13    15    1
   15    13    16    1
   16    16    17    1
   17    16    18    1
   18    16    19    1
@<TRIPOS>SUBSTRUCTURE
       1 MOL1            1 RESIDUE      1      MOL     
@<SCITEGIC>MOL_PROPERTY
VConf Rank
SciTegic.value.IntegerValue
207

@<SCITEGIC>MOL_PROPERTY
Conf_Id
SciTegic.value.IntegerValue
25

@<SCITEGIC>MOL_PROPERTY
Delta U+W
SciTegic.value.DoubleValue
2.065

@<SCITEGIC>MOL_PROPERTY
U+W
SciTegic.value.DoubleValue
-52.826

@<SCITEGIC>MOL_PROPERTY
Grad RMS
SciTegic.value.DoubleValue
0.000000

@<SCITEGIC>MOL_PROPERTY
U
SciTegic.value.DoubleValue
10.967

@<SCITEGIC>MOL_PROPERTY
W
SciTegic.value.DoubleValue
-63.794

@<SCITEGIC>MOL_PROPERTY
W(PB)
SciTegic.value.DoubleValue
-65.830

@<SCITEGIC>MOL_PROPERTY
W(SA)
SciTegic.value.DoubleValue
2.036

@<SCITEGIC>MOL_PROPERTY
Valence
SciTegic.value.DoubleValue
8.609

@<SCITEGIC>MOL_PROPERTY
Coulomb
SciTegic.value.DoubleValue
1.892

@<SCITEGIC>MOL_PROPERTY
VdW
SciTegic.value.DoubleValue
0.467

@<SCITEGIC>MOL_PROPERTY
VdW6
SciTegic.value.DoubleValue
-7.569

@<SCITEGIC>MOL_PROPERTY
VdW12
SciTegic.value.DoubleValue
8.036

@<SCITEGIC>MOL_PROPERTY
Bond
SciTegic.value.DoubleValue
0.170

@<SCITEGIC>MOL_PROPERTY
Angle
SciTegic.value.DoubleValue
3.195

@<SCITEGIC>MOL_PROPERTY
Pdih
SciTegic.value.DoubleValue
5.237

@<SCITEGIC>MOL_PROPERTY
Idih
SciTegic.value.DoubleValue
0.007

@<SCITEGIC>MOL_PROPERTY
Tether
SciTegic.value.DoubleValue
0.000

@<TRIPOS>MOLECULE
guest-7_confgen4.mol2 : confsearch ligand conformer 208
          19          18           1
SMALL
USER_CHARGES
 
@<TRIPOS>ATOM
       1    C1      18.456594   20.590942   22.767900 C.2        1 MOL1         0.6115
       2    O1      18.335503   21.171902   21.707207 O.co2      1 MOL1        -0.6776
       3    O2      18.790267   21.141624   23.798562 O.co2      1 MOL1        -0.6776
       4    C2      18.103908   19.105782   22.826184 C.3        1 MOL1        -0.2013
       5    H1      17.038045   19.032179   22.580947 H          1 MOL1         0.0727
       6    H2      18.213034   18.753401   23.859065 H          1 MOL1         0.0727
       7    C3      18.909172   18.193530   21.858468 C.3        1 MOL1        -0.1910
       8    H3      18.341960   17.263320   21.719197 H          1 MOL1         0.0729
       9    H4      18.970151   18.661545   20.866104 H          1 MOL1         0.0729
      10    C4      20.326102   17.811799   22.353716 C.3        1 MOL1        -0.1909
      11    H5      20.732150   17.049866   21.674310 H          1 MOL1         0.0729
      12    H6      20.257179   17.338128   23.342514 H          1 MOL1         0.0729
      13    C5      21.313182   18.998223   22.414126 C.3        1 MOL1        -0.1884
      14    H7      21.308399   19.535898   21.455858 H          1 MOL1         0.0729
      15    H8      20.996911   19.712550   23.184916 H          1 MOL1         0.0729
      16    C6      22.746329   18.525877   22.731640 C.3        1 MOL1        -0.2899
      17    H9      23.433079   19.380940   22.779453 H          1 MOL1         0.0741
      18    H10     22.783024   18.007025   23.698493 H          1 MOL1         0.0741
      19    H11     23.114556   17.838521   21.958810 H          1 MOL1         0.0741
@<TRIPOS>BOND
    1     1     2    1
    2     1     3    2
    3     1     4    1
    4     4     5    1
    5     4     6    1
    6     4     7    1
    7     7     8    1
    8     7     9    1
    9     7    10    1
   10    10    11    1
   11    10    12    1
   12    10    13    1
   13    13    14    1
   14    13    15    1
   15    13    16    1
   16    16    17    1
   17    16    18    1
   18    16    19    1
@<TRIPOS>SUBSTRUCTURE
       1 MOL1            1 RESIDUE      1      MOL     
@<SCITEGIC>MOL_PROPERTY
VConf Rank
SciTegic.value.IntegerValue
208

@<SCITEGIC>MOL_PROPERTY
Conf_Id
SciTegic.value.IntegerValue
52

@<SCITEGIC>MOL_PROPERTY
Delta U+W
SciTegic.value.DoubleValue
2.070

@<SCITEGIC>MOL_PROPERTY
U+W
SciTegic.value.DoubleValue
-52.822

@<SCITEGIC>MOL_PROPERTY
Grad RMS
SciTegic.value.DoubleValue
0.000000

@<SCITEGIC>MOL_PROPERTY
U
SciTegic.value.DoubleValue
10.967

@<SCITEGIC>MOL_PROPERTY
W
SciTegic.value.DoubleValue
-63.789

@<SCITEGIC>MOL_PROPERTY
W(PB)
SciTegic.value.DoubleValue
-65.837

@<SCITEGIC>MOL_PROPERTY
W(SA)
SciTegic.value.DoubleValue
2.048

@<SCITEGIC>MOL_PROPERTY
Valence
SciTegic.value.DoubleValue
8.609

@<SCITEGIC>MOL_PROPERTY
Coulomb
SciTegic.value.DoubleValue
1.892

@<SCITEGIC>MOL_PROPERTY
VdW
SciTegic.value.DoubleValue
0.467

@<SCITEGIC>MOL_PROPERTY
VdW6
SciTegic.value.DoubleValue
-7.569

@<SCITEGIC>MOL_PROPERTY
VdW12
SciTegic.value.DoubleValue
8.035

@<SCITEGIC>MOL_PROPERTY
Bond
SciTegic.value.DoubleValue
0.170

@<SCITEGIC>MOL_PROPERTY
Angle
SciTegic.value.DoubleValue
3.196

@<SCITEGIC>MOL_PROPERTY
Pdih
SciTegic.value.DoubleValue
5.237

@<SCITEGIC>MOL_PROPERTY
Idih
SciTegic.value.DoubleValue
0.007

@<SCITEGIC>MOL_PROPERTY
Tether
SciTegic.value.DoubleValue
0.000

@<TRIPOS>MOLECULE
guest-7_confgen4.mol2 : confsearch ligand conformer 209
          19          18           1
SMALL
USER_CHARGES
 
@<TRIPOS>ATOM
       1    C1      18.428588   17.800552   23.807532 C.2        1 MOL1         0.6115
       2    O1      18.481972   16.630097   23.483032 O.co2      1 MOL1        -0.6776
       3    O2      18.521411   18.176229   24.959465 O.co2      1 MOL1        -0.6776
       4    C2      18.103255   18.844829   22.738409 C.3        1 MOL1        -0.2013
       5    H1      18.243617   19.846298   23.162552 H          1 MOL1         0.0727
       6    H2      17.032139   18.741342   22.530382 H          1 MOL1         0.0727
       7    C3      18.889097   18.712190   21.402658 C.3        1 MOL1        -0.1910
       8    H3      18.970048   17.654019   21.118047 H          1 MOL1         0.0729
       9    H4      18.292945   19.187671   20.612167 H          1 MOL1         0.0729
      10    C4      20.292013   19.371580   21.388164 C.3        1 MOL1        -0.1909
      11    H5      20.201377   20.450670   21.573600 H          1 MOL1         0.0729
      12    H6      20.688766   19.279334   20.367848 H          1 MOL1         0.0729
      13    C5      21.320245   18.743439   22.359847 C.3        1 MOL1        -0.1884
      14    H7      21.033361   17.712432   22.609001 H          1 MOL1         0.0729
      15    H8      22.291933   18.674193   21.851737 H          1 MOL1         0.0729
      16    C6      21.510095   19.573754   23.647347 C.3        1 MOL1        -0.2899
      17    H9      21.892873   20.575726   23.413963 H          1 MOL1         0.0741
      18    H10     20.566514   19.690471   24.193024 H          1 MOL1         0.0741
      19    H11     22.228480   19.085400   24.318207 H          1 MOL1         0.0741
@<TRIPOS>BOND
    1     1     2    1
    2     1     3    2
    3     1     4    1
    4     4     5    1
    5     4     6    1
    6     4     7    1
    7     7     8    1
    8     7     9    1
    9     7    10    1
   10    10    11    1
   11    10    12    1
   12    10    13    1
   13    13    14    1
   14    13    15    1
   15    13    16    1
   16    16    17    1
   17    16    18    1
   18    16    19    1
@<TRIPOS>SUBSTRUCTURE
       1 MOL1            1 RESIDUE      1      MOL     
@<SCITEGIC>MOL_PROPERTY
VConf Rank
SciTegic.value.IntegerValue
209

@<SCITEGIC>MOL_PROPERTY
Conf_Id
SciTegic.value.IntegerValue
66

@<SCITEGIC>MOL_PROPERTY
Delta U+W
SciTegic.value.DoubleValue
5.819

@<SCITEGIC>MOL_PROPERTY
U+W
SciTegic.value.DoubleValue
-49.072

@<SCITEGIC>MOL_PROPERTY
Grad RMS
SciTegic.value.DoubleValue
0.000000

@<SCITEGIC>MOL_PROPERTY
U
SciTegic.value.DoubleValue
15.324

@<SCITEGIC>MOL_PROPERTY
W
SciTegic.value.DoubleValue
-64.396

@<SCITEGIC>MOL_PROPERTY
W(PB)
SciTegic.value.DoubleValue
-66.382

@<SCITEGIC>MOL_PROPERTY
W(SA)
SciTegic.value.DoubleValue
1.986

@<SCITEGIC>MOL_PROPERTY
Valence
SciTegic.value.DoubleValue
11.748

@<SCITEGIC>MOL_PROPERTY
Coulomb
SciTegic.value.DoubleValue
3.201

@<SCITEGIC>MOL_PROPERTY
VdW
SciTegic.value.DoubleValue
0.375

@<SCITEGIC>MOL_PROPERTY
VdW6
SciTegic.value.DoubleValue
-8.854

@<SCITEGIC>MOL_PROPERTY
VdW12
SciTegic.value.DoubleValue
9.229

@<SCITEGIC>MOL_PROPERTY
Bond
SciTegic.value.DoubleValue
0.216

@<SCITEGIC>MOL_PROPERTY
Angle
SciTegic.value.DoubleValue
3.812

@<SCITEGIC>MOL_PROPERTY
Pdih
SciTegic.value.DoubleValue
7.699

@<SCITEGIC>MOL_PROPERTY
Idih
SciTegic.value.DoubleValue
0.022

@<SCITEGIC>MOL_PROPERTY
Tether
SciTegic.value.DoubleValue
0.000

@<TRIPOS>MOLECULE
guest-7_confgen4.mol2 : confsearch ligand conformer 210
          19          18           1
SMALL
USER_CHARGES
 
@<TRIPOS>ATOM
       1    C1      21.143732   21.246300   19.926743 C.2        1 MOL1         0.6115
       2    O1      21.978546   22.123177   19.827565 O.co2      1 MOL1        -0.6776
       3    O2      20.368498   20.964229   19.033663 O.co2      1 MOL1        -0.6776
       4    C2      21.090237   20.479580   21.249223 C.3        1 MOL1        -0.2013
       5    H1      20.926490   21.213918   22.046710 H          1 MOL1         0.0727
       6    H2      22.082082   20.042498   21.414308 H          1 MOL1         0.0727
       7    C3      20.008585   19.369568   21.328807 C.3        1 MOL1        -0.1910
       8    H3      19.018006   19.813012   21.156824 H          1 MOL1         0.0729
       9    H4      20.174780   18.640396   20.523725 H          1 MOL1         0.0729
      10    C4      20.025085   18.648672   22.694200 C.3        1 MOL1        -0.1909
      11    H5      19.858935   19.379499   23.497590 H          1 MOL1         0.0729
      12    H6      21.016297   18.206214   22.864142 H          1 MOL1         0.0729
      13    C5      18.949062   17.545660   22.771237 C.3        1 MOL1        -0.1884
      14    H7      17.955732   17.984618   22.603594 H          1 MOL1         0.0729
      15    H8      19.113023   16.811414   21.970305 H          1 MOL1         0.0729
      16    C6      18.968346   16.828152   24.135715 C.3        1 MOL1        -0.2899
      17    H9      18.775373   17.534575   24.953731 H          1 MOL1         0.0741
      18    H10     18.197450   16.047494   24.173143 H          1 MOL1         0.0741
      19    H11     19.941397   16.352545   24.315687 H          1 MOL1         0.0741
@<TRIPOS>BOND
    1     1     2    1
    2     1     3    2
    3     1     4    1
    4     4     5    1
    5     4     6    1
    6     4     7    1
    7     7     8    1
    8     7     9    1
    9     7    10    1
   10    10    11    1
   11    10    12    1
   12    10    13    1
   13    13    14    1
   14    13    15    1
   15    13    16    1
   16    16    17    1
   17    16    18    1
   18    16    19    1
@<TRIPOS>SUBSTRUCTURE
       1 MOL1            1 RESIDUE      1      MOL     
@<SCITEGIC>MOL_PROPERTY
VConf Rank
SciTegic.value.IntegerValue
210

@<SCITEGIC>MOL_PROPERTY
Conf_Id
SciTegic.value.IntegerValue
0

@<SCITEGIC>MOL_PROPERTY
Delta U+W
SciTegic.value.DoubleValue
0.000

@<SCITEGIC>MOL_PROPERTY
U+W
SciTegic.value.DoubleValue
-54.891

@<SCITEGIC>MOL_PROPERTY
Grad RMS
SciTegic.value.DoubleValue
0.000000

@<SCITEGIC>MOL_PROPERTY
U
SciTegic.value.DoubleValue
6.966

@<SCITEGIC>MOL_PROPERTY
W
SciTegic.value.DoubleValue
-61.857

@<SCITEGIC>MOL_PROPERTY
W(PB)
SciTegic.value.DoubleValue
-63.965

@<SCITEGIC>MOL_PROPERTY
W(SA)
SciTegic.value.DoubleValue
2.108

@<SCITEGIC>MOL_PROPERTY
Valence
SciTegic.value.DoubleValue
7.175

@<SCITEGIC>MOL_PROPERTY
Coulomb
SciTegic.value.DoubleValue
-1.360

@<SCITEGIC>MOL_PROPERTY
VdW
SciTegic.value.DoubleValue
1.151

@<SCITEGIC>MOL_PROPERTY
VdW6
SciTegic.value.DoubleValue
-5.641

@<SCITEGIC>MOL_PROPERTY
VdW12
SciTegic.value.DoubleValue
6.792

@<SCITEGIC>MOL_PROPERTY
Bond
SciTegic.value.DoubleValue
0.119

@<SCITEGIC>MOL_PROPERTY
Angle
SciTegic.value.DoubleValue
2.715

@<SCITEGIC>MOL_PROPERTY
Pdih
SciTegic.value.DoubleValue
4.340

@<SCITEGIC>MOL_PROPERTY
Idih
SciTegic.value.DoubleValue
0.000

@<SCITEGIC>MOL_PROPERTY
Tether
SciTegic.value.DoubleValue
0.000

@<TRIPOS>MOLECULE
guest-7_confgen4.mol2 : confsearch ligand conformer 211
          19          18           1
SMALL
USER_CHARGES
 
@<TRIPOS>ATOM
       1    C1      18.073034   21.734353   21.667328 C.2        1 MOL1         0.6115
       2    O1      18.570056   22.558228   20.925452 O.co2      1 MOL1        -0.6776
       3    O2      16.874597   21.586178   21.801397 O.co2      1 MOL1        -0.6776
       4    C2      19.004412   20.822453   22.458115 C.3        1 MOL1        -0.2013
       5    H1      18.519135   20.584378   23.412351 H          1 MOL1         0.0727
       6    H2      19.916633   21.385319   22.690019 H          1 MOL1         0.0727
       7    C3      19.358849   19.519801   21.699441 C.3        1 MOL1        -0.1910
       8    H3      18.434511   18.974340   21.463600 H          1 MOL1         0.0729
       9    H4      19.831968   19.775352   20.741108 H          1 MOL1         0.0729
      10    C4      20.302235   18.614876   22.520879 C.3        1 MOL1        -0.1909
      11    H5      19.827039   18.362311   23.478789 H          1 MOL1         0.0729
      12    H6      21.224727   19.163393   22.756100 H          1 MOL1         0.0729
      13    C5      20.653556   17.317919   21.762690 C.3        1 MOL1        -0.1884
      14    H7      19.733360   16.765389   21.527226 H          1 MOL1         0.0729
      15    H8      21.130983   17.566379   20.804658 H          1 MOL1         0.0729
      16    C6      21.595557   16.416764   22.585800 C.3        1 MOL1        -0.2899
      17    H9      21.834950   15.499555   22.032152 H          1 MOL1         0.0741
      18    H10     22.538075   16.933784   22.808901 H          1 MOL1         0.0741
      19    H11     21.129980   16.126828   23.536904 H          1 MOL1         0.0741
@<TRIPOS>BOND
    1     1     2    1
    2     1     3    2
    3     1     4    1
    4     4     5    1
    5     4     6    1
    6     4     7    1
    7     7     8    1
    8     7     9    1
    9     7    10    1
   10    10    11    1
   11    10    12    1
   12    10    13    1
   13    13    14    1
   14    13    15    1
   15    13    16    1
   16    16    17    1
   17    16    18    1
   18    16    19    1
@<TRIPOS>SUBSTRUCTURE
       1 MOL1            1 RESIDUE      1      MOL     
@<SCITEGIC>MOL_PROPERTY
VConf Rank
SciTegic.value.IntegerValue
211

@<SCITEGIC>MOL_PROPERTY
Conf_Id
SciTegic.value.IntegerValue
18

@<SCITEGIC>MOL_PROPERTY
Delta U+W
SciTegic.value.DoubleValue
-1.199

@<SCITEGIC>MOL_PROPERTY
U+W
SciTegic.value.DoubleValue
-56.090

@<SCITEGIC>MOL_PROPERTY
Grad RMS
SciTegic.value.DoubleValue
0.000000

@<SCITEGIC>MOL_PROPERTY
U
SciTegic.value.DoubleValue
5.975

@<SCITEGIC>MOL_PROPERTY
W
SciTegic.value.DoubleValue
-62.066

@<SCITEGIC>MOL_PROPERTY
W(PB)
SciTegic.value.DoubleValue
-64.219

@<SCITEGIC>MOL_PROPERTY
W(SA)
SciTegic.value.DoubleValue
2.153

@<SCITEGIC>MOL_PROPERTY
Valence
SciTegic.value.DoubleValue
6.673

@<SCITEGIC>MOL_PROPERTY
Coulomb
SciTegic.value.DoubleValue
-1.307

@<SCITEGIC>MOL_PROPERTY
VdW
SciTegic.value.DoubleValue
0.610

@<SCITEGIC>MOL_PROPERTY
VdW6
SciTegic.value.DoubleValue
-5.351

@<SCITEGIC>MOL_PROPERTY
VdW12
SciTegic.value.DoubleValue
5.961

@<SCITEGIC>MOL_PROPERTY
Bond
SciTegic.value.DoubleValue
0.086

@<SCITEGIC>MOL_PROPERTY
Angle
SciTegic.value.DoubleValue
2.253

@<SCITEGIC>MOL_PROPERTY
Pdih
SciTegic.value.DoubleValue
4.333

@<SCITEGIC>MOL_PROPERTY
Idih
SciTegic.value.DoubleValue
0.001

@<SCITEGIC>MOL_PROPERTY
Tether
SciTegic.value.DoubleValue
0.000

@<TRIPOS>MOLECULE
guest-7_confgen4.mol2 : confsearch ligand conformer 212
          19          18           1
SMALL
USER_CHARGES
 
@<TRIPOS>ATOM
       1    C1      17.061350   17.715233   21.615600 C.2        1 MOL1         0.6115
       2    O1      16.356038   17.226122   22.475597 O.co2      1 MOL1        -0.6776
       3    O2      16.644181   18.094337   20.539258 O.co2      1 MOL1        -0.6776
       4    C2      18.547585   17.881866   21.911738 C.3        1 MOL1        -0.2013
       5    H1      19.091058   17.761864   20.967768 H          1 MOL1         0.0727
       6    H2      18.856944   17.062826   22.572026 H          1 MOL1         0.0727
       7    C3      18.880055   19.249087   22.563928 C.3        1 MOL1        -0.1910
       8    H3      18.606777   20.060368   21.875123 H          1 MOL1         0.0729
       9    H4      18.252114   19.375604   23.456736 H          1 MOL1         0.0729
      10    C4      20.364009   19.391790   22.977510 C.3        1 MOL1        -0.1909
      11    H5      20.631702   18.584275   23.672684 H          1 MOL1         0.0729
      12    H6      20.482142   20.332121   23.533241 H          1 MOL1         0.0729
      13    C5      21.338728   19.391409   21.778580 C.3        1 MOL1        -0.1884
      14    H7      21.291784   18.428849   21.252619 H          1 MOL1         0.0729
      15    H8      21.040720   20.165769   21.058284 H          1 MOL1         0.0729
      16    C6      22.790745   19.644867   22.230990 C.3        1 MOL1        -0.2899
      17    H9      23.470900   19.638722   21.369340 H          1 MOL1         0.0741
      18    H10     22.883275   20.619162   22.728557 H          1 MOL1         0.0741
      19    H11     23.124543   18.868588   22.931972 H          1 MOL1         0.0741
@<TRIPOS>BOND
    1     1     2    1
    2     1     3    2
    3     1     4    1
    4     4     5    1
    5     4     6    1
    6     4     7    1
    7     7     8    1
    8     7     9    1
    9     7    10    1
   10    10    11    1
   11    10    12    1
   12    10    13    1
   13    13    14    1
   14    13    15    1
   15    13    16    1
   16    16    17    1
   17    16    18    1
   18    16    19    1
@<TRIPOS>SUBSTRUCTURE
       1 MOL1            1 RESIDUE      1      MOL     
@<SCITEGIC>MOL_PROPERTY
VConf Rank
SciTegic.value.IntegerValue
212

@<SCITEGIC>MOL_PROPERTY
Conf_Id
SciTegic.value.IntegerValue
34

@<SCITEGIC>MOL_PROPERTY
Delta U+W
SciTegic.value.DoubleValue
-0.563

@<SCITEGIC>MOL_PROPERTY
U+W
SciTegic.value.DoubleValue
-55.455

@<SCITEGIC>MOL_PROPERTY
Grad RMS
SciTegic.value.DoubleValue
0.000000

@<SCITEGIC>MOL_PROPERTY
U
SciTegic.value.DoubleValue
6.914

@<SCITEGIC>MOL_PROPERTY
W
SciTegic.value.DoubleValue
-62.369

@<SCITEGIC>MOL_PROPERTY
W(PB)
SciTegic.value.DoubleValue
-64.446

@<SCITEGIC>MOL_PROPERTY
W(SA)
SciTegic.value.DoubleValue
2.077

@<SCITEGIC>MOL_PROPERTY
Valence
SciTegic.value.DoubleValue
7.196

@<SCITEGIC>MOL_PROPERTY
Coulomb
SciTegic.value.DoubleValue
-1.020

@<SCITEGIC>MOL_PROPERTY
VdW
SciTegic.value.DoubleValue
0.738

@<SCITEGIC>MOL_PROPERTY
VdW6
SciTegic.value.DoubleValue
-6.010

@<SCITEGIC>MOL_PROPERTY
VdW12
SciTegic.value.DoubleValue
6.748

@<SCITEGIC>MOL_PROPERTY
Bond
SciTegic.value.DoubleValue
0.126

@<SCITEGIC>MOL_PROPERTY
Angle
SciTegic.value.DoubleValue
2.499

@<SCITEGIC>MOL_PROPERTY
Pdih
SciTegic.value.DoubleValue
4.570

@<SCITEGIC>MOL_PROPERTY
Idih
SciTegic.value.DoubleValue
0.001

@<SCITEGIC>MOL_PROPERTY
Tether
SciTegic.value.DoubleValue
0.000

@<TRIPOS>MOLECULE
guest-7_confgen4.mol2 : confsearch ligand conformer 213
          19          18           1
SMALL
USER_CHARGES
 
@<TRIPOS>ATOM
       1    C1      18.307779   16.745399   23.861187 C.2        1 MOL1         0.6115
       2    O1      17.572369   17.027749   24.786249 O.co2      1 MOL1        -0.6776
       3    O2      18.745538   15.628739   23.667021 O.co2      1 MOL1        -0.6776
       4    C2      18.721429   17.858026   22.904466 C.3        1 MOL1        -0.2013
       5    H1      17.894885   18.575739   22.839461 H          1 MOL1         0.0727
       6    H2      18.845672   17.413831   21.910434 H          1 MOL1         0.0727
       7    C3      20.021393   18.578312   23.347703 C.3        1 MOL1        -0.1910
       8    H3      19.894052   18.931335   24.380458 H          1 MOL1         0.0729
       9    H4      20.851586   17.858764   23.366111 H          1 MOL1         0.0729
      10    C4      20.394718   19.784780   22.454065 C.3        1 MOL1        -0.1909
      11    H5      21.251843   20.301899   22.906766 H          1 MOL1         0.0729
      12    H6      19.566187   20.506205   22.444596 H          1 MOL1         0.0729
      13    C5      20.756123   19.387618   21.005217 C.3        1 MOL1        -0.1884
      14    H7      21.549991   18.628063   21.016096 H          1 MOL1         0.0729
      15    H8      19.887274   18.936535   20.508238 H          1 MOL1         0.0729
      16    C6      21.225216   20.606473   20.185698 C.3        1 MOL1        -0.2899
      17    H9      20.439289   21.371443   20.135248 H          1 MOL1         0.0741
      18    H10     22.118460   21.061348   20.633571 H          1 MOL1         0.0741
      19    H11     21.475240   20.309081   19.158987 H          1 MOL1         0.0741
@<TRIPOS>BOND
    1     1     2    1
    2     1     3    2
    3     1     4    1
    4     4     5    1
    5     4     6    1
    6     4     7    1
    7     7     8    1
    8     7     9    1
    9     7    10    1
   10    10    11    1
   11    10    12    1
   12    10    13    1
   13    13    14    1
   14    13    15    1
   15    13    16    1
   16    16    17    1
   17    16    18    1
   18    16    19    1
@<TRIPOS>SUBSTRUCTURE
       1 MOL1            1 RESIDUE      1      MOL     
@<SCITEGIC>MOL_PROPERTY
VConf Rank
SciTegic.value.IntegerValue
213

@<SCITEGIC>MOL_PROPERTY
Conf_Id
SciTegic.value.IntegerValue
33

@<SCITEGIC>MOL_PROPERTY
Delta U+W
SciTegic.value.DoubleValue
-0.526

@<SCITEGIC>MOL_PROPERTY
U+W
SciTegic.value.DoubleValue
-55.418

@<SCITEGIC>MOL_PROPERTY
Grad RMS
SciTegic.value.DoubleValue
0.000000

@<SCITEGIC>MOL_PROPERTY
U
SciTegic.value.DoubleValue
6.914

@<SCITEGIC>MOL_PROPERTY
W
SciTegic.value.DoubleValue
-62.332

@<SCITEGIC>MOL_PROPERTY
W(PB)
SciTegic.value.DoubleValue
-64.421

@<SCITEGIC>MOL_PROPERTY
W(SA)
SciTegic.value.DoubleValue
2.090

@<SCITEGIC>MOL_PROPERTY
Valence
SciTegic.value.DoubleValue
7.196

@<SCITEGIC>MOL_PROPERTY
Coulomb
SciTegic.value.DoubleValue
-1.020

@<SCITEGIC>MOL_PROPERTY
VdW
SciTegic.value.DoubleValue
0.738

@<SCITEGIC>MOL_PROPERTY
VdW6
SciTegic.value.DoubleValue
-6.010

@<SCITEGIC>MOL_PROPERTY
VdW12
SciTegic.value.DoubleValue
6.748

@<SCITEGIC>MOL_PROPERTY
Bond
SciTegic.value.DoubleValue
0.126

@<SCITEGIC>MOL_PROPERTY
Angle
SciTegic.value.DoubleValue
2.499

@<SCITEGIC>MOL_PROPERTY
Pdih
SciTegic.value.DoubleValue
4.570

@<SCITEGIC>MOL_PROPERTY
Idih
SciTegic.value.DoubleValue
0.001

@<SCITEGIC>MOL_PROPERTY
Tether
SciTegic.value.DoubleValue
0.000

@<TRIPOS>MOLECULE
guest-7_confgen4.mol2 : confsearch ligand conformer 214
          19          18           1
SMALL
USER_CHARGES
 
@<TRIPOS>ATOM
       1    C1      22.776015   19.862181   21.247458 C.2        1 MOL1         0.6115
       2    O1      23.631709   19.229122   21.833329 O.co2      1 MOL1        -0.6776
       3    O2      22.877779   20.219954   20.090787 O.co2      1 MOL1        -0.6776
       4    C2      21.496718   20.211758   21.999585 C.3        1 MOL1        -0.2013
       5    H1      21.132996   21.175499   21.623304 H          1 MOL1         0.0727
       6    H2      21.750335   20.351512   23.057354 H          1 MOL1         0.0727
       7    C3      20.397374   19.130856   21.852838 C.3        1 MOL1        -0.1910
       8    H3      20.161331   18.995753   20.788287 H          1 MOL1         0.0729
       9    H4      20.790128   18.172712   22.217976 H          1 MOL1         0.0729
      10    C4      19.114036   19.509422   22.627687 C.3        1 MOL1        -0.1909
      11    H5      18.777580   20.502214   22.298818 H          1 MOL1         0.0729
      12    H6      19.340303   19.596457   23.699245 H          1 MOL1         0.0729
      13    C5      17.955426   18.506096   22.423858 C.3        1 MOL1        -0.1884
      14    H7      17.053330   18.906452   22.906748 H          1 MOL1         0.0729
      15    H8      17.722403   18.420506   21.353483 H          1 MOL1         0.0729
      16    C6      18.250192   17.106291   23.004815 C.3        1 MOL1        -0.2899
      17    H9      18.514639   17.169987   24.068379 H          1 MOL1         0.0741
      18    H10     17.367789   16.459694   22.914157 H          1 MOL1         0.0741
      19    H11     19.075906   16.617347   22.472957 H          1 MOL1         0.0741
@<TRIPOS>BOND
    1     1     2    1
    2     1     3    2
    3     1     4    1
    4     4     5    1
    5     4     6    1
    6     4     7    1
    7     7     8    1
    8     7     9    1
    9     7    10    1
   10    10    11    1
   11    10    12    1
   12    10    13    1
   13    13    14    1
   14    13    15    1
   15    13    16    1
   16    16    17    1
   17    16    18    1
   18    16    19    1
@<TRIPOS>SUBSTRUCTURE
       1 MOL1            1 RESIDUE      1      MOL     
@<SCITEGIC>MOL_PROPERTY
VConf Rank
SciTegic.value.IntegerValue
214

@<SCITEGIC>MOL_PROPERTY
Conf_Id
SciTegic.value.IntegerValue
42

@<SCITEGIC>MOL_PROPERTY
Delta U+W
SciTegic.value.DoubleValue
-0.344

@<SCITEGIC>MOL_PROPERTY
U+W
SciTegic.value.DoubleValue
-55.236

@<SCITEGIC>MOL_PROPERTY
Grad RMS
SciTegic.value.DoubleValue
0.000000

@<SCITEGIC>MOL_PROPERTY
U
SciTegic.value.DoubleValue
7.244

@<SCITEGIC>MOL_PROPERTY
W
SciTegic.value.DoubleValue
-62.479

@<SCITEGIC>MOL_PROPERTY
W(PB)
SciTegic.value.DoubleValue
-64.610

@<SCITEGIC>MOL_PROPERTY
W(SA)
SciTegic.value.DoubleValue
2.130

@<SCITEGIC>MOL_PROPERTY
Valence
SciTegic.value.DoubleValue
7.174

@<SCITEGIC>MOL_PROPERTY
Coulomb
SciTegic.value.DoubleValue
-0.669

@<SCITEGIC>MOL_PROPERTY
VdW
SciTegic.value.DoubleValue
0.739

@<SCITEGIC>MOL_PROPERTY
VdW6
SciTegic.value.DoubleValue
-5.969

@<SCITEGIC>MOL_PROPERTY
VdW12
SciTegic.value.DoubleValue
6.708

@<SCITEGIC>MOL_PROPERTY
Bond
SciTegic.value.DoubleValue
0.116

@<SCITEGIC>MOL_PROPERTY
Angle
SciTegic.value.DoubleValue
2.481

@<SCITEGIC>MOL_PROPERTY
Pdih
SciTegic.value.DoubleValue
4.576

@<SCITEGIC>MOL_PROPERTY
Idih
SciTegic.value.DoubleValue
0.000

@<SCITEGIC>MOL_PROPERTY
Tether
SciTegic.value.DoubleValue
0.000

@<TRIPOS>MOLECULE
guest-7_confgen4.mol2 : confsearch ligand conformer 215
          19          18           1
SMALL
USER_CHARGES
 
@<TRIPOS>ATOM
       1    C1      20.299923   15.981311   23.345447 C.2        1 MOL1         0.6115
       2    O1      21.453414   15.747157   23.646864 O.co2      1 MOL1        -0.6776
       3    O2      19.544723   15.151166   22.879852 O.co2      1 MOL1        -0.6776
       4    C2      19.776646   17.399294   23.545455 C.3        1 MOL1        -0.2013
       5    H1      20.285726   17.831137   24.415557 H          1 MOL1         0.0727
       6    H2      18.709841   17.336999   23.791879 H          1 MOL1         0.0727
       7    C3      19.986992   18.299667   22.303067 C.3        1 MOL1        -0.1910
       8    H3      21.058338   18.331681   22.064713 H          1 MOL1         0.0729
       9    H4      19.479617   17.849422   21.438723 H          1 MOL1         0.0729
      10    C4      19.450893   19.731250   22.535068 C.3        1 MOL1        -0.1909
      11    H5      19.992715   20.199268   23.368371 H          1 MOL1         0.0729
      12    H6      18.397593   19.673226   22.841965 H          1 MOL1         0.0729
      13    C5      19.548426   20.633611   21.283341 C.3        1 MOL1        -0.1884
      14    H7      19.002821   20.171427   20.449058 H          1 MOL1         0.0729
      15    H8      19.042918   21.585924   21.495015 H          1 MOL1         0.0729
      16    C6      21.002058   20.927556   20.853919 C.3        1 MOL1        -0.2899
      17    H9      21.514178   20.015709   20.522234 H          1 MOL1         0.0741
      18    H10     21.018836   21.640108   20.019096 H          1 MOL1         0.0741
      19    H11     21.575859   21.363641   21.682013 H          1 MOL1         0.0741
@<TRIPOS>BOND
    1     1     2    1
    2     1     3    2
    3     1     4    1
    4     4     5    1
    5     4     6    1
    6     4     7    1
    7     7     8    1
    8     7     9    1
    9     7    10    1
   10    10    11    1
   11    10    12    1
   12    10    13    1
   13    13    14    1
   14    13    15    1
   15    13    16    1
   16    16    17    1
   17    16    18    1
   18    16    19    1
@<TRIPOS>SUBSTRUCTURE
       1 MOL1            1 RESIDUE      1      MOL     
@<SCITEGIC>MOL_PROPERTY
VConf Rank
SciTegic.value.IntegerValue
215

@<SCITEGIC>MOL_PROPERTY
Conf_Id
SciTegic.value.IntegerValue
41

@<SCITEGIC>MOL_PROPERTY
Delta U+W
SciTegic.value.DoubleValue
-0.361

@<SCITEGIC>MOL_PROPERTY
U+W
SciTegic.value.DoubleValue
-55.252

@<SCITEGIC>MOL_PROPERTY
Grad RMS
SciTegic.value.DoubleValue
0.000000

@<SCITEGIC>MOL_PROPERTY
U
SciTegic.value.DoubleValue
7.244

@<SCITEGIC>MOL_PROPERTY
W
SciTegic.value.DoubleValue
-62.496

@<SCITEGIC>MOL_PROPERTY
W(PB)
SciTegic.value.DoubleValue
-64.596

@<SCITEGIC>MOL_PROPERTY
W(SA)
SciTegic.value.DoubleValue
2.099

@<SCITEGIC>MOL_PROPERTY
Valence
SciTegic.value.DoubleValue
7.174

@<SCITEGIC>MOL_PROPERTY
Coulomb
SciTegic.value.DoubleValue
-0.669

@<SCITEGIC>MOL_PROPERTY
VdW
SciTegic.value.DoubleValue
0.739

@<SCITEGIC>MOL_PROPERTY
VdW6
SciTegic.value.DoubleValue
-5.969

@<SCITEGIC>MOL_PROPERTY
VdW12
SciTegic.value.DoubleValue
6.708

@<SCITEGIC>MOL_PROPERTY
Bond
SciTegic.value.DoubleValue
0.116

@<SCITEGIC>MOL_PROPERTY
Angle
SciTegic.value.DoubleValue
2.481

@<SCITEGIC>MOL_PROPERTY
Pdih
SciTegic.value.DoubleValue
4.576

@<SCITEGIC>MOL_PROPERTY
Idih
SciTegic.value.DoubleValue
0.000

@<SCITEGIC>MOL_PROPERTY
Tether
SciTegic.value.DoubleValue
0.000

@<TRIPOS>MOLECULE
guest-7_confgen4.mol2 : confsearch ligand conformer 216
          19          18           1
SMALL
USER_CHARGES
 
@<TRIPOS>ATOM
       1    C1      18.485306   21.407614   23.066143 C.2        1 MOL1         0.6115
       2    O1      18.972171   21.596883   24.163271 O.co2      1 MOL1        -0.6776
       3    O2      18.450287   22.251113   22.192093 O.co2      1 MOL1        -0.6776
       4    C2      17.863705   20.044360   22.775464 C.3        1 MOL1        -0.2013
       5    H1      16.889091   20.221822   22.305627 H          1 MOL1         0.0727
       6    H2      17.668964   19.537619   23.728499 H          1 MOL1         0.0727
       7    C3      18.725055   19.140891   21.855186 C.3        1 MOL1        -0.1910
       8    H3      18.144512   18.247305   21.588712 H          1 MOL1         0.0729
       9    H4      18.935670   19.672779   20.916907 H          1 MOL1         0.0729
      10    C4      20.050704   18.707399   22.520055 C.3        1 MOL1        -0.1909
      11    H5      19.835377   18.187779   23.463802 H          1 MOL1         0.0729
      12    H6      20.645264   19.595791   22.774381 H          1 MOL1         0.0729
      13    C5      20.876279   17.784436   21.599637 C.3        1 MOL1        -0.1884
      14    H7      20.288046   16.891858   21.345245 H          1 MOL1         0.0729
      15    H8      21.095168   18.302683   20.655718 H          1 MOL1         0.0729
      16    C6      22.198221   17.353605   22.265842 C.3        1 MOL1        -0.2899
      17    H9      22.007835   16.804914   23.197560 H          1 MOL1         0.0741
      18    H10     22.772588   16.698575   21.597916 H          1 MOL1         0.0741
      19    H11     22.820977   18.226183   22.502958 H          1 MOL1         0.0741
@<TRIPOS>BOND
    1     1     2    1
    2     1     3    2
    3     1     4    1
    4     4     5    1
    5     4     6    1
    6     4     7    1
    7     7     8    1
    8     7     9    1
    9     7    10    1
   10    10    11    1
   11    10    12    1
   12    10    13    1
   13    13    14    1
   14    13    15    1
   15    13    16    1
   16    16    17    1
   17    16    18    1
   18    16    19    1
@<TRIPOS>SUBSTRUCTURE
       1 MOL1            1 RESIDUE      1      MOL     
@<SCITEGIC>MOL_PROPERTY
VConf Rank
SciTegic.value.IntegerValue
216

@<SCITEGIC>MOL_PROPERTY
Conf_Id
SciTegic.value.IntegerValue
36

@<SCITEGIC>MOL_PROPERTY
Delta U+W
SciTegic.value.DoubleValue
-0.079

@<SCITEGIC>MOL_PROPERTY
U+W
SciTegic.value.DoubleValue
-54.971

@<SCITEGIC>MOL_PROPERTY
Grad RMS
SciTegic.value.DoubleValue
0.000000

@<SCITEGIC>MOL_PROPERTY
U
SciTegic.value.DoubleValue
8.266

@<SCITEGIC>MOL_PROPERTY
W
SciTegic.value.DoubleValue
-63.237

@<SCITEGIC>MOL_PROPERTY
W(PB)
SciTegic.value.DoubleValue
-65.340

@<SCITEGIC>MOL_PROPERTY
W(SA)
SciTegic.value.DoubleValue
2.103

@<SCITEGIC>MOL_PROPERTY
Valence
SciTegic.value.DoubleValue
6.935

@<SCITEGIC>MOL_PROPERTY
Coulomb
SciTegic.value.DoubleValue
0.874

@<SCITEGIC>MOL_PROPERTY
VdW
SciTegic.value.DoubleValue
0.457

@<SCITEGIC>MOL_PROPERTY
VdW6
SciTegic.value.DoubleValue
-6.205

@<SCITEGIC>MOL_PROPERTY
VdW12
SciTegic.value.DoubleValue
6.662

@<SCITEGIC>MOL_PROPERTY
Bond
SciTegic.value.DoubleValue
0.107

@<SCITEGIC>MOL_PROPERTY
Angle
SciTegic.value.DoubleValue
2.420

@<SCITEGIC>MOL_PROPERTY
Pdih
SciTegic.value.DoubleValue
4.407

@<SCITEGIC>MOL_PROPERTY
Idih
SciTegic.value.DoubleValue
0.001

@<SCITEGIC>MOL_PROPERTY
Tether
SciTegic.value.DoubleValue
0.000

@<TRIPOS>MOLECULE
guest-7_confgen4.mol2 : confsearch ligand conformer 217
          19          18           1
SMALL
USER_CHARGES
 
@<TRIPOS>ATOM
       1    C1      17.941249   19.534414   20.602391 C.2        1 MOL1         0.6115
       2    O1      17.342196   20.341971   21.284695 O.co2      1 MOL1        -0.6776
       3    O2      17.417809   18.559392   20.100372 O.co2      1 MOL1        -0.6776
       4    C2      19.427150   19.766861   20.342749 C.3        1 MOL1        -0.2013
       5    H1      19.660446   20.816752   20.557898 H          1 MOL1         0.0727
       6    H2      19.600068   19.616795   19.270514 H          1 MOL1         0.0727
       7    C3      20.363440   18.833573   21.153568 C.3        1 MOL1        -0.1910
       8    H3      20.099081   17.786582   20.949714 H          1 MOL1         0.0729
       9    H4      21.395350   18.973033   20.803927 H          1 MOL1         0.0729
      10    C4      20.299958   19.103021   22.673659 C.3        1 MOL1        -0.1909
      11    H5      19.273573   18.948919   23.034504 H          1 MOL1         0.0729
      12    H6      20.552224   20.153931   22.871091 H          1 MOL1         0.0729
      13    C5      21.261825   18.185589   23.457071 C.3        1 MOL1        -0.1884
      14    H7      21.010184   17.133648   23.263238 H          1 MOL1         0.0729
      15    H8      22.290845   18.338487   23.103274 H          1 MOL1         0.0729
      16    C6      21.196147   18.456878   24.973339 C.3        1 MOL1        -0.2899
      17    H9      20.183752   18.281098   25.360121 H          1 MOL1         0.0741
      18    H10     21.885461   17.796043   25.514847 H          1 MOL1         0.0741
      19    H11     21.473929   19.494828   25.198956 H          1 MOL1         0.0741
@<TRIPOS>BOND
    1     1     2    1
    2     1     3    2
    3     1     4    1
    4     4     5    1
    5     4     6    1
    6     4     7    1
    7     7     8    1
    8     7     9    1
    9     7    10    1
   10    10    11    1
   11    10    12    1
   12    10    13    1
   13    13    14    1
   14    13    15    1
   15    13    16    1
   16    16    17    1
   17    16    18    1
   18    16    19    1
@<TRIPOS>SUBSTRUCTURE
       1 MOL1            1 RESIDUE      1      MOL     
@<SCITEGIC>MOL_PROPERTY
VConf Rank
SciTegic.value.IntegerValue
217

@<SCITEGIC>MOL_PROPERTY
Conf_Id
SciTegic.value.IntegerValue
35

@<SCITEGIC>MOL_PROPERTY
Delta U+W
SciTegic.value.DoubleValue
-0.030

@<SCITEGIC>MOL_PROPERTY
U+W
SciTegic.value.DoubleValue
-54.921

@<SCITEGIC>MOL_PROPERTY
Grad RMS
SciTegic.value.DoubleValue
0.000000

@<SCITEGIC>MOL_PROPERTY
U
SciTegic.value.DoubleValue
8.267

@<SCITEGIC>MOL_PROPERTY
W
SciTegic.value.DoubleValue
-63.188

@<SCITEGIC>MOL_PROPERTY
W(PB)
SciTegic.value.DoubleValue
-65.294

@<SCITEGIC>MOL_PROPERTY
W(SA)
SciTegic.value.DoubleValue
2.106

@<SCITEGIC>MOL_PROPERTY
Valence
SciTegic.value.DoubleValue
6.935

@<SCITEGIC>MOL_PROPERTY
Coulomb
SciTegic.value.DoubleValue
0.875

@<SCITEGIC>MOL_PROPERTY
VdW
SciTegic.value.DoubleValue
0.457

@<SCITEGIC>MOL_PROPERTY
VdW6
SciTegic.value.DoubleValue
-6.205

@<SCITEGIC>MOL_PROPERTY
VdW12
SciTegic.value.DoubleValue
6.662

@<SCITEGIC>MOL_PROPERTY
Bond
SciTegic.value.DoubleValue
0.107

@<SCITEGIC>MOL_PROPERTY
Angle
SciTegic.value.DoubleValue
2.420

@<SCITEGIC>MOL_PROPERTY
Pdih
SciTegic.value.DoubleValue
4.407

@<SCITEGIC>MOL_PROPERTY
Idih
SciTegic.value.DoubleValue
0.001

@<SCITEGIC>MOL_PROPERTY
Tether
SciTegic.value.DoubleValue
0.000

@<TRIPOS>MOLECULE
guest-7_confgen4.mol2 : confsearch ligand conformer 218
          19          18           1
SMALL
USER_CHARGES
 
@<TRIPOS>ATOM
       1    C1      20.724627   17.121560   24.557373 C.2        1 MOL1         0.6115
       2    O1      21.696881   16.420436   24.357736 O.co2      1 MOL1        -0.6776
       3    O2      19.672055   16.701213   24.995604 O.co2      1 MOL1        -0.6776
       4    C2      20.841012   18.614334   24.261467 C.3        1 MOL1        -0.2013
       5    H1      21.790293   18.959352   24.687989 H          1 MOL1         0.0727
       6    H2      20.042283   19.141506   24.797266 H          1 MOL1         0.0727
       7    C3      20.794620   18.965962   22.751524 C.3        1 MOL1        -0.1910
       8    H3      21.038644   20.029453   22.634096 H          1 MOL1         0.0729
       9    H4      21.574221   18.400858   22.222176 H          1 MOL1         0.0729
      10    C4      19.413628   18.675969   22.116348 C.3        1 MOL1        -0.1909
      11    H5      18.641036   19.271125   22.622025 H          1 MOL1         0.0729
      12    H6      19.152658   17.622236   22.285366 H          1 MOL1         0.0729
      13    C5      19.366953   18.951654   20.595608 C.3        1 MOL1        -0.1884
      14    H7      20.137399   18.356008   20.086757 H          1 MOL1         0.0729
      15    H8      18.399760   18.606529   20.204906 H          1 MOL1         0.0729
      16    C6      19.542698   20.443420   20.238165 C.3        1 MOL1        -0.2899
      17    H9      20.543900   20.804426   20.504420 H          1 MOL1         0.0741
      18    H10     19.410585   20.597382   19.159379 H          1 MOL1         0.0741
      19    H11     18.802175   21.062630   20.760995 H          1 MOL1         0.0741
@<TRIPOS>BOND
    1     1     2    1
    2     1     3    2
    3     1     4    1
    4     4     5    1
    5     4     6    1
    6     4     7    1
    7     7     8    1
    8     7     9    1
    9     7    10    1
   10    10    11    1
   11    10    12    1
   12    10    13    1
   13    13    14    1
   14    13    15    1
   15    13    16    1
   16    16    17    1
   17    16    18    1
   18    16    19    1
@<TRIPOS>SUBSTRUCTURE
       1 MOL1            1 RESIDUE      1      MOL     
@<SCITEGIC>MOL_PROPERTY
VConf Rank
SciTegic.value.IntegerValue
218

@<SCITEGIC>MOL_PROPERTY
Conf_Id
SciTegic.value.IntegerValue
74

@<SCITEGIC>MOL_PROPERTY
Delta U+W
SciTegic.value.DoubleValue
0.797

@<SCITEGIC>MOL_PROPERTY
U+W
SciTegic.value.DoubleValue
-54.095

@<SCITEGIC>MOL_PROPERTY
Grad RMS
SciTegic.value.DoubleValue
0.000000

@<SCITEGIC>MOL_PROPERTY
U
SciTegic.value.DoubleValue
8.869

@<SCITEGIC>MOL_PROPERTY
W
SciTegic.value.DoubleValue
-62.964

@<SCITEGIC>MOL_PROPERTY
W(PB)
SciTegic.value.DoubleValue
-65.046

@<SCITEGIC>MOL_PROPERTY
W(SA)
SciTegic.value.DoubleValue
2.082

@<SCITEGIC>MOL_PROPERTY
Valence
SciTegic.value.DoubleValue
7.469

@<SCITEGIC>MOL_PROPERTY
Coulomb
SciTegic.value.DoubleValue
0.762

@<SCITEGIC>MOL_PROPERTY
VdW
SciTegic.value.DoubleValue
0.639

@<SCITEGIC>MOL_PROPERTY
VdW6
SciTegic.value.DoubleValue
-6.782

@<SCITEGIC>MOL_PROPERTY
VdW12
SciTegic.value.DoubleValue
7.421

@<SCITEGIC>MOL_PROPERTY
Bond
SciTegic.value.DoubleValue
0.141

@<SCITEGIC>MOL_PROPERTY
Angle
SciTegic.value.DoubleValue
2.667

@<SCITEGIC>MOL_PROPERTY
Pdih
SciTegic.value.DoubleValue
4.660

@<SCITEGIC>MOL_PROPERTY
Idih
SciTegic.value.DoubleValue
0.001

@<SCITEGIC>MOL_PROPERTY
Tether
SciTegic.value.DoubleValue
0.000

@<TRIPOS>MOLECULE
guest-7_confgen4.mol2 : confsearch ligand conformer 219
          19          18           1
SMALL
USER_CHARGES
 
@<TRIPOS>ATOM
       1    C1      22.492655   20.083469   21.334734 C.2        1 MOL1         0.6115
       2    O1      22.673067   21.070769   20.649816 O.co2      1 MOL1        -0.6776
       3    O2      23.336948   19.612795   22.070910 O.co2      1 MOL1        -0.6776
       4    C2      21.125976   19.410012   21.281220 C.3        1 MOL1        -0.2013
       5    H1      21.277056   18.335611   21.436125 H          1 MOL1         0.0727
       6    H2      20.720882   19.540177   20.270621 H          1 MOL1         0.0727
       7    C3      20.135698   19.976417   22.331517 C.3        1 MOL1        -0.1910
       8    H3      20.533709   19.806411   23.340706 H          1 MOL1         0.0729
       9    H4      20.076598   21.066597   22.208169 H          1 MOL1         0.0729
      10    C4      18.706622   19.389104   22.215178 C.3        1 MOL1        -0.1909
      11    H5      18.289614   19.659378   21.235459 H          1 MOL1         0.0729
      12    H6      18.064126   19.874526   22.962404 H          1 MOL1         0.0729
      13    C5      18.607715   17.853907   22.392062 C.3        1 MOL1        -0.1884
      14    H7      17.556870   17.555568   22.274590 H          1 MOL1         0.0729
      15    H8      19.158887   17.343512   21.591240 H          1 MOL1         0.0729
      16    C6      19.112277   17.362965   23.766030 C.3        1 MOL1        -0.2899
      17    H9      18.590103   17.877487   24.583118 H          1 MOL1         0.0741
      18    H10     18.936404   16.285224   23.877198 H          1 MOL1         0.0741
      19    H11     20.189580   17.537638   23.880801 H          1 MOL1         0.0741
@<TRIPOS>BOND
    1     1     2    1
    2     1     3    2
    3     1     4    1
    4     4     5    1
    5     4     6    1
    6     4     7    1
    7     7     8    1
    8     7     9    1
    9     7    10    1
   10    10    11    1
   11    10    12    1
   12    10    13    1
   13    13    14    1
   14    13    15    1
   15    13    16    1
   16    16    17    1
   17    16    18    1
   18    16    19    1
@<TRIPOS>SUBSTRUCTURE
       1 MOL1            1 RESIDUE      1      MOL     
@<SCITEGIC>MOL_PROPERTY
VConf Rank
SciTegic.value.IntegerValue
219

@<SCITEGIC>MOL_PROPERTY
Conf_Id
SciTegic.value.IntegerValue
67

@<SCITEGIC>MOL_PROPERTY
Delta U+W
SciTegic.value.DoubleValue
0.308

@<SCITEGIC>MOL_PROPERTY
U+W
SciTegic.value.DoubleValue
-54.583

@<SCITEGIC>MOL_PROPERTY
Grad RMS
SciTegic.value.DoubleValue
0.000000

@<SCITEGIC>MOL_PROPERTY
U
SciTegic.value.DoubleValue
8.219

@<SCITEGIC>MOL_PROPERTY
W
SciTegic.value.DoubleValue
-62.802

@<SCITEGIC>MOL_PROPERTY
W(PB)
SciTegic.value.DoubleValue
-64.859

@<SCITEGIC>MOL_PROPERTY
W(SA)
SciTegic.value.DoubleValue
2.057

@<SCITEGIC>MOL_PROPERTY
Valence
SciTegic.value.DoubleValue
7.609

@<SCITEGIC>MOL_PROPERTY
Coulomb
SciTegic.value.DoubleValue
-0.089

@<SCITEGIC>MOL_PROPERTY
VdW
SciTegic.value.DoubleValue
0.699

@<SCITEGIC>MOL_PROPERTY
VdW6
SciTegic.value.DoubleValue
-6.924

@<SCITEGIC>MOL_PROPERTY
VdW12
SciTegic.value.DoubleValue
7.623

@<SCITEGIC>MOL_PROPERTY
Bond
SciTegic.value.DoubleValue
0.163

@<SCITEGIC>MOL_PROPERTY
Angle
SciTegic.value.DoubleValue
2.870

@<SCITEGIC>MOL_PROPERTY
Pdih
SciTegic.value.DoubleValue
4.576

@<SCITEGIC>MOL_PROPERTY
Idih
SciTegic.value.DoubleValue
0.001

@<SCITEGIC>MOL_PROPERTY
Tether
SciTegic.value.DoubleValue
0.000

@<TRIPOS>MOLECULE
guest-7_confgen4.mol2 : confsearch ligand conformer 220
          19          18           1
SMALL
USER_CHARGES
 
@<TRIPOS>ATOM
       1    C1      17.296597   19.089255   21.139716 C.2        1 MOL1         0.6115
       2    O1      16.225843   18.797511   21.634482 O.co2      1 MOL1        -0.6776
       3    O2      17.493627   19.133188   19.941563 O.co2      1 MOL1        -0.6776
       4    C2      18.461165   19.397936   22.073908 C.3        1 MOL1        -0.2013
       5    H1      18.056611   19.860375   22.982117 H          1 MOL1         0.0727
       6    H2      19.094648   20.144873   21.582030 H          1 MOL1         0.0727
       7    C3      19.289115   18.138420   22.438195 C.3        1 MOL1        -0.1910
       8    H3      18.610311   17.375725   22.844052 H          1 MOL1         0.0729
       9    H4      19.720542   17.705942   21.525720 H          1 MOL1         0.0729
      10    C4      20.404102   18.409999   23.479240 C.3        1 MOL1        -0.1909
      11    H5      20.908233   17.461942   23.711231 H          1 MOL1         0.0729
      12    H6      19.940914   18.744486   24.417520 H          1 MOL1         0.0729
      13    C5      21.467918   19.450393   23.050552 C.3        1 MOL1        -0.1884
      14    H7      21.001881   20.435127   22.913737 H          1 MOL1         0.0729
      15    H8      22.191117   19.568378   23.869175 H          1 MOL1         0.0729
      16    C6      22.230325   19.052593   21.768410 C.3        1 MOL1        -0.2899
      17    H9      21.563315   19.035035   20.897171 H          1 MOL1         0.0741
      18    H10     23.031939   19.772604   21.559091 H          1 MOL1         0.0741
      19    H11     22.686060   18.059567   21.874400 H          1 MOL1         0.0741
@<TRIPOS>BOND
    1     1     2    1
    2     1     3    2
    3     1     4    1
    4     4     5    1
    5     4     6    1
    6     4     7    1
    7     7     8    1
    8     7     9    1
    9     7    10    1
   10    10    11    1
   11    10    12    1
   12    10    13    1
   13    13    14    1
   14    13    15    1
   15    13    16    1
   16    16    17    1
   17    16    18    1
   18    16    19    1
@<TRIPOS>SUBSTRUCTURE
       1 MOL1            1 RESIDUE      1      MOL     
@<SCITEGIC>MOL_PROPERTY
VConf Rank
SciTegic.value.IntegerValue
220

@<SCITEGIC>MOL_PROPERTY
Conf_Id
SciTegic.value.IntegerValue
21

@<SCITEGIC>MOL_PROPERTY
Delta U+W
SciTegic.value.DoubleValue
0.319

@<SCITEGIC>MOL_PROPERTY
U+W
SciTegic.value.DoubleValue
-54.572

@<SCITEGIC>MOL_PROPERTY
Grad RMS
SciTegic.value.DoubleValue
0.000000

@<SCITEGIC>MOL_PROPERTY
U
SciTegic.value.DoubleValue
8.220

@<SCITEGIC>MOL_PROPERTY
W
SciTegic.value.DoubleValue
-62.792

@<SCITEGIC>MOL_PROPERTY
W(PB)
SciTegic.value.DoubleValue
-64.830

@<SCITEGIC>MOL_PROPERTY
W(SA)
SciTegic.value.DoubleValue
2.038

@<SCITEGIC>MOL_PROPERTY
Valence
SciTegic.value.DoubleValue
7.609

@<SCITEGIC>MOL_PROPERTY
Coulomb
SciTegic.value.DoubleValue
-0.088

@<SCITEGIC>MOL_PROPERTY
VdW
SciTegic.value.DoubleValue
0.699

@<SCITEGIC>MOL_PROPERTY
VdW6
SciTegic.value.DoubleValue
-6.924

@<SCITEGIC>MOL_PROPERTY
VdW12
SciTegic.value.DoubleValue
7.623

@<SCITEGIC>MOL_PROPERTY
Bond
SciTegic.value.DoubleValue
0.163

@<SCITEGIC>MOL_PROPERTY
Angle
SciTegic.value.DoubleValue
2.870

@<SCITEGIC>MOL_PROPERTY
Pdih
SciTegic.value.DoubleValue
4.576

@<SCITEGIC>MOL_PROPERTY
Idih
SciTegic.value.DoubleValue
0.000

@<SCITEGIC>MOL_PROPERTY
Tether
SciTegic.value.DoubleValue
0.000

@<TRIPOS>MOLECULE
guest-7_confgen4.mol2 : confsearch ligand conformer 221
          19          18           1
SMALL
USER_CHARGES
 
@<TRIPOS>ATOM
       1    C1      22.645022   20.022886   22.606925 C.2        1 MOL1         0.6115
       2    O1      23.029686   21.009225   23.203254 O.co2      1 MOL1        -0.6776
       3    O2      23.363796   19.084507   22.325747 O.co2      1 MOL1        -0.6776
       4    C2      21.175915   19.951357   22.206065 C.3        1 MOL1        -0.2013
       5    H1      21.109772   19.383011   21.273096 H          1 MOL1         0.0727
       6    H2      20.836022   20.969942   21.983934 H          1 MOL1         0.0727
       7    C3      20.282631   19.321788   23.307554 C.3        1 MOL1        -0.1910
       8    H3      20.656774   18.323472   23.573381 H          1 MOL1         0.0729
       9    H4      20.380309   19.936047   24.213391 H          1 MOL1         0.0729
      10    C4      18.784243   19.247162   22.918695 C.3        1 MOL1        -0.1909
      11    H5      18.527217   20.066585   22.233580 H          1 MOL1         0.0729
      12    H6      18.187505   19.417725   23.825219 H          1 MOL1         0.0729
      13    C5      18.339196   17.891365   22.317317 C.3        1 MOL1        -0.1884
      14    H7      18.518417   17.088757   23.045985 H          1 MOL1         0.0729
      15    H8      17.252909   17.922095   22.155362 H          1 MOL1         0.0729
      16    C6      19.027196   17.534177   20.983613 C.3        1 MOL1        -0.2899
      17    H9      18.575073   16.633808   20.548027 H          1 MOL1         0.0741
      18    H10     18.925588   18.350121   20.256366 H          1 MOL1         0.0741
      19    H11     20.094604   17.328251   21.132046 H          1 MOL1         0.0741
@<TRIPOS>BOND
    1     1     2    1
    2     1     3    2
    3     1     4    1
    4     4     5    1
    5     4     6    1
    6     4     7    1
    7     7     8    1
    8     7     9    1
    9     7    10    1
   10    10    11    1
   11    10    12    1
   12    10    13    1
   13    13    14    1
   14    13    15    1
   15    13    16    1
   16    16    17    1
   17    16    18    1
   18    16    19    1
@<TRIPOS>SUBSTRUCTURE
       1 MOL1            1 RESIDUE      1      MOL     
@<SCITEGIC>MOL_PROPERTY
VConf Rank
SciTegic.value.IntegerValue
221

@<SCITEGIC>MOL_PROPERTY
Conf_Id
SciTegic.value.IntegerValue
24

@<SCITEGIC>MOL_PROPERTY
Delta U+W
SciTegic.value.DoubleValue
2.477

@<SCITEGIC>MOL_PROPERTY
U+W
SciTegic.value.DoubleValue
-52.414

@<SCITEGIC>MOL_PROPERTY
Grad RMS
SciTegic.value.DoubleValue
0.000000

@<SCITEGIC>MOL_PROPERTY
U
SciTegic.value.DoubleValue
10.422

@<SCITEGIC>MOL_PROPERTY
W
SciTegic.value.DoubleValue
-62.836

@<SCITEGIC>MOL_PROPERTY
W(PB)
SciTegic.value.DoubleValue
-64.906

@<SCITEGIC>MOL_PROPERTY
W(SA)
SciTegic.value.DoubleValue
2.070

@<SCITEGIC>MOL_PROPERTY
Valence
SciTegic.value.DoubleValue
9.628

@<SCITEGIC>MOL_PROPERTY
Coulomb
SciTegic.value.DoubleValue
0.101

@<SCITEGIC>MOL_PROPERTY
VdW
SciTegic.value.DoubleValue
0.693

@<SCITEGIC>MOL_PROPERTY
VdW6
SciTegic.value.DoubleValue
-6.927

@<SCITEGIC>MOL_PROPERTY
VdW12
SciTegic.value.DoubleValue
7.620

@<SCITEGIC>MOL_PROPERTY
Bond
SciTegic.value.DoubleValue
0.173

@<SCITEGIC>MOL_PROPERTY
Angle
SciTegic.value.DoubleValue
2.989

@<SCITEGIC>MOL_PROPERTY
Pdih
SciTegic.value.DoubleValue
6.465

@<SCITEGIC>MOL_PROPERTY
Idih
SciTegic.value.DoubleValue
0.001

@<SCITEGIC>MOL_PROPERTY
Tether
SciTegic.value.DoubleValue
0.000

@<TRIPOS>MOLECULE
guest-7_confgen4.mol2 : confsearch ligand conformer 222
          19          18           1
SMALL
USER_CHARGES
 
@<TRIPOS>ATOM
       1    C1      21.977234   18.088435   21.191692 C.2        1 MOL1         0.6115
       2    O1      22.107512   17.111087   21.901979 O.co2      1 MOL1        -0.6776
       3    O2      22.298409   18.113502   20.019816 O.co2      1 MOL1        -0.6776
       4    C2      21.407097   19.363005   21.808657 C.3        1 MOL1        -0.2013
       5    H1      22.071291   20.186555   21.521657 H          1 MOL1         0.0727
       6    H2      21.468078   19.276444   22.898162 H          1 MOL1         0.0727
       7    C3      19.957453   19.690532   21.354568 C.3        1 MOL1        -0.1910
       8    H3      19.690931   20.709138   21.667043 H          1 MOL1         0.0729
       9    H4      19.939174   19.697391   20.255862 H          1 MOL1         0.0729
      10    C4      18.888964   18.689228   21.865646 C.3        1 MOL1        -0.1909
      11    H5      19.326361   17.689103   21.989096 H          1 MOL1         0.0729
      12    H6      18.121030   18.583851   21.087214 H          1 MOL1         0.0729
      13    C5      18.173403   19.118353   23.170149 C.3        1 MOL1        -0.1884
      14    H7      17.662153   20.077982   23.012236 H          1 MOL1         0.0729
      15    H8      17.386903   18.384285   23.393124 H          1 MOL1         0.0729
      16    C6      19.105645   19.229653   24.394115 C.3        1 MOL1        -0.2899
      17    H9      19.803572   20.068856   24.284599 H          1 MOL1         0.0741
      18    H10     18.521544   19.402576   25.307188 H          1 MOL1         0.0741
      19    H11     19.686051   18.307885   24.531804 H          1 MOL1         0.0741
@<TRIPOS>BOND
    1     1     2    1
    2     1     3    2
    3     1     4    1
    4     4     5    1
    5     4     6    1
    6     4     7    1
    7     7     8    1
    8     7     9    1
    9     7    10    1
   10    10    11    1
   11    10    12    1
   12    10    13    1
   13    13    14    1
   14    13    15    1
   15    13    16    1
   16    16    17    1
   17    16    18    1
   18    16    19    1
@<TRIPOS>SUBSTRUCTURE
       1 MOL1            1 RESIDUE      1      MOL     
@<SCITEGIC>MOL_PROPERTY
VConf Rank
SciTegic.value.IntegerValue
222

@<SCITEGIC>MOL_PROPERTY
Conf_Id
SciTegic.value.IntegerValue
4

@<SCITEGIC>MOL_PROPERTY
Delta U+W
SciTegic.value.DoubleValue
3.753

@<SCITEGIC>MOL_PROPERTY
U+W
SciTegic.value.DoubleValue
-51.138

@<SCITEGIC>MOL_PROPERTY
Grad RMS
SciTegic.value.DoubleValue
0.000000

@<SCITEGIC>MOL_PROPERTY
U
SciTegic.value.DoubleValue
12.334

@<SCITEGIC>MOL_PROPERTY
W
SciTegic.value.DoubleValue
-63.472

@<SCITEGIC>MOL_PROPERTY
W(PB)
SciTegic.value.DoubleValue
-65.500

@<SCITEGIC>MOL_PROPERTY
W(SA)
SciTegic.value.DoubleValue
2.028

@<SCITEGIC>MOL_PROPERTY
Valence
SciTegic.value.DoubleValue
9.984

@<SCITEGIC>MOL_PROPERTY
Coulomb
SciTegic.value.DoubleValue
1.767

@<SCITEGIC>MOL_PROPERTY
VdW
SciTegic.value.DoubleValue
0.583

@<SCITEGIC>MOL_PROPERTY
VdW6
SciTegic.value.DoubleValue
-7.767

@<SCITEGIC>MOL_PROPERTY
VdW12
SciTegic.value.DoubleValue
8.349

@<SCITEGIC>MOL_PROPERTY
Bond
SciTegic.value.DoubleValue
0.203

@<SCITEGIC>MOL_PROPERTY
Angle
SciTegic.value.DoubleValue
3.191

@<SCITEGIC>MOL_PROPERTY
Pdih
SciTegic.value.DoubleValue
6.589

@<SCITEGIC>MOL_PROPERTY
Idih
SciTegic.value.DoubleValue
0.001

@<SCITEGIC>MOL_PROPERTY
Tether
SciTegic.value.DoubleValue
0.000

@<TRIPOS>MOLECULE
guest-7_confgen4.mol2 : confsearch ligand conformer 223
          19          18           1
SMALL
USER_CHARGES
 
@<TRIPOS>ATOM
       1    C1      22.464993   18.581582   22.899540 C.2        1 MOL1         0.6115
       2    O1      23.371472   19.389823   22.945533 O.co2      1 MOL1        -0.6776
       3    O2      22.335665   17.672915   23.695964 O.co2      1 MOL1        -0.6776
       4    C2      21.453222   18.699474   21.762592 C.3        1 MOL1        -0.2013
       5    H1      20.914706   17.750069   21.679780 H          1 MOL1         0.0727
       6    H2      22.022864   18.819162   20.833647 H          1 MOL1         0.0727
       7    C3      20.466280   19.889923   21.916587 C.3        1 MOL1        -0.1910
       8    H3      21.057599   20.804273   22.064375 H          1 MOL1         0.0729
       9    H4      19.912068   20.037230   20.979900 H          1 MOL1         0.0729
      10    C4      19.470818   19.742682   23.096777 C.3        1 MOL1        -0.1909
      11    H5      19.290012   20.741664   23.516451 H          1 MOL1         0.0729
      12    H6      19.920856   19.155919   23.909168 H          1 MOL1         0.0729
      13    C5      18.095734   19.144204   22.710941 C.3        1 MOL1        -0.1884
      14    H7      17.447189   19.162681   23.597621 H          1 MOL1         0.0729
      15    H8      17.610882   19.785750   21.962249 H          1 MOL1         0.0729
      16    C6      18.163661   17.697649   22.179506 C.3        1 MOL1        -0.2899
      17    H9      18.710265   17.047943   22.875632 H          1 MOL1         0.0741
      18    H10     17.153564   17.286908   22.053912 H          1 MOL1         0.0741
      19    H11     18.660078   17.658362   21.202069 H          1 MOL1         0.0741
@<TRIPOS>BOND
    1     1     2    1
    2     1     3    2
    3     1     4    1
    4     4     5    1
    5     4     6    1
    6     4     7    1
    7     7     8    1
    8     7     9    1
    9     7    10    1
   10    10    11    1
   11    10    12    1
   12    10    13    1
   13    13    14    1
   14    13    15    1
   15    13    16    1
   16    16    17    1
   17    16    18    1
   18    16    19    1
@<TRIPOS>SUBSTRUCTURE
       1 MOL1            1 RESIDUE      1      MOL     
@<SCITEGIC>MOL_PROPERTY
VConf Rank
SciTegic.value.IntegerValue
223

@<SCITEGIC>MOL_PROPERTY
Conf_Id
SciTegic.value.IntegerValue
73

@<SCITEGIC>MOL_PROPERTY
Delta U+W
SciTegic.value.DoubleValue
3.707

@<SCITEGIC>MOL_PROPERTY
U+W
SciTegic.value.DoubleValue
-51.184

@<SCITEGIC>MOL_PROPERTY
Grad RMS
SciTegic.value.DoubleValue
0.000000

@<SCITEGIC>MOL_PROPERTY
U
SciTegic.value.DoubleValue
12.334

@<SCITEGIC>MOL_PROPERTY
W
SciTegic.value.DoubleValue
-63.519

@<SCITEGIC>MOL_PROPERTY
W(PB)
SciTegic.value.DoubleValue
-65.541

@<SCITEGIC>MOL_PROPERTY
W(SA)
SciTegic.value.DoubleValue
2.022

@<SCITEGIC>MOL_PROPERTY
Valence
SciTegic.value.DoubleValue
9.984

@<SCITEGIC>MOL_PROPERTY
Coulomb
SciTegic.value.DoubleValue
1.768

@<SCITEGIC>MOL_PROPERTY
VdW
SciTegic.value.DoubleValue
0.583

@<SCITEGIC>MOL_PROPERTY
VdW6
SciTegic.value.DoubleValue
-7.767

@<SCITEGIC>MOL_PROPERTY
VdW12
SciTegic.value.DoubleValue
8.350

@<SCITEGIC>MOL_PROPERTY
Bond
SciTegic.value.DoubleValue
0.203

@<SCITEGIC>MOL_PROPERTY
Angle
SciTegic.value.DoubleValue
3.192

@<SCITEGIC>MOL_PROPERTY
Pdih
SciTegic.value.DoubleValue
6.589

@<SCITEGIC>MOL_PROPERTY
Idih
SciTegic.value.DoubleValue
0.001

@<SCITEGIC>MOL_PROPERTY
Tether
SciTegic.value.DoubleValue
0.000

@<TRIPOS>MOLECULE
guest-7_confgen4.mol2 : confsearch ligand conformer 224
          19          18           1
SMALL
USER_CHARGES
 
@<TRIPOS>ATOM
       1    C1      19.149946   16.534693   22.544886 C.2        1 MOL1         0.6115
       2    O1      20.217352   16.109057   22.940098 O.co2      1 MOL1        -0.6776
       3    O2      18.077493   16.068411   22.875923 O.co2      1 MOL1        -0.6776
       4    C2      19.154347   17.696165   21.554791 C.3        1 MOL1        -0.2013
       5    H1      18.513723   17.409641   20.712665 H          1 MOL1         0.0727
       6    H2      20.166575   17.809628   21.150050 H          1 MOL1         0.0727
       7    C3      18.650516   19.039553   22.149544 C.3        1 MOL1        -0.1910
       8    H3      18.616576   19.796514   21.355363 H          1 MOL1         0.0729
       9    H4      17.612641   18.908166   22.485200 H          1 MOL1         0.0729
      10    C4      19.492600   19.569383   23.338774 C.3        1 MOL1        -0.1909
      11    H5      19.420013   18.858994   24.173735 H          1 MOL1         0.0729
      12    H6      19.043963   20.505092   23.699005 H          1 MOL1         0.0729
      13    C5      20.988771   19.818622   23.028015 C.3        1 MOL1        -0.1884
      14    H7      21.481455   20.173119   23.943707 H          1 MOL1         0.0729
      15    H8      21.482219   18.873008   22.765780 H          1 MOL1         0.0729
      16    C6      21.216772   20.856081   21.907584 C.3        1 MOL1        -0.2899
      17    H9      20.838979   20.491865   20.943981 H          1 MOL1         0.0741
      18    H10     20.712623   21.802954   22.140562 H          1 MOL1         0.0741
      19    H11     22.288068   21.063100   21.788160 H          1 MOL1         0.0741
@<TRIPOS>BOND
    1     1     2    1
    2     1     3    2
    3     1     4    1
    4     4     5    1
    5     4     6    1
    6     4     7    1
    7     7     8    1
    8     7     9    1
    9     7    10    1
   10    10    11    1
   11    10    12    1
   12    10    13    1
   13    13    14    1
   14    13    15    1
   15    13    16    1
   16    16    17    1
   17    16    18    1
   18    16    19    1
@<TRIPOS>SUBSTRUCTURE
       1 MOL1            1 RESIDUE      1      MOL     
@<SCITEGIC>MOL_PROPERTY
VConf Rank
SciTegic.value.IntegerValue
224

@<SCITEGIC>MOL_PROPERTY
Conf_Id
SciTegic.value.IntegerValue
56

@<SCITEGIC>MOL_PROPERTY
Delta U+W
SciTegic.value.DoubleValue
1.735

@<SCITEGIC>MOL_PROPERTY
U+W
SciTegic.value.DoubleValue
-53.156

@<SCITEGIC>MOL_PROPERTY
Grad RMS
SciTegic.value.DoubleValue
0.000000

@<SCITEGIC>MOL_PROPERTY
U
SciTegic.value.DoubleValue
10.214

@<SCITEGIC>MOL_PROPERTY
W
SciTegic.value.DoubleValue
-63.370

@<SCITEGIC>MOL_PROPERTY
W(PB)
SciTegic.value.DoubleValue
-65.388

@<SCITEGIC>MOL_PROPERTY
W(SA)
SciTegic.value.DoubleValue
2.018

@<SCITEGIC>MOL_PROPERTY
Valence
SciTegic.value.DoubleValue
7.868

@<SCITEGIC>MOL_PROPERTY
Coulomb
SciTegic.value.DoubleValue
1.968

@<SCITEGIC>MOL_PROPERTY
VdW
SciTegic.value.DoubleValue
0.378

@<SCITEGIC>MOL_PROPERTY
VdW6
SciTegic.value.DoubleValue
-8.067

@<SCITEGIC>MOL_PROPERTY
VdW12
SciTegic.value.DoubleValue
8.445

@<SCITEGIC>MOL_PROPERTY
Bond
SciTegic.value.DoubleValue
0.191

@<SCITEGIC>MOL_PROPERTY
Angle
SciTegic.value.DoubleValue
3.117

@<SCITEGIC>MOL_PROPERTY
Pdih
SciTegic.value.DoubleValue
4.559

@<SCITEGIC>MOL_PROPERTY
Idih
SciTegic.value.DoubleValue
0.001

@<SCITEGIC>MOL_PROPERTY
Tether
SciTegic.value.DoubleValue
0.000

@<TRIPOS>MOLECULE
guest-7_confgen4.mol2 : confsearch ligand conformer 225
          19          18           1
SMALL
USER_CHARGES
 
@<TRIPOS>ATOM
       1    C1      22.688028   17.932474   21.982241 C.2        1 MOL1         0.6115
       2    O1      23.350961   17.525169   22.915507 O.co2      1 MOL1        -0.6776
       3    O2      23.145062   18.150005   20.877626 O.co2      1 MOL1        -0.6776
       4    C2      21.206540   18.205842   22.216118 C.3        1 MOL1        -0.2013
       5    H1      20.844882   17.501408   22.974639 H          1 MOL1         0.0727
       6    H2      20.677586   17.986095   21.282079 H          1 MOL1         0.0727
       7    C3      20.927622   19.663409   22.661850 C.3        1 MOL1        -0.1910
       8    H3      21.578183   19.900600   23.515026 H          1 MOL1         0.0729
       9    H4      21.217131   20.350075   21.854465 H          1 MOL1         0.0729
      10    C4      19.459183   19.935523   23.074324 C.3        1 MOL1        -0.1909
      11    H5      19.400458   20.977438   23.417744 H          1 MOL1         0.0729
      12    H6      19.190951   19.319402   23.943488 H          1 MOL1         0.0729
      13    C5      18.422205   19.743090   21.939973 C.3        1 MOL1        -0.1884
      14    H7      17.630879   20.496382   22.056996 H          1 MOL1         0.0729
      15    H8      18.885729   19.936585   20.962725 H          1 MOL1         0.0729
      16    C6      17.757422   18.348578   21.951264 C.3        1 MOL1        -0.2899
      17    H9      17.020418   18.268622   21.141753 H          1 MOL1         0.0741
      18    H10     18.490025   17.544978   21.816586 H          1 MOL1         0.0741
      19    H11     17.233557   18.173821   22.900030 H          1 MOL1         0.0741
@<TRIPOS>BOND
    1     1     2    1
    2     1     3    2
    3     1     4    1
    4     4     5    1
    5     4     6    1
    6     4     7    1
    7     7     8    1
    8     7     9    1
    9     7    10    1
   10    10    11    1
   11    10    12    1
   12    10    13    1
   13    13    14    1
   14    13    15    1
   15    13    16    1
   16    16    17    1
   17    16    18    1
   18    16    19    1
@<TRIPOS>SUBSTRUCTURE
       1 MOL1            1 RESIDUE      1      MOL     
@<SCITEGIC>MOL_PROPERTY
VConf Rank
SciTegic.value.IntegerValue
225

@<SCITEGIC>MOL_PROPERTY
Conf_Id
SciTegic.value.IntegerValue
53

@<SCITEGIC>MOL_PROPERTY
Delta U+W
SciTegic.value.DoubleValue
2.279

@<SCITEGIC>MOL_PROPERTY
U+W
SciTegic.value.DoubleValue
-52.612

@<SCITEGIC>MOL_PROPERTY
Grad RMS
SciTegic.value.DoubleValue
0.000000

@<SCITEGIC>MOL_PROPERTY
U
SciTegic.value.DoubleValue
10.231

@<SCITEGIC>MOL_PROPERTY
W
SciTegic.value.DoubleValue
-62.843

@<SCITEGIC>MOL_PROPERTY
W(PB)
SciTegic.value.DoubleValue
-64.893

@<SCITEGIC>MOL_PROPERTY
W(SA)
SciTegic.value.DoubleValue
2.050

@<SCITEGIC>MOL_PROPERTY
Valence
SciTegic.value.DoubleValue
9.644

@<SCITEGIC>MOL_PROPERTY
Coulomb
SciTegic.value.DoubleValue
-0.164

@<SCITEGIC>MOL_PROPERTY
VdW
SciTegic.value.DoubleValue
0.751

@<SCITEGIC>MOL_PROPERTY
VdW6
SciTegic.value.DoubleValue
-6.881

@<SCITEGIC>MOL_PROPERTY
VdW12
SciTegic.value.DoubleValue
7.631

@<SCITEGIC>MOL_PROPERTY
Bond
SciTegic.value.DoubleValue
0.163

@<SCITEGIC>MOL_PROPERTY
Angle
SciTegic.value.DoubleValue
2.998

@<SCITEGIC>MOL_PROPERTY
Pdih
SciTegic.value.DoubleValue
6.482

@<SCITEGIC>MOL_PROPERTY
Idih
SciTegic.value.DoubleValue
0.001

@<SCITEGIC>MOL_PROPERTY
Tether
SciTegic.value.DoubleValue
0.000

@<TRIPOS>MOLECULE
guest-7_confgen4.mol2 : confsearch ligand conformer 226
          19          18           1
SMALL
USER_CHARGES
 
@<TRIPOS>ATOM
       1    C1      18.818924   19.870756   24.262721 C.2        1 MOL1         0.6115
       2    O1      19.622147   20.515399   24.907797 O.co2      1 MOL1        -0.6776
       3    O2      18.124440   18.995365   24.740874 O.co2      1 MOL1        -0.6776
       4    C2      18.623935   20.228907   22.790584 C.3        1 MOL1        -0.2013
       5    H1      19.282359   21.068740   22.537442 H          1 MOL1         0.0727
       6    H2      17.595822   20.597358   22.696504 H          1 MOL1         0.0727
       7    C3      18.834947   19.058784   21.788880 C.3        1 MOL1        -0.1910
       8    H3      18.336251   18.152866   22.160574 H          1 MOL1         0.0729
       9    H4      18.326559   19.319998   20.850943 H          1 MOL1         0.0729
      10    C4      20.314985   18.750415   21.452616 C.3        1 MOL1        -0.1909
      11    H5      20.805354   19.658040   21.075006 H          1 MOL1         0.0729
      12    H6      20.334337   18.023841   20.628769 H          1 MOL1         0.0729
      13    C5      21.124016   18.177831   22.637179 C.3        1 MOL1        -0.1884
      14    H7      21.231488   18.937288   23.422088 H          1 MOL1         0.0729
      15    H8      20.584422   17.330042   23.081577 H          1 MOL1         0.0729
      16    C6      22.527705   17.718571   22.193813 C.3        1 MOL1        -0.2899
      17    H9      23.097920   18.555026   21.768895 H          1 MOL1         0.0741
      18    H10     23.092216   17.322658   23.047995 H          1 MOL1         0.0741
      19    H11     22.461772   16.927474   21.435435 H          1 MOL1         0.0741
@<TRIPOS>BOND
    1     1     2    1
    2     1     3    2
    3     1     4    1
    4     4     5    1
    5     4     6    1
    6     4     7    1
    7     7     8    1
    8     7     9    1
    9     7    10    1
   10    10    11    1
   11    10    12    1
   12    10    13    1
   13    13    14    1
   14    13    15    1
   15    13    16    1
   16    16    17    1
   17    16    18    1
   18    16    19    1
@<TRIPOS>SUBSTRUCTURE
       1 MOL1            1 RESIDUE      1      MOL     
@<SCITEGIC>MOL_PROPERTY
VConf Rank
SciTegic.value.IntegerValue
226

@<SCITEGIC>MOL_PROPERTY
Conf_Id
SciTegic.value.IntegerValue
25

@<SCITEGIC>MOL_PROPERTY
Delta U+W
SciTegic.value.DoubleValue
2.065

@<SCITEGIC>MOL_PROPERTY
U+W
SciTegic.value.DoubleValue
-52.826

@<SCITEGIC>MOL_PROPERTY
Grad RMS
SciTegic.value.DoubleValue
0.000000

@<SCITEGIC>MOL_PROPERTY
U
SciTegic.value.DoubleValue
10.967

@<SCITEGIC>MOL_PROPERTY
W
SciTegic.value.DoubleValue
-63.794

@<SCITEGIC>MOL_PROPERTY
W(PB)
SciTegic.value.DoubleValue
-65.830

@<SCITEGIC>MOL_PROPERTY
W(SA)
SciTegic.value.DoubleValue
2.036

@<SCITEGIC>MOL_PROPERTY
Valence
SciTegic.value.DoubleValue
8.609

@<SCITEGIC>MOL_PROPERTY
Coulomb
SciTegic.value.DoubleValue
1.892

@<SCITEGIC>MOL_PROPERTY
VdW
SciTegic.value.DoubleValue
0.467

@<SCITEGIC>MOL_PROPERTY
VdW6
SciTegic.value.DoubleValue
-7.569

@<SCITEGIC>MOL_PROPERTY
VdW12
SciTegic.value.DoubleValue
8.036

@<SCITEGIC>MOL_PROPERTY
Bond
SciTegic.value.DoubleValue
0.170

@<SCITEGIC>MOL_PROPERTY
Angle
SciTegic.value.DoubleValue
3.195

@<SCITEGIC>MOL_PROPERTY
Pdih
SciTegic.value.DoubleValue
5.237

@<SCITEGIC>MOL_PROPERTY
Idih
SciTegic.value.DoubleValue
0.007

@<SCITEGIC>MOL_PROPERTY
Tether
SciTegic.value.DoubleValue
0.000

@<TRIPOS>MOLECULE
guest-7_confgen4.mol2 : confsearch ligand conformer 227
          19          18           1
SMALL
USER_CHARGES
 
@<TRIPOS>ATOM
       1    C1      22.114676   18.439474   23.802527 C.2        1 MOL1         0.6115
       2    O1      21.865407   18.653297   24.972737 O.co2      1 MOL1        -0.6776
       3    O2      22.976856   19.030629   23.182823 O.co2      1 MOL1        -0.6776
       4    C2      21.354192   17.321885   23.091089 C.3        1 MOL1        -0.2013
       5    H1      21.613006   16.392766   23.612028 H          1 MOL1         0.0727
       6    H2      21.737235   17.224834   22.067965 H          1 MOL1         0.0727
       7    C3      19.807389   17.477565   23.074081 C.3        1 MOL1        -0.1910
       8    H3      19.369453   16.488242   22.884687 H          1 MOL1         0.0729
       9    H4      19.450385   17.780598   24.068195 H          1 MOL1         0.0729
      10    C4      19.263936   18.447683   21.996024 C.3        1 MOL1        -0.1909
      11    H5      18.169243   18.357049   21.974938 H          1 MOL1         0.0729
      12    H6      19.618497   18.134874   21.004422 H          1 MOL1         0.0729
      13    C5      19.633899   19.927846   22.236483 C.3        1 MOL1        -0.1884
      14    H7      19.371592   20.215137   23.264128 H          1 MOL1         0.0729
      15    H8      20.717269   20.067398   22.130463 H          1 MOL1         0.0729
      16    C6      18.912605   20.859773   21.241956 C.3        1 MOL1        -0.2899
      17    H9      19.192626   21.906074   21.420523 H          1 MOL1         0.0741
      18    H10     19.178584   20.609539   20.206583 H          1 MOL1         0.0741
      19    H11     17.822693   20.778389   21.345818 H          1 MOL1         0.0741
@<TRIPOS>BOND
    1     1     2    1
    2     1     3    2
    3     1     4    1
    4     4     5    1
    5     4     6    1
    6     4     7    1
    7     7     8    1
    8     7     9    1
    9     7    10    1
   10    10    11    1
   11    10    12    1
   12    10    13    1
   13    13    14    1
   14    13    15    1
   15    13    16    1
   16    16    17    1
   17    16    18    1
   18    16    19    1
@<TRIPOS>SUBSTRUCTURE
       1 MOL1            1 RESIDUE      1      MOL     
@<SCITEGIC>MOL_PROPERTY
VConf Rank
SciTegic.value.IntegerValue
227

@<SCITEGIC>MOL_PROPERTY
Conf_Id
SciTegic.value.IntegerValue
52

@<SCITEGIC>MOL_PROPERTY
Delta U+W
SciTegic.value.DoubleValue
2.070

@<SCITEGIC>MOL_PROPERTY
U+W
SciTegic.value.DoubleValue
-52.822

@<SCITEGIC>MOL_PROPERTY
Grad RMS
SciTegic.value.DoubleValue
0.000000

@<SCITEGIC>MOL_PROPERTY
U
SciTegic.value.DoubleValue
10.967

@<SCITEGIC>MOL_PROPERTY
W
SciTegic.value.DoubleValue
-63.789

@<SCITEGIC>MOL_PROPERTY
W(PB)
SciTegic.value.DoubleValue
-65.837

@<SCITEGIC>MOL_PROPERTY
W(SA)
SciTegic.value.DoubleValue
2.048

@<SCITEGIC>MOL_PROPERTY
Valence
SciTegic.value.DoubleValue
8.609

@<SCITEGIC>MOL_PROPERTY
Coulomb
SciTegic.value.DoubleValue
1.892

@<SCITEGIC>MOL_PROPERTY
VdW
SciTegic.value.DoubleValue
0.467

@<SCITEGIC>MOL_PROPERTY
VdW6
SciTegic.value.DoubleValue
-7.569

@<SCITEGIC>MOL_PROPERTY
VdW12
SciTegic.value.DoubleValue
8.035

@<SCITEGIC>MOL_PROPERTY
Bond
SciTegic.value.DoubleValue
0.170

@<SCITEGIC>MOL_PROPERTY
Angle
SciTegic.value.DoubleValue
3.196

@<SCITEGIC>MOL_PROPERTY
Pdih
SciTegic.value.DoubleValue
5.237

@<SCITEGIC>MOL_PROPERTY
Idih
SciTegic.value.DoubleValue
0.007

@<SCITEGIC>MOL_PROPERTY
Tether
SciTegic.value.DoubleValue
0.000

@<TRIPOS>MOLECULE
guest-7_confgen4.mol2 : confsearch ligand conformer 228
          19          18           1
SMALL
USER_CHARGES
 
@<TRIPOS>ATOM
       1    C1      19.235252   20.399726   23.997709 C.2        1 MOL1         0.6115
       2    O1      18.374876   21.072513   23.463642 O.co2      1 MOL1        -0.6776
       3    O2      19.100288   19.896972   25.095763 O.co2      1 MOL1        -0.6776
       4    C2      20.600784   20.280441   23.319127 C.3        1 MOL1        -0.2013
       5    H1      21.197593   19.526930   23.846933 H          1 MOL1         0.0727
       6    H2      21.102134   21.242222   23.476924 H          1 MOL1         0.0727
       7    C3      20.573499   19.972786   21.794668 C.3        1 MOL1        -0.1910
       8    H3      19.776985   20.552991   21.308654 H          1 MOL1         0.0729
       9    H4      21.514045   20.337514   21.360269 H          1 MOL1         0.0729
      10    C4      20.438273   18.474373   21.420970 C.3        1 MOL1        -0.1909
      11    H5      21.290257   17.909034   21.822906 H          1 MOL1         0.0729
      12    H6      20.522387   18.398570   20.328201 H          1 MOL1         0.0729
      13    C5      19.105132   17.811996   21.845214 C.3        1 MOL1        -0.1884
      14    H7      18.324457   18.573026   21.982093 H          1 MOL1         0.0729
      15    H8      18.756844   17.162435   21.030405 H          1 MOL1         0.0729
      16    C6      19.244614   16.951057   23.118968 C.3        1 MOL1        -0.2899
      17    H9      19.950434   16.125879   22.958233 H          1 MOL1         0.0741
      18    H10     19.604929   17.544283   23.967488 H          1 MOL1         0.0741
      19    H11     18.275948   16.517476   23.398813 H          1 MOL1         0.0741
@<TRIPOS>BOND
    1     1     2    1
    2     1     3    2
    3     1     4    1
    4     4     5    1
    5     4     6    1
    6     4     7    1
    7     7     8    1
    8     7     9    1
    9     7    10    1
   10    10    11    1
   11    10    12    1
   12    10    13    1
   13    13    14    1
   14    13    15    1
   15    13    16    1
   16    16    17    1
   17    16    18    1
   18    16    19    1
@<TRIPOS>SUBSTRUCTURE
       1 MOL1            1 RESIDUE      1      MOL     
@<SCITEGIC>MOL_PROPERTY
VConf Rank
SciTegic.value.IntegerValue
228

@<SCITEGIC>MOL_PROPERTY
Conf_Id
SciTegic.value.IntegerValue
66

@<SCITEGIC>MOL_PROPERTY
Delta U+W
SciTegic.value.DoubleValue
5.819

@<SCITEGIC>MOL_PROPERTY
U+W
SciTegic.value.DoubleValue
-49.072

@<SCITEGIC>MOL_PROPERTY
Grad RMS
SciTegic.value.DoubleValue
0.000000

@<SCITEGIC>MOL_PROPERTY
U
SciTegic.value.DoubleValue
15.324

@<SCITEGIC>MOL_PROPERTY
W
SciTegic.value.DoubleValue
-64.396

@<SCITEGIC>MOL_PROPERTY
W(PB)
SciTegic.value.DoubleValue
-66.382

@<SCITEGIC>MOL_PROPERTY
W(SA)
SciTegic.value.DoubleValue
1.986

@<SCITEGIC>MOL_PROPERTY
Valence
SciTegic.value.DoubleValue
11.748

@<SCITEGIC>MOL_PROPERTY
Coulomb
SciTegic.value.DoubleValue
3.201

@<SCITEGIC>MOL_PROPERTY
VdW
SciTegic.value.DoubleValue
0.375

@<SCITEGIC>MOL_PROPERTY
VdW6
SciTegic.value.DoubleValue
-8.854

@<SCITEGIC>MOL_PROPERTY
VdW12
SciTegic.value.DoubleValue
9.229

@<SCITEGIC>MOL_PROPERTY
Bond
SciTegic.value.DoubleValue
0.216

@<SCITEGIC>MOL_PROPERTY
Angle
SciTegic.value.DoubleValue
3.812

@<SCITEGIC>MOL_PROPERTY
Pdih
SciTegic.value.DoubleValue
7.699

@<SCITEGIC>MOL_PROPERTY
Idih
SciTegic.value.DoubleValue
0.022

@<SCITEGIC>MOL_PROPERTY
Tether
SciTegic.value.DoubleValue
0.000

@<TRIPOS>MOLECULE
guest-7_confgen4.mol2 : confsearch ligand conformer 229
          19          18           1
SMALL
USER_CHARGES
 
@<TRIPOS>ATOM
       1    C1      20.393760   17.564119   25.247482 C.2        1 MOL1         0.6115
       2    O1      19.981543   16.668319   25.956906 O.co2      1 MOL1        -0.6776
       3    O2      21.248857   18.351875   25.603002 O.co2      1 MOL1        -0.6776
       4    C2      19.788934   17.680417   23.847362 C.3        1 MOL1        -0.2013
       5    H1      18.705366   17.796397   23.967688 H          1 MOL1         0.0727
       6    H2      19.954624   16.723305   23.338901 H          1 MOL1         0.0727
       7    C3      20.346660   18.838918   22.978312 C.3        1 MOL1        -0.1910
       8    H3      20.182751   19.794271   23.495905 H          1 MOL1         0.0729
       9    H4      21.433327   18.720080   22.866507 H          1 MOL1         0.0729
      10    C4      19.682725   18.882403   21.584912 C.3        1 MOL1        -0.1909
      11    H5      18.596428   19.001068   21.699049 H          1 MOL1         0.0729
      12    H6      19.847705   17.926336   21.069289 H          1 MOL1         0.0729
      13    C5      20.238527   20.034775   20.722637 C.3        1 MOL1        -0.1884
      14    H7      20.073713   20.993218   21.234218 H          1 MOL1         0.0729
      15    H8      21.324811   19.918553   20.604431 H          1 MOL1         0.0729
      16    C6      19.573410   20.075236   19.332324 C.3        1 MOL1        -0.2899
      17    H9      18.488938   20.222486   19.419843 H          1 MOL1         0.0741
      18    H10     19.980134   20.900037   18.732834 H          1 MOL1         0.0741
      19    H11     19.749442   19.139709   18.785311 H          1 MOL1         0.0741
@<TRIPOS>BOND
    1     1     2    1
    2     1     3    2
    3     1     4    1
    4     4     5    1
    5     4     6    1
    6     4     7    1
    7     7     8    1
    8     7     9    1
    9     7    10    1
   10    10    11    1
   11    10    12    1
   12    10    13    1
   13    13    14    1
   14    13    15    1
   15    13    16    1
   16    16    17    1
   17    16    18    1
   18    16    19    1
@<TRIPOS>SUBSTRUCTURE
       1 MOL1            1 RESIDUE      1      MOL     
@<SCITEGIC>MOL_PROPERTY
VConf Rank
SciTegic.value.IntegerValue
229

@<SCITEGIC>MOL_PROPERTY
Conf_Id
SciTegic.value.IntegerValue
0

@<SCITEGIC>MOL_PROPERTY
Delta U+W
SciTegic.value.DoubleValue
0.000

@<SCITEGIC>MOL_PROPERTY
U+W
SciTegic.value.DoubleValue
-54.891

@<SCITEGIC>MOL_PROPERTY
Grad RMS
SciTegic.value.DoubleValue
0.000000

@<SCITEGIC>MOL_PROPERTY
U
SciTegic.value.DoubleValue
6.966

@<SCITEGIC>MOL_PROPERTY
W
SciTegic.value.DoubleValue
-61.857

@<SCITEGIC>MOL_PROPERTY
W(PB)
SciTegic.value.DoubleValue
-63.965

@<SCITEGIC>MOL_PROPERTY
W(SA)
SciTegic.value.DoubleValue
2.108

@<SCITEGIC>MOL_PROPERTY
Valence
SciTegic.value.DoubleValue
7.175

@<SCITEGIC>MOL_PROPERTY
Coulomb
SciTegic.value.DoubleValue
-1.360

@<SCITEGIC>MOL_PROPERTY
VdW
SciTegic.value.DoubleValue
1.151

@<SCITEGIC>MOL_PROPERTY
VdW6
SciTegic.value.DoubleValue
-5.641

@<SCITEGIC>MOL_PROPERTY
VdW12
SciTegic.value.DoubleValue
6.792

@<SCITEGIC>MOL_PROPERTY
Bond
SciTegic.value.DoubleValue
0.119

@<SCITEGIC>MOL_PROPERTY
Angle
SciTegic.value.DoubleValue
2.715

@<SCITEGIC>MOL_PROPERTY
Pdih
SciTegic.value.DoubleValue
4.340

@<SCITEGIC>MOL_PROPERTY
Idih
SciTegic.value.DoubleValue
0.000

@<SCITEGIC>MOL_PROPERTY
Tether
SciTegic.value.DoubleValue
0.000

@<TRIPOS>MOLECULE
guest-7_confgen4.mol2 : confsearch ligand conformer 230
          19          18           1
SMALL
USER_CHARGES
 
@<TRIPOS>ATOM
       1    C1      19.442838   22.256506   22.608762 C.2        1 MOL1         0.6115
       2    O1      18.284465   22.591284   22.758016 O.co2      1 MOL1        -0.6776
       3    O2      20.382517   22.845869   23.104581 O.co2      1 MOL1        -0.6776
       4    C2      19.731835   21.016631   21.769978 C.3        1 MOL1        -0.2013
       5    H1      20.697717   21.160287   21.270803 H          1 MOL1         0.0727
       6    H2      18.968344   20.950198   20.985496 H          1 MOL1         0.0727
       7    C3      19.751878   19.714246   22.607538 C.3        1 MOL1        -0.1910
       8    H3      20.512245   19.801637   23.396052 H          1 MOL1         0.0729
       9    H4      18.782774   19.591621   23.110877 H          1 MOL1         0.0729
      10    C4      20.046192   18.474648   21.735527 C.3        1 MOL1        -0.1909
      11    H5      21.014897   18.600883   21.232667 H          1 MOL1         0.0729
      12    H6      19.285129   18.390778   20.947528 H          1 MOL1         0.0729
      13    C5      20.065626   17.178721   22.572527 C.3        1 MOL1        -0.1884
      14    H7      20.827105   17.257989   23.360790 H          1 MOL1         0.0729
      15    H8      19.097495   17.047854   23.075606 H          1 MOL1         0.0729
      16    C6      20.359831   15.943075   21.698698 C.3        1 MOL1        -0.2899
      17    H9      20.369970   15.030950   22.309462 H          1 MOL1         0.0741
      18    H10     19.595118   15.821343   20.920354 H          1 MOL1         0.0741
      19    H11     21.337682   16.033082   21.207647 H          1 MOL1         0.0741
@<TRIPOS>BOND
    1     1     2    1
    2     1     3    2
    3     1     4    1
    4     4     5    1
    5     4     6    1
    6     4     7    1
    7     7     8    1
    8     7     9    1
    9     7    10    1
   10    10    11    1
   11    10    12    1
   12    10    13    1
   13    13    14    1
   14    13    15    1
   15    13    16    1
   16    16    17    1
   17    16    18    1
   18    16    19    1
@<TRIPOS>SUBSTRUCTURE
       1 MOL1            1 RESIDUE      1      MOL     
@<SCITEGIC>MOL_PROPERTY
VConf Rank
SciTegic.value.IntegerValue
230

@<SCITEGIC>MOL_PROPERTY
Conf_Id
SciTegic.value.IntegerValue
18

@<SCITEGIC>MOL_PROPERTY
Delta U+W
SciTegic.value.DoubleValue
-1.199

@<SCITEGIC>MOL_PROPERTY
U+W
SciTegic.value.DoubleValue
-56.090

@<SCITEGIC>MOL_PROPERTY
Grad RMS
SciTegic.value.DoubleValue
0.000000

@<SCITEGIC>MOL_PROPERTY
U
SciTegic.value.DoubleValue
5.975

@<SCITEGIC>MOL_PROPERTY
W
SciTegic.value.DoubleValue
-62.066

@<SCITEGIC>MOL_PROPERTY
W(PB)
SciTegic.value.DoubleValue
-64.219

@<SCITEGIC>MOL_PROPERTY
W(SA)
SciTegic.value.DoubleValue
2.153

@<SCITEGIC>MOL_PROPERTY
Valence
SciTegic.value.DoubleValue
6.673

@<SCITEGIC>MOL_PROPERTY
Coulomb
SciTegic.value.DoubleValue
-1.307

@<SCITEGIC>MOL_PROPERTY
VdW
SciTegic.value.DoubleValue
0.610

@<SCITEGIC>MOL_PROPERTY
VdW6
SciTegic.value.DoubleValue
-5.351

@<SCITEGIC>MOL_PROPERTY
VdW12
SciTegic.value.DoubleValue
5.961

@<SCITEGIC>MOL_PROPERTY
Bond
SciTegic.value.DoubleValue
0.086

@<SCITEGIC>MOL_PROPERTY
Angle
SciTegic.value.DoubleValue
2.253

@<SCITEGIC>MOL_PROPERTY
Pdih
SciTegic.value.DoubleValue
4.333

@<SCITEGIC>MOL_PROPERTY
Idih
SciTegic.value.DoubleValue
0.001

@<SCITEGIC>MOL_PROPERTY
Tether
SciTegic.value.DoubleValue
0.000

@<TRIPOS>MOLECULE
guest-7_confgen4.mol2 : confsearch ligand conformer 231
          19          18           1
SMALL
USER_CHARGES
 
@<TRIPOS>ATOM
       1    C1      22.382955   20.727387   23.329480 C.2        1 MOL1         0.6115
       2    O1      22.935097   20.518458   24.391448 O.co2      1 MOL1        -0.6776
       3    O2      22.858754   21.415405   22.448284 O.co2      1 MOL1        -0.6776
       4    C2      21.028597   20.072963   23.080872 C.3        1 MOL1        -0.2013
       5    H1      20.442601   20.749396   22.448504 H          1 MOL1         0.0727
       6    H2      20.507621   19.993023   24.042487 H          1 MOL1         0.0727
       7    C3      21.149671   18.674944   22.420519 C.3        1 MOL1        -0.1910
       8    H3      21.632967   18.773488   21.438672 H          1 MOL1         0.0729
       9    H4      21.816331   18.052374   23.033213 H          1 MOL1         0.0729
      10    C4      19.794207   17.945439   22.265360 C.3        1 MOL1        -0.1909
      11    H5      19.317588   17.840970   23.249701 H          1 MOL1         0.0729
      12    H6      19.986356   16.926087   21.903403 H          1 MOL1         0.0729
      13    C5      18.825299   18.650271   21.289685 C.3        1 MOL1        -0.1884
      14    H7      18.559627   19.644561   21.672003 H          1 MOL1         0.0729
      15    H8      19.319851   18.800670   20.320115 H          1 MOL1         0.0729
      16    C6      17.535216   17.831199   21.084555 C.3        1 MOL1        -0.2899
      17    H9      16.856478   18.345769   20.392008 H          1 MOL1         0.0741
      18    H10     17.760085   16.841566   20.665694 H          1 MOL1         0.0741
      19    H11     17.005348   17.688890   22.035551 H          1 MOL1         0.0741
@<TRIPOS>BOND
    1     1     2    1
    2     1     3    2
    3     1     4    1
    4     4     5    1
    5     4     6    1
    6     4     7    1
    7     7     8    1
    8     7     9    1
    9     7    10    1
   10    10    11    1
   11    10    12    1
   12    10    13    1
   13    13    14    1
   14    13    15    1
   15    13    16    1
   16    16    17    1
   17    16    18    1
   18    16    19    1
@<TRIPOS>SUBSTRUCTURE
       1 MOL1            1 RESIDUE      1      MOL     
@<SCITEGIC>MOL_PROPERTY
VConf Rank
SciTegic.value.IntegerValue
231

@<SCITEGIC>MOL_PROPERTY
Conf_Id
SciTegic.value.IntegerValue
34

@<SCITEGIC>MOL_PROPERTY
Delta U+W
SciTegic.value.DoubleValue
-0.563

@<SCITEGIC>MOL_PROPERTY
U+W
SciTegic.value.DoubleValue
-55.455

@<SCITEGIC>MOL_PROPERTY
Grad RMS
SciTegic.value.DoubleValue
0.000000

@<SCITEGIC>MOL_PROPERTY
U
SciTegic.value.DoubleValue
6.914

@<SCITEGIC>MOL_PROPERTY
W
SciTegic.value.DoubleValue
-62.369

@<SCITEGIC>MOL_PROPERTY
W(PB)
SciTegic.value.DoubleValue
-64.446

@<SCITEGIC>MOL_PROPERTY
W(SA)
SciTegic.value.DoubleValue
2.077

@<SCITEGIC>MOL_PROPERTY
Valence
SciTegic.value.DoubleValue
7.196

@<SCITEGIC>MOL_PROPERTY
Coulomb
SciTegic.value.DoubleValue
-1.020

@<SCITEGIC>MOL_PROPERTY
VdW
SciTegic.value.DoubleValue
0.738

@<SCITEGIC>MOL_PROPERTY
VdW6
SciTegic.value.DoubleValue
-6.010

@<SCITEGIC>MOL_PROPERTY
VdW12
SciTegic.value.DoubleValue
6.748

@<SCITEGIC>MOL_PROPERTY
Bond
SciTegic.value.DoubleValue
0.126

@<SCITEGIC>MOL_PROPERTY
Angle
SciTegic.value.DoubleValue
2.499

@<SCITEGIC>MOL_PROPERTY
Pdih
SciTegic.value.DoubleValue
4.570

@<SCITEGIC>MOL_PROPERTY
Idih
SciTegic.value.DoubleValue
0.001

@<SCITEGIC>MOL_PROPERTY
Tether
SciTegic.value.DoubleValue
0.000

@<TRIPOS>MOLECULE
guest-7_confgen4.mol2 : confsearch ligand conformer 232
          19          18           1
SMALL
USER_CHARGES
 
@<TRIPOS>ATOM
       1    C1      20.829579   21.924309   21.424527 C.2        1 MOL1         0.6115
       2    O1      20.248310   22.601003   20.599602 O.co2      1 MOL1        -0.6776
       3    O2      21.955646   22.160478   21.814989 O.co2      1 MOL1        -0.6776
       4    C2      20.114991   20.699229   21.983902 C.3        1 MOL1        -0.2013
       5    H1      19.039860   20.913775   22.007859 H          1 MOL1         0.0727
       6    H2      20.443504   20.566263   23.020842 H          1 MOL1         0.0727
       7    C3      20.385863   19.416192   21.155877 C.3        1 MOL1        -0.1910
       8    H3      20.130866   19.614257   20.105559 H          1 MOL1         0.0729
       9    H4      21.460145   19.186369   21.176124 H          1 MOL1         0.0729
      10    C4      19.579021   18.187539   21.638519 C.3        1 MOL1        -0.1909
      11    H5      19.740023   17.364201   20.929148 H          1 MOL1         0.0729
      12    H6      18.505147   18.417606   21.609001 H          1 MOL1         0.0729
      13    C5      19.971283   17.713043   23.055733 C.3        1 MOL1        -0.1884
      14    H7      21.054090   17.531706   23.099499 H          1 MOL1         0.0729
      15    H8      19.746929   18.495323   23.792663 H          1 MOL1         0.0729
      16    C6      19.220386   16.424849   23.448131 C.3        1 MOL1        -0.2899
      17    H9      18.134334   16.585533   23.439312 H          1 MOL1         0.0741
      18    H10     19.451894   15.607356   22.752793 H          1 MOL1         0.0741
      19    H11     19.507177   16.102309   24.457492 H          1 MOL1         0.0741
@<TRIPOS>BOND
    1     1     2    1
    2     1     3    2
    3     1     4    1
    4     4     5    1
    5     4     6    1
    6     4     7    1
    7     7     8    1
    8     7     9    1
    9     7    10    1
   10    10    11    1
   11    10    12    1
   12    10    13    1
   13    13    14    1
   14    13    15    1
   15    13    16    1
   16    16    17    1
   17    16    18    1
   18    16    19    1
@<TRIPOS>SUBSTRUCTURE
       1 MOL1            1 RESIDUE      1      MOL     
@<SCITEGIC>MOL_PROPERTY
VConf Rank
SciTegic.value.IntegerValue
232

@<SCITEGIC>MOL_PROPERTY
Conf_Id
SciTegic.value.IntegerValue
33

@<SCITEGIC>MOL_PROPERTY
Delta U+W
SciTegic.value.DoubleValue
-0.526

@<SCITEGIC>MOL_PROPERTY
U+W
SciTegic.value.DoubleValue
-55.418

@<SCITEGIC>MOL_PROPERTY
Grad RMS
SciTegic.value.DoubleValue
0.000000

@<SCITEGIC>MOL_PROPERTY
U
SciTegic.value.DoubleValue
6.914

@<SCITEGIC>MOL_PROPERTY
W
SciTegic.value.DoubleValue
-62.332

@<SCITEGIC>MOL_PROPERTY
W(PB)
SciTegic.value.DoubleValue
-64.421

@<SCITEGIC>MOL_PROPERTY
W(SA)
SciTegic.value.DoubleValue
2.090

@<SCITEGIC>MOL_PROPERTY
Valence
SciTegic.value.DoubleValue
7.196

@<SCITEGIC>MOL_PROPERTY
Coulomb
SciTegic.value.DoubleValue
-1.020

@<SCITEGIC>MOL_PROPERTY
VdW
SciTegic.value.DoubleValue
0.738

@<SCITEGIC>MOL_PROPERTY
VdW6
SciTegic.value.DoubleValue
-6.010

@<SCITEGIC>MOL_PROPERTY
VdW12
SciTegic.value.DoubleValue
6.748

@<SCITEGIC>MOL_PROPERTY
Bond
SciTegic.value.DoubleValue
0.126

@<SCITEGIC>MOL_PROPERTY
Angle
SciTegic.value.DoubleValue
2.499

@<SCITEGIC>MOL_PROPERTY
Pdih
SciTegic.value.DoubleValue
4.570

@<SCITEGIC>MOL_PROPERTY
Idih
SciTegic.value.DoubleValue
0.001

@<SCITEGIC>MOL_PROPERTY
Tether
SciTegic.value.DoubleValue
0.000

@<TRIPOS>MOLECULE
guest-7_confgen4.mol2 : confsearch ligand conformer 233
          19          18           1
SMALL
USER_CHARGES
 
@<TRIPOS>ATOM
       1    C1      17.833437   20.183077   20.174846 C.2        1 MOL1         0.6115
       2    O1      16.879687   19.439543   20.057636 O.co2      1 MOL1        -0.6776
       3    O2      17.752069   21.394308   20.124406 O.co2      1 MOL1        -0.6776
       4    C2      19.205153   19.562797   20.415989 C.3        1 MOL1        -0.2013
       5    H1      19.957712   20.207216   19.945822 H          1 MOL1         0.0727
       6    H2      19.237837   18.595948   19.899403 H          1 MOL1         0.0727
       7    C3      19.525450   19.375426   21.919566 C.3        1 MOL1        -0.1910
       8    H3      19.479496   20.350223   22.424438 H          1 MOL1         0.0729
       9    H4      18.749875   18.743457   22.372025 H          1 MOL1         0.0729
      10    C4      20.919526   18.742070   22.134213 C.3        1 MOL1        -0.1909
      11    H5      21.672363   19.350019   21.613994 H          1 MOL1         0.0729
      12    H6      20.949314   17.746218   21.671181 H          1 MOL1         0.0729
      13    C5      21.321078   18.631997   23.623249 C.3        1 MOL1        -0.1884
      14    H7      22.362130   18.285749   23.682961 H          1 MOL1         0.0729
      15    H8      21.297873   19.627117   24.088573 H          1 MOL1         0.0729
      16    C6      20.428102   17.661969   24.426674 C.3        1 MOL1        -0.2899
      17    H9      20.412445   16.666988   23.963074 H          1 MOL1         0.0741
      18    H10     20.806509   17.551498   25.451147 H          1 MOL1         0.0741
      19    H11     19.395934   18.028194   24.491869 H          1 MOL1         0.0741
@<TRIPOS>BOND
    1     1     2    1
    2     1     3    2
    3     1     4    1
    4     4     5    1
    5     4     6    1
    6     4     7    1
    7     7     8    1
    8     7     9    1
    9     7    10    1
   10    10    11    1
   11    10    12    1
   12    10    13    1
   13    13    14    1
   14    13    15    1
   15    13    16    1
   16    16    17    1
   17    16    18    1
   18    16    19    1
@<TRIPOS>SUBSTRUCTURE
       1 MOL1            1 RESIDUE      1      MOL     
@<SCITEGIC>MOL_PROPERTY
VConf Rank
SciTegic.value.IntegerValue
233

@<SCITEGIC>MOL_PROPERTY
Conf_Id
SciTegic.value.IntegerValue
42

@<SCITEGIC>MOL_PROPERTY
Delta U+W
SciTegic.value.DoubleValue
-0.344

@<SCITEGIC>MOL_PROPERTY
U+W
SciTegic.value.DoubleValue
-55.236

@<SCITEGIC>MOL_PROPERTY
Grad RMS
SciTegic.value.DoubleValue
0.000000

@<SCITEGIC>MOL_PROPERTY
U
SciTegic.value.DoubleValue
7.244

@<SCITEGIC>MOL_PROPERTY
W
SciTegic.value.DoubleValue
-62.479

@<SCITEGIC>MOL_PROPERTY
W(PB)
SciTegic.value.DoubleValue
-64.610

@<SCITEGIC>MOL_PROPERTY
W(SA)
SciTegic.value.DoubleValue
2.130

@<SCITEGIC>MOL_PROPERTY
Valence
SciTegic.value.DoubleValue
7.174

@<SCITEGIC>MOL_PROPERTY
Coulomb
SciTegic.value.DoubleValue
-0.669

@<SCITEGIC>MOL_PROPERTY
VdW
SciTegic.value.DoubleValue
0.739

@<SCITEGIC>MOL_PROPERTY
VdW6
SciTegic.value.DoubleValue
-5.969

@<SCITEGIC>MOL_PROPERTY
VdW12
SciTegic.value.DoubleValue
6.708

@<SCITEGIC>MOL_PROPERTY
Bond
SciTegic.value.DoubleValue
0.116

@<SCITEGIC>MOL_PROPERTY
Angle
SciTegic.value.DoubleValue
2.481

@<SCITEGIC>MOL_PROPERTY
Pdih
SciTegic.value.DoubleValue
4.576

@<SCITEGIC>MOL_PROPERTY
Idih
SciTegic.value.DoubleValue
0.000

@<SCITEGIC>MOL_PROPERTY
Tether
SciTegic.value.DoubleValue
0.000

@<TRIPOS>MOLECULE
guest-7_confgen4.mol2 : confsearch ligand conformer 234
          19          18           1
SMALL
USER_CHARGES
 
@<TRIPOS>ATOM
       1    C1      19.021823   18.708057   25.221422 C.2        1 MOL1         0.6115
       2    O1      19.209776   19.756902   25.805217 O.co2      1 MOL1        -0.6776
       3    O2      19.101538   17.618629   25.753434 O.co2      1 MOL1        -0.6776
       4    C2      18.685293   18.760959   23.735336 C.3        1 MOL1        -0.2013
       5    H1      18.119265   19.681085   23.546370 H          1 MOL1         0.0727
       6    H2      18.021067   17.918893   23.506410 H          1 MOL1         0.0727
       7    C3      19.941751   18.712318   22.831239 C.3        1 MOL1        -0.1910
       8    H3      20.599200   19.552489   23.091038 H          1 MOL1         0.0729
       9    H4      20.502451   17.790473   23.038736 H          1 MOL1         0.0729
      10    C4      19.571391   18.771092   21.331227 C.3        1 MOL1        -0.1909
      11    H5      19.053842   19.715555   21.114113 H          1 MOL1         0.0729
      12    H6      18.857773   17.966341   21.107356 H          1 MOL1         0.0729
      13    C5      20.790228   18.621718   20.391699 C.3        1 MOL1        -0.1884
      14    H7      21.307367   17.675337   20.602071 H          1 MOL1         0.0729
      15    H8      20.430611   18.555143   19.355607 H          1 MOL1         0.0729
      16    C6      21.789497   19.794053   20.496314 C.3        1 MOL1        -0.2899
      17    H9      22.262898   19.830138   21.485422 H          1 MOL1         0.0741
      18    H10     22.587302   19.685865   19.750161 H          1 MOL1         0.0741
      19    H11     21.288442   20.754506   20.318464 H          1 MOL1         0.0741
@<TRIPOS>BOND
    1     1     2    1
    2     1     3    2
    3     1     4    1
    4     4     5    1
    5     4     6    1
    6     4     7    1
    7     7     8    1
    8     7     9    1
    9     7    10    1
   10    10    11    1
   11    10    12    1
   12    10    13    1
   13    13    14    1
   14    13    15    1
   15    13    16    1
   16    16    17    1
   17    16    18    1
   18    16    19    1
@<TRIPOS>SUBSTRUCTURE
       1 MOL1            1 RESIDUE      1      MOL     
@<SCITEGIC>MOL_PROPERTY
VConf Rank
SciTegic.value.IntegerValue
234

@<SCITEGIC>MOL_PROPERTY
Conf_Id
SciTegic.value.IntegerValue
41

@<SCITEGIC>MOL_PROPERTY
Delta U+W
SciTegic.value.DoubleValue
-0.361

@<SCITEGIC>MOL_PROPERTY
U+W
SciTegic.value.DoubleValue
-55.252

@<SCITEGIC>MOL_PROPERTY
Grad RMS
SciTegic.value.DoubleValue
0.000000

@<SCITEGIC>MOL_PROPERTY
U
SciTegic.value.DoubleValue
7.244

@<SCITEGIC>MOL_PROPERTY
W
SciTegic.value.DoubleValue
-62.496

@<SCITEGIC>MOL_PROPERTY
W(PB)
SciTegic.value.DoubleValue
-64.596

@<SCITEGIC>MOL_PROPERTY
W(SA)
SciTegic.value.DoubleValue
2.099

@<SCITEGIC>MOL_PROPERTY
Valence
SciTegic.value.DoubleValue
7.174

@<SCITEGIC>MOL_PROPERTY
Coulomb
SciTegic.value.DoubleValue
-0.669

@<SCITEGIC>MOL_PROPERTY
VdW
SciTegic.value.DoubleValue
0.739

@<SCITEGIC>MOL_PROPERTY
VdW6
SciTegic.value.DoubleValue
-5.969

@<SCITEGIC>MOL_PROPERTY
VdW12
SciTegic.value.DoubleValue
6.708

@<SCITEGIC>MOL_PROPERTY
Bond
SciTegic.value.DoubleValue
0.116

@<SCITEGIC>MOL_PROPERTY
Angle
SciTegic.value.DoubleValue
2.481

@<SCITEGIC>MOL_PROPERTY
Pdih
SciTegic.value.DoubleValue
4.576

@<SCITEGIC>MOL_PROPERTY
Idih
SciTegic.value.DoubleValue
0.000

@<SCITEGIC>MOL_PROPERTY
Tether
SciTegic.value.DoubleValue
0.000

@<TRIPOS>MOLECULE
guest-7_confgen4.mol2 : confsearch ligand conformer 235
          19          18           1
SMALL
USER_CHARGES
 
@<TRIPOS>ATOM
       1    C1      19.351405   16.554828   20.899767 C.2        1 MOL1         0.6115
       2    O1      18.331645   16.857358   20.312301 O.co2      1 MOL1        -0.6776
       3    O2      20.329748   16.087919   20.350658 O.co2      1 MOL1        -0.6776
       4    C2      19.400433   16.750409   22.412608 C.3        1 MOL1        -0.2013
       5    H1      19.815294   15.833878   22.848466 H          1 MOL1         0.0727
       6    H2      18.373853   16.843539   22.787371 H          1 MOL1         0.0727
       7    C3      20.247740   17.968075   22.864773 C.3        1 MOL1        -0.1910
       8    H3      20.341736   17.950077   23.959019 H          1 MOL1         0.0729
       9    H4      21.264475   17.874987   22.458305 H          1 MOL1         0.0729
      10    C4      19.631081   19.315990   22.428691 C.3        1 MOL1        -0.1909
      11    H5      18.610308   19.398542   22.826483 H          1 MOL1         0.0729
      12    H6      19.549413   19.348752   21.333392 H          1 MOL1         0.0729
      13    C5      20.473086   20.513590   22.915914 C.3        1 MOL1        -0.1884
      14    H7      20.554713   20.488412   24.011420 H          1 MOL1         0.0729
      15    H8      21.494106   20.434789   22.517438 H          1 MOL1         0.0729
      16    C6      19.855200   21.856939   22.479331 C.3        1 MOL1        -0.2899
      17    H9      18.844123   21.976142   22.890329 H          1 MOL1         0.0741
      18    H10     20.466415   22.697221   22.833492 H          1 MOL1         0.0741
      19    H11     19.790445   21.922161   21.385259 H          1 MOL1         0.0741
@<TRIPOS>BOND
    1     1     2    1
    2     1     3    2
    3     1     4    1
    4     4     5    1
    5     4     6    1
    6     4     7    1
    7     7     8    1
    8     7     9    1
    9     7    10    1
   10    10    11    1
   11    10    12    1
   12    10    13    1
   13    13    14    1
   14    13    15    1
   15    13    16    1
   16    16    17    1
   17    16    18    1
   18    16    19    1
@<TRIPOS>SUBSTRUCTURE
       1 MOL1            1 RESIDUE      1      MOL     
@<SCITEGIC>MOL_PROPERTY
VConf Rank
SciTegic.value.IntegerValue
235

@<SCITEGIC>MOL_PROPERTY
Conf_Id
SciTegic.value.IntegerValue
36

@<SCITEGIC>MOL_PROPERTY
Delta U+W
SciTegic.value.DoubleValue
-0.079

@<SCITEGIC>MOL_PROPERTY
U+W
SciTegic.value.DoubleValue
-54.971

@<SCITEGIC>MOL_PROPERTY
Grad RMS
SciTegic.value.DoubleValue
0.000000

@<SCITEGIC>MOL_PROPERTY
U
SciTegic.value.DoubleValue
8.266

@<SCITEGIC>MOL_PROPERTY
W
SciTegic.value.DoubleValue
-63.237

@<SCITEGIC>MOL_PROPERTY
W(PB)
SciTegic.value.DoubleValue
-65.340

@<SCITEGIC>MOL_PROPERTY
W(SA)
SciTegic.value.DoubleValue
2.103

@<SCITEGIC>MOL_PROPERTY
Valence
SciTegic.value.DoubleValue
6.935

@<SCITEGIC>MOL_PROPERTY
Coulomb
SciTegic.value.DoubleValue
0.874

@<SCITEGIC>MOL_PROPERTY
VdW
SciTegic.value.DoubleValue
0.457

@<SCITEGIC>MOL_PROPERTY
VdW6
SciTegic.value.DoubleValue
-6.205

@<SCITEGIC>MOL_PROPERTY
VdW12
SciTegic.value.DoubleValue
6.662

@<SCITEGIC>MOL_PROPERTY
Bond
SciTegic.value.DoubleValue
0.107

@<SCITEGIC>MOL_PROPERTY
Angle
SciTegic.value.DoubleValue
2.420

@<SCITEGIC>MOL_PROPERTY
Pdih
SciTegic.value.DoubleValue
4.407

@<SCITEGIC>MOL_PROPERTY
Idih
SciTegic.value.DoubleValue
0.001

@<SCITEGIC>MOL_PROPERTY
Tether
SciTegic.value.DoubleValue
0.000

@<TRIPOS>MOLECULE
guest-7_confgen4.mol2 : confsearch ligand conformer 236
          19          18           1
SMALL
USER_CHARGES
 
@<TRIPOS>ATOM
       1    C1      21.258758   21.282668   21.105626 C.2        1 MOL1         0.6115
       2    O1      22.403215   21.203274   21.506209 O.co2      1 MOL1        -0.6776
       3    O2      20.580884   22.286471   21.203349 O.co2      1 MOL1        -0.6776
       4    C2      20.644529   20.063554   20.423109 C.3        1 MOL1        -0.2013
       5    H1      21.453460   19.390995   20.112817 H          1 MOL1         0.0727
       6    H2      20.153744   20.413135   19.507121 H          1 MOL1         0.0727
       7    C3      19.619298   19.298636   21.299975 C.3        1 MOL1        -0.1910
       8    H3      18.831163   19.991401   21.626396 H          1 MOL1         0.0729
       9    H4      19.130237   18.529329   20.687176 H          1 MOL1         0.0729
      10    C4      20.271691   18.630519   22.530956 C.3        1 MOL1        -0.1909
      11    H5      20.748826   19.396085   23.158390 H          1 MOL1         0.0729
      12    H6      21.067399   17.949002   22.200179 H          1 MOL1         0.0729
      13    C5      19.239690   17.849579   23.371022 C.3        1 MOL1        -0.1884
      14    H7      18.443762   18.529488   23.705231 H          1 MOL1         0.0729
      15    H8      18.762095   17.079386   22.749624 H          1 MOL1         0.0729
      16    C6      19.893696   17.184171   24.598413 C.3        1 MOL1        -0.2899
      17    H9      20.352734   17.935535   25.254293 H          1 MOL1         0.0741
      18    H10     19.146124   16.633903   25.184441 H          1 MOL1         0.0741
      19    H11     20.673378   16.474685   24.291602 H          1 MOL1         0.0741
@<TRIPOS>BOND
    1     1     2    1
    2     1     3    2
    3     1     4    1
    4     4     5    1
    5     4     6    1
    6     4     7    1
    7     7     8    1
    8     7     9    1
    9     7    10    1
   10    10    11    1
   11    10    12    1
   12    10    13    1
   13    13    14    1
   14    13    15    1
   15    13    16    1
   16    16    17    1
   17    16    18    1
   18    16    19    1
@<TRIPOS>SUBSTRUCTURE
       1 MOL1            1 RESIDUE      1      MOL     
@<SCITEGIC>MOL_PROPERTY
VConf Rank
SciTegic.value.IntegerValue
236

@<SCITEGIC>MOL_PROPERTY
Conf_Id
SciTegic.value.IntegerValue
35

@<SCITEGIC>MOL_PROPERTY
Delta U+W
SciTegic.value.DoubleValue
-0.030

@<SCITEGIC>MOL_PROPERTY
U+W
SciTegic.value.DoubleValue
-54.921

@<SCITEGIC>MOL_PROPERTY
Grad RMS
SciTegic.value.DoubleValue
0.000000

@<SCITEGIC>MOL_PROPERTY
U
SciTegic.value.DoubleValue
8.267

@<SCITEGIC>MOL_PROPERTY
W
SciTegic.value.DoubleValue
-63.188

@<SCITEGIC>MOL_PROPERTY
W(PB)
SciTegic.value.DoubleValue
-65.294

@<SCITEGIC>MOL_PROPERTY
W(SA)
SciTegic.value.DoubleValue
2.106

@<SCITEGIC>MOL_PROPERTY
Valence
SciTegic.value.DoubleValue
6.935

@<SCITEGIC>MOL_PROPERTY
Coulomb
SciTegic.value.DoubleValue
0.875

@<SCITEGIC>MOL_PROPERTY
VdW
SciTegic.value.DoubleValue
0.457

@<SCITEGIC>MOL_PROPERTY
VdW6
SciTegic.value.DoubleValue
-6.205

@<SCITEGIC>MOL_PROPERTY
VdW12
SciTegic.value.DoubleValue
6.662

@<SCITEGIC>MOL_PROPERTY
Bond
SciTegic.value.DoubleValue
0.107

@<SCITEGIC>MOL_PROPERTY
Angle
SciTegic.value.DoubleValue
2.420

@<SCITEGIC>MOL_PROPERTY
Pdih
SciTegic.value.DoubleValue
4.407

@<SCITEGIC>MOL_PROPERTY
Idih
SciTegic.value.DoubleValue
0.001

@<SCITEGIC>MOL_PROPERTY
Tether
SciTegic.value.DoubleValue
0.000

@<TRIPOS>MOLECULE
guest-7_confgen4.mol2 : confsearch ligand conformer 237
          19          18           1
SMALL
USER_CHARGES
 
@<TRIPOS>ATOM
       1    C1      17.780857   17.172835   22.898732 C.2        1 MOL1         0.6115
       2    O1      16.868422   17.765672   23.439763 O.co2      1 MOL1        -0.6776
       3    O2      18.215377   16.107668   23.290212 O.co2      1 MOL1        -0.6776
       4    C2      18.398585   17.790733   21.647295 C.3        1 MOL1        -0.2013
       5    H1      17.574087   18.115914   21.001884 H          1 MOL1         0.0727
       6    H2      18.939982   17.009016   21.100701 H          1 MOL1         0.0727
       7    C3      19.337209   18.992314   21.931740 C.3        1 MOL1        -0.1910
       8    H3      19.604800   19.459070   20.975244 H          1 MOL1         0.0729
       9    H4      18.793184   19.749317   22.513386 H          1 MOL1         0.0729
      10    C4      20.623200   18.576038   22.685149 C.3        1 MOL1        -0.1909
      11    H5      21.185099   17.847850   22.084457 H          1 MOL1         0.0729
      12    H6      20.346011   18.061644   23.615520 H          1 MOL1         0.0729
      13    C5      21.539242   19.769370   23.042436 C.3        1 MOL1        -0.1884
      14    H7      20.980444   20.498574   23.645194 H          1 MOL1         0.0729
      15    H8      22.359268   19.405898   23.676996 H          1 MOL1         0.0729
      16    C6      22.142065   20.470172   21.805706 C.3        1 MOL1        -0.2899
      17    H9      21.365213   20.952857   21.199787 H          1 MOL1         0.0741
      18    H10     22.853050   21.247577   22.114054 H          1 MOL1         0.0741
      19    H11     22.679332   19.753537   21.170942 H          1 MOL1         0.0741
@<TRIPOS>BOND
    1     1     2    1
    2     1     3    2
    3     1     4    1
    4     4     5    1
    5     4     6    1
    6     4     7    1
    7     7     8    1
    8     7     9    1
    9     7    10    1
   10    10    11    1
   11    10    12    1
   12    10    13    1
   13    13    14    1
   14    13    15    1
   15    13    16    1
   16    16    17    1
   17    16    18    1
   18    16    19    1
@<TRIPOS>SUBSTRUCTURE
       1 MOL1            1 RESIDUE      1      MOL     
@<SCITEGIC>MOL_PROPERTY
VConf Rank
SciTegic.value.IntegerValue
237

@<SCITEGIC>MOL_PROPERTY
Conf_Id
SciTegic.value.IntegerValue
74

@<SCITEGIC>MOL_PROPERTY
Delta U+W
SciTegic.value.DoubleValue
0.797

@<SCITEGIC>MOL_PROPERTY
U+W
SciTegic.value.DoubleValue
-54.095

@<SCITEGIC>MOL_PROPERTY
Grad RMS
SciTegic.value.DoubleValue
0.000000

@<SCITEGIC>MOL_PROPERTY
U
SciTegic.value.DoubleValue
8.869

@<SCITEGIC>MOL_PROPERTY
W
SciTegic.value.DoubleValue
-62.964

@<SCITEGIC>MOL_PROPERTY
W(PB)
SciTegic.value.DoubleValue
-65.046

@<SCITEGIC>MOL_PROPERTY
W(SA)
SciTegic.value.DoubleValue
2.082

@<SCITEGIC>MOL_PROPERTY
Valence
SciTegic.value.DoubleValue
7.469

@<SCITEGIC>MOL_PROPERTY
Coulomb
SciTegic.value.DoubleValue
0.762

@<SCITEGIC>MOL_PROPERTY
VdW
SciTegic.value.DoubleValue
0.639

@<SCITEGIC>MOL_PROPERTY
VdW6
SciTegic.value.DoubleValue
-6.782

@<SCITEGIC>MOL_PROPERTY
VdW12
SciTegic.value.DoubleValue
7.421

@<SCITEGIC>MOL_PROPERTY
Bond
SciTegic.value.DoubleValue
0.141

@<SCITEGIC>MOL_PROPERTY
Angle
SciTegic.value.DoubleValue
2.667

@<SCITEGIC>MOL_PROPERTY
Pdih
SciTegic.value.DoubleValue
4.660

@<SCITEGIC>MOL_PROPERTY
Idih
SciTegic.value.DoubleValue
0.001

@<SCITEGIC>MOL_PROPERTY
Tether
SciTegic.value.DoubleValue
0.000

@<TRIPOS>MOLECULE
guest-7_confgen4.mol2 : confsearch ligand conformer 238
          19          18           1
SMALL
USER_CHARGES
 
@<TRIPOS>ATOM
       1    C1      21.538126   20.946299   23.743566 C.2        1 MOL1         0.6115
       2    O1      21.448162   21.305622   24.900811 O.co2      1 MOL1        -0.6776
       3    O2      22.544975   21.076018   23.075922 O.co2      1 MOL1        -0.6776
       4    C2      20.327359   20.279338   23.100584 C.3        1 MOL1        -0.2013
       5    H1      20.330035   20.538279   22.035641 H          1 MOL1         0.0727
       6    H2      19.423231   20.716831   23.540478 H          1 MOL1         0.0727
       7    C3      20.321012   18.739726   23.285361 C.3        1 MOL1        -0.1910
       8    H3      21.211135   18.308866   22.808058 H          1 MOL1         0.0729
       9    H4      20.411220   18.512994   24.356647 H          1 MOL1         0.0729
      10    C4      19.040622   18.056170   22.743068 C.3        1 MOL1        -0.1909
      11    H5      18.173391   18.427959   23.305632 H          1 MOL1         0.0729
      12    H6      19.099618   16.979621   22.953646 H          1 MOL1         0.0729
      13    C5      18.775926   18.256228   21.230517 C.3        1 MOL1        -0.1884
      14    H7      17.840716   17.742623   20.968461 H          1 MOL1         0.0729
      15    H8      18.609274   19.319272   21.011941 H          1 MOL1         0.0729
      16    C6      19.908956   17.711841   20.334257 C.3        1 MOL1        -0.2899
      17    H9      20.108596   16.654600   20.552010 H          1 MOL1         0.0741
      18    H10     19.633579   17.793362   19.274853 H          1 MOL1         0.0741
      19    H11     20.838855   18.275919   20.480445 H          1 MOL1         0.0741
@<TRIPOS>BOND
    1     1     2    1
    2     1     3    2
    3     1     4    1
    4     4     5    1
    5     4     6    1
    6     4     7    1
    7     7     8    1
    8     7     9    1
    9     7    10    1
   10    10    11    1
   11    10    12    1
   12    10    13    1
   13    13    14    1
   14    13    15    1
   15    13    16    1
   16    16    17    1
   17    16    18    1
   18    16    19    1
@<TRIPOS>SUBSTRUCTURE
       1 MOL1            1 RESIDUE      1      MOL     
@<SCITEGIC>MOL_PROPERTY
VConf Rank
SciTegic.value.IntegerValue
238

@<SCITEGIC>MOL_PROPERTY
Conf_Id
SciTegic.value.IntegerValue
67

@<SCITEGIC>MOL_PROPERTY
Delta U+W
SciTegic.value.DoubleValue
0.308

@<SCITEGIC>MOL_PROPERTY
U+W
SciTegic.value.DoubleValue
-54.583

@<SCITEGIC>MOL_PROPERTY
Grad RMS
SciTegic.value.DoubleValue
0.000000

@<SCITEGIC>MOL_PROPERTY
U
SciTegic.value.DoubleValue
8.219

@<SCITEGIC>MOL_PROPERTY
W
SciTegic.value.DoubleValue
-62.802

@<SCITEGIC>MOL_PROPERTY
W(PB)
SciTegic.value.DoubleValue
-64.859

@<SCITEGIC>MOL_PROPERTY
W(SA)
SciTegic.value.DoubleValue
2.057

@<SCITEGIC>MOL_PROPERTY
Valence
SciTegic.value.DoubleValue
7.609

@<SCITEGIC>MOL_PROPERTY
Coulomb
SciTegic.value.DoubleValue
-0.089

@<SCITEGIC>MOL_PROPERTY
VdW
SciTegic.value.DoubleValue
0.699

@<SCITEGIC>MOL_PROPERTY
VdW6
SciTegic.value.DoubleValue
-6.924

@<SCITEGIC>MOL_PROPERTY
VdW12
SciTegic.value.DoubleValue
7.623

@<SCITEGIC>MOL_PROPERTY
Bond
SciTegic.value.DoubleValue
0.163

@<SCITEGIC>MOL_PROPERTY
Angle
SciTegic.value.DoubleValue
2.870

@<SCITEGIC>MOL_PROPERTY
Pdih
SciTegic.value.DoubleValue
4.576

@<SCITEGIC>MOL_PROPERTY
Idih
SciTegic.value.DoubleValue
0.001

@<SCITEGIC>MOL_PROPERTY
Tether
SciTegic.value.DoubleValue
0.000

@<TRIPOS>MOLECULE
guest-7_confgen4.mol2 : confsearch ligand conformer 239
          19          18           1
SMALL
USER_CHARGES
 
@<TRIPOS>ATOM
       1    C1      22.514660   17.537959   22.796168 C.2        1 MOL1         0.6115
       2    O1      23.626384   17.790418   22.375742 O.co2      1 MOL1        -0.6776
       3    O2      22.177113   16.437435   23.185051 O.co2      1 MOL1        -0.6776
       4    C2      21.481640   18.658936   22.818485 C.3        1 MOL1        -0.2013
       5    H1      22.007655   19.604022   22.998694 H          1 MOL1         0.0727
       6    H2      20.819679   18.485750   23.674624 H          1 MOL1         0.0727
       7    C3      20.660756   18.745500   21.505762 C.3        1 MOL1        -0.1910
       8    H3      21.356842   18.826822   20.659563 H          1 MOL1         0.0729
       9    H4      20.108590   17.808332   21.355409 H          1 MOL1         0.0729
      10    C4      19.688466   19.951084   21.461703 C.3        1 MOL1        -0.1909
      11    H5      19.183668   19.961324   20.486073 H          1 MOL1         0.0729
      12    H6      20.271890   20.880597   21.510856 H          1 MOL1         0.0729
      13    C5      18.617120   19.975966   22.579513 C.3        1 MOL1        -0.1884
      14    H7      19.096777   20.071401   23.562585 H          1 MOL1         0.0729
      15    H8      18.001668   20.877339   22.453712 H          1 MOL1         0.0729
      16    C6      17.693447   18.738989   22.568809 C.3        1 MOL1        -0.2899
      17    H9      18.250275   17.823556   22.805860 H          1 MOL1         0.0741
      18    H10     16.897598   18.847305   23.316945 H          1 MOL1         0.0741
      19    H11     17.220035   18.610614   21.586754 H          1 MOL1         0.0741
@<TRIPOS>BOND
    1     1     2    1
    2     1     3    2
    3     1     4    1
    4     4     5    1
    5     4     6    1
    6     4     7    1
    7     7     8    1
    8     7     9    1
    9     7    10    1
   10    10    11    1
   11    10    12    1
   12    10    13    1
   13    13    14    1
   14    13    15    1
   15    13    16    1
   16    16    17    1
   17    16    18    1
   18    16    19    1
@<TRIPOS>SUBSTRUCTURE
       1 MOL1            1 RESIDUE      1      MOL     
@<SCITEGIC>MOL_PROPERTY
VConf Rank
SciTegic.value.IntegerValue
239

@<SCITEGIC>MOL_PROPERTY
Conf_Id
SciTegic.value.IntegerValue
21

@<SCITEGIC>MOL_PROPERTY
Delta U+W
SciTegic.value.DoubleValue
0.319

@<SCITEGIC>MOL_PROPERTY
U+W
SciTegic.value.DoubleValue
-54.572

@<SCITEGIC>MOL_PROPERTY
Grad RMS
SciTegic.value.DoubleValue
0.000000

@<SCITEGIC>MOL_PROPERTY
U
SciTegic.value.DoubleValue
8.220

@<SCITEGIC>MOL_PROPERTY
W
SciTegic.value.DoubleValue
-62.792

@<SCITEGIC>MOL_PROPERTY
W(PB)
SciTegic.value.DoubleValue
-64.830

@<SCITEGIC>MOL_PROPERTY
W(SA)
SciTegic.value.DoubleValue
2.038

@<SCITEGIC>MOL_PROPERTY
Valence
SciTegic.value.DoubleValue
7.609

@<SCITEGIC>MOL_PROPERTY
Coulomb
SciTegic.value.DoubleValue
-0.088

@<SCITEGIC>MOL_PROPERTY
VdW
SciTegic.value.DoubleValue
0.699

@<SCITEGIC>MOL_PROPERTY
VdW6
SciTegic.value.DoubleValue
-6.924

@<SCITEGIC>MOL_PROPERTY
VdW12
SciTegic.value.DoubleValue
7.623

@<SCITEGIC>MOL_PROPERTY
Bond
SciTegic.value.DoubleValue
0.163

@<SCITEGIC>MOL_PROPERTY
Angle
SciTegic.value.DoubleValue
2.870

@<SCITEGIC>MOL_PROPERTY
Pdih
SciTegic.value.DoubleValue
4.576

@<SCITEGIC>MOL_PROPERTY
Idih
SciTegic.value.DoubleValue
0.000

@<SCITEGIC>MOL_PROPERTY
Tether
SciTegic.value.DoubleValue
0.000

@<TRIPOS>MOLECULE
guest-7_confgen4.mol2 : confsearch ligand conformer 240
          19          18           1
SMALL
USER_CHARGES
 
@<TRIPOS>ATOM
       1    C1      22.745410   19.335536   21.559465 C.2        1 MOL1         0.6115
       2    O1      23.754360   19.363102   22.235998 O.co2      1 MOL1        -0.6776
       3    O2      22.741221   19.096560   20.368194 O.co2      1 MOL1        -0.6776
       4    C2      21.410202   19.597063   22.247146 C.3        1 MOL1        -0.2013
       5    H1      20.749799   20.085058   21.523577 H          1 MOL1         0.0727
       6    H2      21.582153   20.315608   23.057400 H          1 MOL1         0.0727
       7    C3      20.761997   18.305245   22.811617 C.3        1 MOL1        -0.1910
       8    H3      20.642384   17.561337   22.011882 H          1 MOL1         0.0729
       9    H4      21.461330   17.865440   23.536117 H          1 MOL1         0.0729
      10    C4      19.406181   18.554152   23.519964 C.3        1 MOL1        -0.1909
      11    H5      19.383929   19.561948   23.956713 H          1 MOL1         0.0729
      12    H6      19.331592   17.859626   24.367928 H          1 MOL1         0.0729
      13    C5      18.160302   18.333489   22.627213 C.3        1 MOL1        -0.1884
      14    H7      18.144496   17.295541   22.267115 H          1 MOL1         0.0729
      15    H8      17.261528   18.457190   23.246968 H          1 MOL1         0.0729
      16    C6      18.065956   19.293788   21.423627 C.3        1 MOL1        -0.2899
      17    H9      17.102378   19.173645   20.911868 H          1 MOL1         0.0741
      18    H10     18.150380   20.339730   21.745891 H          1 MOL1         0.0741
      19    H11     18.856278   19.088222   20.690872 H          1 MOL1         0.0741
@<TRIPOS>BOND
    1     1     2    1
    2     1     3    2
    3     1     4    1
    4     4     5    1
    5     4     6    1
    6     4     7    1
    7     7     8    1
    8     7     9    1
    9     7    10    1
   10    10    11    1
   11    10    12    1
   12    10    13    1
   13    13    14    1
   14    13    15    1
   15    13    16    1
   16    16    17    1
   17    16    18    1
   18    16    19    1
@<TRIPOS>SUBSTRUCTURE
       1 MOL1            1 RESIDUE      1      MOL     
@<SCITEGIC>MOL_PROPERTY
VConf Rank
SciTegic.value.IntegerValue
240

@<SCITEGIC>MOL_PROPERTY
Conf_Id
SciTegic.value.IntegerValue
24

@<SCITEGIC>MOL_PROPERTY
Delta U+W
SciTegic.value.DoubleValue
2.477

@<SCITEGIC>MOL_PROPERTY
U+W
SciTegic.value.DoubleValue
-52.414

@<SCITEGIC>MOL_PROPERTY
Grad RMS
SciTegic.value.DoubleValue
0.000000

@<SCITEGIC>MOL_PROPERTY
U
SciTegic.value.DoubleValue
10.422

@<SCITEGIC>MOL_PROPERTY
W
SciTegic.value.DoubleValue
-62.836

@<SCITEGIC>MOL_PROPERTY
W(PB)
SciTegic.value.DoubleValue
-64.906

@<SCITEGIC>MOL_PROPERTY
W(SA)
SciTegic.value.DoubleValue
2.070

@<SCITEGIC>MOL_PROPERTY
Valence
SciTegic.value.DoubleValue
9.628

@<SCITEGIC>MOL_PROPERTY
Coulomb
SciTegic.value.DoubleValue
0.101

@<SCITEGIC>MOL_PROPERTY
VdW
SciTegic.value.DoubleValue
0.693

@<SCITEGIC>MOL_PROPERTY
VdW6
SciTegic.value.DoubleValue
-6.927

@<SCITEGIC>MOL_PROPERTY
VdW12
SciTegic.value.DoubleValue
7.620

@<SCITEGIC>MOL_PROPERTY
Bond
SciTegic.value.DoubleValue
0.173

@<SCITEGIC>MOL_PROPERTY
Angle
SciTegic.value.DoubleValue
2.989

@<SCITEGIC>MOL_PROPERTY
Pdih
SciTegic.value.DoubleValue
6.465

@<SCITEGIC>MOL_PROPERTY
Idih
SciTegic.value.DoubleValue
0.001

@<SCITEGIC>MOL_PROPERTY
Tether
SciTegic.value.DoubleValue
0.000

@<TRIPOS>MOLECULE
guest-7_confgen4.mol2 : confsearch ligand conformer 241
          19          18           1
SMALL
USER_CHARGES
 
@<TRIPOS>ATOM
       1    C1      17.991983   17.728311   23.643033 C.2        1 MOL1         0.6115
       2    O1      17.642081   17.064193   22.687415 O.co2      1 MOL1        -0.6776
       3    O2      17.919881   17.339762   24.792339 O.co2      1 MOL1        -0.6776
       4    C2      18.523705   19.137036   23.392035 C.3        1 MOL1        -0.2013
       5    H1      17.999781   19.808401   24.082346 H          1 MOL1         0.0727
       6    H2      18.234863   19.440008   22.380596 H          1 MOL1         0.0727
       7    C3      20.056890   19.279825   23.601537 C.3        1 MOL1        -0.1910
       8    H3      20.334180   20.342514   23.607326 H          1 MOL1         0.0729
       9    H4      20.299604   18.899130   24.603384 H          1 MOL1         0.0729
      10    C4      20.915386   18.519992   22.556972 C.3        1 MOL1        -0.1909
      11    H5      20.383837   17.628616   22.196818 H          1 MOL1         0.0729
      12    H6      21.815211   18.145141   23.063515 H          1 MOL1         0.0729
      13    C5      21.381347   19.379313   21.355992 C.3        1 MOL1        -0.1884
      14    H7      21.988768   20.220458   21.717542 H          1 MOL1         0.0729
      15    H8      22.044796   18.768819   20.728069 H          1 MOL1         0.0729
      16    C6      20.230711   19.917095   20.480559 C.3        1 MOL1        -0.2899
      17    H9      19.638881   20.665724   21.021529 H          1 MOL1         0.0741
      18    H10     20.627943   20.399083   19.577967 H          1 MOL1         0.0741
      19    H11     19.562956   19.104440   20.165629 H          1 MOL1         0.0741
@<TRIPOS>BOND
    1     1     2    1
    2     1     3    2
    3     1     4    1
    4     4     5    1
    5     4     6    1
    6     4     7    1
    7     7     8    1
    8     7     9    1
    9     7    10    1
   10    10    11    1
   11    10    12    1
   12    10    13    1
   13    13    14    1
   14    13    15    1
   15    13    16    1
   16    16    17    1
   17    16    18    1
   18    16    19    1
@<TRIPOS>SUBSTRUCTURE
       1 MOL1            1 RESIDUE      1      MOL     
@<SCITEGIC>MOL_PROPERTY
VConf Rank
SciTegic.value.IntegerValue
241

@<SCITEGIC>MOL_PROPERTY
Conf_Id
SciTegic.value.IntegerValue
4

@<SCITEGIC>MOL_PROPERTY
Delta U+W
SciTegic.value.DoubleValue
3.753

@<SCITEGIC>MOL_PROPERTY
U+W
SciTegic.value.DoubleValue
-51.138

@<SCITEGIC>MOL_PROPERTY
Grad RMS
SciTegic.value.DoubleValue
0.000000

@<SCITEGIC>MOL_PROPERTY
U
SciTegic.value.DoubleValue
12.334

@<SCITEGIC>MOL_PROPERTY
W
SciTegic.value.DoubleValue
-63.472

@<SCITEGIC>MOL_PROPERTY
W(PB)
SciTegic.value.DoubleValue
-65.500

@<SCITEGIC>MOL_PROPERTY
W(SA)
SciTegic.value.DoubleValue
2.028

@<SCITEGIC>MOL_PROPERTY
Valence
SciTegic.value.DoubleValue
9.984

@<SCITEGIC>MOL_PROPERTY
Coulomb
SciTegic.value.DoubleValue
1.767

@<SCITEGIC>MOL_PROPERTY
VdW
SciTegic.value.DoubleValue
0.583

@<SCITEGIC>MOL_PROPERTY
VdW6
SciTegic.value.DoubleValue
-7.767

@<SCITEGIC>MOL_PROPERTY
VdW12
SciTegic.value.DoubleValue
8.349

@<SCITEGIC>MOL_PROPERTY
Bond
SciTegic.value.DoubleValue
0.203

@<SCITEGIC>MOL_PROPERTY
Angle
SciTegic.value.DoubleValue
3.191

@<SCITEGIC>MOL_PROPERTY
Pdih
SciTegic.value.DoubleValue
6.589

@<SCITEGIC>MOL_PROPERTY
Idih
SciTegic.value.DoubleValue
0.001

@<SCITEGIC>MOL_PROPERTY
Tether
SciTegic.value.DoubleValue
0.000

@<TRIPOS>MOLECULE
guest-7_confgen4.mol2 : confsearch ligand conformer 242
          19          18           1
SMALL
USER_CHARGES
 
@<TRIPOS>ATOM
       1    C1      20.500167   20.841410   20.774307 C.2        1 MOL1         0.6115
       2    O1      21.341868   20.919781   19.901111 O.co2      1 MOL1        -0.6776
       3    O2      19.362967   21.250773   20.648246 O.co2      1 MOL1        -0.6776
       4    C2      20.904423   20.221572   22.109450 C.3        1 MOL1        -0.2013
       5    H1      20.161859   20.506744   22.861450 H          1 MOL1         0.0727
       6    H2      21.850026   20.687945   22.409595 H          1 MOL1         0.0727
       7    C3      21.085698   18.678957   22.060291 C.3        1 MOL1        -0.1910
       8    H3      21.786094   18.445148   21.246465 H          1 MOL1         0.0729
       9    H4      21.569009   18.331590   22.983319 H          1 MOL1         0.0729
      10    C4      19.770182   17.890670   21.829006 C.3        1 MOL1        -0.1909
      11    H5      20.004510   17.009224   21.216694 H          1 MOL1         0.0729
      12    H6      19.063836   18.486243   21.234722 H          1 MOL1         0.0729
      13    C5      19.081919   17.389185   23.122338 C.3        1 MOL1        -0.1884
      14    H7      18.213414   16.778426   22.839802 H          1 MOL1         0.0729
      15    H8      19.762850   16.721275   23.667709 H          1 MOL1         0.0729
      16    C6      18.607477   18.516298   24.062593 C.3        1 MOL1        -0.2899
      17    H9      17.983852   19.241784   23.523845 H          1 MOL1         0.0741
      18    H10     18.012299   18.103345   24.887221 H          1 MOL1         0.0741
      19    H11     19.459478   19.047842   24.504080 H          1 MOL1         0.0741
@<TRIPOS>BOND
    1     1     2    1
    2     1     3    2
    3     1     4    1
    4     4     5    1
    5     4     6    1
    6     4     7    1
    7     7     8    1
    8     7     9    1
    9     7    10    1
   10    10    11    1
   11    10    12    1
   12    10    13    1
   13    13    14    1
   14    13    15    1
   15    13    16    1
   16    16    17    1
   17    16    18    1
   18    16    19    1
@<TRIPOS>SUBSTRUCTURE
       1 MOL1            1 RESIDUE      1      MOL     
@<SCITEGIC>MOL_PROPERTY
VConf Rank
SciTegic.value.IntegerValue
242

@<SCITEGIC>MOL_PROPERTY
Conf_Id
SciTegic.value.IntegerValue
73

@<SCITEGIC>MOL_PROPERTY
Delta U+W
SciTegic.value.DoubleValue
3.707

@<SCITEGIC>MOL_PROPERTY
U+W
SciTegic.value.DoubleValue
-51.184

@<SCITEGIC>MOL_PROPERTY
Grad RMS
SciTegic.value.DoubleValue
0.000000

@<SCITEGIC>MOL_PROPERTY
U
SciTegic.value.DoubleValue
12.334

@<SCITEGIC>MOL_PROPERTY
W
SciTegic.value.DoubleValue
-63.519

@<SCITEGIC>MOL_PROPERTY
W(PB)
SciTegic.value.DoubleValue
-65.541

@<SCITEGIC>MOL_PROPERTY
W(SA)
SciTegic.value.DoubleValue
2.022

@<SCITEGIC>MOL_PROPERTY
Valence
SciTegic.value.DoubleValue
9.984

@<SCITEGIC>MOL_PROPERTY
Coulomb
SciTegic.value.DoubleValue
1.768

@<SCITEGIC>MOL_PROPERTY
VdW
SciTegic.value.DoubleValue
0.583

@<SCITEGIC>MOL_PROPERTY
VdW6
SciTegic.value.DoubleValue
-7.767

@<SCITEGIC>MOL_PROPERTY
VdW12
SciTegic.value.DoubleValue
8.350

@<SCITEGIC>MOL_PROPERTY
Bond
SciTegic.value.DoubleValue
0.203

@<SCITEGIC>MOL_PROPERTY
Angle
SciTegic.value.DoubleValue
3.192

@<SCITEGIC>MOL_PROPERTY
Pdih
SciTegic.value.DoubleValue
6.589

@<SCITEGIC>MOL_PROPERTY
Idih
SciTegic.value.DoubleValue
0.001

@<SCITEGIC>MOL_PROPERTY
Tether
SciTegic.value.DoubleValue
0.000

@<TRIPOS>MOLECULE
guest-7_confgen4.mol2 : confsearch ligand conformer 243
          19          18           1
SMALL
USER_CHARGES
 
@<TRIPOS>ATOM
       1    C1      19.956862   18.793267   19.820639 C.2        1 MOL1         0.6115
       2    O1      21.152325   18.981252   19.709989 O.co2      1 MOL1        -0.6776
       3    O2      19.325447   18.046214   19.099261 O.co2      1 MOL1        -0.6776
       4    C2      19.199546   19.559340   20.901811 C.3        1 MOL1        -0.2013
       5    H1      18.332895   20.029312   20.422529 H          1 MOL1         0.0727
       6    H2      19.834296   20.375965   21.264457 H          1 MOL1         0.0727
       7    C3      18.716285   18.676893   22.085033 C.3        1 MOL1        -0.1910
       8    H3      18.121261   19.290139   22.774047 H          1 MOL1         0.0729
       9    H4      18.031750   17.910821   21.695601 H          1 MOL1         0.0729
      10    C4      19.855710   17.972494   22.865818 C.3        1 MOL1        -0.1909
      11    H5      20.368311   17.269480   22.194927 H          1 MOL1         0.0729
      12    H6      19.411069   17.359967   23.661870 H          1 MOL1         0.0729
      13    C5      20.909241   18.918889   23.491617 C.3        1 MOL1        -0.1884
      14    H7      21.668599   18.309041   23.999905 H          1 MOL1         0.0729
      15    H8      21.440535   19.466903   22.701774 H          1 MOL1         0.0729
      16    C6      20.310410   19.915203   24.507705 C.3        1 MOL1        -0.2899
      17    H9      19.627869   20.621571   24.018735 H          1 MOL1         0.0741
      18    H10     19.755935   19.387853   25.294770 H          1 MOL1         0.0741
      19    H11     21.106285   20.499444   24.987331 H          1 MOL1         0.0741
@<TRIPOS>BOND
    1     1     2    1
    2     1     3    2
    3     1     4    1
    4     4     5    1
    5     4     6    1
    6     4     7    1
    7     7     8    1
    8     7     9    1
    9     7    10    1
   10    10    11    1
   11    10    12    1
   12    10    13    1
   13    13    14    1
   14    13    15    1
   15    13    16    1
   16    16    17    1
   17    16    18    1
   18    16    19    1
@<TRIPOS>SUBSTRUCTURE
       1 MOL1            1 RESIDUE      1      MOL     
@<SCITEGIC>MOL_PROPERTY
VConf Rank
SciTegic.value.IntegerValue
243

@<SCITEGIC>MOL_PROPERTY
Conf_Id
SciTegic.value.IntegerValue
56

@<SCITEGIC>MOL_PROPERTY
Delta U+W
SciTegic.value.DoubleValue
1.735

@<SCITEGIC>MOL_PROPERTY
U+W
SciTegic.value.DoubleValue
-53.156

@<SCITEGIC>MOL_PROPERTY
Grad RMS
SciTegic.value.DoubleValue
0.000000

@<SCITEGIC>MOL_PROPERTY
U
SciTegic.value.DoubleValue
10.214

@<SCITEGIC>MOL_PROPERTY
W
SciTegic.value.DoubleValue
-63.370

@<SCITEGIC>MOL_PROPERTY
W(PB)
SciTegic.value.DoubleValue
-65.388

@<SCITEGIC>MOL_PROPERTY
W(SA)
SciTegic.value.DoubleValue
2.018

@<SCITEGIC>MOL_PROPERTY
Valence
SciTegic.value.DoubleValue
7.868

@<SCITEGIC>MOL_PROPERTY
Coulomb
SciTegic.value.DoubleValue
1.968

@<SCITEGIC>MOL_PROPERTY
VdW
SciTegic.value.DoubleValue
0.378

@<SCITEGIC>MOL_PROPERTY
VdW6
SciTegic.value.DoubleValue
-8.067

@<SCITEGIC>MOL_PROPERTY
VdW12
SciTegic.value.DoubleValue
8.445

@<SCITEGIC>MOL_PROPERTY
Bond
SciTegic.value.DoubleValue
0.191

@<SCITEGIC>MOL_PROPERTY
Angle
SciTegic.value.DoubleValue
3.117

@<SCITEGIC>MOL_PROPERTY
Pdih
SciTegic.value.DoubleValue
4.559

@<SCITEGIC>MOL_PROPERTY
Idih
SciTegic.value.DoubleValue
0.001

@<SCITEGIC>MOL_PROPERTY
Tether
SciTegic.value.DoubleValue
0.000

@<TRIPOS>MOLECULE
guest-7_confgen4.mol2 : confsearch ligand conformer 244
          19          18           1
SMALL
USER_CHARGES
 
@<TRIPOS>ATOM
       1    C1      20.255485   21.787704   22.939628 C.2        1 MOL1         0.6115
       2    O1      20.806748   22.580338   22.201926 O.co2      1 MOL1        -0.6776
       3    O2      19.955643   22.037118   24.090393 O.co2      1 MOL1        -0.6776
       4    C2      19.942483   20.397331   22.398214 C.3        1 MOL1        -0.2013
       5    H1      19.746229   20.485746   21.323019 H          1 MOL1         0.0727
       6    H2      19.017384   20.056216   22.876067 H          1 MOL1         0.0727
       7    C3      21.085120   19.382188   22.652854 C.3        1 MOL1        -0.1910
       8    H3      22.027259   19.814900   22.288803 H          1 MOL1         0.0729
       9    H4      21.209521   19.241898   23.735461 H          1 MOL1         0.0729
      10    C4      20.881339   18.006309   21.970268 C.3        1 MOL1        -0.1909
      11    H5      21.773182   17.399380   22.178175 H          1 MOL1         0.0729
      12    H6      20.850728   18.127364   20.878752 H          1 MOL1         0.0729
      13    C5      19.639163   17.219853   22.457704 C.3        1 MOL1        -0.1884
      14    H7      19.884815   16.148941   22.469604 H          1 MOL1         0.0729
      15    H8      19.400091   17.489738   23.495642 H          1 MOL1         0.0729
      16    C6      18.400969   17.414248   21.554481 C.3        1 MOL1        -0.2899
      17    H9      17.555249   16.824546   21.931158 H          1 MOL1         0.0741
      18    H10     18.085129   18.462659   21.513284 H          1 MOL1         0.0741
      19    H11     18.610287   17.083020   20.529002 H          1 MOL1         0.0741
@<TRIPOS>BOND
    1     1     2    1
    2     1     3    2
    3     1     4    1
    4     4     5    1
    5     4     6    1
    6     4     7    1
    7     7     8    1
    8     7     9    1
    9     7    10    1
   10    10    11    1
   11    10    12    1
   12    10    13    1
   13    13    14    1
   14    13    15    1
   15    13    16    1
   16    16    17    1
   17    16    18    1
   18    16    19    1
@<TRIPOS>SUBSTRUCTURE
       1 MOL1            1 RESIDUE      1      MOL     
@<SCITEGIC>MOL_PROPERTY
VConf Rank
SciTegic.value.IntegerValue
244

@<SCITEGIC>MOL_PROPERTY
Conf_Id
SciTegic.value.IntegerValue
53

@<SCITEGIC>MOL_PROPERTY
Delta U+W
SciTegic.value.DoubleValue
2.279

@<SCITEGIC>MOL_PROPERTY
U+W
SciTegic.value.DoubleValue
-52.612

@<SCITEGIC>MOL_PROPERTY
Grad RMS
SciTegic.value.DoubleValue
0.000000

@<SCITEGIC>MOL_PROPERTY
U
SciTegic.value.DoubleValue
10.231

@<SCITEGIC>MOL_PROPERTY
W
SciTegic.value.DoubleValue
-62.843

@<SCITEGIC>MOL_PROPERTY
W(PB)
SciTegic.value.DoubleValue
-64.893

@<SCITEGIC>MOL_PROPERTY
W(SA)
SciTegic.value.DoubleValue
2.050

@<SCITEGIC>MOL_PROPERTY
Valence
SciTegic.value.DoubleValue
9.644

@<SCITEGIC>MOL_PROPERTY
Coulomb
SciTegic.value.DoubleValue
-0.164

@<SCITEGIC>MOL_PROPERTY
VdW
SciTegic.value.DoubleValue
0.751

@<SCITEGIC>MOL_PROPERTY
VdW6
SciTegic.value.DoubleValue
-6.881

@<SCITEGIC>MOL_PROPERTY
VdW12
SciTegic.value.DoubleValue
7.631

@<SCITEGIC>MOL_PROPERTY
Bond
SciTegic.value.DoubleValue
0.163

@<SCITEGIC>MOL_PROPERTY
Angle
SciTegic.value.DoubleValue
2.998

@<SCITEGIC>MOL_PROPERTY
Pdih
SciTegic.value.DoubleValue
6.482

@<SCITEGIC>MOL_PROPERTY
Idih
SciTegic.value.DoubleValue
0.001

@<SCITEGIC>MOL_PROPERTY
Tether
SciTegic.value.DoubleValue
0.000

@<TRIPOS>MOLECULE
guest-7_confgen4.mol2 : confsearch ligand conformer 245
          19          18           1
SMALL
USER_CHARGES
 
@<TRIPOS>ATOM
       1    C1      18.982059   19.803704   20.588822 C.2        1 MOL1         0.6115
       2    O1      18.784570   20.961646   20.900307 O.co2      1 MOL1        -0.6776
       3    O2      18.094017   19.030788   20.286782 O.co2      1 MOL1        -0.6776
       4    C2      20.427510   19.316664   20.505495 C.3        1 MOL1        -0.2013
       5    H1      21.098902   20.147629   20.753796 H          1 MOL1         0.0727
       6    H2      20.609661   19.070405   19.452974 H          1 MOL1         0.0727
       7    C3      20.761448   18.075304   21.379930 C.3        1 MOL1        -0.1910
       8    H3      19.966537   17.322980   21.281608 H          1 MOL1         0.0729
       9    H4      21.669701   17.609609   20.974194 H          1 MOL1         0.0729
      10    C4      21.018231   18.384396   22.875658 C.3        1 MOL1        -0.1909
      11    H5      21.818520   19.131423   22.966890 H          1 MOL1         0.0729
      12    H6      21.394040   17.469705   23.354319 H          1 MOL1         0.0729
      13    C5      19.767648   18.867057   23.642896 C.3        1 MOL1        -0.1884
      14    H7      19.451024   19.848589   23.267730 H          1 MOL1         0.0729
      15    H8      18.933809   18.172508   23.470519 H          1 MOL1         0.0729
      16    C6      20.040499   18.977432   25.156569 C.3        1 MOL1        -0.2899
      17    H9      20.854139   19.686597   25.357649 H          1 MOL1         0.0741
      18    H10     19.145418   19.329472   25.685664 H          1 MOL1         0.0741
      19    H11     20.321864   18.003450   25.577890 H          1 MOL1         0.0741
@<TRIPOS>BOND
    1     1     2    1
    2     1     3    2
    3     1     4    1
    4     4     5    1
    5     4     6    1
    6     4     7    1
    7     7     8    1
    8     7     9    1
    9     7    10    1
   10    10    11    1
   11    10    12    1
   12    10    13    1
   13    13    14    1
   14    13    15    1
   15    13    16    1
   16    16    17    1
   17    16    18    1
   18    16    19    1
@<TRIPOS>SUBSTRUCTURE
       1 MOL1            1 RESIDUE      1      MOL     
@<SCITEGIC>MOL_PROPERTY
VConf Rank
SciTegic.value.IntegerValue
245

@<SCITEGIC>MOL_PROPERTY
Conf_Id
SciTegic.value.IntegerValue
25

@<SCITEGIC>MOL_PROPERTY
Delta U+W
SciTegic.value.DoubleValue
2.065

@<SCITEGIC>MOL_PROPERTY
U+W
SciTegic.value.DoubleValue
-52.826

@<SCITEGIC>MOL_PROPERTY
Grad RMS
SciTegic.value.DoubleValue
0.000000

@<SCITEGIC>MOL_PROPERTY
U
SciTegic.value.DoubleValue
10.967

@<SCITEGIC>MOL_PROPERTY
W
SciTegic.value.DoubleValue
-63.794

@<SCITEGIC>MOL_PROPERTY
W(PB)
SciTegic.value.DoubleValue
-65.830

@<SCITEGIC>MOL_PROPERTY
W(SA)
SciTegic.value.DoubleValue
2.036

@<SCITEGIC>MOL_PROPERTY
Valence
SciTegic.value.DoubleValue
8.609

@<SCITEGIC>MOL_PROPERTY
Coulomb
SciTegic.value.DoubleValue
1.892

@<SCITEGIC>MOL_PROPERTY
VdW
SciTegic.value.DoubleValue
0.467

@<SCITEGIC>MOL_PROPERTY
VdW6
SciTegic.value.DoubleValue
-7.569

@<SCITEGIC>MOL_PROPERTY
VdW12
SciTegic.value.DoubleValue
8.036

@<SCITEGIC>MOL_PROPERTY
Bond
SciTegic.value.DoubleValue
0.170

@<SCITEGIC>MOL_PROPERTY
Angle
SciTegic.value.DoubleValue
3.195

@<SCITEGIC>MOL_PROPERTY
Pdih
SciTegic.value.DoubleValue
5.237

@<SCITEGIC>MOL_PROPERTY
Idih
SciTegic.value.DoubleValue
0.007

@<SCITEGIC>MOL_PROPERTY
Tether
SciTegic.value.DoubleValue
0.000

@<TRIPOS>MOLECULE
guest-7_confgen4.mol2 : confsearch ligand conformer 246
          19          18           1
SMALL
USER_CHARGES
 
@<TRIPOS>ATOM
       1    C1      21.896831   20.113058   21.466380 C.2        1 MOL1         0.6115
       2    O1      22.546050   20.653122   22.340504 O.co2      1 MOL1        -0.6776
       3    O2      21.329829   20.721823   20.580509 O.co2      1 MOL1        -0.6776
       4    C2      21.847585   18.586557   21.437147 C.3        1 MOL1        -0.2013
       5    H1      22.877847   18.247872   21.277529 H          1 MOL1         0.0727
       6    H2      21.272416   18.264840   20.560448 H          1 MOL1         0.0727
       7    C3      21.288653   17.915410   22.723337 C.3        1 MOL1        -0.1910
       8    H3      21.634943   16.873180   22.739405 H          1 MOL1         0.0729
       9    H4      21.722812   18.391677   23.613403 H          1 MOL1         0.0729
      10    C4      19.743587   17.900294   22.829266 C.3        1 MOL1        -0.1909
      11    H5      19.465637   17.271308   23.686081 H          1 MOL1         0.0729
      12    H6      19.316597   17.416575   21.940147 H          1 MOL1         0.0729
      13    C5      19.111154   19.297194   23.014403 C.3        1 MOL1        -0.1884
      14    H7      19.607086   19.823954   23.841428 H          1 MOL1         0.0729
      15    H8      19.262784   19.902076   22.111334 H          1 MOL1         0.0729
      16    C6      17.598912   19.199952   23.299891 C.3        1 MOL1        -0.2899
      17    H9      17.163511   20.200442   23.420269 H          1 MOL1         0.0741
      18    H10     17.075486   18.699401   22.474765 H          1 MOL1         0.0741
      19    H11     17.407822   18.634316   24.221225 H          1 MOL1         0.0741
@<TRIPOS>BOND
    1     1     2    1
    2     1     3    2
    3     1     4    1
    4     4     5    1
    5     4     6    1
    6     4     7    1
    7     7     8    1
    8     7     9    1
    9     7    10    1
   10    10    11    1
   11    10    12    1
   12    10    13    1
   13    13    14    1
   14    13    15    1
   15    13    16    1
   16    16    17    1
   17    16    18    1
   18    16    19    1
@<TRIPOS>SUBSTRUCTURE
       1 MOL1            1 RESIDUE      1      MOL     
@<SCITEGIC>MOL_PROPERTY
VConf Rank
SciTegic.value.IntegerValue
246

@<SCITEGIC>MOL_PROPERTY
Conf_Id
SciTegic.value.IntegerValue
52

@<SCITEGIC>MOL_PROPERTY
Delta U+W
SciTegic.value.DoubleValue
2.070

@<SCITEGIC>MOL_PROPERTY
U+W
SciTegic.value.DoubleValue
-52.822

@<SCITEGIC>MOL_PROPERTY
Grad RMS
SciTegic.value.DoubleValue
0.000000

@<SCITEGIC>MOL_PROPERTY
U
SciTegic.value.DoubleValue
10.967

@<SCITEGIC>MOL_PROPERTY
W
SciTegic.value.DoubleValue
-63.789

@<SCITEGIC>MOL_PROPERTY
W(PB)
SciTegic.value.DoubleValue
-65.837

@<SCITEGIC>MOL_PROPERTY
W(SA)
SciTegic.value.DoubleValue
2.048

@<SCITEGIC>MOL_PROPERTY
Valence
SciTegic.value.DoubleValue
8.609

@<SCITEGIC>MOL_PROPERTY
Coulomb
SciTegic.value.DoubleValue
1.892

@<SCITEGIC>MOL_PROPERTY
VdW
SciTegic.value.DoubleValue
0.467

@<SCITEGIC>MOL_PROPERTY
VdW6
SciTegic.value.DoubleValue
-7.569

@<SCITEGIC>MOL_PROPERTY
VdW12
SciTegic.value.DoubleValue
8.035

@<SCITEGIC>MOL_PROPERTY
Bond
SciTegic.value.DoubleValue
0.170

@<SCITEGIC>MOL_PROPERTY
Angle
SciTegic.value.DoubleValue
3.196

@<SCITEGIC>MOL_PROPERTY
Pdih
SciTegic.value.DoubleValue
5.237

@<SCITEGIC>MOL_PROPERTY
Idih
SciTegic.value.DoubleValue
0.007

@<SCITEGIC>MOL_PROPERTY
Tether
SciTegic.value.DoubleValue
0.000

@<TRIPOS>MOLECULE
guest-7_confgen4.mol2 : confsearch ligand conformer 247
          19          18           1
SMALL
USER_CHARGES
 
@<TRIPOS>ATOM
       1    C1      18.353881   19.472182   21.177548 C.2        1 MOL1         0.6115
       2    O1      17.445841   18.665398   21.229292 O.co2      1 MOL1        -0.6776
       3    O2      18.182647   20.672409   21.260195 O.co2      1 MOL1        -0.6776
       4    C2      19.765111   18.970463   20.867564 C.3        1 MOL1        -0.2013
       5    H1      20.475947   19.793614   21.007823 H          1 MOL1         0.0727
       6    H2      19.772785   18.730309   19.798199 H          1 MOL1         0.0727
       7    C3      20.228221   17.718780   21.666432 C.3        1 MOL1        -0.1910
       8    H3      19.403159   16.997494   21.745808 H          1 MOL1         0.0729
       9    H4      21.008344   17.214473   21.080396 H          1 MOL1         0.0729
      10    C4      20.814846   18.006651   23.072198 C.3        1 MOL1        -0.1909
      11    H5      21.702474   18.648069   22.984238 H          1 MOL1         0.0729
      12    H6      21.178423   17.053063   23.478952 H          1 MOL1         0.0729
      13    C5      19.814257   18.609461   24.087793 C.3        1 MOL1        -0.1884
      14    H7      18.781390   18.376564   23.794024 H          1 MOL1         0.0729
      15    H8      19.967973   18.129957   25.064315 H          1 MOL1         0.0729
      16    C6      19.990558   20.132472   24.268000 C.3        1 MOL1        -0.2899
      17    H9      20.989618   20.367426   24.657374 H          1 MOL1         0.0741
      18    H10     19.862664   20.666824   23.319401 H          1 MOL1         0.0741
      19    H11     19.250591   20.524618   24.977428 H          1 MOL1         0.0741
@<TRIPOS>BOND
    1     1     2    1
    2     1     3    2
    3     1     4    1
    4     4     5    1
    5     4     6    1
    6     4     7    1
    7     7     8    1
    8     7     9    1
    9     7    10    1
   10    10    11    1
   11    10    12    1
   12    10    13    1
   13    13    14    1
   14    13    15    1
   15    13    16    1
   16    16    17    1
   17    16    18    1
   18    16    19    1
@<TRIPOS>SUBSTRUCTURE
       1 MOL1            1 RESIDUE      1      MOL     
@<SCITEGIC>MOL_PROPERTY
VConf Rank
SciTegic.value.IntegerValue
247

@<SCITEGIC>MOL_PROPERTY
Conf_Id
SciTegic.value.IntegerValue
66

@<SCITEGIC>MOL_PROPERTY
Delta U+W
SciTegic.value.DoubleValue
5.819

@<SCITEGIC>MOL_PROPERTY
U+W
SciTegic.value.DoubleValue
-49.072

@<SCITEGIC>MOL_PROPERTY
Grad RMS
SciTegic.value.DoubleValue
0.000000

@<SCITEGIC>MOL_PROPERTY
U
SciTegic.value.DoubleValue
15.324

@<SCITEGIC>MOL_PROPERTY
W
SciTegic.value.DoubleValue
-64.396

@<SCITEGIC>MOL_PROPERTY
W(PB)
SciTegic.value.DoubleValue
-66.382

@<SCITEGIC>MOL_PROPERTY
W(SA)
SciTegic.value.DoubleValue
1.986

@<SCITEGIC>MOL_PROPERTY
Valence
SciTegic.value.DoubleValue
11.748

@<SCITEGIC>MOL_PROPERTY
Coulomb
SciTegic.value.DoubleValue
3.201

@<SCITEGIC>MOL_PROPERTY
VdW
SciTegic.value.DoubleValue
0.375

@<SCITEGIC>MOL_PROPERTY
VdW6
SciTegic.value.DoubleValue
-8.854

@<SCITEGIC>MOL_PROPERTY
VdW12
SciTegic.value.DoubleValue
9.229

@<SCITEGIC>MOL_PROPERTY
Bond
SciTegic.value.DoubleValue
0.216

@<SCITEGIC>MOL_PROPERTY
Angle
SciTegic.value.DoubleValue
3.812

@<SCITEGIC>MOL_PROPERTY
Pdih
SciTegic.value.DoubleValue
7.699

@<SCITEGIC>MOL_PROPERTY
Idih
SciTegic.value.DoubleValue
0.022

@<SCITEGIC>MOL_PROPERTY
Tether
SciTegic.value.DoubleValue
0.000

@<TRIPOS>MOLECULE
guest-7_confgen4.mol2 : confsearch ligand conformer 248
          19          18           1
SMALL
USER_CHARGES
 
@<TRIPOS>ATOM
       1    C1      17.737626   16.364054   22.579190 C.2        1 MOL1         0.6115
       2    O1      16.580809   16.163214   22.890798 O.co2      1 MOL1        -0.6776
       3    O2      18.513113   15.471424   22.296391 O.co2      1 MOL1        -0.6776
       4    C2      18.210658   17.818397   22.550830 C.3        1 MOL1        -0.2013
       5    H1      18.036308   18.238622   23.548358 H          1 MOL1         0.0727
       6    H2      17.558963   18.360872   21.855802 H          1 MOL1         0.0727
       7    C3      19.694827   18.025138   22.147181 C.3        1 MOL1        -0.1910
       8    H3      20.342056   17.474474   22.843839 H          1 MOL1         0.0729
       9    H4      19.864220   17.596803   21.149532 H          1 MOL1         0.0729
      10    C4      20.086412   19.518763   22.144588 C.3        1 MOL1        -0.1909
      11    H5      19.916111   19.944993   23.142824 H          1 MOL1         0.0729
      12    H6      19.438065   20.067385   21.447587 H          1 MOL1         0.0729
      13    C5      21.562176   19.722068   21.743112 C.3        1 MOL1        -0.1884
      14    H7      22.214159   19.176259   22.439174 H          1 MOL1         0.0729
      15    H8      21.736144   19.298749   20.744097 H          1 MOL1         0.0729
      16    C6      21.949655   21.214331   21.741681 C.3        1 MOL1        -0.2899
      17    H9      21.815213   21.656008   22.737808 H          1 MOL1         0.0741
      18    H10     23.001561   21.340534   21.454151 H          1 MOL1         0.0741
      19    H11     21.333579   21.779434   21.029972 H          1 MOL1         0.0741
@<TRIPOS>BOND
    1     1     2    1
    2     1     3    2
    3     1     4    1
    4     4     5    1
    5     4     6    1
    6     4     7    1
    7     7     8    1
    8     7     9    1
    9     7    10    1
   10    10    11    1
   11    10    12    1
   12    10    13    1
   13    13    14    1
   14    13    15    1
   15    13    16    1
   16    16    17    1
   17    16    18    1
   18    16    19    1
@<TRIPOS>SUBSTRUCTURE
       1 MOL1            1 RESIDUE      1      MOL     
@<SCITEGIC>MOL_PROPERTY
VConf Rank
SciTegic.value.IntegerValue
248

@<SCITEGIC>MOL_PROPERTY
Conf_Id
SciTegic.value.IntegerValue
0

@<SCITEGIC>MOL_PROPERTY
Delta U+W
SciTegic.value.DoubleValue
0.000

@<SCITEGIC>MOL_PROPERTY
U+W
SciTegic.value.DoubleValue
-54.891

@<SCITEGIC>MOL_PROPERTY
Grad RMS
SciTegic.value.DoubleValue
0.000000

@<SCITEGIC>MOL_PROPERTY
U
SciTegic.value.DoubleValue
6.966

@<SCITEGIC>MOL_PROPERTY
W
SciTegic.value.DoubleValue
-61.857

@<SCITEGIC>MOL_PROPERTY
W(PB)
SciTegic.value.DoubleValue
-63.965

@<SCITEGIC>MOL_PROPERTY
W(SA)
SciTegic.value.DoubleValue
2.108

@<SCITEGIC>MOL_PROPERTY
Valence
SciTegic.value.DoubleValue
7.175

@<SCITEGIC>MOL_PROPERTY
Coulomb
SciTegic.value.DoubleValue
-1.360

@<SCITEGIC>MOL_PROPERTY
VdW
SciTegic.value.DoubleValue
1.151

@<SCITEGIC>MOL_PROPERTY
VdW6
SciTegic.value.DoubleValue
-5.641

@<SCITEGIC>MOL_PROPERTY
VdW12
SciTegic.value.DoubleValue
6.792

@<SCITEGIC>MOL_PROPERTY
Bond
SciTegic.value.DoubleValue
0.119

@<SCITEGIC>MOL_PROPERTY
Angle
SciTegic.value.DoubleValue
2.715

@<SCITEGIC>MOL_PROPERTY
Pdih
SciTegic.value.DoubleValue
4.340

@<SCITEGIC>MOL_PROPERTY
Idih
SciTegic.value.DoubleValue
0.000

@<SCITEGIC>MOL_PROPERTY
Tether
SciTegic.value.DoubleValue
0.000

@<TRIPOS>MOLECULE
guest-7_confgen4.mol2 : confsearch ligand conformer 249
          19          18           1
SMALL
USER_CHARGES
 
@<TRIPOS>ATOM
       1    C1      18.386125   21.691081   23.375855 C.2        1 MOL1         0.6115
       2    O1      19.132279   22.597245   23.689386 O.co2      1 MOL1        -0.6776
       3    O2      17.247766   21.861230   22.986793 O.co2      1 MOL1        -0.6776
       4    C2      18.914163   20.263074   23.455494 C.3        1 MOL1        -0.2013
       5    H1      18.075277   19.602953   23.706994 H          1 MOL1         0.0727
       6    H2      19.628749   20.209652   24.285709 H          1 MOL1         0.0727
       7    C3      19.586417   19.795462   22.141140 C.3        1 MOL1        -0.1910
       8    H3      18.862141   19.866882   21.317810 H          1 MOL1         0.0729
       9    H4      20.415642   20.473749   21.896470 H          1 MOL1         0.0729
      10    C4      20.112158   18.347771   22.247974 C.3        1 MOL1        -0.1909
      11    H5      19.281165   17.672401   22.493978 H          1 MOL1         0.0729
      12    H6      20.834958   18.279379   23.072641 H          1 MOL1         0.0729
      13    C5      20.781257   17.884593   20.937193 C.3        1 MOL1        -0.1884
      14    H7      20.060730   17.949764   20.110098 H          1 MOL1         0.0729
      15    H8      21.614414   18.556618   20.688746 H          1 MOL1         0.0729
      16    C6      21.304949   16.438718   21.047409 C.3        1 MOL1        -0.2899
      17    H9      21.777343   16.125704   20.107210 H          1 MOL1         0.0741
      18    H10     22.051731   16.351358   21.847477 H          1 MOL1         0.0741
      19    H11     20.486396   15.739967   21.264532 H          1 MOL1         0.0741
@<TRIPOS>BOND
    1     1     2    1
    2     1     3    2
    3     1     4    1
    4     4     5    1
    5     4     6    1
    6     4     7    1
    7     7     8    1
    8     7     9    1
    9     7    10    1
   10    10    11    1
   11    10    12    1
   12    10    13    1
   13    13    14    1
   14    13    15    1
   15    13    16    1
   16    16    17    1
   17    16    18    1
   18    16    19    1
@<TRIPOS>SUBSTRUCTURE
       1 MOL1            1 RESIDUE      1      MOL     
@<SCITEGIC>MOL_PROPERTY
VConf Rank
SciTegic.value.IntegerValue
249

@<SCITEGIC>MOL_PROPERTY
Conf_Id
SciTegic.value.IntegerValue
18

@<SCITEGIC>MOL_PROPERTY
Delta U+W
SciTegic.value.DoubleValue
-1.199

@<SCITEGIC>MOL_PROPERTY
U+W
SciTegic.value.DoubleValue
-56.090

@<SCITEGIC>MOL_PROPERTY
Grad RMS
SciTegic.value.DoubleValue
0.000000

@<SCITEGIC>MOL_PROPERTY
U
SciTegic.value.DoubleValue
5.975

@<SCITEGIC>MOL_PROPERTY
W
SciTegic.value.DoubleValue
-62.066

@<SCITEGIC>MOL_PROPERTY
W(PB)
SciTegic.value.DoubleValue
-64.219

@<SCITEGIC>MOL_PROPERTY
W(SA)
SciTegic.value.DoubleValue
2.153

@<SCITEGIC>MOL_PROPERTY
Valence
SciTegic.value.DoubleValue
6.673

@<SCITEGIC>MOL_PROPERTY
Coulomb
SciTegic.value.DoubleValue
-1.307

@<SCITEGIC>MOL_PROPERTY
VdW
SciTegic.value.DoubleValue
0.610

@<SCITEGIC>MOL_PROPERTY
VdW6
SciTegic.value.DoubleValue
-5.351

@<SCITEGIC>MOL_PROPERTY
VdW12
SciTegic.value.DoubleValue
5.961

@<SCITEGIC>MOL_PROPERTY
Bond
SciTegic.value.DoubleValue
0.086

@<SCITEGIC>MOL_PROPERTY
Angle
SciTegic.value.DoubleValue
2.253

@<SCITEGIC>MOL_PROPERTY
Pdih
SciTegic.value.DoubleValue
4.333

@<SCITEGIC>MOL_PROPERTY
Idih
SciTegic.value.DoubleValue
0.001

@<SCITEGIC>MOL_PROPERTY
Tether
SciTegic.value.DoubleValue
0.000

@<TRIPOS>MOLECULE
guest-7_confgen4.mol2 : confsearch ligand conformer 250
          19          18           1
SMALL
USER_CHARGES
 
@<TRIPOS>ATOM
       1    C1      21.936747   17.296882   20.215395 C.2        1 MOL1         0.6115
       2    O1      21.552736   16.699490   19.229522 O.co2      1 MOL1        -0.6776
       3    O2      23.093843   17.619640   20.397659 O.co2      1 MOL1        -0.6776
       4    C2      20.906497   17.681163   21.271460 C.3        1 MOL1        -0.2013
       5    H1      21.403430   17.652921   22.247730 H          1 MOL1         0.0727
       6    H2      20.125631   16.911316   21.281107 H          1 MOL1         0.0727
       7    C3      20.278679   19.076399   21.017800 C.3        1 MOL1        -0.1910
       8    H3      21.063769   19.844248   21.054558 H          1 MOL1         0.0729
       9    H4      19.870391   19.098935   19.997890 H          1 MOL1         0.0729
      10    C4      19.148935   19.435549   22.011894 C.3        1 MOL1        -0.1909
      11    H5      18.361730   18.670526   21.966565 H          1 MOL1         0.0729
      12    H6      18.685777   20.377577   21.687732 H          1 MOL1         0.0729
      13    C5      19.639381   19.592555   23.468714 C.3        1 MOL1        -0.1884
      14    H7      20.037865   18.638914   23.839036 H          1 MOL1         0.0729
      15    H8      20.461522   20.320504   23.506678 H          1 MOL1         0.0729
      16    C6      18.501982   20.056055   24.400787 C.3        1 MOL1        -0.2899
      17    H9      18.864889   20.160042   25.431600 H          1 MOL1         0.0741
      18    H10     18.103960   21.028393   24.082159 H          1 MOL1         0.0741
      19    H11     17.676886   19.331751   24.403267 H          1 MOL1         0.0741
@<TRIPOS>BOND
    1     1     2    1
    2     1     3    2
    3     1     4    1
    4     4     5    1
    5     4     6    1
    6     4     7    1
    7     7     8    1
    8     7     9    1
    9     7    10    1
   10    10    11    1
   11    10    12    1
   12    10    13    1
   13    13    14    1
   14    13    15    1
   15    13    16    1
   16    16    17    1
   17    16    18    1
   18    16    19    1
@<TRIPOS>SUBSTRUCTURE
       1 MOL1            1 RESIDUE      1      MOL     
@<SCITEGIC>MOL_PROPERTY
VConf Rank
SciTegic.value.IntegerValue
250

@<SCITEGIC>MOL_PROPERTY
Conf_Id
SciTegic.value.IntegerValue
34

@<SCITEGIC>MOL_PROPERTY
Delta U+W
SciTegic.value.DoubleValue
-0.563

@<SCITEGIC>MOL_PROPERTY
U+W
SciTegic.value.DoubleValue
-55.455

@<SCITEGIC>MOL_PROPERTY
Grad RMS
SciTegic.value.DoubleValue
0.000000

@<SCITEGIC>MOL_PROPERTY
U
SciTegic.value.DoubleValue
6.914

@<SCITEGIC>MOL_PROPERTY
W
SciTegic.value.DoubleValue
-62.369

@<SCITEGIC>MOL_PROPERTY
W(PB)
SciTegic.value.DoubleValue
-64.446

@<SCITEGIC>MOL_PROPERTY
W(SA)
SciTegic.value.DoubleValue
2.077

@<SCITEGIC>MOL_PROPERTY
Valence
SciTegic.value.DoubleValue
7.196

@<SCITEGIC>MOL_PROPERTY
Coulomb
SciTegic.value.DoubleValue
-1.020

@<SCITEGIC>MOL_PROPERTY
VdW
SciTegic.value.DoubleValue
0.738

@<SCITEGIC>MOL_PROPERTY
VdW6
SciTegic.value.DoubleValue
-6.010

@<SCITEGIC>MOL_PROPERTY
VdW12
SciTegic.value.DoubleValue
6.748

@<SCITEGIC>MOL_PROPERTY
Bond
SciTegic.value.DoubleValue
0.126

@<SCITEGIC>MOL_PROPERTY
Angle
SciTegic.value.DoubleValue
2.499

@<SCITEGIC>MOL_PROPERTY
Pdih
SciTegic.value.DoubleValue
4.570

@<SCITEGIC>MOL_PROPERTY
Idih
SciTegic.value.DoubleValue
0.001

@<SCITEGIC>MOL_PROPERTY
Tether
SciTegic.value.DoubleValue
0.000

@<TRIPOS>MOLECULE
guest-7_confgen4.mol2 : confsearch ligand conformer 251
          19          18           1
SMALL
USER_CHARGES
 
@<TRIPOS>ATOM
       1    C1      21.566724   17.933939   19.574322 C.2        1 MOL1         0.6115
       2    O1      22.243625   16.925501   19.540441 O.co2      1 MOL1        -0.6776
       3    O2      21.661668   18.834873   18.764652 O.co2      1 MOL1        -0.6776
       4    C2      20.558440   18.086823   20.707613 C.3        1 MOL1        -0.2013
       5    H1      20.192526   17.088156   20.974601 H          1 MOL1         0.0727
       6    H2      19.704398   18.653411   20.319754 H          1 MOL1         0.0727
       7    C3      21.158422   18.787412   21.954361 C.3        1 MOL1        -0.1910
       8    H3      22.063904   18.245818   22.261284 H          1 MOL1         0.0729
       9    H4      21.480701   19.802783   21.685164 H          1 MOL1         0.0729
      10    C4      20.186283   18.848702   23.156323 C.3        1 MOL1        -0.1909
      11    H5      20.729079   19.248914   24.023627 H          1 MOL1         0.0729
      12    H6      19.872657   17.831529   23.428363 H          1 MOL1         0.0729
      13    C5      18.941002   19.725412   22.895238 C.3        1 MOL1        -0.1884
      14    H7      19.254438   20.728225   22.573689 H          1 MOL1         0.0729
      15    H8      18.342217   19.299464   22.079525 H          1 MOL1         0.0729
      16    C6      18.059559   19.844029   24.154703 C.3        1 MOL1        -0.2899
      17    H9      17.709012   18.856662   24.482772 H          1 MOL1         0.0741
      18    H10     18.616041   20.302953   24.982413 H          1 MOL1         0.0741
      19    H11     17.178350   20.466737   23.952726 H          1 MOL1         0.0741
@<TRIPOS>BOND
    1     1     2    1
    2     1     3    2
    3     1     4    1
    4     4     5    1
    5     4     6    1
    6     4     7    1
    7     7     8    1
    8     7     9    1
    9     7    10    1
   10    10    11    1
   11    10    12    1
   12    10    13    1
   13    13    14    1
   14    13    15    1
   15    13    16    1
   16    16    17    1
   17    16    18    1
   18    16    19    1
@<TRIPOS>SUBSTRUCTURE
       1 MOL1            1 RESIDUE      1      MOL     
@<SCITEGIC>MOL_PROPERTY
VConf Rank
SciTegic.value.IntegerValue
251

@<SCITEGIC>MOL_PROPERTY
Conf_Id
SciTegic.value.IntegerValue
33

@<SCITEGIC>MOL_PROPERTY
Delta U+W
SciTegic.value.DoubleValue
-0.526

@<SCITEGIC>MOL_PROPERTY
U+W
SciTegic.value.DoubleValue
-55.418

@<SCITEGIC>MOL_PROPERTY
Grad RMS
SciTegic.value.DoubleValue
0.000000

@<SCITEGIC>MOL_PROPERTY
U
SciTegic.value.DoubleValue
6.914

@<SCITEGIC>MOL_PROPERTY
W
SciTegic.value.DoubleValue
-62.332

@<SCITEGIC>MOL_PROPERTY
W(PB)
SciTegic.value.DoubleValue
-64.421

@<SCITEGIC>MOL_PROPERTY
W(SA)
SciTegic.value.DoubleValue
2.090

@<SCITEGIC>MOL_PROPERTY
Valence
SciTegic.value.DoubleValue
7.196

@<SCITEGIC>MOL_PROPERTY
Coulomb
SciTegic.value.DoubleValue
-1.020

@<SCITEGIC>MOL_PROPERTY
VdW
SciTegic.value.DoubleValue
0.738

@<SCITEGIC>MOL_PROPERTY
VdW6
SciTegic.value.DoubleValue
-6.010

@<SCITEGIC>MOL_PROPERTY
VdW12
SciTegic.value.DoubleValue
6.748

@<SCITEGIC>MOL_PROPERTY
Bond
SciTegic.value.DoubleValue
0.126

@<SCITEGIC>MOL_PROPERTY
Angle
SciTegic.value.DoubleValue
2.499

@<SCITEGIC>MOL_PROPERTY
Pdih
SciTegic.value.DoubleValue
4.570

@<SCITEGIC>MOL_PROPERTY
Idih
SciTegic.value.DoubleValue
0.001

@<SCITEGIC>MOL_PROPERTY
Tether
SciTegic.value.DoubleValue
0.000

@<TRIPOS>MOLECULE
guest-7_confgen4.mol2 : confsearch ligand conformer 252
          19          18           1
SMALL
USER_CHARGES
 
@<TRIPOS>ATOM
       1    C1      18.934301   17.793790   19.450912 C.2        1 MOL1         0.6115
       2    O1      17.805503   17.357261   19.558044 O.co2      1 MOL1        -0.6776
       3    O2      19.353555   18.335079   18.447181 O.co2      1 MOL1        -0.6776
       4    C2      19.870711   17.671349   20.647843 C.3        1 MOL1        -0.2013
       5    H1      20.892966   17.550724   20.269527 H          1 MOL1         0.0727
       6    H2      19.614569   16.752301   21.188647 H          1 MOL1         0.0727
       7    C3      19.793137   18.890062   21.600294 C.3        1 MOL1        -0.1910
       8    H3      20.042806   19.803015   21.042245 H          1 MOL1         0.0729
       9    H4      18.758621   19.001757   21.950894 H          1 MOL1         0.0729
      10    C4      20.749503   18.737543   22.805601 C.3        1 MOL1        -0.1909
      11    H5      21.767137   18.555501   22.433750 H          1 MOL1         0.0729
      12    H6      20.468876   17.851511   23.391437 H          1 MOL1         0.0729
      13    C5      20.778387   19.978682   23.727191 C.3        1 MOL1        -0.1884
      14    H7      21.562459   19.837716   24.483897 H          1 MOL1         0.0729
      15    H8      21.064183   20.866201   23.145849 H          1 MOL1         0.0729
      16    C6      19.436207   20.237977   24.444943 C.3        1 MOL1        -0.2899
      17    H9      19.115286   19.353025   25.009767 H          1 MOL1         0.0741
      18    H10     19.533827   21.072563   25.151257 H          1 MOL1         0.0741
      19    H11     18.643956   20.497756   23.731784 H          1 MOL1         0.0741
@<TRIPOS>BOND
    1     1     2    1
    2     1     3    2
    3     1     4    1
    4     4     5    1
    5     4     6    1
    6     4     7    1
    7     7     8    1
    8     7     9    1
    9     7    10    1
   10    10    11    1
   11    10    12    1
   12    10    13    1
   13    13    14    1
   14    13    15    1
   15    13    16    1
   16    16    17    1
   17    16    18    1
   18    16    19    1
@<TRIPOS>SUBSTRUCTURE
       1 MOL1            1 RESIDUE      1      MOL     
@<SCITEGIC>MOL_PROPERTY
VConf Rank
SciTegic.value.IntegerValue
252

@<SCITEGIC>MOL_PROPERTY
Conf_Id
SciTegic.value.IntegerValue
42

@<SCITEGIC>MOL_PROPERTY
Delta U+W
SciTegic.value.DoubleValue
-0.344

@<SCITEGIC>MOL_PROPERTY
U+W
SciTegic.value.DoubleValue
-55.236

@<SCITEGIC>MOL_PROPERTY
Grad RMS
SciTegic.value.DoubleValue
0.000000

@<SCITEGIC>MOL_PROPERTY
U
SciTegic.value.DoubleValue
7.244

@<SCITEGIC>MOL_PROPERTY
W
SciTegic.value.DoubleValue
-62.479

@<SCITEGIC>MOL_PROPERTY
W(PB)
SciTegic.value.DoubleValue
-64.610

@<SCITEGIC>MOL_PROPERTY
W(SA)
SciTegic.value.DoubleValue
2.130

@<SCITEGIC>MOL_PROPERTY
Valence
SciTegic.value.DoubleValue
7.174

@<SCITEGIC>MOL_PROPERTY
Coulomb
SciTegic.value.DoubleValue
-0.669

@<SCITEGIC>MOL_PROPERTY
VdW
SciTegic.value.DoubleValue
0.739

@<SCITEGIC>MOL_PROPERTY
VdW6
SciTegic.value.DoubleValue
-5.969

@<SCITEGIC>MOL_PROPERTY
VdW12
SciTegic.value.DoubleValue
6.708

@<SCITEGIC>MOL_PROPERTY
Bond
SciTegic.value.DoubleValue
0.116

@<SCITEGIC>MOL_PROPERTY
Angle
SciTegic.value.DoubleValue
2.481

@<SCITEGIC>MOL_PROPERTY
Pdih
SciTegic.value.DoubleValue
4.576

@<SCITEGIC>MOL_PROPERTY
Idih
SciTegic.value.DoubleValue
0.000

@<SCITEGIC>MOL_PROPERTY
Tether
SciTegic.value.DoubleValue
0.000

@<TRIPOS>MOLECULE
guest-7_confgen4.mol2 : confsearch ligand conformer 253
          19          18           1
SMALL
USER_CHARGES
 
@<TRIPOS>ATOM
       1    C1      20.110413   19.618044   19.140089 C.2        1 MOL1         0.6115
       2    O1      21.072466   19.089803   18.618901 O.co2      1 MOL1        -0.6776
       3    O2      19.671206   20.699080   18.801409 O.co2      1 MOL1        -0.6776
       4    C2      19.427846   18.892937   20.294568 C.3        1 MOL1        -0.2013
       5    H1      19.519429   17.813887   20.121389 H          1 MOL1         0.0727
       6    H2      18.358957   19.136447   20.265265 H          1 MOL1         0.0727
       7    C3      20.023401   19.264153   21.675133 C.3        1 MOL1        -0.1910
       8    H3      21.095993   19.029279   21.674197 H          1 MOL1         0.0729
       9    H4      19.932770   20.348198   21.829634 H          1 MOL1         0.0729
      10    C4      19.315463   18.512301   22.825872 C.3        1 MOL1        -0.1909
      11    H5      19.448174   17.429263   22.697721 H          1 MOL1         0.0729
      12    H6      18.235136   18.702877   22.766161 H          1 MOL1         0.0729
      13    C5      19.810959   18.931320   24.229260 C.3        1 MOL1        -0.1884
      14    H7      19.674643   20.013339   24.363351 H          1 MOL1         0.0729
      15    H8      19.181183   18.443139   24.985769 H          1 MOL1         0.0729
      16    C6      21.285337   18.556868   24.493546 C.3        1 MOL1        -0.2899
      17    H9      21.964162   19.111189   23.833492 H          1 MOL1         0.0741
      18    H10     21.561759   18.794228   25.529013 H          1 MOL1         0.0741
      19    H11     21.452220   17.483202   24.336868 H          1 MOL1         0.0741
@<TRIPOS>BOND
    1     1     2    1
    2     1     3    2
    3     1     4    1
    4     4     5    1
    5     4     6    1
    6     4     7    1
    7     7     8    1
    8     7     9    1
    9     7    10    1
   10    10    11    1
   11    10    12    1
   12    10    13    1
   13    13    14    1
   14    13    15    1
   15    13    16    1
   16    16    17    1
   17    16    18    1
   18    16    19    1
@<TRIPOS>SUBSTRUCTURE
       1 MOL1            1 RESIDUE      1      MOL     
@<SCITEGIC>MOL_PROPERTY
VConf Rank
SciTegic.value.IntegerValue
253

@<SCITEGIC>MOL_PROPERTY
Conf_Id
SciTegic.value.IntegerValue
41

@<SCITEGIC>MOL_PROPERTY
Delta U+W
SciTegic.value.DoubleValue
-0.361

@<SCITEGIC>MOL_PROPERTY
U+W
SciTegic.value.DoubleValue
-55.252

@<SCITEGIC>MOL_PROPERTY
Grad RMS
SciTegic.value.DoubleValue
0.000000

@<SCITEGIC>MOL_PROPERTY
U
SciTegic.value.DoubleValue
7.244

@<SCITEGIC>MOL_PROPERTY
W
SciTegic.value.DoubleValue
-62.496

@<SCITEGIC>MOL_PROPERTY
W(PB)
SciTegic.value.DoubleValue
-64.596

@<SCITEGIC>MOL_PROPERTY
W(SA)
SciTegic.value.DoubleValue
2.099

@<SCITEGIC>MOL_PROPERTY
Valence
SciTegic.value.DoubleValue
7.174

@<SCITEGIC>MOL_PROPERTY
Coulomb
SciTegic.value.DoubleValue
-0.669

@<SCITEGIC>MOL_PROPERTY
VdW
SciTegic.value.DoubleValue
0.739

@<SCITEGIC>MOL_PROPERTY
VdW6
SciTegic.value.DoubleValue
-5.969

@<SCITEGIC>MOL_PROPERTY
VdW12
SciTegic.value.DoubleValue
6.708

@<SCITEGIC>MOL_PROPERTY
Bond
SciTegic.value.DoubleValue
0.116

@<SCITEGIC>MOL_PROPERTY
Angle
SciTegic.value.DoubleValue
2.481

@<SCITEGIC>MOL_PROPERTY
Pdih
SciTegic.value.DoubleValue
4.576

@<SCITEGIC>MOL_PROPERTY
Idih
SciTegic.value.DoubleValue
0.000

@<SCITEGIC>MOL_PROPERTY
Tether
SciTegic.value.DoubleValue
0.000

@<TRIPOS>MOLECULE
guest-7_confgen4.mol2 : confsearch ligand conformer 254
          19          18           1
SMALL
USER_CHARGES
 
@<TRIPOS>ATOM
       1    C1      17.913588   18.035700   20.433988 C.2        1 MOL1         0.6115
       2    O1      17.724723   19.056832   19.802981 O.co2      1 MOL1        -0.6776
       3    O2      18.190598   16.969928   19.920103 O.co2      1 MOL1        -0.6776
       4    C2      17.774156   18.087185   21.952952 C.3        1 MOL1        -0.2013
       5    H1      17.167514   17.225621   22.255947 H          1 MOL1         0.0727
       6    H2      17.205988   18.985820   22.222446 H          1 MOL1         0.0727
       7    C3      19.126052   18.060990   22.712413 C.3        1 MOL1        -0.1910
       8    H3      18.928428   17.960506   23.788230 H          1 MOL1         0.0729
       9    H4      19.695652   17.170900   22.410871 H          1 MOL1         0.0729
      10    C4      19.970697   19.331138   22.466225 C.3        1 MOL1        -0.1909
      11    H5      19.392227   20.218779   22.756908 H          1 MOL1         0.0729
      12    H6      20.187240   19.429676   21.393461 H          1 MOL1         0.0729
      13    C5      21.295950   19.297710   23.255648 C.3        1 MOL1        -0.1884
      14    H7      21.085470   19.203447   24.330005 H          1 MOL1         0.0729
      15    H8      21.877734   18.411971   22.965014 H          1 MOL1         0.0729
      16    C6      22.136339   20.566327   23.007995 C.3        1 MOL1        -0.2899
      17    H9      21.589977   21.466286   23.319393 H          1 MOL1         0.0741
      18    H10     23.074756   20.525799   23.576165 H          1 MOL1         0.0741
      19    H11     22.388130   20.668994   21.944273 H          1 MOL1         0.0741
@<TRIPOS>BOND
    1     1     2    1
    2     1     3    2
    3     1     4    1
    4     4     5    1
    5     4     6    1
    6     4     7    1
    7     7     8    1
    8     7     9    1
    9     7    10    1
   10    10    11    1
   11    10    12    1
   12    10    13    1
   13    13    14    1
   14    13    15    1
   15    13    16    1
   16    16    17    1
   17    16    18    1
   18    16    19    1
@<TRIPOS>SUBSTRUCTURE
       1 MOL1            1 RESIDUE      1      MOL     
@<SCITEGIC>MOL_PROPERTY
VConf Rank
SciTegic.value.IntegerValue
254

@<SCITEGIC>MOL_PROPERTY
Conf_Id
SciTegic.value.IntegerValue
36

@<SCITEGIC>MOL_PROPERTY
Delta U+W
SciTegic.value.DoubleValue
-0.079

@<SCITEGIC>MOL_PROPERTY
U+W
SciTegic.value.DoubleValue
-54.971

@<SCITEGIC>MOL_PROPERTY
Grad RMS
SciTegic.value.DoubleValue
0.000000

@<SCITEGIC>MOL_PROPERTY
U
SciTegic.value.DoubleValue
8.266

@<SCITEGIC>MOL_PROPERTY
W
SciTegic.value.DoubleValue
-63.237

@<SCITEGIC>MOL_PROPERTY
W(PB)
SciTegic.value.DoubleValue
-65.340

@<SCITEGIC>MOL_PROPERTY
W(SA)
SciTegic.value.DoubleValue
2.103

@<SCITEGIC>MOL_PROPERTY
Valence
SciTegic.value.DoubleValue
6.935

@<SCITEGIC>MOL_PROPERTY
Coulomb
SciTegic.value.DoubleValue
0.874

@<SCITEGIC>MOL_PROPERTY
VdW
SciTegic.value.DoubleValue
0.457

@<SCITEGIC>MOL_PROPERTY
VdW6
SciTegic.value.DoubleValue
-6.205

@<SCITEGIC>MOL_PROPERTY
VdW12
SciTegic.value.DoubleValue
6.662

@<SCITEGIC>MOL_PROPERTY
Bond
SciTegic.value.DoubleValue
0.107

@<SCITEGIC>MOL_PROPERTY
Angle
SciTegic.value.DoubleValue
2.420

@<SCITEGIC>MOL_PROPERTY
Pdih
SciTegic.value.DoubleValue
4.407

@<SCITEGIC>MOL_PROPERTY
Idih
SciTegic.value.DoubleValue
0.001

@<SCITEGIC>MOL_PROPERTY
Tether
SciTegic.value.DoubleValue
0.000

@<TRIPOS>MOLECULE
guest-7_confgen4.mol2 : confsearch ligand conformer 255
          19          18           1
SMALL
USER_CHARGES
 
@<TRIPOS>ATOM
       1    C1      22.157468   20.448252   20.963067 C.2        1 MOL1         0.6115
       2    O1      21.572912   20.677227   19.922675 O.co2      1 MOL1        -0.6776
       3    O2      23.272573   19.968178   21.015529 O.co2      1 MOL1        -0.6776
       4    C2      21.464094   20.801877   22.275900 C.3        1 MOL1        -0.2013
       5    H1      20.655460   21.512206   22.064876 H          1 MOL1         0.0727
       6    H2      22.194495   21.329234   22.900814 H          1 MOL1         0.0727
       7    C3      20.911465   19.575915   23.048370 C.3        1 MOL1        -0.1910
       8    H3      21.726537   18.860853   23.227190 H          1 MOL1         0.0729
       9    H4      20.558225   19.905944   24.034695 H          1 MOL1         0.0729
      10    C4      19.754697   18.874981   22.301450 C.3        1 MOL1        -0.1909
      11    H5      20.104957   18.526560   21.319950 H          1 MOL1         0.0729
      12    H6      18.948163   19.596943   22.113557 H          1 MOL1         0.0729
      13    C5      19.199856   17.678384   23.102020 C.3        1 MOL1        -0.1884
      14    H7      20.004120   16.953436   23.289330 H          1 MOL1         0.0729
      15    H8      18.844015   18.021621   24.083344 H          1 MOL1         0.0729
      16    C6      18.045891   16.981205   22.354166 C.3        1 MOL1        -0.2899
      17    H9      18.382339   16.599969   21.381076 H          1 MOL1         0.0741
      18    H10     17.663763   16.132984   22.936905 H          1 MOL1         0.0741
      19    H11     17.213654   17.676048   22.181013 H          1 MOL1         0.0741
@<TRIPOS>BOND
    1     1     2    1
    2     1     3    2
    3     1     4    1
    4     4     5    1
    5     4     6    1
    6     4     7    1
    7     7     8    1
    8     7     9    1
    9     7    10    1
   10    10    11    1
   11    10    12    1
   12    10    13    1
   13    13    14    1
   14    13    15    1
   15    13    16    1
   16    16    17    1
   17    16    18    1
   18    16    19    1
@<TRIPOS>SUBSTRUCTURE
       1 MOL1            1 RESIDUE      1      MOL     
@<SCITEGIC>MOL_PROPERTY
VConf Rank
SciTegic.value.IntegerValue
255

@<SCITEGIC>MOL_PROPERTY
Conf_Id
SciTegic.value.IntegerValue
35

@<SCITEGIC>MOL_PROPERTY
Delta U+W
SciTegic.value.DoubleValue
-0.030

@<SCITEGIC>MOL_PROPERTY
U+W
SciTegic.value.DoubleValue
-54.921

@<SCITEGIC>MOL_PROPERTY
Grad RMS
SciTegic.value.DoubleValue
0.000000

@<SCITEGIC>MOL_PROPERTY
U
SciTegic.value.DoubleValue
8.267

@<SCITEGIC>MOL_PROPERTY
W
SciTegic.value.DoubleValue
-63.188

@<SCITEGIC>MOL_PROPERTY
W(PB)
SciTegic.value.DoubleValue
-65.294

@<SCITEGIC>MOL_PROPERTY
W(SA)
SciTegic.value.DoubleValue
2.106

@<SCITEGIC>MOL_PROPERTY
Valence
SciTegic.value.DoubleValue
6.935

@<SCITEGIC>MOL_PROPERTY
Coulomb
SciTegic.value.DoubleValue
0.875

@<SCITEGIC>MOL_PROPERTY
VdW
SciTegic.value.DoubleValue
0.457

@<SCITEGIC>MOL_PROPERTY
VdW6
SciTegic.value.DoubleValue
-6.205

@<SCITEGIC>MOL_PROPERTY
VdW12
SciTegic.value.DoubleValue
6.662

@<SCITEGIC>MOL_PROPERTY
Bond
SciTegic.value.DoubleValue
0.107

@<SCITEGIC>MOL_PROPERTY
Angle
SciTegic.value.DoubleValue
2.420

@<SCITEGIC>MOL_PROPERTY
Pdih
SciTegic.value.DoubleValue
4.407

@<SCITEGIC>MOL_PROPERTY
Idih
SciTegic.value.DoubleValue
0.001

@<SCITEGIC>MOL_PROPERTY
Tether
SciTegic.value.DoubleValue
0.000

@<TRIPOS>MOLECULE
guest-7_confgen4.mol2 : confsearch ligand conformer 256
          19          18           1
SMALL
USER_CHARGES
 
@<TRIPOS>ATOM
       1    C1      20.190667   18.027340   25.105522 C.2        1 MOL1         0.6115
       2    O1      20.266138   16.821729   25.237866 O.co2      1 MOL1        -0.6776
       3    O2      19.409228   18.723199   25.723403 O.co2      1 MOL1        -0.6776
       4    C2      21.144802   18.704769   24.125626 C.3        1 MOL1        -0.2013
       5    H1      22.144892   18.292808   24.305074 H          1 MOL1         0.0727
       6    H2      21.194173   19.773703   24.366255 H          1 MOL1         0.0727
       7    C3      20.765090   18.509190   22.634556 C.3        1 MOL1        -0.1910
       8    H3      21.583689   18.894491   22.013437 H          1 MOL1         0.0729
       9    H4      20.680751   17.435186   22.418379 H          1 MOL1         0.0729
      10    C4      19.445685   19.225216   22.258838 C.3        1 MOL1        -0.1909
      11    H5      19.545350   20.304198   22.439619 H          1 MOL1         0.0729
      12    H6      18.642750   18.873286   22.921006 H          1 MOL1         0.0729
      13    C5      19.011021   18.983439   20.794789 C.3        1 MOL1        -0.1884
      14    H7      18.908433   17.904920   20.611526 H          1 MOL1         0.0729
      15    H8      18.013305   19.419374   20.647333 H          1 MOL1         0.0729
      16    C6      19.978511   19.596992   19.759639 C.3        1 MOL1        -0.2899
      17    H9      20.960323   19.108337   19.789351 H          1 MOL1         0.0741
      18    H10     19.579337   19.477960   18.744047 H          1 MOL1         0.0741
      19    H11     20.121282   20.669916   19.942933 H          1 MOL1         0.0741
@<TRIPOS>BOND
    1     1     2    1
    2     1     3    2
    3     1     4    1
    4     4     5    1
    5     4     6    1
    6     4     7    1
    7     7     8    1
    8     7     9    1
    9     7    10    1
   10    10    11    1
   11    10    12    1
   12    10    13    1
   13    13    14    1
   14    13    15    1
   15    13    16    1
   16    16    17    1
   17    16    18    1
   18    16    19    1
@<TRIPOS>SUBSTRUCTURE
       1 MOL1            1 RESIDUE      1      MOL     
@<SCITEGIC>MOL_PROPERTY
VConf Rank
SciTegic.value.IntegerValue
256

@<SCITEGIC>MOL_PROPERTY
Conf_Id
SciTegic.value.IntegerValue
74

@<SCITEGIC>MOL_PROPERTY
Delta U+W
SciTegic.value.DoubleValue
0.797

@<SCITEGIC>MOL_PROPERTY
U+W
SciTegic.value.DoubleValue
-54.095

@<SCITEGIC>MOL_PROPERTY
Grad RMS
SciTegic.value.DoubleValue
0.000000

@<SCITEGIC>MOL_PROPERTY
U
SciTegic.value.DoubleValue
8.869

@<SCITEGIC>MOL_PROPERTY
W
SciTegic.value.DoubleValue
-62.964

@<SCITEGIC>MOL_PROPERTY
W(PB)
SciTegic.value.DoubleValue
-65.046

@<SCITEGIC>MOL_PROPERTY
W(SA)
SciTegic.value.DoubleValue
2.082

@<SCITEGIC>MOL_PROPERTY
Valence
SciTegic.value.DoubleValue
7.469

@<SCITEGIC>MOL_PROPERTY
Coulomb
SciTegic.value.DoubleValue
0.762

@<SCITEGIC>MOL_PROPERTY
VdW
SciTegic.value.DoubleValue
0.639

@<SCITEGIC>MOL_PROPERTY
VdW6
SciTegic.value.DoubleValue
-6.782

@<SCITEGIC>MOL_PROPERTY
VdW12
SciTegic.value.DoubleValue
7.421

@<SCITEGIC>MOL_PROPERTY
Bond
SciTegic.value.DoubleValue
0.141

@<SCITEGIC>MOL_PROPERTY
Angle
SciTegic.value.DoubleValue
2.667

@<SCITEGIC>MOL_PROPERTY
Pdih
SciTegic.value.DoubleValue
4.660

@<SCITEGIC>MOL_PROPERTY
Idih
SciTegic.value.DoubleValue
0.001

@<SCITEGIC>MOL_PROPERTY
Tether
SciTegic.value.DoubleValue
0.000

@<TRIPOS>MOLECULE
guest-7_confgen4.mol2 : confsearch ligand conformer 257
          19          18           1
SMALL
USER_CHARGES
 
@<TRIPOS>ATOM
       1    C1      19.610441   21.826138   22.539124 C.2        1 MOL1         0.6115
       2    O1      19.990452   22.580585   23.412521 O.co2      1 MOL1        -0.6776
       3    O2      19.345225   22.185487   21.409145 O.co2      1 MOL1        -0.6776
       4    C2      19.477387   20.344983   22.874822 C.3        1 MOL1        -0.2013
       5    H1      18.651351   19.940580   22.278766 H          1 MOL1         0.0727
       6    H2      19.191265   20.258685   23.929830 H          1 MOL1         0.0727
       7    C3      20.780998   19.548984   22.607290 C.3        1 MOL1        -0.1910
       8    H3      21.036830   19.610794   21.541219 H          1 MOL1         0.0729
       9    H4      21.606733   20.033654   23.146229 H          1 MOL1         0.0729
      10    C4      20.704230   18.067020   23.052954 C.3        1 MOL1        -0.1909
      11    H5      20.549553   18.029985   24.139921 H          1 MOL1         0.0729
      12    H6      21.677892   17.592743   22.869038 H          1 MOL1         0.0729
      13    C5      19.600629   17.227126   22.364082 C.3        1 MOL1        -0.1884
      14    H7      19.634409   16.206335   22.768958 H          1 MOL1         0.0729
      15    H8      18.608421   17.621781   22.619780 H          1 MOL1         0.0729
      16    C6      19.753581   17.157546   20.829429 C.3        1 MOL1        -0.2899
      17    H9      20.748255   16.786541   20.550128 H          1 MOL1         0.0741
      18    H10     19.005805   16.478913   20.399191 H          1 MOL1         0.0741
      19    H11     19.611330   18.143684   20.369470 H          1 MOL1         0.0741
@<TRIPOS>BOND
    1     1     2    1
    2     1     3    2
    3     1     4    1
    4     4     5    1
    5     4     6    1
    6     4     7    1
    7     7     8    1
    8     7     9    1
    9     7    10    1
   10    10    11    1
   11    10    12    1
   12    10    13    1
   13    13    14    1
   14    13    15    1
   15    13    16    1
   16    16    17    1
   17    16    18    1
   18    16    19    1
@<TRIPOS>SUBSTRUCTURE
       1 MOL1            1 RESIDUE      1      MOL     
@<SCITEGIC>MOL_PROPERTY
VConf Rank
SciTegic.value.IntegerValue
257

@<SCITEGIC>MOL_PROPERTY
Conf_Id
SciTegic.value.IntegerValue
67

@<SCITEGIC>MOL_PROPERTY
Delta U+W
SciTegic.value.DoubleValue
0.308

@<SCITEGIC>MOL_PROPERTY
U+W
SciTegic.value.DoubleValue
-54.583

@<SCITEGIC>MOL_PROPERTY
Grad RMS
SciTegic.value.DoubleValue
0.000000

@<SCITEGIC>MOL_PROPERTY
U
SciTegic.value.DoubleValue
8.219

@<SCITEGIC>MOL_PROPERTY
W
SciTegic.value.DoubleValue
-62.802

@<SCITEGIC>MOL_PROPERTY
W(PB)
SciTegic.value.DoubleValue
-64.859

@<SCITEGIC>MOL_PROPERTY
W(SA)
SciTegic.value.DoubleValue
2.057

@<SCITEGIC>MOL_PROPERTY
Valence
SciTegic.value.DoubleValue
7.609

@<SCITEGIC>MOL_PROPERTY
Coulomb
SciTegic.value.DoubleValue
-0.089

@<SCITEGIC>MOL_PROPERTY
VdW
SciTegic.value.DoubleValue
0.699

@<SCITEGIC>MOL_PROPERTY
VdW6
SciTegic.value.DoubleValue
-6.924

@<SCITEGIC>MOL_PROPERTY
VdW12
SciTegic.value.DoubleValue
7.623

@<SCITEGIC>MOL_PROPERTY
Bond
SciTegic.value.DoubleValue
0.163

@<SCITEGIC>MOL_PROPERTY
Angle
SciTegic.value.DoubleValue
2.870

@<SCITEGIC>MOL_PROPERTY
Pdih
SciTegic.value.DoubleValue
4.576

@<SCITEGIC>MOL_PROPERTY
Idih
SciTegic.value.DoubleValue
0.001

@<SCITEGIC>MOL_PROPERTY
Tether
SciTegic.value.DoubleValue
0.000

@<TRIPOS>MOLECULE
guest-7_confgen4.mol2 : confsearch ligand conformer 258
          19          18           1
SMALL
USER_CHARGES
 
@<TRIPOS>ATOM
       1    C1      19.813803   21.740531   21.493897 C.2        1 MOL1         0.6115
       2    O1      20.480340   22.349282   20.680525 O.co2      1 MOL1        -0.6776
       3    O2      19.213333   22.274397   22.405349 O.co2      1 MOL1        -0.6776
       4    C2      19.743309   20.222245   21.375340 C.3        1 MOL1        -0.2013
       5    H1      19.807987   19.959691   20.312684 H          1 MOL1         0.0727
       6    H2      18.755958   19.905281   21.730068 H          1 MOL1         0.0727
       7    C3      20.863186   19.504851   22.172716 C.3        1 MOL1        -0.1910
       8    H3      21.834757   19.910297   21.858289 H          1 MOL1         0.0729
       9    H4      20.765435   19.744513   23.239855 H          1 MOL1         0.0729
      10    C4      20.881202   17.968866   21.969868 C.3        1 MOL1        -0.1909
      11    H5      21.726999   17.549079   22.531283 H          1 MOL1         0.0729
      12    H6      21.082245   17.752102   20.911856 H          1 MOL1         0.0729
      13    C5      19.586004   17.232338   22.391639 C.3        1 MOL1        -0.1884
      14    H7      18.742896   17.561466   21.769986 H          1 MOL1         0.0729
      15    H8      19.711880   16.159954   22.188593 H          1 MOL1         0.0729
      16    C6      19.235853   17.417060   23.883842 C.3        1 MOL1        -0.2899
      17    H9      18.988373   18.462232   24.108867 H          1 MOL1         0.0741
      18    H10     18.366135   16.803961   24.153130 H          1 MOL1         0.0741
      19    H11     20.074568   17.115204   24.524521 H          1 MOL1         0.0741
@<TRIPOS>BOND
    1     1     2    1
    2     1     3    2
    3     1     4    1
    4     4     5    1
    5     4     6    1
    6     4     7    1
    7     7     8    1
    8     7     9    1
    9     7    10    1
   10    10    11    1
   11    10    12    1
   12    10    13    1
   13    13    14    1
   14    13    15    1
   15    13    16    1
   16    16    17    1
   17    16    18    1
   18    16    19    1
@<TRIPOS>SUBSTRUCTURE
       1 MOL1            1 RESIDUE      1      MOL     
@<SCITEGIC>MOL_PROPERTY
VConf Rank
SciTegic.value.IntegerValue
258

@<SCITEGIC>MOL_PROPERTY
Conf_Id
SciTegic.value.IntegerValue
21

@<SCITEGIC>MOL_PROPERTY
Delta U+W
SciTegic.value.DoubleValue
0.319

@<SCITEGIC>MOL_PROPERTY
U+W
SciTegic.value.DoubleValue
-54.572

@<SCITEGIC>MOL_PROPERTY
Grad RMS
SciTegic.value.DoubleValue
0.000000

@<SCITEGIC>MOL_PROPERTY
U
SciTegic.value.DoubleValue
8.220

@<SCITEGIC>MOL_PROPERTY
W
SciTegic.value.DoubleValue
-62.792

@<SCITEGIC>MOL_PROPERTY
W(PB)
SciTegic.value.DoubleValue
-64.830

@<SCITEGIC>MOL_PROPERTY
W(SA)
SciTegic.value.DoubleValue
2.038

@<SCITEGIC>MOL_PROPERTY
Valence
SciTegic.value.DoubleValue
7.609

@<SCITEGIC>MOL_PROPERTY
Coulomb
SciTegic.value.DoubleValue
-0.088

@<SCITEGIC>MOL_PROPERTY
VdW
SciTegic.value.DoubleValue
0.699

@<SCITEGIC>MOL_PROPERTY
VdW6
SciTegic.value.DoubleValue
-6.924

@<SCITEGIC>MOL_PROPERTY
VdW12
SciTegic.value.DoubleValue
7.623

@<SCITEGIC>MOL_PROPERTY
Bond
SciTegic.value.DoubleValue
0.163

@<SCITEGIC>MOL_PROPERTY
Angle
SciTegic.value.DoubleValue
2.870

@<SCITEGIC>MOL_PROPERTY
Pdih
SciTegic.value.DoubleValue
4.576

@<SCITEGIC>MOL_PROPERTY
Idih
SciTegic.value.DoubleValue
0.000

@<SCITEGIC>MOL_PROPERTY
Tether
SciTegic.value.DoubleValue
0.000

@<TRIPOS>MOLECULE
guest-7_confgen4.mol2 : confsearch ligand conformer 259
          19          18           1
SMALL
USER_CHARGES
 
@<TRIPOS>ATOM
       1    C1      20.901770   21.661186   22.462664 C.2        1 MOL1         0.6115
       2    O1      20.412171   22.628978   23.010485 O.co2      1 MOL1        -0.6776
       3    O2      22.080833   21.571925   22.183206 O.co2      1 MOL1        -0.6776
       4    C2      19.989654   20.487453   22.124320 C.3        1 MOL1        -0.2013
       5    H1      20.372666   20.016228   21.213786 H          1 MOL1         0.0727
       6    H2      18.997958   20.888408   21.883158 H          1 MOL1         0.0727
       7    C3      19.879789   19.459121   23.281063 C.3        1 MOL1        -0.1910
       8    H3      20.878800   19.099521   23.563812 H          1 MOL1         0.0729
       9    H4      19.482822   19.982803   24.161728 H          1 MOL1         0.0729
      10    C4      18.950795   18.261938   22.955994 C.3        1 MOL1        -0.1909
      11    H5      18.162693   18.570524   22.255589 H          1 MOL1         0.0729
      12    H6      18.432114   17.971746   23.879970 H          1 MOL1         0.0729
      13    C5      19.679249   17.005994   22.417599 C.3        1 MOL1        -0.1884
      14    H7      20.403653   16.652133   23.164110 H          1 MOL1         0.0729
      15    H8      18.942061   16.199971   22.298968 H          1 MOL1         0.0729
      16    C6      20.397665   17.220225   21.069386 C.3        1 MOL1        -0.2899
      17    H9      20.778479   16.266415   20.682032 H          1 MOL1         0.0741
      18    H10     19.714201   17.641339   20.320709 H          1 MOL1         0.0741
      19    H11     21.254502   17.896371   21.180978 H          1 MOL1         0.0741
@<TRIPOS>BOND
    1     1     2    1
    2     1     3    2
    3     1     4    1
    4     4     5    1
    5     4     6    1
    6     4     7    1
    7     7     8    1
    8     7     9    1
    9     7    10    1
   10    10    11    1
   11    10    12    1
   12    10    13    1
   13    13    14    1
   14    13    15    1
   15    13    16    1
   16    16    17    1
   17    16    18    1
   18    16    19    1
@<TRIPOS>SUBSTRUCTURE
       1 MOL1            1 RESIDUE      1      MOL     
@<SCITEGIC>MOL_PROPERTY
VConf Rank
SciTegic.value.IntegerValue
259

@<SCITEGIC>MOL_PROPERTY
Conf_Id
SciTegic.value.IntegerValue
24

@<SCITEGIC>MOL_PROPERTY
Delta U+W
SciTegic.value.DoubleValue
2.477

@<SCITEGIC>MOL_PROPERTY
U+W
SciTegic.value.DoubleValue
-52.414

@<SCITEGIC>MOL_PROPERTY
Grad RMS
SciTegic.value.DoubleValue
0.000000

@<SCITEGIC>MOL_PROPERTY
U
SciTegic.value.DoubleValue
10.422

@<SCITEGIC>MOL_PROPERTY
W
SciTegic.value.DoubleValue
-62.836

@<SCITEGIC>MOL_PROPERTY
W(PB)
SciTegic.value.DoubleValue
-64.906

@<SCITEGIC>MOL_PROPERTY
W(SA)
SciTegic.value.DoubleValue
2.070

@<SCITEGIC>MOL_PROPERTY
Valence
SciTegic.value.DoubleValue
9.628

@<SCITEGIC>MOL_PROPERTY
Coulomb
SciTegic.value.DoubleValue
0.101

@<SCITEGIC>MOL_PROPERTY
VdW
SciTegic.value.DoubleValue
0.693

@<SCITEGIC>MOL_PROPERTY
VdW6
SciTegic.value.DoubleValue
-6.927

@<SCITEGIC>MOL_PROPERTY
VdW12
SciTegic.value.DoubleValue
7.620

@<SCITEGIC>MOL_PROPERTY
Bond
SciTegic.value.DoubleValue
0.173

@<SCITEGIC>MOL_PROPERTY
Angle
SciTegic.value.DoubleValue
2.989

@<SCITEGIC>MOL_PROPERTY
Pdih
SciTegic.value.DoubleValue
6.465

@<SCITEGIC>MOL_PROPERTY
Idih
SciTegic.value.DoubleValue
0.001

@<SCITEGIC>MOL_PROPERTY
Tether
SciTegic.value.DoubleValue
0.000

@<TRIPOS>MOLECULE
guest-7_confgen4.mol2 : confsearch ligand conformer 260
          19          18           1
SMALL
USER_CHARGES
 
@<TRIPOS>ATOM
       1    C1      22.480242   19.006207   22.469106 C.2        1 MOL1         0.6115
       2    O1      22.637026   18.646239   21.319093 O.co2      1 MOL1        -0.6776
       3    O2      23.269198   19.713958   23.063842 O.co2      1 MOL1        -0.6776
       4    C2      21.241919   18.521564   23.218714 C.3        1 MOL1        -0.2013
       5    H1      21.580400   18.135965   24.187476 H          1 MOL1         0.0727
       6    H2      20.818948   17.671703   22.673678 H          1 MOL1         0.0727
       7    C3      20.172247   19.624724   23.450613 C.3        1 MOL1        -0.1910
       8    H3      19.416662   19.266434   24.162619 H          1 MOL1         0.0729
       9    H4      20.664630   20.478209   23.937087 H          1 MOL1         0.0729
      10    C4      19.478143   20.120419   22.155242 C.3        1 MOL1        -0.1909
      11    H5      20.160098   20.039388   21.297817 H          1 MOL1         0.0729
      12    H6      19.270172   21.193035   22.269373 H          1 MOL1         0.0729
      13    C5      18.136407   19.418063   21.832217 C.3        1 MOL1        -0.1884
      14    H7      17.427601   19.579320   22.656106 H          1 MOL1         0.0729
      15    H8      17.695388   19.899941   20.948786 H          1 MOL1         0.0729
      16    C6      18.265990   17.905915   21.556223 C.3        1 MOL1        -0.2899
      17    H9      18.542830   17.360082   22.466598 H          1 MOL1         0.0741
      18    H10     17.310596   17.496783   21.203219 H          1 MOL1         0.0741
      19    H11     19.024309   17.709910   20.786796 H          1 MOL1         0.0741
@<TRIPOS>BOND
    1     1     2    1
    2     1     3    2
    3     1     4    1
    4     4     5    1
    5     4     6    1
    6     4     7    1
    7     7     8    1
    8     7     9    1
    9     7    10    1
   10    10    11    1
   11    10    12    1
   12    10    13    1
   13    13    14    1
   14    13    15    1
   15    13    16    1
   16    16    17    1
   17    16    18    1
   18    16    19    1
@<TRIPOS>SUBSTRUCTURE
       1 MOL1            1 RESIDUE      1      MOL     
@<SCITEGIC>MOL_PROPERTY
VConf Rank
SciTegic.value.IntegerValue
260

@<SCITEGIC>MOL_PROPERTY
Conf_Id
SciTegic.value.IntegerValue
4

@<SCITEGIC>MOL_PROPERTY
Delta U+W
SciTegic.value.DoubleValue
3.753

@<SCITEGIC>MOL_PROPERTY
U+W
SciTegic.value.DoubleValue
-51.138

@<SCITEGIC>MOL_PROPERTY
Grad RMS
SciTegic.value.DoubleValue
0.000000

@<SCITEGIC>MOL_PROPERTY
U
SciTegic.value.DoubleValue
12.334

@<SCITEGIC>MOL_PROPERTY
W
SciTegic.value.DoubleValue
-63.472

@<SCITEGIC>MOL_PROPERTY
W(PB)
SciTegic.value.DoubleValue
-65.500

@<SCITEGIC>MOL_PROPERTY
W(SA)
SciTegic.value.DoubleValue
2.028

@<SCITEGIC>MOL_PROPERTY
Valence
SciTegic.value.DoubleValue
9.984

@<SCITEGIC>MOL_PROPERTY
Coulomb
SciTegic.value.DoubleValue
1.767

@<SCITEGIC>MOL_PROPERTY
VdW
SciTegic.value.DoubleValue
0.583

@<SCITEGIC>MOL_PROPERTY
VdW6
SciTegic.value.DoubleValue
-7.767

@<SCITEGIC>MOL_PROPERTY
VdW12
SciTegic.value.DoubleValue
8.349

@<SCITEGIC>MOL_PROPERTY
Bond
SciTegic.value.DoubleValue
0.203

@<SCITEGIC>MOL_PROPERTY
Angle
SciTegic.value.DoubleValue
3.191

@<SCITEGIC>MOL_PROPERTY
Pdih
SciTegic.value.DoubleValue
6.589

@<SCITEGIC>MOL_PROPERTY
Idih
SciTegic.value.DoubleValue
0.001

@<SCITEGIC>MOL_PROPERTY
Tether
SciTegic.value.DoubleValue
0.000

@<TRIPOS>MOLECULE
guest-7_confgen4.mol2 : confsearch ligand conformer 261
          19          18           1
SMALL
USER_CHARGES
 
@<TRIPOS>ATOM
       1    C1      21.951948   17.641653   21.365126 C.2        1 MOL1         0.6115
       2    O1      22.016462   16.900275   20.404257 O.co2      1 MOL1        -0.6776
       3    O2      22.778056   18.499406   21.606992 O.co2      1 MOL1        -0.6776
       4    C2      20.785450   17.464030   22.333611 C.3        1 MOL1        -0.2013
       5    H1      21.036533   17.967501   23.272601 H          1 MOL1         0.0727
       6    H2      20.713571   16.393992   22.560786 H          1 MOL1         0.0727
       7    C3      19.422548   17.963749   21.778887 C.3        1 MOL1        -0.1910
       8    H3      19.253663   17.479949   20.806802 H          1 MOL1         0.0729
       9    H4      18.607670   17.622388   22.431328 H          1 MOL1         0.0729
      10    C4      19.336161   19.501145   21.593353 C.3        1 MOL1        -0.1909
      11    H5      18.720275   19.703061   20.706394 H          1 MOL1         0.0729
      12    H6      20.327268   19.918109   21.368290 H          1 MOL1         0.0729
      13    C5      18.700655   20.260600   22.783842 C.3        1 MOL1        -0.1884
      14    H7      18.614040   21.321877   22.513025 H          1 MOL1         0.0729
      15    H8      17.675482   19.900390   22.946541 H          1 MOL1         0.0729
      16    C6      19.497391   20.150823   24.100170 C.3        1 MOL1        -0.2899
      17    H9      20.547344   20.434316   23.949449 H          1 MOL1         0.0741
      18    H10     19.072331   20.815944   24.862873 H          1 MOL1         0.0741
      19    H11     19.465080   19.129008   24.497919 H          1 MOL1         0.0741
@<TRIPOS>BOND
    1     1     2    1
    2     1     3    2
    3     1     4    1
    4     4     5    1
    5     4     6    1
    6     4     7    1
    7     7     8    1
    8     7     9    1
    9     7    10    1
   10    10    11    1
   11    10    12    1
   12    10    13    1
   13    13    14    1
   14    13    15    1
   15    13    16    1
   16    16    17    1
   17    16    18    1
   18    16    19    1
@<TRIPOS>SUBSTRUCTURE
       1 MOL1            1 RESIDUE      1      MOL     
@<SCITEGIC>MOL_PROPERTY
VConf Rank
SciTegic.value.IntegerValue
261

@<SCITEGIC>MOL_PROPERTY
Conf_Id
SciTegic.value.IntegerValue
73

@<SCITEGIC>MOL_PROPERTY
Delta U+W
SciTegic.value.DoubleValue
3.707

@<SCITEGIC>MOL_PROPERTY
U+W
SciTegic.value.DoubleValue
-51.184

@<SCITEGIC>MOL_PROPERTY
Grad RMS
SciTegic.value.DoubleValue
0.000000

@<SCITEGIC>MOL_PROPERTY
U
SciTegic.value.DoubleValue
12.334

@<SCITEGIC>MOL_PROPERTY
W
SciTegic.value.DoubleValue
-63.519

@<SCITEGIC>MOL_PROPERTY
W(PB)
SciTegic.value.DoubleValue
-65.541

@<SCITEGIC>MOL_PROPERTY
W(SA)
SciTegic.value.DoubleValue
2.022

@<SCITEGIC>MOL_PROPERTY
Valence
SciTegic.value.DoubleValue
9.984

@<SCITEGIC>MOL_PROPERTY
Coulomb
SciTegic.value.DoubleValue
1.768

@<SCITEGIC>MOL_PROPERTY
VdW
SciTegic.value.DoubleValue
0.583

@<SCITEGIC>MOL_PROPERTY
VdW6
SciTegic.value.DoubleValue
-7.767

@<SCITEGIC>MOL_PROPERTY
VdW12
SciTegic.value.DoubleValue
8.350

@<SCITEGIC>MOL_PROPERTY
Bond
SciTegic.value.DoubleValue
0.203

@<SCITEGIC>MOL_PROPERTY
Angle
SciTegic.value.DoubleValue
3.192

@<SCITEGIC>MOL_PROPERTY
Pdih
SciTegic.value.DoubleValue
6.589

@<SCITEGIC>MOL_PROPERTY
Idih
SciTegic.value.DoubleValue
0.001

@<SCITEGIC>MOL_PROPERTY
Tether
SciTegic.value.DoubleValue
0.000

@<TRIPOS>MOLECULE
guest-7_confgen4.mol2 : confsearch ligand conformer 262
          19          18           1
SMALL
USER_CHARGES
 
@<TRIPOS>ATOM
       1    C1      22.145074   18.472879   23.450809 C.2        1 MOL1         0.6115
       2    O1      21.773043   17.531941   24.123817 O.co2      1 MOL1        -0.6776
       3    O2      23.247323   18.540671   22.943255 O.co2      1 MOL1        -0.6776
       4    C2      21.190837   19.648217   23.257572 C.3        1 MOL1        -0.2013
       5    H1      21.742413   20.561356   23.509785 H          1 MOL1         0.0727
       6    H2      20.377837   19.565098   23.987927 H          1 MOL1         0.0727
       7    C3      20.620894   19.773485   21.818218 C.3        1 MOL1        -0.1910
       8    H3      20.007832   20.681415   21.749780 H          1 MOL1         0.0729
       9    H4      21.456832   19.921012   21.120684 H          1 MOL1         0.0729
      10    C4      19.793450   18.549354   21.348183 C.3        1 MOL1        -0.1909
      11    H5      20.449357   17.669038   21.304452 H          1 MOL1         0.0729
      12    H6      19.456898   18.726214   20.317627 H          1 MOL1         0.0729
      13    C5      18.563660   18.208746   22.225007 C.3        1 MOL1        -0.1884
      14    H7      18.071024   17.320685   21.806013 H          1 MOL1         0.0729
      15    H8      18.887626   17.926245   23.235790 H          1 MOL1         0.0729
      16    C6      17.533725   19.355985   22.307169 C.3        1 MOL1        -0.2899
      17    H9      17.950290   20.229574   22.824110 H          1 MOL1         0.0741
      18    H10     17.212935   19.668313   21.304893 H          1 MOL1         0.0741
      19    H11     16.643581   19.033820   22.862729 H          1 MOL1         0.0741
@<TRIPOS>BOND
    1     1     2    1
    2     1     3    2
    3     1     4    1
    4     4     5    1
    5     4     6    1
    6     4     7    1
    7     7     8    1
    8     7     9    1
    9     7    10    1
   10    10    11    1
   11    10    12    1
   12    10    13    1
   13    13    14    1
   14    13    15    1
   15    13    16    1
   16    16    17    1
   17    16    18    1
   18    16    19    1
@<TRIPOS>SUBSTRUCTURE
       1 MOL1            1 RESIDUE      1      MOL     
@<SCITEGIC>MOL_PROPERTY
VConf Rank
SciTegic.value.IntegerValue
262

@<SCITEGIC>MOL_PROPERTY
Conf_Id
SciTegic.value.IntegerValue
56

@<SCITEGIC>MOL_PROPERTY
Delta U+W
SciTegic.value.DoubleValue
1.735

@<SCITEGIC>MOL_PROPERTY
U+W
SciTegic.value.DoubleValue
-53.156

@<SCITEGIC>MOL_PROPERTY
Grad RMS
SciTegic.value.DoubleValue
0.000000

@<SCITEGIC>MOL_PROPERTY
U
SciTegic.value.DoubleValue
10.214

@<SCITEGIC>MOL_PROPERTY
W
SciTegic.value.DoubleValue
-63.370

@<SCITEGIC>MOL_PROPERTY
W(PB)
SciTegic.value.DoubleValue
-65.388

@<SCITEGIC>MOL_PROPERTY
W(SA)
SciTegic.value.DoubleValue
2.018

@<SCITEGIC>MOL_PROPERTY
Valence
SciTegic.value.DoubleValue
7.868

@<SCITEGIC>MOL_PROPERTY
Coulomb
SciTegic.value.DoubleValue
1.968

@<SCITEGIC>MOL_PROPERTY
VdW
SciTegic.value.DoubleValue
0.378

@<SCITEGIC>MOL_PROPERTY
VdW6
SciTegic.value.DoubleValue
-8.067

@<SCITEGIC>MOL_PROPERTY
VdW12
SciTegic.value.DoubleValue
8.445

@<SCITEGIC>MOL_PROPERTY
Bond
SciTegic.value.DoubleValue
0.191

@<SCITEGIC>MOL_PROPERTY
Angle
SciTegic.value.DoubleValue
3.117

@<SCITEGIC>MOL_PROPERTY
Pdih
SciTegic.value.DoubleValue
4.559

@<SCITEGIC>MOL_PROPERTY
Idih
SciTegic.value.DoubleValue
0.001

@<SCITEGIC>MOL_PROPERTY
Tether
SciTegic.value.DoubleValue
0.000

@<TRIPOS>MOLECULE
guest-7_confgen4.mol2 : confsearch ligand conformer 263
          19          18           1
SMALL
USER_CHARGES
 
@<TRIPOS>ATOM
       1    C1      22.855648   18.846729   21.882159 C.2        1 MOL1         0.6115
       2    O1      23.543397   17.914010   22.247400 O.co2      1 MOL1        -0.6776
       3    O2      23.309444   19.907058   21.499869 O.co2      1 MOL1        -0.6776
       4    C2      21.340344   18.685079   21.926437 C.3        1 MOL1        -0.2013
       5    H1      21.104005   17.629935   21.744247 H          1 MOL1         0.0727
       6    H2      20.920837   19.265659   21.097311 H          1 MOL1         0.0727
       7    C3      20.725879   19.147509   23.271638 C.3        1 MOL1        -0.1910
       8    H3      21.264155   18.653258   24.092233 H          1 MOL1         0.0729
       9    H4      20.898316   20.225430   23.396325 H          1 MOL1         0.0729
      10    C4      19.214465   18.841863   23.422307 C.3        1 MOL1        -0.1909
      11    H5      18.910998   19.164854   24.427572 H          1 MOL1         0.0729
      12    H6      19.044121   17.756896   23.393495 H          1 MOL1         0.0729
      13    C5      18.304216   19.555219   22.391931 C.3        1 MOL1        -0.1884
      14    H7      17.361901   19.828418   22.886649 H          1 MOL1         0.0729
      15    H8      18.763122   20.499149   22.066803 H          1 MOL1         0.0729
      16    C6      17.962131   18.676118   21.168457 C.3        1 MOL1        -0.2899
      17    H9      17.302892   19.218825   20.478712 H          1 MOL1         0.0741
      18    H10     18.859179   18.382728   20.611819 H          1 MOL1         0.0741
      19    H11     17.441774   17.760761   21.479070 H          1 MOL1         0.0741
@<TRIPOS>BOND
    1     1     2    1
    2     1     3    2
    3     1     4    1
    4     4     5    1
    5     4     6    1
    6     4     7    1
    7     7     8    1
    8     7     9    1
    9     7    10    1
   10    10    11    1
   11    10    12    1
   12    10    13    1
   13    13    14    1
   14    13    15    1
   15    13    16    1
   16    16    17    1
   17    16    18    1
   18    16    19    1
@<TRIPOS>SUBSTRUCTURE
       1 MOL1            1 RESIDUE      1      MOL     
@<SCITEGIC>MOL_PROPERTY
VConf Rank
SciTegic.value.IntegerValue
263

@<SCITEGIC>MOL_PROPERTY
Conf_Id
SciTegic.value.IntegerValue
53

@<SCITEGIC>MOL_PROPERTY
Delta U+W
SciTegic.value.DoubleValue
2.279

@<SCITEGIC>MOL_PROPERTY
U+W
SciTegic.value.DoubleValue
-52.612

@<SCITEGIC>MOL_PROPERTY
Grad RMS
SciTegic.value.DoubleValue
0.000000

@<SCITEGIC>MOL_PROPERTY
U
SciTegic.value.DoubleValue
10.231

@<SCITEGIC>MOL_PROPERTY
W
SciTegic.value.DoubleValue
-62.843

@<SCITEGIC>MOL_PROPERTY
W(PB)
SciTegic.value.DoubleValue
-64.893

@<SCITEGIC>MOL_PROPERTY
W(SA)
SciTegic.value.DoubleValue
2.050

@<SCITEGIC>MOL_PROPERTY
Valence
SciTegic.value.DoubleValue
9.644

@<SCITEGIC>MOL_PROPERTY
Coulomb
SciTegic.value.DoubleValue
-0.164

@<SCITEGIC>MOL_PROPERTY
VdW
SciTegic.value.DoubleValue
0.751

@<SCITEGIC>MOL_PROPERTY
VdW6
SciTegic.value.DoubleValue
-6.881

@<SCITEGIC>MOL_PROPERTY
VdW12
SciTegic.value.DoubleValue
7.631

@<SCITEGIC>MOL_PROPERTY
Bond
SciTegic.value.DoubleValue
0.163

@<SCITEGIC>MOL_PROPERTY
Angle
SciTegic.value.DoubleValue
2.998

@<SCITEGIC>MOL_PROPERTY
Pdih
SciTegic.value.DoubleValue
6.482

@<SCITEGIC>MOL_PROPERTY
Idih
SciTegic.value.DoubleValue
0.001

@<SCITEGIC>MOL_PROPERTY
Tether
SciTegic.value.DoubleValue
0.000

@<TRIPOS>MOLECULE
guest-7_confgen4.mol2 : confsearch ligand conformer 264
          19          18           1
SMALL
USER_CHARGES
 
@<TRIPOS>ATOM
       1    C1      19.698990   21.067826   23.480162 C.2        1 MOL1         0.6115
       2    O1      19.754479   20.851461   24.674717 O.co2      1 MOL1        -0.6776
       3    O2      18.723205   21.539044   22.929668 O.co2      1 MOL1        -0.6776
       4    C2      20.946331   20.798176   22.640573 C.3        1 MOL1        -0.2013
       5    H1      21.745320   20.431245   23.296241 H          1 MOL1         0.0727
       6    H2      21.276743   21.770901   22.258135 H          1 MOL1         0.0727
       7    C3      20.743917   19.826942   21.443552 C.3        1 MOL1        -0.1910
       8    H3      19.817692   20.079313   20.908802 H          1 MOL1         0.0729
       9    H4      21.560673   19.995478   20.728763 H          1 MOL1         0.0729
      10    C4      20.748294   18.324217   21.818350 C.3        1 MOL1        -0.1909
      11    H5      21.679681   18.077313   22.345977 H          1 MOL1         0.0729
      12    H6      20.756478   17.739724   20.888129 H          1 MOL1         0.0729
      13    C5      19.537065   17.883732   22.669509 C.3        1 MOL1        -0.1884
      14    H7      19.580198   18.356300   23.659067 H          1 MOL1         0.0729
      15    H8      18.605392   18.219136   22.193182 H          1 MOL1         0.0729
      16    C6      19.499928   16.352821   22.850526 C.3        1 MOL1        -0.2899
      17    H9      20.410370   15.994683   23.348714 H          1 MOL1         0.0741
      18    H10     18.639039   16.057273   23.464177 H          1 MOL1         0.0741
      19    H11     19.415804   15.843774   21.881448 H          1 MOL1         0.0741
@<TRIPOS>BOND
    1     1     2    1
    2     1     3    2
    3     1     4    1
    4     4     5    1
    5     4     6    1
    6     4     7    1
    7     7     8    1
    8     7     9    1
    9     7    10    1
   10    10    11    1
   11    10    12    1
   12    10    13    1
   13    13    14    1
   14    13    15    1
   15    13    16    1
   16    16    17    1
   17    16    18    1
   18    16    19    1
@<TRIPOS>SUBSTRUCTURE
       1 MOL1            1 RESIDUE      1      MOL     
@<SCITEGIC>MOL_PROPERTY
VConf Rank
SciTegic.value.IntegerValue
264

@<SCITEGIC>MOL_PROPERTY
Conf_Id
SciTegic.value.IntegerValue
25

@<SCITEGIC>MOL_PROPERTY
Delta U+W
SciTegic.value.DoubleValue
2.065

@<SCITEGIC>MOL_PROPERTY
U+W
SciTegic.value.DoubleValue
-52.826

@<SCITEGIC>MOL_PROPERTY
Grad RMS
SciTegic.value.DoubleValue
0.000000

@<SCITEGIC>MOL_PROPERTY
U
SciTegic.value.DoubleValue
10.967

@<SCITEGIC>MOL_PROPERTY
W
SciTegic.value.DoubleValue
-63.794

@<SCITEGIC>MOL_PROPERTY
W(PB)
SciTegic.value.DoubleValue
-65.830

@<SCITEGIC>MOL_PROPERTY
W(SA)
SciTegic.value.DoubleValue
2.036

@<SCITEGIC>MOL_PROPERTY
Valence
SciTegic.value.DoubleValue
8.609

@<SCITEGIC>MOL_PROPERTY
Coulomb
SciTegic.value.DoubleValue
1.892

@<SCITEGIC>MOL_PROPERTY
VdW
SciTegic.value.DoubleValue
0.467

@<SCITEGIC>MOL_PROPERTY
VdW6
SciTegic.value.DoubleValue
-7.569

@<SCITEGIC>MOL_PROPERTY
VdW12
SciTegic.value.DoubleValue
8.036

@<SCITEGIC>MOL_PROPERTY
Bond
SciTegic.value.DoubleValue
0.170

@<SCITEGIC>MOL_PROPERTY
Angle
SciTegic.value.DoubleValue
3.195

@<SCITEGIC>MOL_PROPERTY
Pdih
SciTegic.value.DoubleValue
5.237

@<SCITEGIC>MOL_PROPERTY
Idih
SciTegic.value.DoubleValue
0.007

@<SCITEGIC>MOL_PROPERTY
Tether
SciTegic.value.DoubleValue
0.000

@<TRIPOS>MOLECULE
guest-7_confgen4.mol2 : confsearch ligand conformer 265
          19          18           1
SMALL
USER_CHARGES
 
@<TRIPOS>ATOM
       1    C1      18.227107   18.681563   24.009428 C.2        1 MOL1         0.6115
       2    O1      18.198274   19.678792   24.703654 O.co2      1 MOL1        -0.6776
       3    O2      18.324489   17.556262   24.457833 O.co2      1 MOL1        -0.6776
       4    C2      18.062029   18.843574   22.499466 C.3        1 MOL1        -0.2013
       5    H1      17.065071   19.271424   22.342481 H          1 MOL1         0.0727
       6    H2      18.054277   17.851037   22.032847 H          1 MOL1         0.0727
       7    C3      19.116881   19.754106   21.810011 C.3        1 MOL1        -0.1910
       8    H3      18.701361   20.086177   20.849028 H          1 MOL1         0.0729
       9    H4      19.270273   20.665841   22.403941 H          1 MOL1         0.0729
      10    C4      20.477234   19.071074   21.524382 C.3        1 MOL1        -0.1909
      11    H5      21.077237   19.750243   20.903305 H          1 MOL1         0.0729
      12    H6      20.317330   18.164780   20.924467 H          1 MOL1         0.0729
      13    C5      21.283606   18.717955   22.793496 C.3        1 MOL1        -0.1884
      14    H7      21.358416   19.599878   23.444658 H          1 MOL1         0.0729
      15    H8      20.763510   17.939235   23.365772 H          1 MOL1         0.0729
      16    C6      22.698874   18.216078   22.442821 C.3        1 MOL1        -0.2899
      17    H9      23.255226   17.961549   23.354266 H          1 MOL1         0.0741
      18    H10     22.651602   17.318342   21.812588 H          1 MOL1         0.0741
      19    H11     23.266747   18.985142   21.903027 H          1 MOL1         0.0741
@<TRIPOS>BOND
    1     1     2    1
    2     1     3    2
    3     1     4    1
    4     4     5    1
    5     4     6    1
    6     4     7    1
    7     7     8    1
    8     7     9    1
    9     7    10    1
   10    10    11    1
   11    10    12    1
   12    10    13    1
   13    13    14    1
   14    13    15    1
   15    13    16    1
   16    16    17    1
   17    16    18    1
   18    16    19    1
@<TRIPOS>SUBSTRUCTURE
       1 MOL1            1 RESIDUE      1      MOL     
@<SCITEGIC>MOL_PROPERTY
VConf Rank
SciTegic.value.IntegerValue
265

@<SCITEGIC>MOL_PROPERTY
Conf_Id
SciTegic.value.IntegerValue
52

@<SCITEGIC>MOL_PROPERTY
Delta U+W
SciTegic.value.DoubleValue
2.070

@<SCITEGIC>MOL_PROPERTY
U+W
SciTegic.value.DoubleValue
-52.822

@<SCITEGIC>MOL_PROPERTY
Grad RMS
SciTegic.value.DoubleValue
0.000000

@<SCITEGIC>MOL_PROPERTY
U
SciTegic.value.DoubleValue
10.967

@<SCITEGIC>MOL_PROPERTY
W
SciTegic.value.DoubleValue
-63.789

@<SCITEGIC>MOL_PROPERTY
W(PB)
SciTegic.value.DoubleValue
-65.837

@<SCITEGIC>MOL_PROPERTY
W(SA)
SciTegic.value.DoubleValue
2.048

@<SCITEGIC>MOL_PROPERTY
Valence
SciTegic.value.DoubleValue
8.609

@<SCITEGIC>MOL_PROPERTY
Coulomb
SciTegic.value.DoubleValue
1.892

@<SCITEGIC>MOL_PROPERTY
VdW
SciTegic.value.DoubleValue
0.467

@<SCITEGIC>MOL_PROPERTY
VdW6
SciTegic.value.DoubleValue
-7.569

@<SCITEGIC>MOL_PROPERTY
VdW12
SciTegic.value.DoubleValue
8.035

@<SCITEGIC>MOL_PROPERTY
Bond
SciTegic.value.DoubleValue
0.170

@<SCITEGIC>MOL_PROPERTY
Angle
SciTegic.value.DoubleValue
3.196

@<SCITEGIC>MOL_PROPERTY
Pdih
SciTegic.value.DoubleValue
5.237

@<SCITEGIC>MOL_PROPERTY
Idih
SciTegic.value.DoubleValue
0.007

@<SCITEGIC>MOL_PROPERTY
Tether
SciTegic.value.DoubleValue
0.000

@<TRIPOS>MOLECULE
guest-7_confgen4.mol2 : confsearch ligand conformer 266
          19          18           1
SMALL
USER_CHARGES
 
@<TRIPOS>ATOM
       1    C1      19.782257   20.486639   21.183804 C.2        1 MOL1         0.6115
       2    O1      18.626056   20.637107   20.839310 O.co2      1 MOL1        -0.6776
       3    O2      20.479944   21.396386   21.586659 O.co2      1 MOL1        -0.6776
       4    C2      20.435475   19.117997   20.985044 C.3        1 MOL1        -0.2013
       5    H1      21.413394   19.113241   21.481218 H          1 MOL1         0.0727
       6    H2      20.630461   19.029006   19.910178 H          1 MOL1         0.0727
       7    C3      19.593528   17.893864   21.445472 C.3        1 MOL1        -0.1910
       8    H3      18.540363   18.036052   21.166355 H          1 MOL1         0.0729
       9    H4      19.935313   17.017290   20.878764 H          1 MOL1         0.0729
      10    C4      19.697761   17.543859   22.952061 C.3        1 MOL1        -0.1909
      11    H5      20.738108   17.302864   23.210201 H          1 MOL1         0.0729
      12    H6      19.130575   16.617174   23.114912 H          1 MOL1         0.0729
      13    C5      19.140665   18.620992   23.914048 C.3        1 MOL1        -0.1884
      14    H7      18.419270   19.265467   23.392898 H          1 MOL1         0.0729
      15    H8      18.579180   18.123343   24.716686 H          1 MOL1         0.0729
      16    C6      20.251415   19.474185   24.563215 C.3        1 MOL1        -0.2899
      17    H9      20.920795   18.849849   25.169078 H          1 MOL1         0.0741
      18    H10     20.858142   19.986429   23.807425 H          1 MOL1         0.0741
      19    H11     19.816031   20.238482   25.219653 H          1 MOL1         0.0741
@<TRIPOS>BOND
    1     1     2    1
    2     1     3    2
    3     1     4    1
    4     4     5    1
    5     4     6    1
    6     4     7    1
    7     7     8    1
    8     7     9    1
    9     7    10    1
   10    10    11    1
   11    10    12    1
   12    10    13    1
   13    13    14    1
   14    13    15    1
   15    13    16    1
   16    16    17    1
   17    16    18    1
   18    16    19    1
@<TRIPOS>SUBSTRUCTURE
       1 MOL1            1 RESIDUE      1      MOL     
@<SCITEGIC>MOL_PROPERTY
VConf Rank
SciTegic.value.IntegerValue
266

@<SCITEGIC>MOL_PROPERTY
Conf_Id
SciTegic.value.IntegerValue
66

@<SCITEGIC>MOL_PROPERTY
Delta U+W
SciTegic.value.DoubleValue
5.819

@<SCITEGIC>MOL_PROPERTY
U+W
SciTegic.value.DoubleValue
-49.072

@<SCITEGIC>MOL_PROPERTY
Grad RMS
SciTegic.value.DoubleValue
0.000000

@<SCITEGIC>MOL_PROPERTY
U
SciTegic.value.DoubleValue
15.324

@<SCITEGIC>MOL_PROPERTY
W
SciTegic.value.DoubleValue
-64.396

@<SCITEGIC>MOL_PROPERTY
W(PB)
SciTegic.value.DoubleValue
-66.382

@<SCITEGIC>MOL_PROPERTY
W(SA)
SciTegic.value.DoubleValue
1.986

@<SCITEGIC>MOL_PROPERTY
Valence
SciTegic.value.DoubleValue
11.748

@<SCITEGIC>MOL_PROPERTY
Coulomb
SciTegic.value.DoubleValue
3.201

@<SCITEGIC>MOL_PROPERTY
VdW
SciTegic.value.DoubleValue
0.375

@<SCITEGIC>MOL_PROPERTY
VdW6
SciTegic.value.DoubleValue
-8.854

@<SCITEGIC>MOL_PROPERTY
VdW12
SciTegic.value.DoubleValue
9.229

@<SCITEGIC>MOL_PROPERTY
Bond
SciTegic.value.DoubleValue
0.216

@<SCITEGIC>MOL_PROPERTY
Angle
SciTegic.value.DoubleValue
3.812

@<SCITEGIC>MOL_PROPERTY
Pdih
SciTegic.value.DoubleValue
7.699

@<SCITEGIC>MOL_PROPERTY
Idih
SciTegic.value.DoubleValue
0.022

@<SCITEGIC>MOL_PROPERTY
Tether
SciTegic.value.DoubleValue
0.000

@<TRIPOS>MOLECULE
guest-7_confgen4.mol2 : confsearch ligand conformer 267
          19          18           1
SMALL
USER_CHARGES
 
@<TRIPOS>ATOM
       1    C1      21.973262   21.446601   21.008532 C.2        1 MOL1         0.6115
       2    O1      22.527774   21.843626   20.003271 O.co2      1 MOL1        -0.6776
       3    O2      22.040768   22.024851   22.075872 O.co2      1 MOL1        -0.6776
       4    C2      21.160081   20.156137   20.894009 C.3        1 MOL1        -0.2013
       5    H1      21.837596   19.373507   20.532743 H          1 MOL1         0.0727
       6    H2      20.405934   20.312848   20.113782 H          1 MOL1         0.0727
       7    C3      20.470263   19.688731   22.203250 C.3        1 MOL1        -0.1910
       8    H3      21.230544   19.539152   22.982395 H          1 MOL1         0.0729
       9    H4      19.797423   20.479503   22.563021 H          1 MOL1         0.0729
      10    C4      19.673268   18.382315   21.997489 C.3        1 MOL1        -0.1909
      11    H5      20.347789   17.593208   21.637655 H          1 MOL1         0.0729
      12    H6      18.913874   18.534059   21.218102 H          1 MOL1         0.0729
      13    C5      18.988367   17.919392   23.300182 C.3        1 MOL1        -0.1884
      14    H7      19.744985   17.764667   24.081899 H          1 MOL1         0.0729
      15    H8      18.311155   18.705348   23.662330 H          1 MOL1         0.0729
      16    C6      18.193706   16.614867   23.091098 C.3        1 MOL1        -0.2899
      17    H9      18.852995   15.802331   22.758613 H          1 MOL1         0.0741
      18    H10     17.713503   16.300289   24.026808 H          1 MOL1         0.0741
      19    H11     17.408369   16.750089   22.335862 H          1 MOL1         0.0741
@<TRIPOS>BOND
    1     1     2    1
    2     1     3    2
    3     1     4    1
    4     4     5    1
    5     4     6    1
    6     4     7    1
    7     7     8    1
    8     7     9    1
    9     7    10    1
   10    10    11    1
   11    10    12    1
   12    10    13    1
   13    13    14    1
   14    13    15    1
   15    13    16    1
   16    16    17    1
   17    16    18    1
   18    16    19    1
@<TRIPOS>SUBSTRUCTURE
       1 MOL1            1 RESIDUE      1      MOL     
@<SCITEGIC>MOL_PROPERTY
VConf Rank
SciTegic.value.IntegerValue
267

@<SCITEGIC>MOL_PROPERTY
Conf_Id
SciTegic.value.IntegerValue
0

@<SCITEGIC>MOL_PROPERTY
Delta U+W
SciTegic.value.DoubleValue
0.000

@<SCITEGIC>MOL_PROPERTY
U+W
SciTegic.value.DoubleValue
-54.891

@<SCITEGIC>MOL_PROPERTY
Grad RMS
SciTegic.value.DoubleValue
0.000000

@<SCITEGIC>MOL_PROPERTY
U
SciTegic.value.DoubleValue
6.966

@<SCITEGIC>MOL_PROPERTY
W
SciTegic.value.DoubleValue
-61.857

@<SCITEGIC>MOL_PROPERTY
W(PB)
SciTegic.value.DoubleValue
-63.965

@<SCITEGIC>MOL_PROPERTY
W(SA)
SciTegic.value.DoubleValue
2.108

@<SCITEGIC>MOL_PROPERTY
Valence
SciTegic.value.DoubleValue
7.175

@<SCITEGIC>MOL_PROPERTY
Coulomb
SciTegic.value.DoubleValue
-1.360

@<SCITEGIC>MOL_PROPERTY
VdW
SciTegic.value.DoubleValue
1.151

@<SCITEGIC>MOL_PROPERTY
VdW6
SciTegic.value.DoubleValue
-5.641

@<SCITEGIC>MOL_PROPERTY
VdW12
SciTegic.value.DoubleValue
6.792

@<SCITEGIC>MOL_PROPERTY
Bond
SciTegic.value.DoubleValue
0.119

@<SCITEGIC>MOL_PROPERTY
Angle
SciTegic.value.DoubleValue
2.715

@<SCITEGIC>MOL_PROPERTY
Pdih
SciTegic.value.DoubleValue
4.340

@<SCITEGIC>MOL_PROPERTY
Idih
SciTegic.value.DoubleValue
0.000

@<SCITEGIC>MOL_PROPERTY
Tether
SciTegic.value.DoubleValue
0.000

@<TRIPOS>MOLECULE
guest-7_confgen4.mol2 : confsearch ligand conformer 268
          19          18           1
SMALL
USER_CHARGES
 
@<TRIPOS>ATOM
       1    C1      16.688747   19.934512   21.962224 C.2        1 MOL1         0.6115
       2    O1      16.518391   21.134790   22.042793 O.co2      1 MOL1        -0.6776
       3    O2      15.954975   19.191196   21.341545 O.co2      1 MOL1        -0.6776
       4    C2      17.901524   19.330674   22.661453 C.3        1 MOL1        -0.2013
       5    H1      17.637717   18.317209   22.987086 H          1 MOL1         0.0727
       6    H2      18.102354   19.919300   23.564742 H          1 MOL1         0.0727
       7    C3      19.159286   19.291322   21.758900 C.3        1 MOL1        -0.1910
       8    H3      18.938039   18.709306   20.853441 H          1 MOL1         0.0729
       9    H4      19.402613   20.311526   21.430989 H          1 MOL1         0.0729
      10    C4      20.372124   18.676180   22.489825 C.3        1 MOL1        -0.1909
      11    H5      20.125268   17.656939   22.817548 H          1 MOL1         0.0729
      12    H6      20.589972   19.259443   23.395108 H          1 MOL1         0.0729
      13    C5      21.623603   18.638186   21.588310 C.3        1 MOL1        -0.1884
      14    H7      21.410241   18.053947   20.682421 H          1 MOL1         0.0729
      15    H8      21.874953   19.656286   21.259995 H          1 MOL1         0.0729
      16    C6      22.832609   18.023344   22.321271 C.3        1 MOL1        -0.2899
      17    H9      23.713242   18.004066   21.666120 H          1 MOL1         0.0741
      18    H10     23.088112   18.606856   23.215505 H          1 MOL1         0.0741
      19    H11     22.619890   16.992517   22.633633 H          1 MOL1         0.0741
@<TRIPOS>BOND
    1     1     2    1
    2     1     3    2
    3     1     4    1
    4     4     5    1
    5     4     6    1
    6     4     7    1
    7     7     8    1
    8     7     9    1
    9     7    10    1
   10    10    11    1
   11    10    12    1
   12    10    13    1
   13    13    14    1
   14    13    15    1
   15    13    16    1
   16    16    17    1
   17    16    18    1
   18    16    19    1
@<TRIPOS>SUBSTRUCTURE
       1 MOL1            1 RESIDUE      1      MOL     
@<SCITEGIC>MOL_PROPERTY
VConf Rank
SciTegic.value.IntegerValue
268

@<SCITEGIC>MOL_PROPERTY
Conf_Id
SciTegic.value.IntegerValue
18

@<SCITEGIC>MOL_PROPERTY
Delta U+W
SciTegic.value.DoubleValue
-1.199

@<SCITEGIC>MOL_PROPERTY
U+W
SciTegic.value.DoubleValue
-56.090

@<SCITEGIC>MOL_PROPERTY
Grad RMS
SciTegic.value.DoubleValue
0.000000

@<SCITEGIC>MOL_PROPERTY
U
SciTegic.value.DoubleValue
5.975

@<SCITEGIC>MOL_PROPERTY
W
SciTegic.value.DoubleValue
-62.066

@<SCITEGIC>MOL_PROPERTY
W(PB)
SciTegic.value.DoubleValue
-64.219

@<SCITEGIC>MOL_PROPERTY
W(SA)
SciTegic.value.DoubleValue
2.153

@<SCITEGIC>MOL_PROPERTY
Valence
SciTegic.value.DoubleValue
6.673

@<SCITEGIC>MOL_PROPERTY
Coulomb
SciTegic.value.DoubleValue
-1.307

@<SCITEGIC>MOL_PROPERTY
VdW
SciTegic.value.DoubleValue
0.610

@<SCITEGIC>MOL_PROPERTY
VdW6
SciTegic.value.DoubleValue
-5.351

@<SCITEGIC>MOL_PROPERTY
VdW12
SciTegic.value.DoubleValue
5.961

@<SCITEGIC>MOL_PROPERTY
Bond
SciTegic.value.DoubleValue
0.086

@<SCITEGIC>MOL_PROPERTY
Angle
SciTegic.value.DoubleValue
2.253

@<SCITEGIC>MOL_PROPERTY
Pdih
SciTegic.value.DoubleValue
4.333

@<SCITEGIC>MOL_PROPERTY
Idih
SciTegic.value.DoubleValue
0.001

@<SCITEGIC>MOL_PROPERTY
Tether
SciTegic.value.DoubleValue
0.000

@<TRIPOS>MOLECULE
guest-7_confgen4.mol2 : confsearch ligand conformer 269
          19          18           1
SMALL
USER_CHARGES
 
@<TRIPOS>ATOM
       1    C1      18.659579   21.814371   21.743713 C.2        1 MOL1         0.6115
       2    O1      18.986918   22.576098   20.855508 O.co2      1 MOL1        -0.6776
       3    O2      17.612291   21.902891   22.353314 O.co2      1 MOL1        -0.6776
       4    C2      19.605342   20.672291   22.098041 C.3        1 MOL1        -0.2013
       5    H1      19.503166   20.475668   23.171233 H          1 MOL1         0.0727
       6    H2      20.632606   21.015357   21.926160 H          1 MOL1         0.0727
       7    C3      19.326906   19.385952   21.277683 C.3        1 MOL1        -0.1910
       8    H3      18.310807   19.026842   21.491910 H          1 MOL1         0.0729
       9    H4      19.347545   19.638529   20.208477 H          1 MOL1         0.0729
      10    C4      20.347851   18.253320   21.539117 C.3        1 MOL1        -0.1909
      11    H5      21.361713   18.612857   21.315905 H          1 MOL1         0.0729
      12    H6      20.146934   17.433672   20.835681 H          1 MOL1         0.0729
      13    C5      20.296821   17.700983   22.981279 C.3        1 MOL1        -0.1884
      14    H7      20.569462   18.486944   23.697723 H          1 MOL1         0.0729
      15    H8      19.271472   17.388301   23.222436 H          1 MOL1         0.0729
      16    C6      21.252577   16.504700   23.162135 C.3        1 MOL1        -0.2899
      17    H9      21.207254   16.125701   24.191404 H          1 MOL1         0.0741
      18    H10     20.985128   15.681928   22.486188 H          1 MOL1         0.0741
      19    H11     22.290275   16.796454   22.953648 H          1 MOL1         0.0741
@<TRIPOS>BOND
    1     1     2    1
    2     1     3    2
    3     1     4    1
    4     4     5    1
    5     4     6    1
    6     4     7    1
    7     7     8    1
    8     7     9    1
    9     7    10    1
   10    10    11    1
   11    10    12    1
   12    10    13    1
   13    13    14    1
   14    13    15    1
   15    13    16    1
   16    16    17    1
   17    16    18    1
   18    16    19    1
@<TRIPOS>SUBSTRUCTURE
       1 MOL1            1 RESIDUE      1      MOL     
@<SCITEGIC>MOL_PROPERTY
VConf Rank
SciTegic.value.IntegerValue
269

@<SCITEGIC>MOL_PROPERTY
Conf_Id
SciTegic.value.IntegerValue
34

@<SCITEGIC>MOL_PROPERTY
Delta U+W
SciTegic.value.DoubleValue
-0.563

@<SCITEGIC>MOL_PROPERTY
U+W
SciTegic.value.DoubleValue
-55.455

@<SCITEGIC>MOL_PROPERTY
Grad RMS
SciTegic.value.DoubleValue
0.000000

@<SCITEGIC>MOL_PROPERTY
U
SciTegic.value.DoubleValue
6.914

@<SCITEGIC>MOL_PROPERTY
W
SciTegic.value.DoubleValue
-62.369

@<SCITEGIC>MOL_PROPERTY
W(PB)
SciTegic.value.DoubleValue
-64.446

@<SCITEGIC>MOL_PROPERTY
W(SA)
SciTegic.value.DoubleValue
2.077

@<SCITEGIC>MOL_PROPERTY
Valence
SciTegic.value.DoubleValue
7.196

@<SCITEGIC>MOL_PROPERTY
Coulomb
SciTegic.value.DoubleValue
-1.020

@<SCITEGIC>MOL_PROPERTY
VdW
SciTegic.value.DoubleValue
0.738

@<SCITEGIC>MOL_PROPERTY
VdW6
SciTegic.value.DoubleValue
-6.010

@<SCITEGIC>MOL_PROPERTY
VdW12
SciTegic.value.DoubleValue
6.748

@<SCITEGIC>MOL_PROPERTY
Bond
SciTegic.value.DoubleValue
0.126

@<SCITEGIC>MOL_PROPERTY
Angle
SciTegic.value.DoubleValue
2.499

@<SCITEGIC>MOL_PROPERTY
Pdih
SciTegic.value.DoubleValue
4.570

@<SCITEGIC>MOL_PROPERTY
Idih
SciTegic.value.DoubleValue
0.001

@<SCITEGIC>MOL_PROPERTY
Tether
SciTegic.value.DoubleValue
0.000

@<TRIPOS>MOLECULE
guest-7_confgen4.mol2 : confsearch ligand conformer 270
          19          18           1
SMALL
USER_CHARGES
 
@<TRIPOS>ATOM
       1    C1      18.836351   20.324136   19.527363 C.2        1 MOL1         0.6115
       2    O1      19.380412   20.253217   18.443270 O.co2      1 MOL1        -0.6776
       3    O2      18.007025   21.166067   19.809555 O.co2      1 MOL1        -0.6776
       4    C2      19.232226   19.314842   20.599261 C.3        1 MOL1        -0.2013
       5    H1      19.495097   18.374252   20.100561 H          1 MOL1         0.0727
       6    H2      18.347929   19.119916   21.216405 H          1 MOL1         0.0727
       7    C3      20.414148   19.803415   21.476495 C.3        1 MOL1        -0.1910
       8    H3      21.251590   20.075972   20.819360 H          1 MOL1         0.0729
       9    H4      20.123512   20.721595   22.005442 H          1 MOL1         0.0729
      10    C4      20.906231   18.747099   22.494128 C.3        1 MOL1        -0.1909
      11    H5      21.811845   19.130357   22.984016 H          1 MOL1         0.0729
      12    H6      21.204029   17.833526   21.961484 H          1 MOL1         0.0729
      13    C5      19.858462   18.401261   23.575834 C.3        1 MOL1        -0.1884
      14    H7      19.522666   19.321114   24.074211 H          1 MOL1         0.0729
      15    H8      18.973169   17.945306   23.113530 H          1 MOL1         0.0729
      16    C6      20.431359   17.429589   24.626979 C.3        1 MOL1        -0.2899
      17    H9      20.750241   16.488885   24.159222 H          1 MOL1         0.0741
      18    H10     21.297681   17.869413   25.138281 H          1 MOL1         0.0741
      19    H11     19.675074   17.191377   25.386175 H          1 MOL1         0.0741
@<TRIPOS>BOND
    1     1     2    1
    2     1     3    2
    3     1     4    1
    4     4     5    1
    5     4     6    1
    6     4     7    1
    7     7     8    1
    8     7     9    1
    9     7    10    1
   10    10    11    1
   11    10    12    1
   12    10    13    1
   13    13    14    1
   14    13    15    1
   15    13    16    1
   16    16    17    1
   17    16    18    1
   18    16    19    1
@<TRIPOS>SUBSTRUCTURE
       1 MOL1            1 RESIDUE      1      MOL     
@<SCITEGIC>MOL_PROPERTY
VConf Rank
SciTegic.value.IntegerValue
270

@<SCITEGIC>MOL_PROPERTY
Conf_Id
SciTegic.value.IntegerValue
33

@<SCITEGIC>MOL_PROPERTY
Delta U+W
SciTegic.value.DoubleValue
-0.526

@<SCITEGIC>MOL_PROPERTY
U+W
SciTegic.value.DoubleValue
-55.418

@<SCITEGIC>MOL_PROPERTY
Grad RMS
SciTegic.value.DoubleValue
0.000000

@<SCITEGIC>MOL_PROPERTY
U
SciTegic.value.DoubleValue
6.914

@<SCITEGIC>MOL_PROPERTY
W
SciTegic.value.DoubleValue
-62.332

@<SCITEGIC>MOL_PROPERTY
W(PB)
SciTegic.value.DoubleValue
-64.421

@<SCITEGIC>MOL_PROPERTY
W(SA)
SciTegic.value.DoubleValue
2.090

@<SCITEGIC>MOL_PROPERTY
Valence
SciTegic.value.DoubleValue
7.196

@<SCITEGIC>MOL_PROPERTY
Coulomb
SciTegic.value.DoubleValue
-1.020

@<SCITEGIC>MOL_PROPERTY
VdW
SciTegic.value.DoubleValue
0.738

@<SCITEGIC>MOL_PROPERTY
VdW6
SciTegic.value.DoubleValue
-6.010

@<SCITEGIC>MOL_PROPERTY
VdW12
SciTegic.value.DoubleValue
6.748

@<SCITEGIC>MOL_PROPERTY
Bond
SciTegic.value.DoubleValue
0.126

@<SCITEGIC>MOL_PROPERTY
Angle
SciTegic.value.DoubleValue
2.499

@<SCITEGIC>MOL_PROPERTY
Pdih
SciTegic.value.DoubleValue
4.570

@<SCITEGIC>MOL_PROPERTY
Idih
SciTegic.value.DoubleValue
0.001

@<SCITEGIC>MOL_PROPERTY
Tether
SciTegic.value.DoubleValue
0.000

@<TRIPOS>MOLECULE
guest-7_confgen4.mol2 : confsearch ligand conformer 271
          19          18           1
SMALL
USER_CHARGES
 
@<TRIPOS>ATOM
       1    C1      17.859165   16.575877   21.786378 C.2        1 MOL1         0.6115
       2    O1      16.847947   16.775744   22.429582 O.co2      1 MOL1        -0.6776
       3    O2      17.868446   16.033492   20.699191 O.co2      1 MOL1        -0.6776
       4    C2      19.187563   17.047284   22.367441 C.3        1 MOL1        -0.2013
       5    H1      19.969347   16.352713   22.037194 H          1 MOL1         0.0727
       6    H2      19.127699   16.972398   23.459931 H          1 MOL1         0.0727
       7    C3      19.547278   18.494858   21.950815 C.3        1 MOL1        -0.1910
       8    H3      19.594097   18.555830   20.854764 H          1 MOL1         0.0729
       9    H4      18.742862   19.168221   22.275034 H          1 MOL1         0.0729
      10    C4      20.895995   18.947414   22.556468 C.3        1 MOL1        -0.1909
      11    H5      21.673455   18.222140   22.279831 H          1 MOL1         0.0729
      12    H6      20.832990   18.933269   23.653208 H          1 MOL1         0.0729
      13    C5      21.342028   20.349868   22.082377 C.3        1 MOL1        -0.1884
      14    H7      22.355187   20.544133   22.460549 H          1 MOL1         0.0729
      15    H8      21.411620   20.366390   20.985923 H          1 MOL1         0.0729
      16    C6      20.407695   21.482179   22.560651 C.3        1 MOL1        -0.2899
      17    H9      20.299453   21.467253   23.652996 H          1 MOL1         0.0741
      18    H10     20.813697   22.461115   22.274664 H          1 MOL1         0.0741
      19    H11     19.409464   21.393635   22.114067 H          1 MOL1         0.0741
@<TRIPOS>BOND
    1     1     2    1
    2     1     3    2
    3     1     4    1
    4     4     5    1
    5     4     6    1
    6     4     7    1
    7     7     8    1
    8     7     9    1
    9     7    10    1
   10    10    11    1
   11    10    12    1
   12    10    13    1
   13    13    14    1
   14    13    15    1
   15    13    16    1
   16    16    17    1
   17    16    18    1
   18    16    19    1
@<TRIPOS>SUBSTRUCTURE
       1 MOL1            1 RESIDUE      1      MOL     
@<SCITEGIC>MOL_PROPERTY
VConf Rank
SciTegic.value.IntegerValue
271

@<SCITEGIC>MOL_PROPERTY
Conf_Id
SciTegic.value.IntegerValue
42

@<SCITEGIC>MOL_PROPERTY
Delta U+W
SciTegic.value.DoubleValue
-0.344

@<SCITEGIC>MOL_PROPERTY
U+W
SciTegic.value.DoubleValue
-55.236

@<SCITEGIC>MOL_PROPERTY
Grad RMS
SciTegic.value.DoubleValue
0.000000

@<SCITEGIC>MOL_PROPERTY
U
SciTegic.value.DoubleValue
7.244

@<SCITEGIC>MOL_PROPERTY
W
SciTegic.value.DoubleValue
-62.479

@<SCITEGIC>MOL_PROPERTY
W(PB)
SciTegic.value.DoubleValue
-64.610

@<SCITEGIC>MOL_PROPERTY
W(SA)
SciTegic.value.DoubleValue
2.130

@<SCITEGIC>MOL_PROPERTY
Valence
SciTegic.value.DoubleValue
7.174

@<SCITEGIC>MOL_PROPERTY
Coulomb
SciTegic.value.DoubleValue
-0.669

@<SCITEGIC>MOL_PROPERTY
VdW
SciTegic.value.DoubleValue
0.739

@<SCITEGIC>MOL_PROPERTY
VdW6
SciTegic.value.DoubleValue
-5.969

@<SCITEGIC>MOL_PROPERTY
VdW12
SciTegic.value.DoubleValue
6.708

@<SCITEGIC>MOL_PROPERTY
Bond
SciTegic.value.DoubleValue
0.116

@<SCITEGIC>MOL_PROPERTY
Angle
SciTegic.value.DoubleValue
2.481

@<SCITEGIC>MOL_PROPERTY
Pdih
SciTegic.value.DoubleValue
4.576

@<SCITEGIC>MOL_PROPERTY
Idih
SciTegic.value.DoubleValue
0.000

@<SCITEGIC>MOL_PROPERTY
Tether
SciTegic.value.DoubleValue
0.000

@<TRIPOS>MOLECULE
guest-7_confgen4.mol2 : confsearch ligand conformer 272
          19          18           1
SMALL
USER_CHARGES
 
@<TRIPOS>ATOM
       1    C1      21.800503   21.502416   21.562808 C.2        1 MOL1         0.6115
       2    O1      21.288818   22.488352   22.055077 O.co2      1 MOL1        -0.6776
       3    O2      22.389078   21.509849   20.499902 O.co2      1 MOL1        -0.6776
       4    C2      21.681859   20.179383   22.311145 C.3        1 MOL1        -0.2013
       5    H1      21.670096   20.395523   23.386260 H          1 MOL1         0.0727
       6    H2      22.585094   19.591348   22.108511 H          1 MOL1         0.0727
       7    C3      20.419475   19.374498   21.914923 C.3        1 MOL1        -0.1910
       8    H3      19.530664   19.989341   22.108844 H          1 MOL1         0.0729
       9    H4      20.441234   19.174166   20.834815 H          1 MOL1         0.0729
      10    C4      20.322947   18.040665   22.690957 C.3        1 MOL1        -0.1909
      11    H5      20.251648   18.243206   23.768407 H          1 MOL1         0.0729
      12    H6      21.251159   17.472210   22.541712 H          1 MOL1         0.0729
      13    C5      19.131390   17.159199   22.250728 C.3        1 MOL1        -0.1884
      14    H7      19.202244   16.949744   21.174422 H          1 MOL1         0.0729
      15    H8      19.203252   16.188818   22.761061 H          1 MOL1         0.0729
      16    C6      17.756998   17.786907   22.568343 C.3        1 MOL1        -0.2899
      17    H9      17.592123   18.704474   21.989869 H          1 MOL1         0.0741
      18    H10     16.948807   17.087311   22.318672 H          1 MOL1         0.0741
      19    H11     17.674127   18.032144   23.635183 H          1 MOL1         0.0741
@<TRIPOS>BOND
    1     1     2    1
    2     1     3    2
    3     1     4    1
    4     4     5    1
    5     4     6    1
    6     4     7    1
    7     7     8    1
    8     7     9    1
    9     7    10    1
   10    10    11    1
   11    10    12    1
   12    10    13    1
   13    13    14    1
   14    13    15    1
   15    13    16    1
   16    16    17    1
   17    16    18    1
   18    16    19    1
@<TRIPOS>SUBSTRUCTURE
       1 MOL1            1 RESIDUE      1      MOL     
@<SCITEGIC>MOL_PROPERTY
VConf Rank
SciTegic.value.IntegerValue
272

@<SCITEGIC>MOL_PROPERTY
Conf_Id
SciTegic.value.IntegerValue
41

@<SCITEGIC>MOL_PROPERTY
Delta U+W
SciTegic.value.DoubleValue
-0.361

@<SCITEGIC>MOL_PROPERTY
U+W
SciTegic.value.DoubleValue
-55.252

@<SCITEGIC>MOL_PROPERTY
Grad RMS
SciTegic.value.DoubleValue
0.000000

@<SCITEGIC>MOL_PROPERTY
U
SciTegic.value.DoubleValue
7.244

@<SCITEGIC>MOL_PROPERTY
W
SciTegic.value.DoubleValue
-62.496

@<SCITEGIC>MOL_PROPERTY
W(PB)
SciTegic.value.DoubleValue
-64.596

@<SCITEGIC>MOL_PROPERTY
W(SA)
SciTegic.value.DoubleValue
2.099

@<SCITEGIC>MOL_PROPERTY
Valence
SciTegic.value.DoubleValue
7.174

@<SCITEGIC>MOL_PROPERTY
Coulomb
SciTegic.value.DoubleValue
-0.669

@<SCITEGIC>MOL_PROPERTY
VdW
SciTegic.value.DoubleValue
0.739

@<SCITEGIC>MOL_PROPERTY
VdW6
SciTegic.value.DoubleValue
-5.969

@<SCITEGIC>MOL_PROPERTY
VdW12
SciTegic.value.DoubleValue
6.708

@<SCITEGIC>MOL_PROPERTY
Bond
SciTegic.value.DoubleValue
0.116

@<SCITEGIC>MOL_PROPERTY
Angle
SciTegic.value.DoubleValue
2.481

@<SCITEGIC>MOL_PROPERTY
Pdih
SciTegic.value.DoubleValue
4.576

@<SCITEGIC>MOL_PROPERTY
Idih
SciTegic.value.DoubleValue
0.000

@<SCITEGIC>MOL_PROPERTY
Tether
SciTegic.value.DoubleValue
0.000

@<TRIPOS>MOLECULE
guest-7_confgen4.mol2 : confsearch ligand conformer 273
          19          18           1
SMALL
USER_CHARGES
 
@<TRIPOS>ATOM
       1    C1      17.225656   17.792935   22.478569 C.2        1 MOL1         0.6115
       2    O1      17.454786   16.875589   23.241804 O.co2      1 MOL1        -0.6776
       3    O2      16.312335   18.580194   22.629391 O.co2      1 MOL1        -0.6776
       4    C2      18.118655   17.953766   21.251365 C.3        1 MOL1        -0.2013
       5    H1      17.462906   18.113668   20.387342 H          1 MOL1         0.0727
       6    H2      18.648354   17.009269   21.077210 H          1 MOL1         0.0727
       7    C3      19.131186   19.123761   21.356168 C.3        1 MOL1        -0.1910
       8    H3      19.629313   19.251845   20.385602 H          1 MOL1         0.0729
       9    H4      18.588517   20.057580   21.558957 H          1 MOL1         0.0729
      10    C4      20.197968   18.890362   22.449243 C.3        1 MOL1        -0.1909
      11    H5      20.728675   17.949393   22.249349 H          1 MOL1         0.0729
      12    H6      19.708370   18.778180   23.426551 H          1 MOL1         0.0729
      13    C5      21.212437   20.051054   22.514428 C.3        1 MOL1        -0.1884
      14    H7      21.708448   20.165317   21.540597 H          1 MOL1         0.0729
      15    H8      20.684445   20.993278   22.716699 H          1 MOL1         0.0729
      16    C6      22.275499   19.815185   23.605867 C.3        1 MOL1        -0.2899
      17    H9      22.840615   18.894248   23.411127 H          1 MOL1         0.0741
      18    H10     22.987998   20.649661   23.638765 H          1 MOL1         0.0741
      19    H11     21.809056   19.728323   24.595982 H          1 MOL1         0.0741
@<TRIPOS>BOND
    1     1     2    1
    2     1     3    2
    3     1     4    1
    4     4     5    1
    5     4     6    1
    6     4     7    1
    7     7     8    1
    8     7     9    1
    9     7    10    1
   10    10    11    1
   11    10    12    1
   12    10    13    1
   13    13    14    1
   14    13    15    1
   15    13    16    1
   16    16    17    1
   17    16    18    1
   18    16    19    1
@<TRIPOS>SUBSTRUCTURE
       1 MOL1            1 RESIDUE      1      MOL     
@<SCITEGIC>MOL_PROPERTY
VConf Rank
SciTegic.value.IntegerValue
273

@<SCITEGIC>MOL_PROPERTY
Conf_Id
SciTegic.value.IntegerValue
36

@<SCITEGIC>MOL_PROPERTY
Delta U+W
SciTegic.value.DoubleValue
-0.079

@<SCITEGIC>MOL_PROPERTY
U+W
SciTegic.value.DoubleValue
-54.971

@<SCITEGIC>MOL_PROPERTY
Grad RMS
SciTegic.value.DoubleValue
0.000000

@<SCITEGIC>MOL_PROPERTY
U
SciTegic.value.DoubleValue
8.266

@<SCITEGIC>MOL_PROPERTY
W
SciTegic.value.DoubleValue
-63.237

@<SCITEGIC>MOL_PROPERTY
W(PB)
SciTegic.value.DoubleValue
-65.340

@<SCITEGIC>MOL_PROPERTY
W(SA)
SciTegic.value.DoubleValue
2.103

@<SCITEGIC>MOL_PROPERTY
Valence
SciTegic.value.DoubleValue
6.935

@<SCITEGIC>MOL_PROPERTY
Coulomb
SciTegic.value.DoubleValue
0.874

@<SCITEGIC>MOL_PROPERTY
VdW
SciTegic.value.DoubleValue
0.457

@<SCITEGIC>MOL_PROPERTY
VdW6
SciTegic.value.DoubleValue
-6.205

@<SCITEGIC>MOL_PROPERTY
VdW12
SciTegic.value.DoubleValue
6.662

@<SCITEGIC>MOL_PROPERTY
Bond
SciTegic.value.DoubleValue
0.107

@<SCITEGIC>MOL_PROPERTY
Angle
SciTegic.value.DoubleValue
2.420

@<SCITEGIC>MOL_PROPERTY
Pdih
SciTegic.value.DoubleValue
4.407

@<SCITEGIC>MOL_PROPERTY
Idih
SciTegic.value.DoubleValue
0.001

@<SCITEGIC>MOL_PROPERTY
Tether
SciTegic.value.DoubleValue
0.000

@<TRIPOS>MOLECULE
guest-7_confgen4.mol2 : confsearch ligand conformer 274
          19          18           1
SMALL
USER_CHARGES
 
@<TRIPOS>ATOM
       1    C1      17.368478   18.362819   22.754903 C.2        1 MOL1         0.6115
       2    O1      17.422598   17.868247   23.863516 O.co2      1 MOL1        -0.6776
       3    O2      16.814192   17.835923   21.810536 O.co2      1 MOL1        -0.6776
       4    C2      18.012348   19.729767   22.539890 C.3        1 MOL1        -0.2013
       5    H1      18.156084   20.207007   23.516911 H          1 MOL1         0.0727
       6    H2      17.294091   20.347356   21.987802 H          1 MOL1         0.0727
       7    C3      19.355168   19.680527   21.765614 C.3        1 MOL1        -0.1910
       8    H3      19.201378   19.174745   20.802201 H          1 MOL1         0.0729
       9    H4      19.672353   20.706973   21.536839 H          1 MOL1         0.0729
      10    C4      20.472719   18.966986   22.558868 C.3        1 MOL1        -0.1909
      11    H5      20.169948   17.933469   22.777029 H          1 MOL1         0.0729
      12    H6      20.613633   19.468208   23.526313 H          1 MOL1         0.0729
      13    C5      21.806690   18.957464   21.783604 C.3        1 MOL1        -0.1884
      14    H7      21.669145   18.454504   20.816347 H          1 MOL1         0.0729
      15    H8      22.116771   19.988982   21.566231 H          1 MOL1         0.0729
      16    C6      22.919632   18.244876   22.577682 C.3        1 MOL1        -0.2899
      17    H9      22.649029   17.200640   22.782104 H          1 MOL1         0.0741
      18    H10     23.860447   18.246823   22.012040 H          1 MOL1         0.0741
      19    H11     23.099982   18.746502   23.537500 H          1 MOL1         0.0741
@<TRIPOS>BOND
    1     1     2    1
    2     1     3    2
    3     1     4    1
    4     4     5    1
    5     4     6    1
    6     4     7    1
    7     7     8    1
    8     7     9    1
    9     7    10    1
   10    10    11    1
   11    10    12    1
   12    10    13    1
   13    13    14    1
   14    13    15    1
   15    13    16    1
   16    16    17    1
   17    16    18    1
   18    16    19    1
@<TRIPOS>SUBSTRUCTURE
       1 MOL1            1 RESIDUE      1      MOL     
@<SCITEGIC>MOL_PROPERTY
VConf Rank
SciTegic.value.IntegerValue
274

@<SCITEGIC>MOL_PROPERTY
Conf_Id
SciTegic.value.IntegerValue
35

@<SCITEGIC>MOL_PROPERTY
Delta U+W
SciTegic.value.DoubleValue
-0.030

@<SCITEGIC>MOL_PROPERTY
U+W
SciTegic.value.DoubleValue
-54.921

@<SCITEGIC>MOL_PROPERTY
Grad RMS
SciTegic.value.DoubleValue
0.000000

@<SCITEGIC>MOL_PROPERTY
U
SciTegic.value.DoubleValue
8.267

@<SCITEGIC>MOL_PROPERTY
W
SciTegic.value.DoubleValue
-63.188

@<SCITEGIC>MOL_PROPERTY
W(PB)
SciTegic.value.DoubleValue
-65.294

@<SCITEGIC>MOL_PROPERTY
W(SA)
SciTegic.value.DoubleValue
2.106

@<SCITEGIC>MOL_PROPERTY
Valence
SciTegic.value.DoubleValue
6.935

@<SCITEGIC>MOL_PROPERTY
Coulomb
SciTegic.value.DoubleValue
0.875

@<SCITEGIC>MOL_PROPERTY
VdW
SciTegic.value.DoubleValue
0.457

@<SCITEGIC>MOL_PROPERTY
VdW6
SciTegic.value.DoubleValue
-6.205

@<SCITEGIC>MOL_PROPERTY
VdW12
SciTegic.value.DoubleValue
6.662

@<SCITEGIC>MOL_PROPERTY
Bond
SciTegic.value.DoubleValue
0.107

@<SCITEGIC>MOL_PROPERTY
Angle
SciTegic.value.DoubleValue
2.420

@<SCITEGIC>MOL_PROPERTY
Pdih
SciTegic.value.DoubleValue
4.407

@<SCITEGIC>MOL_PROPERTY
Idih
SciTegic.value.DoubleValue
0.001

@<SCITEGIC>MOL_PROPERTY
Tether
SciTegic.value.DoubleValue
0.000

@<TRIPOS>MOLECULE
guest-7_confgen4.mol2 : confsearch ligand conformer 275
          19          18           1
SMALL
USER_CHARGES
 
@<TRIPOS>ATOM
       1    C1      17.198848   19.182692   21.908482 C.2        1 MOL1         0.6115
       2    O1      16.677403   18.204535   21.410473 O.co2      1 MOL1        -0.6776
       3    O2      17.006948   20.317649   21.519008 O.co2      1 MOL1        -0.6776
       4    C2      18.127755   18.974060   23.101413 C.3        1 MOL1        -0.2013
       5    H1      17.627203   18.281799   23.788666 H          1 MOL1         0.0727
       6    H2      18.234967   19.927154   23.633462 H          1 MOL1         0.0727
       7    C3      19.523444   18.411054   22.726184 C.3        1 MOL1        -0.1910
       8    H3      20.054746   18.152729   23.651028 H          1 MOL1         0.0729
       9    H4      19.399085   17.477624   22.159993 H          1 MOL1         0.0729
      10    C4      20.367393   19.414668   21.904483 C.3        1 MOL1        -0.1909
      11    H5      20.522996   20.332479   22.487774 H          1 MOL1         0.0729
      12    H6      19.805513   19.709435   21.007584 H          1 MOL1         0.0729
      13    C5      21.734537   18.846683   21.458230 C.3        1 MOL1        -0.1884
      14    H7      21.581974   17.929549   20.872654 H          1 MOL1         0.0729
      15    H8      22.212609   19.569789   20.783110 H          1 MOL1         0.0729
      16    C6      22.691572   18.558895   22.635209 C.3        1 MOL1        -0.2899
      17    H9      22.308991   17.754624   23.275836 H          1 MOL1         0.0741
      18    H10     23.675285   18.246065   22.261868 H          1 MOL1         0.0741
      19    H11     22.834157   19.454571   23.253739 H          1 MOL1         0.0741
@<TRIPOS>BOND
    1     1     2    1
    2     1     3    2
    3     1     4    1
    4     4     5    1
    5     4     6    1
    6     4     7    1
    7     7     8    1
    8     7     9    1
    9     7    10    1
   10    10    11    1
   11    10    12    1
   12    10    13    1
   13    13    14    1
   14    13    15    1
   15    13    16    1
   16    16    17    1
   17    16    18    1
   18    16    19    1
@<TRIPOS>SUBSTRUCTURE
       1 MOL1            1 RESIDUE      1      MOL     
@<SCITEGIC>MOL_PROPERTY
VConf Rank
SciTegic.value.IntegerValue
275

@<SCITEGIC>MOL_PROPERTY
Conf_Id
SciTegic.value.IntegerValue
74

@<SCITEGIC>MOL_PROPERTY
Delta U+W
SciTegic.value.DoubleValue
0.797

@<SCITEGIC>MOL_PROPERTY
U+W
SciTegic.value.DoubleValue
-54.095

@<SCITEGIC>MOL_PROPERTY
Grad RMS
SciTegic.value.DoubleValue
0.000000

@<SCITEGIC>MOL_PROPERTY
U
SciTegic.value.DoubleValue
8.869

@<SCITEGIC>MOL_PROPERTY
W
SciTegic.value.DoubleValue
-62.964

@<SCITEGIC>MOL_PROPERTY
W(PB)
SciTegic.value.DoubleValue
-65.046

@<SCITEGIC>MOL_PROPERTY
W(SA)
SciTegic.value.DoubleValue
2.082

@<SCITEGIC>MOL_PROPERTY
Valence
SciTegic.value.DoubleValue
7.469

@<SCITEGIC>MOL_PROPERTY
Coulomb
SciTegic.value.DoubleValue
0.762

@<SCITEGIC>MOL_PROPERTY
VdW
SciTegic.value.DoubleValue
0.639

@<SCITEGIC>MOL_PROPERTY
VdW6
SciTegic.value.DoubleValue
-6.782

@<SCITEGIC>MOL_PROPERTY
VdW12
SciTegic.value.DoubleValue
7.421

@<SCITEGIC>MOL_PROPERTY
Bond
SciTegic.value.DoubleValue
0.141

@<SCITEGIC>MOL_PROPERTY
Angle
SciTegic.value.DoubleValue
2.667

@<SCITEGIC>MOL_PROPERTY
Pdih
SciTegic.value.DoubleValue
4.660

@<SCITEGIC>MOL_PROPERTY
Idih
SciTegic.value.DoubleValue
0.001

@<SCITEGIC>MOL_PROPERTY
Tether
SciTegic.value.DoubleValue
0.000

@<TRIPOS>MOLECULE
guest-7_confgen4.mol2 : confsearch ligand conformer 276
          19          18           1
SMALL
USER_CHARGES
 
@<TRIPOS>ATOM
       1    C1      21.386439   17.858277   24.636754 C.2        1 MOL1         0.6115
       2    O1      22.349426   18.306535   25.226792 O.co2      1 MOL1        -0.6776
       3    O2      20.588791   17.090736   25.137714 O.co2      1 MOL1        -0.6776
       4    C2      21.156575   18.297982   23.195214 C.3        1 MOL1        -0.2013
       5    H1      20.688782   17.462503   22.662012 H          1 MOL1         0.0727
       6    H2      22.134818   18.473828   22.732100 H          1 MOL1         0.0727
       7    C3      20.277594   19.571002   23.088427 C.3        1 MOL1        -0.1910
       8    H3      19.288111   19.371429   23.520714 H          1 MOL1         0.0729
       9    H4      20.725244   20.361221   23.706781 H          1 MOL1         0.0729
      10    C4      20.130399   20.102276   21.640390 C.3        1 MOL1        -0.1909
      11    H5      21.121521   20.391466   21.265103 H          1 MOL1         0.0729
      12    H6      19.533677   21.024355   21.662187 H          1 MOL1         0.0729
      13    C5      19.487045   19.113714   20.637026 C.3        1 MOL1        -0.1884
      14    H7      19.450015   19.593067   19.649135 H          1 MOL1         0.0729
      15    H8      20.122078   18.225750   20.519289 H          1 MOL1         0.0729
      16    C6      18.058455   18.683228   21.033523 C.3        1 MOL1        -0.2899
      17    H9      17.410808   19.557518   21.179125 H          1 MOL1         0.0741
      18    H10     17.613359   18.059017   20.247987 H          1 MOL1         0.0741
      19    H11     18.061649   18.097663   21.961623 H          1 MOL1         0.0741
@<TRIPOS>BOND
    1     1     2    1
    2     1     3    2
    3     1     4    1
    4     4     5    1
    5     4     6    1
    6     4     7    1
    7     7     8    1
    8     7     9    1
    9     7    10    1
   10    10    11    1
   11    10    12    1
   12    10    13    1
   13    13    14    1
   14    13    15    1
   15    13    16    1
   16    16    17    1
   17    16    18    1
   18    16    19    1
@<TRIPOS>SUBSTRUCTURE
       1 MOL1            1 RESIDUE      1      MOL     
@<SCITEGIC>MOL_PROPERTY
VConf Rank
SciTegic.value.IntegerValue
276

@<SCITEGIC>MOL_PROPERTY
Conf_Id
SciTegic.value.IntegerValue
67

@<SCITEGIC>MOL_PROPERTY
Delta U+W
SciTegic.value.DoubleValue
0.308

@<SCITEGIC>MOL_PROPERTY
U+W
SciTegic.value.DoubleValue
-54.583

@<SCITEGIC>MOL_PROPERTY
Grad RMS
SciTegic.value.DoubleValue
0.000000

@<SCITEGIC>MOL_PROPERTY
U
SciTegic.value.DoubleValue
8.219

@<SCITEGIC>MOL_PROPERTY
W
SciTegic.value.DoubleValue
-62.802

@<SCITEGIC>MOL_PROPERTY
W(PB)
SciTegic.value.DoubleValue
-64.859

@<SCITEGIC>MOL_PROPERTY
W(SA)
SciTegic.value.DoubleValue
2.057

@<SCITEGIC>MOL_PROPERTY
Valence
SciTegic.value.DoubleValue
7.609

@<SCITEGIC>MOL_PROPERTY
Coulomb
SciTegic.value.DoubleValue
-0.089

@<SCITEGIC>MOL_PROPERTY
VdW
SciTegic.value.DoubleValue
0.699

@<SCITEGIC>MOL_PROPERTY
VdW6
SciTegic.value.DoubleValue
-6.924

@<SCITEGIC>MOL_PROPERTY
VdW12
SciTegic.value.DoubleValue
7.623

@<SCITEGIC>MOL_PROPERTY
Bond
SciTegic.value.DoubleValue
0.163

@<SCITEGIC>MOL_PROPERTY
Angle
SciTegic.value.DoubleValue
2.870

@<SCITEGIC>MOL_PROPERTY
Pdih
SciTegic.value.DoubleValue
4.576

@<SCITEGIC>MOL_PROPERTY
Idih
SciTegic.value.DoubleValue
0.001

@<SCITEGIC>MOL_PROPERTY
Tether
SciTegic.value.DoubleValue
0.000

@<TRIPOS>MOLECULE
guest-7_confgen4.mol2 : confsearch ligand conformer 277
          19          18           1
SMALL
USER_CHARGES
 
@<TRIPOS>ATOM
       1    C1      20.095633   16.315970   23.624024 C.2        1 MOL1         0.6115
       2    O1      19.368900   15.351845   23.487108 O.co2      1 MOL1        -0.6776
       3    O2      20.767291   16.515707   24.616648 O.co2      1 MOL1        -0.6776
       4    C2      20.152499   17.340583   22.496570 C.3        1 MOL1        -0.2013
       5    H1      20.003828   16.812001   21.547437 H          1 MOL1         0.0727
       6    H2      21.163808   17.762644   22.479868 H          1 MOL1         0.0727
       7    C3      19.096796   18.465515   22.653433 C.3        1 MOL1        -0.1910
       8    H3      18.104624   18.005456   22.758973 H          1 MOL1         0.0729
       9    H4      19.278728   19.012161   23.588236 H          1 MOL1         0.0729
      10    C4      19.058757   19.450226   21.457766 C.3        1 MOL1        -0.1909
      11    H5      18.258551   20.182913   21.629873 H          1 MOL1         0.0729
      12    H6      18.774631   18.898410   20.551364 H          1 MOL1         0.0729
      13    C5      20.381095   20.208493   21.185086 C.3        1 MOL1        -0.1884
      14    H7      21.173644   19.501140   20.907365 H          1 MOL1         0.0729
      15    H8      20.236765   20.860018   20.312295 H          1 MOL1         0.0729
      16    C6      20.847893   21.071703   22.376877 C.3        1 MOL1        -0.2899
      17    H9      21.115104   20.448737   23.239883 H          1 MOL1         0.0741
      18    H10     21.734422   21.657962   22.102683 H          1 MOL1         0.0741
      19    H11     20.061292   21.771865   22.686817 H          1 MOL1         0.0741
@<TRIPOS>BOND
    1     1     2    1
    2     1     3    2
    3     1     4    1
    4     4     5    1
    5     4     6    1
    6     4     7    1
    7     7     8    1
    8     7     9    1
    9     7    10    1
   10    10    11    1
   11    10    12    1
   12    10    13    1
   13    13    14    1
   14    13    15    1
   15    13    16    1
   16    16    17    1
   17    16    18    1
   18    16    19    1
@<TRIPOS>SUBSTRUCTURE
       1 MOL1            1 RESIDUE      1      MOL     
@<SCITEGIC>MOL_PROPERTY
VConf Rank
SciTegic.value.IntegerValue
277

@<SCITEGIC>MOL_PROPERTY
Conf_Id
SciTegic.value.IntegerValue
21

@<SCITEGIC>MOL_PROPERTY
Delta U+W
SciTegic.value.DoubleValue
0.319

@<SCITEGIC>MOL_PROPERTY
U+W
SciTegic.value.DoubleValue
-54.572

@<SCITEGIC>MOL_PROPERTY
Grad RMS
SciTegic.value.DoubleValue
0.000000

@<SCITEGIC>MOL_PROPERTY
U
SciTegic.value.DoubleValue
8.220

@<SCITEGIC>MOL_PROPERTY
W
SciTegic.value.DoubleValue
-62.792

@<SCITEGIC>MOL_PROPERTY
W(PB)
SciTegic.value.DoubleValue
-64.830

@<SCITEGIC>MOL_PROPERTY
W(SA)
SciTegic.value.DoubleValue
2.038

@<SCITEGIC>MOL_PROPERTY
Valence
SciTegic.value.DoubleValue
7.609

@<SCITEGIC>MOL_PROPERTY
Coulomb
SciTegic.value.DoubleValue
-0.088

@<SCITEGIC>MOL_PROPERTY
VdW
SciTegic.value.DoubleValue
0.699

@<SCITEGIC>MOL_PROPERTY
VdW6
SciTegic.value.DoubleValue
-6.924

@<SCITEGIC>MOL_PROPERTY
VdW12
SciTegic.value.DoubleValue
7.623

@<SCITEGIC>MOL_PROPERTY
Bond
SciTegic.value.DoubleValue
0.163

@<SCITEGIC>MOL_PROPERTY
Angle
SciTegic.value.DoubleValue
2.870

@<SCITEGIC>MOL_PROPERTY
Pdih
SciTegic.value.DoubleValue
4.576

@<SCITEGIC>MOL_PROPERTY
Idih
SciTegic.value.DoubleValue
0.000

@<SCITEGIC>MOL_PROPERTY
Tether
SciTegic.value.DoubleValue
0.000

@<TRIPOS>MOLECULE
guest-7_confgen4.mol2 : confsearch ligand conformer 278
          19          18           1
SMALL
USER_CHARGES
 
@<TRIPOS>ATOM
       1    C1      19.179241   21.219118   20.759586 C.2        1 MOL1         0.6115
       2    O1      19.747382   21.794032   19.852322 O.co2      1 MOL1        -0.6776
       3    O2      17.978163   21.265532   20.937098 O.co2      1 MOL1        -0.6776
       4    C2      20.017608   20.378890   21.716267 C.3        1 MOL1        -0.2013
       5    H1      19.541745   20.416317   22.701141 H          1 MOL1         0.0727
       6    H2      20.998298   20.858912   21.817318 H          1 MOL1         0.0727
       7    C3      20.190485   18.913827   21.235333 C.3        1 MOL1        -0.1910
       8    H3      19.207517   18.449011   21.077213 H          1 MOL1         0.0729
       9    H4      20.679504   18.936934   20.251604 H          1 MOL1         0.0729
      10    C4      21.045980   18.046864   22.193689 C.3        1 MOL1        -0.1909
      11    H5      21.781342   18.671812   22.718647 H          1 MOL1         0.0729
      12    H6      21.631612   17.343249   21.586289 H          1 MOL1         0.0729
      13    C5      20.230801   17.214090   23.213434 C.3        1 MOL1        -0.1884
      14    H7      19.561246   16.527758   22.676869 H          1 MOL1         0.0729
      15    H8      20.926625   16.582091   23.782293 H          1 MOL1         0.0729
      16    C6      19.407258   18.059573   24.206726 C.3        1 MOL1        -0.2899
      17    H9      18.961688   17.418601   24.978371 H          1 MOL1         0.0741
      18    H10     20.038201   18.804874   24.708139 H          1 MOL1         0.0741
      19    H11     18.587180   18.580796   23.697219 H          1 MOL1         0.0741
@<TRIPOS>BOND
    1     1     2    1
    2     1     3    2
    3     1     4    1
    4     4     5    1
    5     4     6    1
    6     4     7    1
    7     7     8    1
    8     7     9    1
    9     7    10    1
   10    10    11    1
   11    10    12    1
   12    10    13    1
   13    13    14    1
   14    13    15    1
   15    13    16    1
   16    16    17    1
   17    16    18    1
   18    16    19    1
@<TRIPOS>SUBSTRUCTURE
       1 MOL1            1 RESIDUE      1      MOL     
@<SCITEGIC>MOL_PROPERTY
VConf Rank
SciTegic.value.IntegerValue
278

@<SCITEGIC>MOL_PROPERTY
Conf_Id
SciTegic.value.IntegerValue
24

@<SCITEGIC>MOL_PROPERTY
Delta U+W
SciTegic.value.DoubleValue
2.477

@<SCITEGIC>MOL_PROPERTY
U+W
SciTegic.value.DoubleValue
-52.414

@<SCITEGIC>MOL_PROPERTY
Grad RMS
SciTegic.value.DoubleValue
0.000000

@<SCITEGIC>MOL_PROPERTY
U
SciTegic.value.DoubleValue
10.422

@<SCITEGIC>MOL_PROPERTY
W
SciTegic.value.DoubleValue
-62.836

@<SCITEGIC>MOL_PROPERTY
W(PB)
SciTegic.value.DoubleValue
-64.906

@<SCITEGIC>MOL_PROPERTY
W(SA)
SciTegic.value.DoubleValue
2.070

@<SCITEGIC>MOL_PROPERTY
Valence
SciTegic.value.DoubleValue
9.628

@<SCITEGIC>MOL_PROPERTY
Coulomb
SciTegic.value.DoubleValue
0.101

@<SCITEGIC>MOL_PROPERTY
VdW
SciTegic.value.DoubleValue
0.693

@<SCITEGIC>MOL_PROPERTY
VdW6
SciTegic.value.DoubleValue
-6.927

@<SCITEGIC>MOL_PROPERTY
VdW12
SciTegic.value.DoubleValue
7.620

@<SCITEGIC>MOL_PROPERTY
Bond
SciTegic.value.DoubleValue
0.173

@<SCITEGIC>MOL_PROPERTY
Angle
SciTegic.value.DoubleValue
2.989

@<SCITEGIC>MOL_PROPERTY
Pdih
SciTegic.value.DoubleValue
6.465

@<SCITEGIC>MOL_PROPERTY
Idih
SciTegic.value.DoubleValue
0.001

@<SCITEGIC>MOL_PROPERTY
Tether
SciTegic.value.DoubleValue
0.000

@<TRIPOS>MOLECULE
guest-7_confgen4.mol2 : confsearch ligand conformer 279
          19          18           1
SMALL
USER_CHARGES
 
@<TRIPOS>ATOM
       1    C1      22.208910   18.776135   21.273141 C.2        1 MOL1         0.6115
       2    O1      22.854740   19.233550   22.195294 O.co2      1 MOL1        -0.6776
       3    O2      22.632173   17.926248   20.514448 O.co2      1 MOL1        -0.6776
       4    C2      20.801344   19.316609   21.034650 C.3        1 MOL1        -0.2013
       5    H1      20.724208   19.559064   19.968337 H          1 MOL1         0.0727
       6    H2      20.697124   20.260599   21.578942 H          1 MOL1         0.0727
       7    C3      19.669990   18.322732   21.418295 C.3        1 MOL1        -0.1910
       8    H3      18.707994   18.687931   21.034335 H          1 MOL1         0.0729
       9    H4      19.861441   17.373428   20.898965 H          1 MOL1         0.0729
      10    C4      19.555555   18.045379   22.939958 C.3        1 MOL1        -0.1909
      11    H5      20.537827   18.137697   23.423100 H          1 MOL1         0.0729
      12    H6      19.255935   16.996957   23.073452 H          1 MOL1         0.0729
      13    C5      18.517264   18.923935   23.680227 C.3        1 MOL1        -0.1884
      14    H7      17.520006   18.758836   23.249623 H          1 MOL1         0.0729
      15    H8      18.460031   18.589019   24.725076 H          1 MOL1         0.0729
      16    C6      18.839762   20.432325   23.662659 C.3        1 MOL1        -0.2899
      17    H9      18.740757   20.846119   22.651556 H          1 MOL1         0.0741
      18    H10     18.146674   20.980755   24.313528 H          1 MOL1         0.0741
      19    H11     19.861069   20.620541   24.019018 H          1 MOL1         0.0741
@<TRIPOS>BOND
    1     1     2    1
    2     1     3    2
    3     1     4    1
    4     4     5    1
    5     4     6    1
    6     4     7    1
    7     7     8    1
    8     7     9    1
    9     7    10    1
   10    10    11    1
   11    10    12    1
   12    10    13    1
   13    13    14    1
   14    13    15    1
   15    13    16    1
   16    16    17    1
   17    16    18    1
   18    16    19    1
@<TRIPOS>SUBSTRUCTURE
       1 MOL1            1 RESIDUE      1      MOL     
@<SCITEGIC>MOL_PROPERTY
VConf Rank
SciTegic.value.IntegerValue
279

@<SCITEGIC>MOL_PROPERTY
Conf_Id
SciTegic.value.IntegerValue
4

@<SCITEGIC>MOL_PROPERTY
Delta U+W
SciTegic.value.DoubleValue
3.753

@<SCITEGIC>MOL_PROPERTY
U+W
SciTegic.value.DoubleValue
-51.138

@<SCITEGIC>MOL_PROPERTY
Grad RMS
SciTegic.value.DoubleValue
0.000000

@<SCITEGIC>MOL_PROPERTY
U
SciTegic.value.DoubleValue
12.334

@<SCITEGIC>MOL_PROPERTY
W
SciTegic.value.DoubleValue
-63.472

@<SCITEGIC>MOL_PROPERTY
W(PB)
SciTegic.value.DoubleValue
-65.500

@<SCITEGIC>MOL_PROPERTY
W(SA)
SciTegic.value.DoubleValue
2.028

@<SCITEGIC>MOL_PROPERTY
Valence
SciTegic.value.DoubleValue
9.984

@<SCITEGIC>MOL_PROPERTY
Coulomb
SciTegic.value.DoubleValue
1.767

@<SCITEGIC>MOL_PROPERTY
VdW
SciTegic.value.DoubleValue
0.583

@<SCITEGIC>MOL_PROPERTY
VdW6
SciTegic.value.DoubleValue
-7.767

@<SCITEGIC>MOL_PROPERTY
VdW12
SciTegic.value.DoubleValue
8.349

@<SCITEGIC>MOL_PROPERTY
Bond
SciTegic.value.DoubleValue
0.203

@<SCITEGIC>MOL_PROPERTY
Angle
SciTegic.value.DoubleValue
3.191

@<SCITEGIC>MOL_PROPERTY
Pdih
SciTegic.value.DoubleValue
6.589

@<SCITEGIC>MOL_PROPERTY
Idih
SciTegic.value.DoubleValue
0.001

@<SCITEGIC>MOL_PROPERTY
Tether
SciTegic.value.DoubleValue
0.000

@<TRIPOS>MOLECULE
guest-7_confgen4.mol2 : confsearch ligand conformer 280
          19          18           1
SMALL
USER_CHARGES
 
@<TRIPOS>ATOM
       1    C1      21.653395   17.011532   22.908818 C.2        1 MOL1         0.6115
       2    O1      21.707770   15.861633   22.519139 O.co2      1 MOL1        -0.6776
       3    O2      22.623301   17.739340   22.988003 O.co2      1 MOL1        -0.6776
       4    C2      20.297913   17.558469   23.348998 C.3        1 MOL1        -0.2013
       5    H1      20.466976   18.458296   23.948963 H          1 MOL1         0.0727
       6    H2      19.850701   16.814432   24.018449 H          1 MOL1         0.0727
       7    C3      19.321286   17.845333   22.174756 C.3        1 MOL1        -0.1910
       8    H3      19.241802   16.932304   21.568460 H          1 MOL1         0.0729
       9    H4      18.313303   18.035480   22.567246 H          1 MOL1         0.0729
      10    C4      19.756141   19.017816   21.257336 C.3        1 MOL1        -0.1909
      11    H5      19.454666   18.775583   20.229125 H          1 MOL1         0.0729
      12    H6      20.851154   19.102692   21.233915 H          1 MOL1         0.0729
      13    C5      19.127037   20.386438   21.616508 C.3        1 MOL1        -0.1884
      14    H7      19.435332   21.120425   20.859295 H          1 MOL1         0.0729
      15    H8      18.032414   20.318265   21.550533 H          1 MOL1         0.0729
      16    C6      19.524422   20.917766   23.009108 C.3        1 MOL1        -0.2899
      17    H9      20.615615   20.926185   23.130407 H          1 MOL1         0.0741
      18    H10     19.159625   21.943762   23.147063 H          1 MOL1         0.0741
      19    H11     19.089075   20.302464   23.806122 H          1 MOL1         0.0741
@<TRIPOS>BOND
    1     1     2    1
    2     1     3    2
    3     1     4    1
    4     4     5    1
    5     4     6    1
    6     4     7    1
    7     7     8    1
    8     7     9    1
    9     7    10    1
   10    10    11    1
   11    10    12    1
   12    10    13    1
   13    13    14    1
   14    13    15    1
   15    13    16    1
   16    16    17    1
   17    16    18    1
   18    16    19    1
@<TRIPOS>SUBSTRUCTURE
       1 MOL1            1 RESIDUE      1      MOL     
@<SCITEGIC>MOL_PROPERTY
VConf Rank
SciTegic.value.IntegerValue
280

@<SCITEGIC>MOL_PROPERTY
Conf_Id
SciTegic.value.IntegerValue
73

@<SCITEGIC>MOL_PROPERTY
Delta U+W
SciTegic.value.DoubleValue
3.707

@<SCITEGIC>MOL_PROPERTY
U+W
SciTegic.value.DoubleValue
-51.184

@<SCITEGIC>MOL_PROPERTY
Grad RMS
SciTegic.value.DoubleValue
0.000000

@<SCITEGIC>MOL_PROPERTY
U
SciTegic.value.DoubleValue
12.334

@<SCITEGIC>MOL_PROPERTY
W
SciTegic.value.DoubleValue
-63.519

@<SCITEGIC>MOL_PROPERTY
W(PB)
SciTegic.value.DoubleValue
-65.541

@<SCITEGIC>MOL_PROPERTY
W(SA)
SciTegic.value.DoubleValue
2.022

@<SCITEGIC>MOL_PROPERTY
Valence
SciTegic.value.DoubleValue
9.984

@<SCITEGIC>MOL_PROPERTY
Coulomb
SciTegic.value.DoubleValue
1.768

@<SCITEGIC>MOL_PROPERTY
VdW
SciTegic.value.DoubleValue
0.583

@<SCITEGIC>MOL_PROPERTY
VdW6
SciTegic.value.DoubleValue
-7.767

@<SCITEGIC>MOL_PROPERTY
VdW12
SciTegic.value.DoubleValue
8.350

@<SCITEGIC>MOL_PROPERTY
Bond
SciTegic.value.DoubleValue
0.203

@<SCITEGIC>MOL_PROPERTY
Angle
SciTegic.value.DoubleValue
3.192

@<SCITEGIC>MOL_PROPERTY
Pdih
SciTegic.value.DoubleValue
6.589

@<SCITEGIC>MOL_PROPERTY
Idih
SciTegic.value.DoubleValue
0.001

@<SCITEGIC>MOL_PROPERTY
Tether
SciTegic.value.DoubleValue
0.000

@<TRIPOS>MOLECULE
guest-7_confgen4.mol2 : confsearch ligand conformer 281
          19          18           1
SMALL
USER_CHARGES
 
@<TRIPOS>ATOM
       1    C1      20.350667   16.491953   22.605550 C.2        1 MOL1         0.6115
       2    O1      21.485723   16.534353   22.173620 O.co2      1 MOL1        -0.6776
       3    O2      19.990395   15.718140   23.470754 O.co2      1 MOL1        -0.6776
       4    C2      19.312133   17.437864   22.008873 C.3        1 MOL1        -0.2013
       5    H1      18.440955   16.833070   21.731489 H          1 MOL1         0.0727
       6    H2      19.710202   17.854462   21.076519 H          1 MOL1         0.0727
       7    C3      18.863879   18.574904   22.967244 C.3        1 MOL1        -0.1910
       8    H3      18.067424   19.158771   22.488052 H          1 MOL1         0.0729
       9    H4      18.410825   18.123535   23.860619 H          1 MOL1         0.0729
      10    C4      20.006506   19.522124   23.415878 C.3        1 MOL1        -0.1909
      11    H5      20.739049   18.948236   23.999930 H          1 MOL1         0.0729
      12    H6      19.592971   20.271909   24.103921 H          1 MOL1         0.0729
      13    C5      20.747952   20.250589   22.268353 C.3        1 MOL1        -0.1884
      14    H7      21.539924   20.874488   22.704734 H          1 MOL1         0.0729
      15    H8      21.257873   19.520522   21.625369 H          1 MOL1         0.0729
      16    C6      19.824591   21.145480   21.413808 C.3        1 MOL1        -0.2899
      17    H9      19.084613   20.547732   20.866961 H          1 MOL1         0.0741
      18    H10     19.288338   21.869054   22.041411 H          1 MOL1         0.0741
      19    H11     20.410612   21.706863   20.674739 H          1 MOL1         0.0741
@<TRIPOS>BOND
    1     1     2    1
    2     1     3    2
    3     1     4    1
    4     4     5    1
    5     4     6    1
    6     4     7    1
    7     7     8    1
    8     7     9    1
    9     7    10    1
   10    10    11    1
   11    10    12    1
   12    10    13    1
   13    13    14    1
   14    13    15    1
   15    13    16    1
   16    16    17    1
   17    16    18    1
   18    16    19    1
@<TRIPOS>SUBSTRUCTURE
       1 MOL1            1 RESIDUE      1      MOL     
@<SCITEGIC>MOL_PROPERTY
VConf Rank
SciTegic.value.IntegerValue
281

@<SCITEGIC>MOL_PROPERTY
Conf_Id
SciTegic.value.IntegerValue
56

@<SCITEGIC>MOL_PROPERTY
Delta U+W
SciTegic.value.DoubleValue
1.735

@<SCITEGIC>MOL_PROPERTY
U+W
SciTegic.value.DoubleValue
-53.156

@<SCITEGIC>MOL_PROPERTY
Grad RMS
SciTegic.value.DoubleValue
0.000000

@<SCITEGIC>MOL_PROPERTY
U
SciTegic.value.DoubleValue
10.214

@<SCITEGIC>MOL_PROPERTY
W
SciTegic.value.DoubleValue
-63.370

@<SCITEGIC>MOL_PROPERTY
W(PB)
SciTegic.value.DoubleValue
-65.388

@<SCITEGIC>MOL_PROPERTY
W(SA)
SciTegic.value.DoubleValue
2.018

@<SCITEGIC>MOL_PROPERTY
Valence
SciTegic.value.DoubleValue
7.868

@<SCITEGIC>MOL_PROPERTY
Coulomb
SciTegic.value.DoubleValue
1.968

@<SCITEGIC>MOL_PROPERTY
VdW
SciTegic.value.DoubleValue
0.378

@<SCITEGIC>MOL_PROPERTY
VdW6
SciTegic.value.DoubleValue
-8.067

@<SCITEGIC>MOL_PROPERTY
VdW12
SciTegic.value.DoubleValue
8.445

@<SCITEGIC>MOL_PROPERTY
Bond
SciTegic.value.DoubleValue
0.191

@<SCITEGIC>MOL_PROPERTY
Angle
SciTegic.value.DoubleValue
3.117

@<SCITEGIC>MOL_PROPERTY
Pdih
SciTegic.value.DoubleValue
4.559

@<SCITEGIC>MOL_PROPERTY
Idih
SciTegic.value.DoubleValue
0.001

@<SCITEGIC>MOL_PROPERTY
Tether
SciTegic.value.DoubleValue
0.000

@<TRIPOS>MOLECULE
guest-7_confgen4.mol2 : confsearch ligand conformer 282
          19          18           1
SMALL
USER_CHARGES
 
@<TRIPOS>ATOM
       1    C1      17.958523   20.200532   20.546131 C.2        1 MOL1         0.6115
       2    O1      17.122498   19.566140   19.933783 O.co2      1 MOL1        -0.6776
       3    O2      18.184674   21.378254   20.350677 O.co2      1 MOL1        -0.6776
       4    C2      18.783412   19.473627   21.602259 C.3        1 MOL1        -0.2013
       5    H1      18.160230   18.683763   22.038307 H          1 MOL1         0.0727
       6    H2      19.010683   20.192179   22.397583 H          1 MOL1         0.0727
       7    C3      20.092085   18.870667   21.032356 C.3        1 MOL1        -0.1910
       8    H3      19.845035   18.267365   20.147826 H          1 MOL1         0.0729
       9    H4      20.740645   19.683815   20.678300 H          1 MOL1         0.0729
      10    C4      20.873092   17.979959   22.030935 C.3        1 MOL1        -0.1909
      11    H5      21.743300   17.572073   21.498638 H          1 MOL1         0.0729
      12    H6      20.264634   17.111256   22.317526 H          1 MOL1         0.0729
      13    C5      21.383216   18.717566   23.293795 C.3        1 MOL1        -0.1884
      14    H7      22.359730   18.298813   23.573806 H          1 MOL1         0.0729
      15    H8      21.558917   19.778984   23.070576 H          1 MOL1         0.0729
      16    C6      20.438106   18.574325   24.507458 C.3        1 MOL1        -0.2899
      17    H9      20.851331   19.098121   25.379099 H          1 MOL1         0.0741
      18    H10     19.446104   18.993440   24.305235 H          1 MOL1         0.0741
      19    H11     20.310608   17.518619   24.780146 H          1 MOL1         0.0741
@<TRIPOS>BOND
    1     1     2    1
    2     1     3    2
    3     1     4    1
    4     4     5    1
    5     4     6    1
    6     4     7    1
    7     7     8    1
    8     7     9    1
    9     7    10    1
   10    10    11    1
   11    10    12    1
   12    10    13    1
   13    13    14    1
   14    13    15    1
   15    13    16    1
   16    16    17    1
   17    16    18    1
   18    16    19    1
@<TRIPOS>SUBSTRUCTURE
       1 MOL1            1 RESIDUE      1      MOL     
@<SCITEGIC>MOL_PROPERTY
VConf Rank
SciTegic.value.IntegerValue
282

@<SCITEGIC>MOL_PROPERTY
Conf_Id
SciTegic.value.IntegerValue
53

@<SCITEGIC>MOL_PROPERTY
Delta U+W
SciTegic.value.DoubleValue
2.279

@<SCITEGIC>MOL_PROPERTY
U+W
SciTegic.value.DoubleValue
-52.612

@<SCITEGIC>MOL_PROPERTY
Grad RMS
SciTegic.value.DoubleValue
0.000000

@<SCITEGIC>MOL_PROPERTY
U
SciTegic.value.DoubleValue
10.231

@<SCITEGIC>MOL_PROPERTY
W
SciTegic.value.DoubleValue
-62.843

@<SCITEGIC>MOL_PROPERTY
W(PB)
SciTegic.value.DoubleValue
-64.893

@<SCITEGIC>MOL_PROPERTY
W(SA)
SciTegic.value.DoubleValue
2.050

@<SCITEGIC>MOL_PROPERTY
Valence
SciTegic.value.DoubleValue
9.644

@<SCITEGIC>MOL_PROPERTY
Coulomb
SciTegic.value.DoubleValue
-0.164

@<SCITEGIC>MOL_PROPERTY
VdW
SciTegic.value.DoubleValue
0.751

@<SCITEGIC>MOL_PROPERTY
VdW6
SciTegic.value.DoubleValue
-6.881

@<SCITEGIC>MOL_PROPERTY
VdW12
SciTegic.value.DoubleValue
7.631

@<SCITEGIC>MOL_PROPERTY
Bond
SciTegic.value.DoubleValue
0.163

@<SCITEGIC>MOL_PROPERTY
Angle
SciTegic.value.DoubleValue
2.998

@<SCITEGIC>MOL_PROPERTY
Pdih
SciTegic.value.DoubleValue
6.482

@<SCITEGIC>MOL_PROPERTY
Idih
SciTegic.value.DoubleValue
0.001

@<SCITEGIC>MOL_PROPERTY
Tether
SciTegic.value.DoubleValue
0.000

@<TRIPOS>MOLECULE
guest-7_confgen4.mol2 : confsearch ligand conformer 283
          19          18           1
SMALL
USER_CHARGES
 
@<TRIPOS>ATOM
       1    C1      21.445071   17.441131   23.938258 C.2        1 MOL1         0.6115
       2    O1      22.510947   17.343671   23.362702 O.co2      1 MOL1        -0.6776
       3    O2      20.752472   16.486243   24.231077 O.co2      1 MOL1        -0.6776
       4    C2      20.988034   18.830990   24.377452 C.3        1 MOL1        -0.2013
       5    H1      21.748504   19.565452   24.085609 H          1 MOL1         0.0727
       6    H2      20.969733   18.817487   25.473402 H          1 MOL1         0.0727
       7    C3      19.590365   19.266626   23.854130 C.3        1 MOL1        -0.1910
       8    H3      18.874974   18.439686   23.963351 H          1 MOL1         0.0729
       9    H4      19.221732   20.072412   24.503157 H          1 MOL1         0.0729
      10    C4      19.576939   19.791683   22.397143 C.3        1 MOL1        -0.1909
      11    H5      20.288655   20.622483   22.296802 H          1 MOL1         0.0729
      12    H6      18.582177   20.211435   22.194001 H          1 MOL1         0.0729
      13    C5      19.885489   18.712770   21.335862 C.3        1 MOL1        -0.1884
      14    H7      20.923792   18.371770   21.436126 H          1 MOL1         0.0729
      15    H8      19.242168   17.836723   21.497350 H          1 MOL1         0.0729
      16    C6      19.674054   19.249477   19.905801 C.3        1 MOL1        -0.2899
      17    H9      20.325581   20.111195   19.710066 H          1 MOL1         0.0741
      18    H10     19.905560   18.474009   19.164114 H          1 MOL1         0.0741
      19    H11     18.633351   19.564115   19.753290 H          1 MOL1         0.0741
@<TRIPOS>BOND
    1     1     2    1
    2     1     3    2
    3     1     4    1
    4     4     5    1
    5     4     6    1
    6     4     7    1
    7     7     8    1
    8     7     9    1
    9     7    10    1
   10    10    11    1
   11    10    12    1
   12    10    13    1
   13    13    14    1
   14    13    15    1
   15    13    16    1
   16    16    17    1
   17    16    18    1
   18    16    19    1
@<TRIPOS>SUBSTRUCTURE
       1 MOL1            1 RESIDUE      1      MOL     
@<SCITEGIC>MOL_PROPERTY
VConf Rank
SciTegic.value.IntegerValue
283

@<SCITEGIC>MOL_PROPERTY
Conf_Id
SciTegic.value.IntegerValue
25

@<SCITEGIC>MOL_PROPERTY
Delta U+W
SciTegic.value.DoubleValue
2.065

@<SCITEGIC>MOL_PROPERTY
U+W
SciTegic.value.DoubleValue
-52.826

@<SCITEGIC>MOL_PROPERTY
Grad RMS
SciTegic.value.DoubleValue
0.000000

@<SCITEGIC>MOL_PROPERTY
U
SciTegic.value.DoubleValue
10.967

@<SCITEGIC>MOL_PROPERTY
W
SciTegic.value.DoubleValue
-63.794

@<SCITEGIC>MOL_PROPERTY
W(PB)
SciTegic.value.DoubleValue
-65.830

@<SCITEGIC>MOL_PROPERTY
W(SA)
SciTegic.value.DoubleValue
2.036

@<SCITEGIC>MOL_PROPERTY
Valence
SciTegic.value.DoubleValue
8.609

@<SCITEGIC>MOL_PROPERTY
Coulomb
SciTegic.value.DoubleValue
1.892

@<SCITEGIC>MOL_PROPERTY
VdW
SciTegic.value.DoubleValue
0.467

@<SCITEGIC>MOL_PROPERTY
VdW6
SciTegic.value.DoubleValue
-7.569

@<SCITEGIC>MOL_PROPERTY
VdW12
SciTegic.value.DoubleValue
8.036

@<SCITEGIC>MOL_PROPERTY
Bond
SciTegic.value.DoubleValue
0.170

@<SCITEGIC>MOL_PROPERTY
Angle
SciTegic.value.DoubleValue
3.195

@<SCITEGIC>MOL_PROPERTY
Pdih
SciTegic.value.DoubleValue
5.237

@<SCITEGIC>MOL_PROPERTY
Idih
SciTegic.value.DoubleValue
0.007

@<SCITEGIC>MOL_PROPERTY
Tether
SciTegic.value.DoubleValue
0.000

@<TRIPOS>MOLECULE
guest-7_confgen4.mol2 : confsearch ligand conformer 284
          19          18           1
SMALL
USER_CHARGES
 
@<TRIPOS>ATOM
       1    C1      19.178076   21.030225   22.969588 C.2        1 MOL1         0.6115
       2    O1      19.983213   21.875537   22.631284 O.co2      1 MOL1        -0.6776
       3    O2      18.760686   20.919812   24.105567 O.co2      1 MOL1        -0.6776
       4    C2      18.606940   20.102386   21.898886 C.3        1 MOL1        -0.2013
       5    H1      18.067447   20.743023   21.191670 H          1 MOL1         0.0727
       6    H2      17.859698   19.444277   22.358718 H          1 MOL1         0.0727
       7    C3      19.657308   19.261958   21.119440 C.3        1 MOL1        -0.1910
       8    H3      19.198739   18.937669   20.175529 H          1 MOL1         0.0729
       9    H4      20.510383   19.895270   20.838866 H          1 MOL1         0.0729
      10    C4      20.156087   17.996582   21.860197 C.3        1 MOL1        -0.1909
      11    H5      20.764267   17.407738   21.159919 H          1 MOL1         0.0729
      12    H6      19.299231   17.364773   22.131218 H          1 MOL1         0.0729
      13    C5      20.999734   18.295043   23.119069 C.3        1 MOL1        -0.1884
      14    H7      21.798642   19.007747   22.871697 H          1 MOL1         0.0729
      15    H8      20.374978   18.766941   23.888094 H          1 MOL1         0.0729
      16    C6      21.619978   17.009250   23.702052 C.3        1 MOL1        -0.2899
      17    H9      22.208655   17.237256   24.600115 H          1 MOL1         0.0741
      18    H10     20.839639   16.289426   23.981842 H          1 MOL1         0.0741
      19    H11     22.285845   16.528135   22.973720 H          1 MOL1         0.0741
@<TRIPOS>BOND
    1     1     2    1
    2     1     3    2
    3     1     4    1
    4     4     5    1
    5     4     6    1
    6     4     7    1
    7     7     8    1
    8     7     9    1
    9     7    10    1
   10    10    11    1
   11    10    12    1
   12    10    13    1
   13    13    14    1
   14    13    15    1
   15    13    16    1
   16    16    17    1
   17    16    18    1
   18    16    19    1
@<TRIPOS>SUBSTRUCTURE
       1 MOL1            1 RESIDUE      1      MOL     
@<SCITEGIC>MOL_PROPERTY
VConf Rank
SciTegic.value.IntegerValue
284

@<SCITEGIC>MOL_PROPERTY
Conf_Id
SciTegic.value.IntegerValue
52

@<SCITEGIC>MOL_PROPERTY
Delta U+W
SciTegic.value.DoubleValue
2.070

@<SCITEGIC>MOL_PROPERTY
U+W
SciTegic.value.DoubleValue
-52.822

@<SCITEGIC>MOL_PROPERTY
Grad RMS
SciTegic.value.DoubleValue
0.000000

@<SCITEGIC>MOL_PROPERTY
U
SciTegic.value.DoubleValue
10.967

@<SCITEGIC>MOL_PROPERTY
W
SciTegic.value.DoubleValue
-63.789

@<SCITEGIC>MOL_PROPERTY
W(PB)
SciTegic.value.DoubleValue
-65.837

@<SCITEGIC>MOL_PROPERTY
W(SA)
SciTegic.value.DoubleValue
2.048

@<SCITEGIC>MOL_PROPERTY
Valence
SciTegic.value.DoubleValue
8.609

@<SCITEGIC>MOL_PROPERTY
Coulomb
SciTegic.value.DoubleValue
1.892

@<SCITEGIC>MOL_PROPERTY
VdW
SciTegic.value.DoubleValue
0.467

@<SCITEGIC>MOL_PROPERTY
VdW6
SciTegic.value.DoubleValue
-7.569

@<SCITEGIC>MOL_PROPERTY
VdW12
SciTegic.value.DoubleValue
8.035

@<SCITEGIC>MOL_PROPERTY
Bond
SciTegic.value.DoubleValue
0.170

@<SCITEGIC>MOL_PROPERTY
Angle
SciTegic.value.DoubleValue
3.196

@<SCITEGIC>MOL_PROPERTY
Pdih
SciTegic.value.DoubleValue
5.237

@<SCITEGIC>MOL_PROPERTY
Idih
SciTegic.value.DoubleValue
0.007

@<SCITEGIC>MOL_PROPERTY
Tether
SciTegic.value.DoubleValue
0.000

@<TRIPOS>MOLECULE
guest-7_confgen4.mol2 : confsearch ligand conformer 285
          19          18           1
SMALL
USER_CHARGES
 
@<TRIPOS>ATOM
       1    C1      20.105122   19.961371   24.443063 C.2        1 MOL1         0.6115
       2    O1      19.766816   21.113096   24.250207 O.co2      1 MOL1        -0.6776
       3    O2      19.679541   19.287983   25.360739 O.co2      1 MOL1        -0.6776
       4    C2      21.211464   19.365252   23.571266 C.3        1 MOL1        -0.2013
       5    H1      21.284961   18.289837   23.772806 H          1 MOL1         0.0727
       6    H2      22.148013   19.813309   23.922544 H          1 MOL1         0.0727
       7    C3      21.076967   19.617291   22.042293 C.3        1 MOL1        -0.1910
       8    H3      20.740351   20.647146   21.859620 H          1 MOL1         0.0729
       9    H4      22.080039   19.549742   21.599980 H          1 MOL1         0.0729
      10    C4      20.164725   18.620983   21.281792 C.3        1 MOL1        -0.1909
      11    H5      20.559012   17.600336   21.381061 H          1 MOL1         0.0729
      12    H6      20.233807   18.861770   20.212112 H          1 MOL1         0.0729
      13    C5      18.671070   18.662146   21.685887 C.3        1 MOL1        -0.1884
      14    H7      18.423224   19.630153   22.142933 H          1 MOL1         0.0729
      15    H8      18.056050   18.588116   20.778464 H          1 MOL1         0.0729
      16    C6      18.275381   17.506132   22.629382 C.3        1 MOL1        -0.2899
      17    H9      18.426472   16.534161   22.142166 H          1 MOL1         0.0741
      18    H10     18.868740   17.518662   23.551065 H          1 MOL1         0.0741
      19    H11     17.216973   17.582738   22.909602 H          1 MOL1         0.0741
@<TRIPOS>BOND
    1     1     2    1
    2     1     3    2
    3     1     4    1
    4     4     5    1
    5     4     6    1
    6     4     7    1
    7     7     8    1
    8     7     9    1
    9     7    10    1
   10    10    11    1
   11    10    12    1
   12    10    13    1
   13    13    14    1
   14    13    15    1
   15    13    16    1
   16    16    17    1
   17    16    18    1
   18    16    19    1
@<TRIPOS>SUBSTRUCTURE
       1 MOL1            1 RESIDUE      1      MOL     
@<SCITEGIC>MOL_PROPERTY
VConf Rank
SciTegic.value.IntegerValue
285

@<SCITEGIC>MOL_PROPERTY
Conf_Id
SciTegic.value.IntegerValue
66

@<SCITEGIC>MOL_PROPERTY
Delta U+W
SciTegic.value.DoubleValue
5.819

@<SCITEGIC>MOL_PROPERTY
U+W
SciTegic.value.DoubleValue
-49.072

@<SCITEGIC>MOL_PROPERTY
Grad RMS
SciTegic.value.DoubleValue
0.000000

@<SCITEGIC>MOL_PROPERTY
U
SciTegic.value.DoubleValue
15.324

@<SCITEGIC>MOL_PROPERTY
W
SciTegic.value.DoubleValue
-64.396

@<SCITEGIC>MOL_PROPERTY
W(PB)
SciTegic.value.DoubleValue
-66.382

@<SCITEGIC>MOL_PROPERTY
W(SA)
SciTegic.value.DoubleValue
1.986

@<SCITEGIC>MOL_PROPERTY
Valence
SciTegic.value.DoubleValue
11.748

@<SCITEGIC>MOL_PROPERTY
Coulomb
SciTegic.value.DoubleValue
3.201

@<SCITEGIC>MOL_PROPERTY
VdW
SciTegic.value.DoubleValue
0.375

@<SCITEGIC>MOL_PROPERTY
VdW6
SciTegic.value.DoubleValue
-8.854

@<SCITEGIC>MOL_PROPERTY
VdW12
SciTegic.value.DoubleValue
9.229

@<SCITEGIC>MOL_PROPERTY
Bond
SciTegic.value.DoubleValue
0.216

@<SCITEGIC>MOL_PROPERTY
Angle
SciTegic.value.DoubleValue
3.812

@<SCITEGIC>MOL_PROPERTY
Pdih
SciTegic.value.DoubleValue
7.699

@<SCITEGIC>MOL_PROPERTY
Idih
SciTegic.value.DoubleValue
0.022

@<SCITEGIC>MOL_PROPERTY
Tether
SciTegic.value.DoubleValue
0.000

@<TRIPOS>MOLECULE
guest-7_confgen4.mol2 : confsearch ligand conformer 286
          19          18           1
SMALL
USER_CHARGES
 
@<TRIPOS>ATOM
       1    C1      16.653678   18.677115   21.368397 C.2        1 MOL1         0.6115
       2    O1      15.778258   17.856186   21.180312 O.co2      1 MOL1        -0.6776
       3    O2      16.463571   19.876244   21.304418 O.co2      1 MOL1        -0.6776
       4    C2      18.049534   18.146034   21.698874 C.3        1 MOL1        -0.2013
       5    H1      18.353228   17.489404   20.875067 H          1 MOL1         0.0727
       6    H2      17.957364   17.517745   22.592634 H          1 MOL1         0.0727
       7    C3      19.134136   19.231488   21.930949 C.3        1 MOL1        -0.1910
       8    H3      19.217419   19.861029   21.034171 H          1 MOL1         0.0729
       9    H4      18.821111   19.889431   22.753503 H          1 MOL1         0.0729
      10    C4      20.508761   18.608871   22.258083 C.3        1 MOL1        -0.1909
      11    H5      20.819676   17.951384   21.434559 H          1 MOL1         0.0729
      12    H6      20.423182   17.979843   23.154826 H          1 MOL1         0.0729
      13    C5      21.585512   19.689596   22.488377 C.3        1 MOL1        -0.1884
      14    H7      21.675482   20.319859   21.592739 H          1 MOL1         0.0729
      15    H8      21.279098   20.348238   23.312873 H          1 MOL1         0.0729
      16    C6      22.956549   19.064448   22.814624 C.3        1 MOL1        -0.2899
      17    H9      23.302287   18.424720   21.992046 H          1 MOL1         0.0741
      18    H10     23.709892   19.846597   22.975329 H          1 MOL1         0.0741
      19    H11     22.902917   18.453288   23.725134 H          1 MOL1         0.0741
@<TRIPOS>BOND
    1     1     2    1
    2     1     3    2
    3     1     4    1
    4     4     5    1
    5     4     6    1
    6     4     7    1
    7     7     8    1
    8     7     9    1
    9     7    10    1
   10    10    11    1
   11    10    12    1
   12    10    13    1
   13    13    14    1
   14    13    15    1
   15    13    16    1
   16    16    17    1
   17    16    18    1
   18    16    19    1
@<TRIPOS>SUBSTRUCTURE
       1 MOL1            1 RESIDUE      1      MOL     
@<SCITEGIC>MOL_PROPERTY
VConf Rank
SciTegic.value.IntegerValue
286

@<SCITEGIC>MOL_PROPERTY
Conf_Id
SciTegic.value.IntegerValue
0

@<SCITEGIC>MOL_PROPERTY
Delta U+W
SciTegic.value.DoubleValue
0.000

@<SCITEGIC>MOL_PROPERTY
U+W
SciTegic.value.DoubleValue
-54.891

@<SCITEGIC>MOL_PROPERTY
Grad RMS
SciTegic.value.DoubleValue
0.000000

@<SCITEGIC>MOL_PROPERTY
U
SciTegic.value.DoubleValue
6.966

@<SCITEGIC>MOL_PROPERTY
W
SciTegic.value.DoubleValue
-61.857

@<SCITEGIC>MOL_PROPERTY
W(PB)
SciTegic.value.DoubleValue
-63.965

@<SCITEGIC>MOL_PROPERTY
W(SA)
SciTegic.value.DoubleValue
2.108

@<SCITEGIC>MOL_PROPERTY
Valence
SciTegic.value.DoubleValue
7.175

@<SCITEGIC>MOL_PROPERTY
Coulomb
SciTegic.value.DoubleValue
-1.360

@<SCITEGIC>MOL_PROPERTY
VdW
SciTegic.value.DoubleValue
1.151

@<SCITEGIC>MOL_PROPERTY
VdW6
SciTegic.value.DoubleValue
-5.641

@<SCITEGIC>MOL_PROPERTY
VdW12
SciTegic.value.DoubleValue
6.792

@<SCITEGIC>MOL_PROPERTY
Bond
SciTegic.value.DoubleValue
0.119

@<SCITEGIC>MOL_PROPERTY
Angle
SciTegic.value.DoubleValue
2.715

@<SCITEGIC>MOL_PROPERTY
Pdih
SciTegic.value.DoubleValue
4.340

@<SCITEGIC>MOL_PROPERTY
Idih
SciTegic.value.DoubleValue
0.000

@<SCITEGIC>MOL_PROPERTY
Tether
SciTegic.value.DoubleValue
0.000

@<TRIPOS>MOLECULE
guest-7_confgen4.mol2 : confsearch ligand conformer 287
          19          18           1
SMALL
USER_CHARGES
 
@<TRIPOS>ATOM
       1    C1      21.759509   18.366059   19.345475 C.2        1 MOL1         0.6115
       2    O1      22.959357   18.298976   19.524488 O.co2      1 MOL1        -0.6776
       3    O2      21.177022   17.770097   18.461325 O.co2      1 MOL1        -0.6776
       4    C2      20.936783   19.229437   20.295249 C.3        1 MOL1        -0.2013
       5    H1      20.088984   19.640740   19.734174 H          1 MOL1         0.0727
       6    H2      21.558040   20.076336   20.610758 H          1 MOL1         0.0727
       7    C3      20.429944   18.448484   21.532723 C.3        1 MOL1        -0.1910
       8    H3      19.820405   17.596947   21.199709 H          1 MOL1         0.0729
       9    H4      21.289587   18.032417   22.076275 H          1 MOL1         0.0729
      10    C4      19.600573   19.344495   22.477676 C.3        1 MOL1        -0.1909
      11    H5      18.742807   19.759965   21.931036 H          1 MOL1         0.0729
      12    H6      20.212225   20.195427   22.807808 H          1 MOL1         0.0729
      13    C5      19.096917   18.563879   23.709481 C.3        1 MOL1        -0.1884
      14    H7      18.483003   17.712842   23.383386 H          1 MOL1         0.0729
      15    H8      19.952263   18.148336   24.260118 H          1 MOL1         0.0729
      16    C6      18.269170   19.461543   24.650751 C.3        1 MOL1        -0.2899
      17    H9      17.919150   18.890848   25.520753 H          1 MOL1         0.0741
      18    H10     18.869085   20.304752   25.017526 H          1 MOL1         0.0741
      19    H11     17.388833   19.866021   24.134198 H          1 MOL1         0.0741
@<TRIPOS>BOND
    1     1     2    1
    2     1     3    2
    3     1     4    1
    4     4     5    1
    5     4     6    1
    6     4     7    1
    7     7     8    1
    8     7     9    1
    9     7    10    1
   10    10    11    1
   11    10    12    1
   12    10    13    1
   13    13    14    1
   14    13    15    1
   15    13    16    1
   16    16    17    1
   17    16    18    1
   18    16    19    1
@<TRIPOS>SUBSTRUCTURE
       1 MOL1            1 RESIDUE      1      MOL     
@<SCITEGIC>MOL_PROPERTY
VConf Rank
SciTegic.value.IntegerValue
287

@<SCITEGIC>MOL_PROPERTY
Conf_Id
SciTegic.value.IntegerValue
18

@<SCITEGIC>MOL_PROPERTY
Delta U+W
SciTegic.value.DoubleValue
-1.199

@<SCITEGIC>MOL_PROPERTY
U+W
SciTegic.value.DoubleValue
-56.090

@<SCITEGIC>MOL_PROPERTY
Grad RMS
SciTegic.value.DoubleValue
0.000000

@<SCITEGIC>MOL_PROPERTY
U
SciTegic.value.DoubleValue
5.975

@<SCITEGIC>MOL_PROPERTY
W
SciTegic.value.DoubleValue
-62.066

@<SCITEGIC>MOL_PROPERTY
W(PB)
SciTegic.value.DoubleValue
-64.219

@<SCITEGIC>MOL_PROPERTY
W(SA)
SciTegic.value.DoubleValue
2.153

@<SCITEGIC>MOL_PROPERTY
Valence
SciTegic.value.DoubleValue
6.673

@<SCITEGIC>MOL_PROPERTY
Coulomb
SciTegic.value.DoubleValue
-1.307

@<SCITEGIC>MOL_PROPERTY
VdW
SciTegic.value.DoubleValue
0.610

@<SCITEGIC>MOL_PROPERTY
VdW6
SciTegic.value.DoubleValue
-5.351

@<SCITEGIC>MOL_PROPERTY
VdW12
SciTegic.value.DoubleValue
5.961

@<SCITEGIC>MOL_PROPERTY
Bond
SciTegic.value.DoubleValue
0.086

@<SCITEGIC>MOL_PROPERTY
Angle
SciTegic.value.DoubleValue
2.253

@<SCITEGIC>MOL_PROPERTY
Pdih
SciTegic.value.DoubleValue
4.333

@<SCITEGIC>MOL_PROPERTY
Idih
SciTegic.value.DoubleValue
0.001

@<SCITEGIC>MOL_PROPERTY
Tether
SciTegic.value.DoubleValue
0.000

@<TRIPOS>MOLECULE
guest-7_confgen4.mol2 : confsearch ligand conformer 288
          19          18           1
SMALL
USER_CHARGES
 
@<TRIPOS>ATOM
       1    C1      22.726344   17.792510   23.424535 C.2        1 MOL1         0.6115
       2    O1      22.793954   17.209117   24.488194 O.co2      1 MOL1        -0.6776
       3    O2      23.591773   17.740927   22.573281 O.co2      1 MOL1        -0.6776
       4    C2      21.477518   18.617195   23.133525 C.3        1 MOL1        -0.2013
       5    H1      21.777803   19.469306   22.513381 H          1 MOL1         0.0727
       6    H2      21.106932   19.020398   24.083579 H          1 MOL1         0.0727
       7    C3      20.365502   17.795156   22.431489 C.3        1 MOL1        -0.1910
       8    H3      20.733350   17.433881   21.461192 H          1 MOL1         0.0729
       9    H4      20.153567   16.901673   23.034975 H          1 MOL1         0.0729
      10    C4      19.048482   18.581914   22.231485 C.3        1 MOL1        -0.1909
      11    H5      18.678906   18.934408   23.204197 H          1 MOL1         0.0729
      12    H6      18.286893   17.893208   21.840743 H          1 MOL1         0.0729
      13    C5      19.188181   19.777708   21.262944 C.3        1 MOL1        -0.1884
      14    H7      19.889742   20.516492   21.672054 H          1 MOL1         0.0729
      15    H8      19.605811   19.433454   20.306732 H          1 MOL1         0.0729
      16    C6      17.829842   20.462419   21.011237 C.3        1 MOL1        -0.2899
      17    H9      17.945862   21.310838   20.324349 H          1 MOL1         0.0741
      18    H10     17.112563   19.761098   20.565092 H          1 MOL1         0.0741
      19    H11     17.401624   20.841158   21.948569 H          1 MOL1         0.0741
@<TRIPOS>BOND
    1     1     2    1
    2     1     3    2
    3     1     4    1
    4     4     5    1
    5     4     6    1
    6     4     7    1
    7     7     8    1
    8     7     9    1
    9     7    10    1
   10    10    11    1
   11    10    12    1
   12    10    13    1
   13    13    14    1
   14    13    15    1
   15    13    16    1
   16    16    17    1
   17    16    18    1
   18    16    19    1
@<TRIPOS>SUBSTRUCTURE
       1 MOL1            1 RESIDUE      1      MOL     
@<SCITEGIC>MOL_PROPERTY
VConf Rank
SciTegic.value.IntegerValue
288

@<SCITEGIC>MOL_PROPERTY
Conf_Id
SciTegic.value.IntegerValue
34

@<SCITEGIC>MOL_PROPERTY
Delta U+W
SciTegic.value.DoubleValue
-0.563

@<SCITEGIC>MOL_PROPERTY
U+W
SciTegic.value.DoubleValue
-55.455

@<SCITEGIC>MOL_PROPERTY
Grad RMS
SciTegic.value.DoubleValue
0.000000

@<SCITEGIC>MOL_PROPERTY
U
SciTegic.value.DoubleValue
6.914

@<SCITEGIC>MOL_PROPERTY
W
SciTegic.value.DoubleValue
-62.369

@<SCITEGIC>MOL_PROPERTY
W(PB)
SciTegic.value.DoubleValue
-64.446

@<SCITEGIC>MOL_PROPERTY
W(SA)
SciTegic.value.DoubleValue
2.077

@<SCITEGIC>MOL_PROPERTY
Valence
SciTegic.value.DoubleValue
7.196

@<SCITEGIC>MOL_PROPERTY
Coulomb
SciTegic.value.DoubleValue
-1.020

@<SCITEGIC>MOL_PROPERTY
VdW
SciTegic.value.DoubleValue
0.738

@<SCITEGIC>MOL_PROPERTY
VdW6
SciTegic.value.DoubleValue
-6.010

@<SCITEGIC>MOL_PROPERTY
VdW12
SciTegic.value.DoubleValue
6.748

@<SCITEGIC>MOL_PROPERTY
Bond
SciTegic.value.DoubleValue
0.126

@<SCITEGIC>MOL_PROPERTY
Angle
SciTegic.value.DoubleValue
2.499

@<SCITEGIC>MOL_PROPERTY
Pdih
SciTegic.value.DoubleValue
4.570

@<SCITEGIC>MOL_PROPERTY
Idih
SciTegic.value.DoubleValue
0.001

@<SCITEGIC>MOL_PROPERTY
Tether
SciTegic.value.DoubleValue
0.000

@<TRIPOS>MOLECULE
guest-7_confgen4.mol2 : confsearch ligand conformer 289
          19          18           1
SMALL
USER_CHARGES
 
@<TRIPOS>ATOM
       1    C1      17.046230   20.216595   21.916288 C.2        1 MOL1         0.6115
       2    O1      16.662412   20.813808   20.930230 O.co2      1 MOL1        -0.6776
       3    O2      16.517600   20.308944   23.006373 O.co2      1 MOL1        -0.6776
       4    C2      18.271597   19.319293   21.783313 C.3        1 MOL1        -0.2013
       5    H1      18.281890   18.905621   20.767793 H          1 MOL1         0.0727
       6    H2      18.146269   18.479195   22.475681 H          1 MOL1         0.0727
       7    C3      19.598654   20.069449   22.068558 C.3        1 MOL1        -0.1910
       8    H3      19.648634   20.955776   21.420987 H          1 MOL1         0.0729
       9    H4      19.595316   20.440772   23.102684 H          1 MOL1         0.0729
      10    C4      20.860166   19.207148   21.826587 C.3        1 MOL1        -0.1909
      11    H5      21.746273   19.847364   21.935908 H          1 MOL1         0.0729
      12    H6      20.864846   18.844530   20.789527 H          1 MOL1         0.0729
      13    C5      20.982214   18.011061   22.797150 C.3        1 MOL1        -0.1884
      14    H7      20.926262   18.368352   23.834686 H          1 MOL1         0.0729
      15    H8      20.143696   17.317609   22.650950 H          1 MOL1         0.0729
      16    C6      22.305674   17.247806   22.589398 C.3        1 MOL1        -0.2899
      17    H9      22.375905   16.855283   21.566461 H          1 MOL1         0.0741
      18    H10     23.169152   17.902584   22.765636 H          1 MOL1         0.0741
      19    H11     22.376255   16.400149   23.283362 H          1 MOL1         0.0741
@<TRIPOS>BOND
    1     1     2    1
    2     1     3    2
    3     1     4    1
    4     4     5    1
    5     4     6    1
    6     4     7    1
    7     7     8    1
    8     7     9    1
    9     7    10    1
   10    10    11    1
   11    10    12    1
   12    10    13    1
   13    13    14    1
   14    13    15    1
   15    13    16    1
   16    16    17    1
   17    16    18    1
   18    16    19    1
@<TRIPOS>SUBSTRUCTURE
       1 MOL1            1 RESIDUE      1      MOL     
@<SCITEGIC>MOL_PROPERTY
VConf Rank
SciTegic.value.IntegerValue
289

@<SCITEGIC>MOL_PROPERTY
Conf_Id
SciTegic.value.IntegerValue
33

@<SCITEGIC>MOL_PROPERTY
Delta U+W
SciTegic.value.DoubleValue
-0.526

@<SCITEGIC>MOL_PROPERTY
U+W
SciTegic.value.DoubleValue
-55.418

@<SCITEGIC>MOL_PROPERTY
Grad RMS
SciTegic.value.DoubleValue
0.000000

@<SCITEGIC>MOL_PROPERTY
U
SciTegic.value.DoubleValue
6.914

@<SCITEGIC>MOL_PROPERTY
W
SciTegic.value.DoubleValue
-62.332

@<SCITEGIC>MOL_PROPERTY
W(PB)
SciTegic.value.DoubleValue
-64.421

@<SCITEGIC>MOL_PROPERTY
W(SA)
SciTegic.value.DoubleValue
2.090

@<SCITEGIC>MOL_PROPERTY
Valence
SciTegic.value.DoubleValue
7.196

@<SCITEGIC>MOL_PROPERTY
Coulomb
SciTegic.value.DoubleValue
-1.020

@<SCITEGIC>MOL_PROPERTY
VdW
SciTegic.value.DoubleValue
0.738

@<SCITEGIC>MOL_PROPERTY
VdW6
SciTegic.value.DoubleValue
-6.010

@<SCITEGIC>MOL_PROPERTY
VdW12
SciTegic.value.DoubleValue
6.748

@<SCITEGIC>MOL_PROPERTY
Bond
SciTegic.value.DoubleValue
0.126

@<SCITEGIC>MOL_PROPERTY
Angle
SciTegic.value.DoubleValue
2.499

@<SCITEGIC>MOL_PROPERTY
Pdih
SciTegic.value.DoubleValue
4.570

@<SCITEGIC>MOL_PROPERTY
Idih
SciTegic.value.DoubleValue
0.001

@<SCITEGIC>MOL_PROPERTY
Tether
SciTegic.value.DoubleValue
0.000

@<TRIPOS>MOLECULE
guest-7_confgen4.mol2 : confsearch ligand conformer 290
          19          18           1
SMALL
USER_CHARGES
 
@<TRIPOS>ATOM
       1    C1      19.253741   21.387482   24.160595 C.2        1 MOL1         0.6115
       2    O1      19.577907   22.430799   23.628970 O.co2      1 MOL1        -0.6776
       3    O2      18.288225   21.275830   24.889675 O.co2      1 MOL1        -0.6776
       4    C2      20.094529   20.146152   23.883693 C.3        1 MOL1        -0.2013
       5    H1      20.074859   19.514618   24.780051 H          1 MOL1         0.0727
       6    H2      21.133325   20.464274   23.733933 H          1 MOL1         0.0727
       7    C3      19.599269   19.345319   22.654130 C.3        1 MOL1        -0.1910
       8    H3      18.555492   19.042235   22.815093 H          1 MOL1         0.0729
       9    H4      19.610055   20.002227   21.774370 H          1 MOL1         0.0729
      10    C4      20.471370   18.095147   22.394956 C.3        1 MOL1        -0.1909
      11    H5      20.505878   17.487435   23.309553 H          1 MOL1         0.0729
      12    H6      21.505393   18.401653   22.185532 H          1 MOL1         0.0729
      13    C5      19.949691   17.211856   21.238135 C.3        1 MOL1        -0.1884
      14    H7      20.550610   16.292889   21.197651 H          1 MOL1         0.0729
      15    H8      18.917350   16.898610   21.446644 H          1 MOL1         0.0729
      16    C6      20.013249   17.907980   19.861464 C.3        1 MOL1        -0.2899
      17    H9      21.031342   18.256274   19.643903 H          1 MOL1         0.0741
      18    H10     19.716831   17.212336   19.065752 H          1 MOL1         0.0741
      19    H11     19.336875   18.770698   19.816964 H          1 MOL1         0.0741
@<TRIPOS>BOND
    1     1     2    1
    2     1     3    2
    3     1     4    1
    4     4     5    1
    5     4     6    1
    6     4     7    1
    7     7     8    1
    8     7     9    1
    9     7    10    1
   10    10    11    1
   11    10    12    1
   12    10    13    1
   13    13    14    1
   14    13    15    1
   15    13    16    1
   16    16    17    1
   17    16    18    1
   18    16    19    1
@<TRIPOS>SUBSTRUCTURE
       1 MOL1            1 RESIDUE      1      MOL     
@<SCITEGIC>MOL_PROPERTY
VConf Rank
SciTegic.value.IntegerValue
290

@<SCITEGIC>MOL_PROPERTY
Conf_Id
SciTegic.value.IntegerValue
42

@<SCITEGIC>MOL_PROPERTY
Delta U+W
SciTegic.value.DoubleValue
-0.344

@<SCITEGIC>MOL_PROPERTY
U+W
SciTegic.value.DoubleValue
-55.236

@<SCITEGIC>MOL_PROPERTY
Grad RMS
SciTegic.value.DoubleValue
0.000000

@<SCITEGIC>MOL_PROPERTY
U
SciTegic.value.DoubleValue
7.244

@<SCITEGIC>MOL_PROPERTY
W
SciTegic.value.DoubleValue
-62.479

@<SCITEGIC>MOL_PROPERTY
W(PB)
SciTegic.value.DoubleValue
-64.610

@<SCITEGIC>MOL_PROPERTY
W(SA)
SciTegic.value.DoubleValue
2.130

@<SCITEGIC>MOL_PROPERTY
Valence
SciTegic.value.DoubleValue
7.174

@<SCITEGIC>MOL_PROPERTY
Coulomb
SciTegic.value.DoubleValue
-0.669

@<SCITEGIC>MOL_PROPERTY
VdW
SciTegic.value.DoubleValue
0.739

@<SCITEGIC>MOL_PROPERTY
VdW6
SciTegic.value.DoubleValue
-5.969

@<SCITEGIC>MOL_PROPERTY
VdW12
SciTegic.value.DoubleValue
6.708

@<SCITEGIC>MOL_PROPERTY
Bond
SciTegic.value.DoubleValue
0.116

@<SCITEGIC>MOL_PROPERTY
Angle
SciTegic.value.DoubleValue
2.481

@<SCITEGIC>MOL_PROPERTY
Pdih
SciTegic.value.DoubleValue
4.576

@<SCITEGIC>MOL_PROPERTY
Idih
SciTegic.value.DoubleValue
0.000

@<SCITEGIC>MOL_PROPERTY
Tether
SciTegic.value.DoubleValue
0.000

@<TRIPOS>MOLECULE
guest-7_confgen4.mol2 : confsearch ligand conformer 291
          19          18           1
SMALL
USER_CHARGES
 
@<TRIPOS>ATOM
       1    C1      21.753379   17.770475   24.646117 C.2        1 MOL1         0.6115
       2    O1      21.348829   18.231257   25.695040 O.co2      1 MOL1        -0.6776
       3    O2      22.921099   17.513159   24.430559 O.co2      1 MOL1        -0.6776
       4    C2      20.742873   17.518260   23.532670 C.3        1 MOL1        -0.2013
       5    H1      19.785746   17.248854   23.995331 H          1 MOL1         0.0727
       6    H2      21.080829   16.648348   22.956720 H          1 MOL1         0.0727
       7    C3      20.558805   18.739649   22.598447 C.3        1 MOL1        -0.1910
       8    H3      20.238973   19.601397   23.199046 H          1 MOL1         0.0729
       9    H4      21.526936   19.002781   22.150425 H          1 MOL1         0.0729
      10    C4      19.526981   18.457267   21.482088 C.3        1 MOL1        -0.1909
      11    H5      18.546776   18.242298   21.929291 H          1 MOL1         0.0729
      12    H6      19.827019   17.550668   20.938906 H          1 MOL1         0.0729
      13    C5      19.389118   19.614920   20.466498 C.3        1 MOL1        -0.1884
      14    H7      20.366667   19.829192   20.012832 H          1 MOL1         0.0729
      15    H8      18.731915   19.289656   19.648249 H          1 MOL1         0.0729
      16    C6      18.809911   20.905188   21.085834 C.3        1 MOL1        -0.2899
      17    H9      19.491117   21.332260   21.832369 H          1 MOL1         0.0741
      18    H10     18.649479   21.664756   20.309780 H          1 MOL1         0.0741
      19    H11     17.845066   20.709169   21.571435 H          1 MOL1         0.0741
@<TRIPOS>BOND
    1     1     2    1
    2     1     3    2
    3     1     4    1
    4     4     5    1
    5     4     6    1
    6     4     7    1
    7     7     8    1
    8     7     9    1
    9     7    10    1
   10    10    11    1
   11    10    12    1
   12    10    13    1
   13    13    14    1
   14    13    15    1
   15    13    16    1
   16    16    17    1
   17    16    18    1
   18    16    19    1
@<TRIPOS>SUBSTRUCTURE
       1 MOL1            1 RESIDUE      1      MOL     
@<SCITEGIC>MOL_PROPERTY
VConf Rank
SciTegic.value.IntegerValue
291

@<SCITEGIC>MOL_PROPERTY
Conf_Id
SciTegic.value.IntegerValue
41

@<SCITEGIC>MOL_PROPERTY
Delta U+W
SciTegic.value.DoubleValue
-0.361

@<SCITEGIC>MOL_PROPERTY
U+W
SciTegic.value.DoubleValue
-55.252

@<SCITEGIC>MOL_PROPERTY
Grad RMS
SciTegic.value.DoubleValue
0.000000

@<SCITEGIC>MOL_PROPERTY
U
SciTegic.value.DoubleValue
7.244

@<SCITEGIC>MOL_PROPERTY
W
SciTegic.value.DoubleValue
-62.496

@<SCITEGIC>MOL_PROPERTY
W(PB)
SciTegic.value.DoubleValue
-64.596

@<SCITEGIC>MOL_PROPERTY
W(SA)
SciTegic.value.DoubleValue
2.099

@<SCITEGIC>MOL_PROPERTY
Valence
SciTegic.value.DoubleValue
7.174

@<SCITEGIC>MOL_PROPERTY
Coulomb
SciTegic.value.DoubleValue
-0.669

@<SCITEGIC>MOL_PROPERTY
VdW
SciTegic.value.DoubleValue
0.739

@<SCITEGIC>MOL_PROPERTY
VdW6
SciTegic.value.DoubleValue
-5.969

@<SCITEGIC>MOL_PROPERTY
VdW12
SciTegic.value.DoubleValue
6.708

@<SCITEGIC>MOL_PROPERTY
Bond
SciTegic.value.DoubleValue
0.116

@<SCITEGIC>MOL_PROPERTY
Angle
SciTegic.value.DoubleValue
2.481

@<SCITEGIC>MOL_PROPERTY
Pdih
SciTegic.value.DoubleValue
4.576

@<SCITEGIC>MOL_PROPERTY
Idih
SciTegic.value.DoubleValue
0.000

@<SCITEGIC>MOL_PROPERTY
Tether
SciTegic.value.DoubleValue
0.000

@<TRIPOS>MOLECULE
guest-7_confgen4.mol2 : confsearch ligand conformer 292
          19          18           1
SMALL
USER_CHARGES
 
@<TRIPOS>ATOM
       1    C1      17.463313   18.094657   23.694073 C.2        1 MOL1         0.6115
       2    O1      16.739510   17.893992   22.738879 O.co2      1 MOL1        -0.6776
       3    O2      17.655168   17.279450   24.574590 O.co2      1 MOL1        -0.6776
       4    C2      18.152538   19.451651   23.807564 C.3        1 MOL1        -0.2013
       5    H1      18.017483   19.802925   24.837360 H          1 MOL1         0.0727
       6    H2      17.630922   20.165046   23.157973 H          1 MOL1         0.0727
       7    C3      19.664744   19.422464   23.464825 C.3        1 MOL1        -0.1910
       8    H3      20.103622   20.400112   23.705919 H          1 MOL1         0.0729
       9    H4      20.168404   18.683415   24.103389 H          1 MOL1         0.0729
      10    C4      19.930933   19.097449   21.977943 C.3        1 MOL1        -0.1909
      11    H5      19.414797   19.831141   21.343648 H          1 MOL1         0.0729
      12    H6      19.509516   18.112658   21.732957 H          1 MOL1         0.0729
      13    C5      21.439183   19.104803   21.652782 C.3        1 MOL1        -0.1884
      14    H7      21.865411   20.088960   21.891936 H          1 MOL1         0.0729
      15    H8      21.957608   18.369972   22.284236 H          1 MOL1         0.0729
      16    C6      21.701474   18.780283   20.168577 C.3        1 MOL1        -0.2899
      17    H9      21.219749   19.518540   19.514113 H          1 MOL1         0.0741
      18    H10     22.778221   18.789286   19.954986 H          1 MOL1         0.0741
      19    H11     21.312624   17.786805   19.909267 H          1 MOL1         0.0741
@<TRIPOS>BOND
    1     1     2    1
    2     1     3    2
    3     1     4    1
    4     4     5    1
    5     4     6    1
    6     4     7    1
    7     7     8    1
    8     7     9    1
    9     7    10    1
   10    10    11    1
   11    10    12    1
   12    10    13    1
   13    13    14    1
   14    13    15    1
   15    13    16    1
   16    16    17    1
   17    16    18    1
   18    16    19    1
@<TRIPOS>SUBSTRUCTURE
       1 MOL1            1 RESIDUE      1      MOL     
@<SCITEGIC>MOL_PROPERTY
VConf Rank
SciTegic.value.IntegerValue
292

@<SCITEGIC>MOL_PROPERTY
Conf_Id
SciTegic.value.IntegerValue
36

@<SCITEGIC>MOL_PROPERTY
Delta U+W
SciTegic.value.DoubleValue
-0.079

@<SCITEGIC>MOL_PROPERTY
U+W
SciTegic.value.DoubleValue
-54.971

@<SCITEGIC>MOL_PROPERTY
Grad RMS
SciTegic.value.DoubleValue
0.000000

@<SCITEGIC>MOL_PROPERTY
U
SciTegic.value.DoubleValue
8.266

@<SCITEGIC>MOL_PROPERTY
W
SciTegic.value.DoubleValue
-63.237

@<SCITEGIC>MOL_PROPERTY
W(PB)
SciTegic.value.DoubleValue
-65.340

@<SCITEGIC>MOL_PROPERTY
W(SA)
SciTegic.value.DoubleValue
2.103

@<SCITEGIC>MOL_PROPERTY
Valence
SciTegic.value.DoubleValue
6.935

@<SCITEGIC>MOL_PROPERTY
Coulomb
SciTegic.value.DoubleValue
0.874

@<SCITEGIC>MOL_PROPERTY
VdW
SciTegic.value.DoubleValue
0.457

@<SCITEGIC>MOL_PROPERTY
VdW6
SciTegic.value.DoubleValue
-6.205

@<SCITEGIC>MOL_PROPERTY
VdW12
SciTegic.value.DoubleValue
6.662

@<SCITEGIC>MOL_PROPERTY
Bond
SciTegic.value.DoubleValue
0.107

@<SCITEGIC>MOL_PROPERTY
Angle
SciTegic.value.DoubleValue
2.420

@<SCITEGIC>MOL_PROPERTY
Pdih
SciTegic.value.DoubleValue
4.407

@<SCITEGIC>MOL_PROPERTY
Idih
SciTegic.value.DoubleValue
0.001

@<SCITEGIC>MOL_PROPERTY
Tether
SciTegic.value.DoubleValue
0.000

@<TRIPOS>MOLECULE
guest-7_confgen4.mol2 : confsearch ligand conformer 293
          19          18           1
SMALL
USER_CHARGES
 
@<TRIPOS>ATOM
       1    C1      21.968745   17.083629   21.174347 C.2        1 MOL1         0.6115
       2    O1      21.218070   16.146623   20.987105 O.co2      1 MOL1        -0.6776
       3    O2      23.034685   16.985936   21.749594 O.co2      1 MOL1        -0.6776
       4    C2      21.562710   18.454398   20.640049 C.3        1 MOL1        -0.2013
       5    H1      20.784397   18.317564   19.879461 H          1 MOL1         0.0727
       6    H2      22.434898   18.878504   20.128649 H          1 MOL1         0.0727
       7    C3      21.074643   19.439328   21.734031 C.3        1 MOL1        -0.1910
       8    H3      21.852858   19.544013   22.502830 H          1 MOL1         0.0729
       9    H4      20.938639   20.432261   21.284449 H          1 MOL1         0.0729
      10    C4      19.748972   18.990829   22.388825 C.3        1 MOL1        -0.1909
      11    H5      19.881584   18.005104   22.855926 H          1 MOL1         0.0729
      12    H6      18.977932   18.875005   21.614802 H          1 MOL1         0.0729
      13    C5      19.266217   20.000516   23.450937 C.3        1 MOL1        -0.1884
      14    H7      20.034700   20.116494   24.227762 H          1 MOL1         0.0729
      15    H8      19.127717   20.987620   22.988472 H          1 MOL1         0.0729
      16    C6      17.943397   19.550201   24.102355 C.3        1 MOL1        -0.2899
      17    H9      18.061601   18.578668   24.599942 H          1 MOL1         0.0741
      18    H10     17.614999   20.278836   24.854906 H          1 MOL1         0.0741
      19    H11     17.147920   19.456287   23.351487 H          1 MOL1         0.0741
@<TRIPOS>BOND
    1     1     2    1
    2     1     3    2
    3     1     4    1
    4     4     5    1
    5     4     6    1
    6     4     7    1
    7     7     8    1
    8     7     9    1
    9     7    10    1
   10    10    11    1
   11    10    12    1
   12    10    13    1
   13    13    14    1
   14    13    15    1
   15    13    16    1
   16    16    17    1
   17    16    18    1
   18    16    19    1
@<TRIPOS>SUBSTRUCTURE
       1 MOL1            1 RESIDUE      1      MOL     
@<SCITEGIC>MOL_PROPERTY
VConf Rank
SciTegic.value.IntegerValue
293

@<SCITEGIC>MOL_PROPERTY
Conf_Id
SciTegic.value.IntegerValue
35

@<SCITEGIC>MOL_PROPERTY
Delta U+W
SciTegic.value.DoubleValue
-0.030

@<SCITEGIC>MOL_PROPERTY
U+W
SciTegic.value.DoubleValue
-54.921

@<SCITEGIC>MOL_PROPERTY
Grad RMS
SciTegic.value.DoubleValue
0.000000

@<SCITEGIC>MOL_PROPERTY
U
SciTegic.value.DoubleValue
8.267

@<SCITEGIC>MOL_PROPERTY
W
SciTegic.value.DoubleValue
-63.188

@<SCITEGIC>MOL_PROPERTY
W(PB)
SciTegic.value.DoubleValue
-65.294

@<SCITEGIC>MOL_PROPERTY
W(SA)
SciTegic.value.DoubleValue
2.106

@<SCITEGIC>MOL_PROPERTY
Valence
SciTegic.value.DoubleValue
6.935

@<SCITEGIC>MOL_PROPERTY
Coulomb
SciTegic.value.DoubleValue
0.875

@<SCITEGIC>MOL_PROPERTY
VdW
SciTegic.value.DoubleValue
0.457

@<SCITEGIC>MOL_PROPERTY
VdW6
SciTegic.value.DoubleValue
-6.205

@<SCITEGIC>MOL_PROPERTY
VdW12
SciTegic.value.DoubleValue
6.662

@<SCITEGIC>MOL_PROPERTY
Bond
SciTegic.value.DoubleValue
0.107

@<SCITEGIC>MOL_PROPERTY
Angle
SciTegic.value.DoubleValue
2.420

@<SCITEGIC>MOL_PROPERTY
Pdih
SciTegic.value.DoubleValue
4.407

@<SCITEGIC>MOL_PROPERTY
Idih
SciTegic.value.DoubleValue
0.001

@<SCITEGIC>MOL_PROPERTY
Tether
SciTegic.value.DoubleValue
0.000

@<TRIPOS>MOLECULE
guest-7_confgen4.mol2 : confsearch ligand conformer 294
          19          18           1
SMALL
USER_CHARGES
 
@<TRIPOS>ATOM
       1    C1      22.606620   19.797088   23.476004 C.2        1 MOL1         0.6115
       2    O1      22.481168   20.250396   24.596487 O.co2      1 MOL1        -0.6776
       3    O2      23.230755   20.351718   22.593119 O.co2      1 MOL1        -0.6776
       4    C2      21.962892   18.447583   23.169523 C.3        1 MOL1        -0.2013
       5    H1      22.203256   17.774173   24.000690 H          1 MOL1         0.0727
       6    H2      22.437118   18.027987   22.273974 H          1 MOL1         0.0727
       7    C3      20.424474   18.508069   22.981554 C.3        1 MOL1        -0.1910
       8    H3      20.040552   17.481773   22.920974 H          1 MOL1         0.0729
       9    H4      19.967147   18.966396   23.869314 H          1 MOL1         0.0729
      10    C4      20.011469   19.293585   21.713849 C.3        1 MOL1        -0.1909
      11    H5      20.438238   18.811306   20.823853 H          1 MOL1         0.0729
      12    H6      20.444713   20.302275   21.757072 H          1 MOL1         0.0729
      13    C5      18.480230   19.427721   21.546086 C.3        1 MOL1        -0.1884
      14    H7      18.050713   19.911803   22.434055 H          1 MOL1         0.0729
      15    H8      18.276306   20.096916   20.698847 H          1 MOL1         0.0729
      16    C6      17.771392   18.079190   21.295023 C.3        1 MOL1        -0.2899
      17    H9      17.847872   17.417444   22.166726 H          1 MOL1         0.0741
      18    H10     16.704447   18.238724   21.092257 H          1 MOL1         0.0741
      19    H11     18.206063   17.561906   20.429792 H          1 MOL1         0.0741
@<TRIPOS>BOND
    1     1     2    1
    2     1     3    2
    3     1     4    1
    4     4     5    1
    5     4     6    1
    6     4     7    1
    7     7     8    1
    8     7     9    1
    9     7    10    1
   10    10    11    1
   11    10    12    1
   12    10    13    1
   13    13    14    1
   14    13    15    1
   15    13    16    1
   16    16    17    1
   17    16    18    1
   18    16    19    1
@<TRIPOS>SUBSTRUCTURE
       1 MOL1            1 RESIDUE      1      MOL     
@<SCITEGIC>MOL_PROPERTY
VConf Rank
SciTegic.value.IntegerValue
294

@<SCITEGIC>MOL_PROPERTY
Conf_Id
SciTegic.value.IntegerValue
74

@<SCITEGIC>MOL_PROPERTY
Delta U+W
SciTegic.value.DoubleValue
0.797

@<SCITEGIC>MOL_PROPERTY
U+W
SciTegic.value.DoubleValue
-54.095

@<SCITEGIC>MOL_PROPERTY
Grad RMS
SciTegic.value.DoubleValue
0.000000

@<SCITEGIC>MOL_PROPERTY
U
SciTegic.value.DoubleValue
8.869

@<SCITEGIC>MOL_PROPERTY
W
SciTegic.value.DoubleValue
-62.964

@<SCITEGIC>MOL_PROPERTY
W(PB)
SciTegic.value.DoubleValue
-65.046

@<SCITEGIC>MOL_PROPERTY
W(SA)
SciTegic.value.DoubleValue
2.082

@<SCITEGIC>MOL_PROPERTY
Valence
SciTegic.value.DoubleValue
7.469

@<SCITEGIC>MOL_PROPERTY
Coulomb
SciTegic.value.DoubleValue
0.762

@<SCITEGIC>MOL_PROPERTY
VdW
SciTegic.value.DoubleValue
0.639

@<SCITEGIC>MOL_PROPERTY
VdW6
SciTegic.value.DoubleValue
-6.782

@<SCITEGIC>MOL_PROPERTY
VdW12
SciTegic.value.DoubleValue
7.421

@<SCITEGIC>MOL_PROPERTY
Bond
SciTegic.value.DoubleValue
0.141

@<SCITEGIC>MOL_PROPERTY
Angle
SciTegic.value.DoubleValue
2.667

@<SCITEGIC>MOL_PROPERTY
Pdih
SciTegic.value.DoubleValue
4.660

@<SCITEGIC>MOL_PROPERTY
Idih
SciTegic.value.DoubleValue
0.001

@<SCITEGIC>MOL_PROPERTY
Tether
SciTegic.value.DoubleValue
0.000

@<TRIPOS>MOLECULE
guest-7_confgen4.mol2 : confsearch ligand conformer 295
          19          18           1
SMALL
USER_CHARGES
 
@<TRIPOS>ATOM
       1    C1      19.565299   21.649726   23.306643 C.2        1 MOL1         0.6115
       2    O1      19.182586   22.639382   22.714583 O.co2      1 MOL1        -0.6776
       3    O2      19.476028   21.510181   24.510337 O.co2      1 MOL1        -0.6776
       4    C2      20.173426   20.513593   22.492027 C.3        1 MOL1        -0.2013
       5    H1      20.934844   20.028052   23.113035 H          1 MOL1         0.0727
       6    H2      20.687458   20.950718   21.627707 H          1 MOL1         0.0727
       7    C3      19.117477   19.480645   22.020243 C.3        1 MOL1        -0.1910
       8    H3      18.636327   19.021971   22.894252 H          1 MOL1         0.0729
       9    H4      18.321956   20.011768   21.479638 H          1 MOL1         0.0729
      10    C4      19.696213   18.383250   21.092063 C.3        1 MOL1        -0.1909
      11    H5      20.080062   18.856519   20.178022 H          1 MOL1         0.0729
      12    H6      18.877354   17.724834   20.771533 H          1 MOL1         0.0729
      13    C5      20.819595   17.517853   21.714157 C.3        1 MOL1        -0.1884
      14    H7      21.157616   16.791119   20.962706 H          1 MOL1         0.0729
      15    H8      21.693120   18.140818   21.947561 H          1 MOL1         0.0729
      16    C6      20.372932   16.752852   22.978539 C.3        1 MOL1        -0.2899
      17    H9      19.485539   16.139905   22.773943 H          1 MOL1         0.0741
      18    H10     21.172325   16.086025   23.326572 H          1 MOL1         0.0741
      19    H11     20.134629   17.442356   23.798334 H          1 MOL1         0.0741
@<TRIPOS>BOND
    1     1     2    1
    2     1     3    2
    3     1     4    1
    4     4     5    1
    5     4     6    1
    6     4     7    1
    7     7     8    1
    8     7     9    1
    9     7    10    1
   10    10    11    1
   11    10    12    1
   12    10    13    1
   13    13    14    1
   14    13    15    1
   15    13    16    1
   16    16    17    1
   17    16    18    1
   18    16    19    1
@<TRIPOS>SUBSTRUCTURE
       1 MOL1            1 RESIDUE      1      MOL     
@<SCITEGIC>MOL_PROPERTY
VConf Rank
SciTegic.value.IntegerValue
295

@<SCITEGIC>MOL_PROPERTY
Conf_Id
SciTegic.value.IntegerValue
67

@<SCITEGIC>MOL_PROPERTY
Delta U+W
SciTegic.value.DoubleValue
0.308

@<SCITEGIC>MOL_PROPERTY
U+W
SciTegic.value.DoubleValue
-54.583

@<SCITEGIC>MOL_PROPERTY
Grad RMS
SciTegic.value.DoubleValue
0.000000

@<SCITEGIC>MOL_PROPERTY
U
SciTegic.value.DoubleValue
8.219

@<SCITEGIC>MOL_PROPERTY
W
SciTegic.value.DoubleValue
-62.802

@<SCITEGIC>MOL_PROPERTY
W(PB)
SciTegic.value.DoubleValue
-64.859

@<SCITEGIC>MOL_PROPERTY
W(SA)
SciTegic.value.DoubleValue
2.057

@<SCITEGIC>MOL_PROPERTY
Valence
SciTegic.value.DoubleValue
7.609

@<SCITEGIC>MOL_PROPERTY
Coulomb
SciTegic.value.DoubleValue
-0.089

@<SCITEGIC>MOL_PROPERTY
VdW
SciTegic.value.DoubleValue
0.699

@<SCITEGIC>MOL_PROPERTY
VdW6
SciTegic.value.DoubleValue
-6.924

@<SCITEGIC>MOL_PROPERTY
VdW12
SciTegic.value.DoubleValue
7.623

@<SCITEGIC>MOL_PROPERTY
Bond
SciTegic.value.DoubleValue
0.163

@<SCITEGIC>MOL_PROPERTY
Angle
SciTegic.value.DoubleValue
2.870

@<SCITEGIC>MOL_PROPERTY
Pdih
SciTegic.value.DoubleValue
4.576

@<SCITEGIC>MOL_PROPERTY
Idih
SciTegic.value.DoubleValue
0.001

@<SCITEGIC>MOL_PROPERTY
Tether
SciTegic.value.DoubleValue
0.000

@<TRIPOS>MOLECULE
guest-7_confgen4.mol2 : confsearch ligand conformer 296
          19          18           1
SMALL
USER_CHARGES
 
@<TRIPOS>ATOM
       1    C1      20.311936   18.073777   25.084075 C.2        1 MOL1         0.6115
       2    O1      20.551908   18.741301   26.070608 O.co2      1 MOL1        -0.6776
       3    O2      20.549278   16.884902   25.003038 O.co2      1 MOL1        -0.6776
       4    C2      19.697452   18.770571   23.875313 C.3        1 MOL1        -0.2013
       5    H1      19.057395   19.583261   24.238929 H          1 MOL1         0.0727
       6    H2      19.049343   18.047524   23.367064 H          1 MOL1         0.0727
       7    C3      20.763675   19.326621   22.896249 C.3        1 MOL1        -0.1910
       8    H3      21.451524   19.975510   23.455719 H          1 MOL1         0.0729
       9    H4      21.373827   18.499684   22.509380 H          1 MOL1         0.0729
      10    C4      20.162477   20.140912   21.723128 C.3        1 MOL1        -0.1909
      11    H5      20.984265   20.532183   21.108025 H          1 MOL1         0.0729
      12    H6      19.643050   21.019532   22.129350 H          1 MOL1         0.0729
      13    C5      19.183228   19.360746   20.811913 C.3        1 MOL1        -0.1884
      14    H7      18.299771   19.048331   21.384199 H          1 MOL1         0.0729
      15    H8      18.814259   20.041039   20.032077 H          1 MOL1         0.0729
      16    C6      19.826106   18.131465   20.134437 C.3        1 MOL1        -0.2899
      17    H9      20.106769   17.370277   20.873417 H          1 MOL1         0.0741
      18    H10     19.122082   17.668453   19.431027 H          1 MOL1         0.0741
      19    H11     20.725919   18.417260   19.574359 H          1 MOL1         0.0741
@<TRIPOS>BOND
    1     1     2    1
    2     1     3    2
    3     1     4    1
    4     4     5    1
    5     4     6    1
    6     4     7    1
    7     7     8    1
    8     7     9    1
    9     7    10    1
   10    10    11    1
   11    10    12    1
   12    10    13    1
   13    13    14    1
   14    13    15    1
   15    13    16    1
   16    16    17    1
   17    16    18    1
   18    16    19    1
@<TRIPOS>SUBSTRUCTURE
       1 MOL1            1 RESIDUE      1      MOL     
@<SCITEGIC>MOL_PROPERTY
VConf Rank
SciTegic.value.IntegerValue
296

@<SCITEGIC>MOL_PROPERTY
Conf_Id
SciTegic.value.IntegerValue
21

@<SCITEGIC>MOL_PROPERTY
Delta U+W
SciTegic.value.DoubleValue
0.319

@<SCITEGIC>MOL_PROPERTY
U+W
SciTegic.value.DoubleValue
-54.572

@<SCITEGIC>MOL_PROPERTY
Grad RMS
SciTegic.value.DoubleValue
0.000000

@<SCITEGIC>MOL_PROPERTY
U
SciTegic.value.DoubleValue
8.220

@<SCITEGIC>MOL_PROPERTY
W
SciTegic.value.DoubleValue
-62.792

@<SCITEGIC>MOL_PROPERTY
W(PB)
SciTegic.value.DoubleValue
-64.830

@<SCITEGIC>MOL_PROPERTY
W(SA)
SciTegic.value.DoubleValue
2.038

@<SCITEGIC>MOL_PROPERTY
Valence
SciTegic.value.DoubleValue
7.609

@<SCITEGIC>MOL_PROPERTY
Coulomb
SciTegic.value.DoubleValue
-0.088

@<SCITEGIC>MOL_PROPERTY
VdW
SciTegic.value.DoubleValue
0.699

@<SCITEGIC>MOL_PROPERTY
VdW6
SciTegic.value.DoubleValue
-6.924

@<SCITEGIC>MOL_PROPERTY
VdW12
SciTegic.value.DoubleValue
7.623

@<SCITEGIC>MOL_PROPERTY
Bond
SciTegic.value.DoubleValue
0.163

@<SCITEGIC>MOL_PROPERTY
Angle
SciTegic.value.DoubleValue
2.870

@<SCITEGIC>MOL_PROPERTY
Pdih
SciTegic.value.DoubleValue
4.576

@<SCITEGIC>MOL_PROPERTY
Idih
SciTegic.value.DoubleValue
0.000

@<SCITEGIC>MOL_PROPERTY
Tether
SciTegic.value.DoubleValue
0.000

@<TRIPOS>MOLECULE
guest-7_confgen4.mol2 : confsearch ligand conformer 297
          19          18           1
SMALL
USER_CHARGES
 
@<TRIPOS>ATOM
       1    C1      20.406780   17.136209   24.560696 C.2        1 MOL1         0.6115
       2    O1      19.963316   16.026126   24.778628 O.co2      1 MOL1        -0.6776
       3    O2      21.425940   17.563892   25.065326 O.co2      1 MOL1        -0.6776
       4    C2      19.652623   18.034211   23.586569 C.3        1 MOL1        -0.2013
       5    H1      19.792143   19.070820   23.908747 H          1 MOL1         0.0727
       6    H2      18.582960   17.812071   23.680692 H          1 MOL1         0.0727
       7    C3      20.107760   17.840871   22.115833 C.3        1 MOL1        -0.1910
       8    H3      21.190650   18.006012   22.030050 H          1 MOL1         0.0729
       9    H4      19.936394   16.789880   21.844818 H          1 MOL1         0.0729
      10    C4      19.346345   18.742179   21.110927 C.3        1 MOL1        -0.1909
      11    H5      18.331496   18.948588   21.477499 H          1 MOL1         0.0729
      12    H6      19.217413   18.178542   20.176762 H          1 MOL1         0.0729
      13    C5      20.064776   20.067959   20.758686 C.3        1 MOL1        -0.1884
      14    H7      21.043413   19.848509   20.309945 H          1 MOL1         0.0729
      15    H8      19.481173   20.585275   19.984745 H          1 MOL1         0.0729
      16    C6      20.253547   21.022910   21.955401 C.3        1 MOL1        -0.2899
      17    H9      20.646066   21.990123   21.615927 H          1 MOL1         0.0741
      18    H10     19.300550   21.205290   22.468735 H          1 MOL1         0.0741
      19    H11     20.968528   20.612812   22.679569 H          1 MOL1         0.0741
@<TRIPOS>BOND
    1     1     2    1
    2     1     3    2
    3     1     4    1
    4     4     5    1
    5     4     6    1
    6     4     7    1
    7     7     8    1
    8     7     9    1
    9     7    10    1
   10    10    11    1
   11    10    12    1
   12    10    13    1
   13    13    14    1
   14    13    15    1
   15    13    16    1
   16    16    17    1
   17    16    18    1
   18    16    19    1
@<TRIPOS>SUBSTRUCTURE
       1 MOL1            1 RESIDUE      1      MOL     
@<SCITEGIC>MOL_PROPERTY
VConf Rank
SciTegic.value.IntegerValue
297

@<SCITEGIC>MOL_PROPERTY
Conf_Id
SciTegic.value.IntegerValue
24

@<SCITEGIC>MOL_PROPERTY
Delta U+W
SciTegic.value.DoubleValue
2.477

@<SCITEGIC>MOL_PROPERTY
U+W
SciTegic.value.DoubleValue
-52.414

@<SCITEGIC>MOL_PROPERTY
Grad RMS
SciTegic.value.DoubleValue
0.000000

@<SCITEGIC>MOL_PROPERTY
U
SciTegic.value.DoubleValue
10.422

@<SCITEGIC>MOL_PROPERTY
W
SciTegic.value.DoubleValue
-62.836

@<SCITEGIC>MOL_PROPERTY
W(PB)
SciTegic.value.DoubleValue
-64.906

@<SCITEGIC>MOL_PROPERTY
W(SA)
SciTegic.value.DoubleValue
2.070

@<SCITEGIC>MOL_PROPERTY
Valence
SciTegic.value.DoubleValue
9.628

@<SCITEGIC>MOL_PROPERTY
Coulomb
SciTegic.value.DoubleValue
0.101

@<SCITEGIC>MOL_PROPERTY
VdW
SciTegic.value.DoubleValue
0.693

@<SCITEGIC>MOL_PROPERTY
VdW6
SciTegic.value.DoubleValue
-6.927

@<SCITEGIC>MOL_PROPERTY
VdW12
SciTegic.value.DoubleValue
7.620

@<SCITEGIC>MOL_PROPERTY
Bond
SciTegic.value.DoubleValue
0.173

@<SCITEGIC>MOL_PROPERTY
Angle
SciTegic.value.DoubleValue
2.989

@<SCITEGIC>MOL_PROPERTY
Pdih
SciTegic.value.DoubleValue
6.465

@<SCITEGIC>MOL_PROPERTY
Idih
SciTegic.value.DoubleValue
0.001

@<SCITEGIC>MOL_PROPERTY
Tether
SciTegic.value.DoubleValue
0.000

@<TRIPOS>MOLECULE
guest-7_confgen4.mol2 : confsearch ligand conformer 298
          19          18           1
SMALL
USER_CHARGES
 
@<TRIPOS>ATOM
       1    C1      17.827900   18.749252   23.994311 C.2        1 MOL1         0.6115
       2    O1      18.453220   18.842532   25.032079 O.co2      1 MOL1        -0.6776
       3    O2      16.671287   19.102629   23.874115 O.co2      1 MOL1        -0.6776
       4    C2      18.520006   18.128889   22.783372 C.3        1 MOL1        -0.2013
       5    H1      17.839019   17.374226   22.372888 H          1 MOL1         0.0727
       6    H2      19.408965   17.592888   23.130772 H          1 MOL1         0.0727
       7    C3      18.883423   19.151629   21.671226 C.3        1 MOL1        -0.1910
       8    H3      19.183819   18.618429   20.759255 H          1 MOL1         0.0729
       9    H4      17.972017   19.707053   21.409731 H          1 MOL1         0.0729
      10    C4      19.987161   20.164130   22.073820 C.3        1 MOL1        -0.1909
      11    H5      19.958458   20.355218   23.155239 H          1 MOL1         0.0729
      12    H6      19.757597   21.126163   21.595724 H          1 MOL1         0.0729
      13    C5      21.419869   19.761825   21.645565 C.3        1 MOL1        -0.1884
      14    H7      21.463452   19.659753   20.552457 H          1 MOL1         0.0729
      15    H8      22.103639   20.581749   21.905059 H          1 MOL1         0.0729
      16    C6      21.933985   18.464185   22.302354 C.3        1 MOL1        -0.2899
      17    H9      21.382003   17.589912   21.935857 H          1 MOL1         0.0741
      18    H10     22.994491   18.308334   22.066102 H          1 MOL1         0.0741
      19    H11     21.832494   18.509063   23.394678 H          1 MOL1         0.0741
@<TRIPOS>BOND
    1     1     2    1
    2     1     3    2
    3     1     4    1
    4     4     5    1
    5     4     6    1
    6     4     7    1
    7     7     8    1
    8     7     9    1
    9     7    10    1
   10    10    11    1
   11    10    12    1
   12    10    13    1
   13    13    14    1
   14    13    15    1
   15    13    16    1
   16    16    17    1
   17    16    18    1
   18    16    19    1
@<TRIPOS>SUBSTRUCTURE
       1 MOL1            1 RESIDUE      1      MOL     
@<SCITEGIC>MOL_PROPERTY
VConf Rank
SciTegic.value.IntegerValue
298

@<SCITEGIC>MOL_PROPERTY
Conf_Id
SciTegic.value.IntegerValue
4

@<SCITEGIC>MOL_PROPERTY
Delta U+W
SciTegic.value.DoubleValue
3.753

@<SCITEGIC>MOL_PROPERTY
U+W
SciTegic.value.DoubleValue
-51.138

@<SCITEGIC>MOL_PROPERTY
Grad RMS
SciTegic.value.DoubleValue
0.000000

@<SCITEGIC>MOL_PROPERTY
U
SciTegic.value.DoubleValue
12.334

@<SCITEGIC>MOL_PROPERTY
W
SciTegic.value.DoubleValue
-63.472

@<SCITEGIC>MOL_PROPERTY
W(PB)
SciTegic.value.DoubleValue
-65.500

@<SCITEGIC>MOL_PROPERTY
W(SA)
SciTegic.value.DoubleValue
2.028

@<SCITEGIC>MOL_PROPERTY
Valence
SciTegic.value.DoubleValue
9.984

@<SCITEGIC>MOL_PROPERTY
Coulomb
SciTegic.value.DoubleValue
1.767

@<SCITEGIC>MOL_PROPERTY
VdW
SciTegic.value.DoubleValue
0.583

@<SCITEGIC>MOL_PROPERTY
VdW6
SciTegic.value.DoubleValue
-7.767

@<SCITEGIC>MOL_PROPERTY
VdW12
SciTegic.value.DoubleValue
8.349

@<SCITEGIC>MOL_PROPERTY
Bond
SciTegic.value.DoubleValue
0.203

@<SCITEGIC>MOL_PROPERTY
Angle
SciTegic.value.DoubleValue
3.191

@<SCITEGIC>MOL_PROPERTY
Pdih
SciTegic.value.DoubleValue
6.589

@<SCITEGIC>MOL_PROPERTY
Idih
SciTegic.value.DoubleValue
0.001

@<SCITEGIC>MOL_PROPERTY
Tether
SciTegic.value.DoubleValue
0.000

@<TRIPOS>MOLECULE
guest-7_confgen4.mol2 : confsearch ligand conformer 299
          19          18           1
SMALL
USER_CHARGES
 
@<TRIPOS>ATOM
       1    C1      18.763990   18.901391   20.078291 C.2        1 MOL1         0.6115
       2    O1      19.171227   19.258886   18.990436 O.co2      1 MOL1        -0.6776
       3    O2      18.113874   17.889455   20.251578 O.co2      1 MOL1        -0.6776
       4    C2      19.061832   19.788001   21.284708 C.3        1 MOL1        -0.2013
       5    H1      18.382329   19.507255   22.095686 H          1 MOL1         0.0727
       6    H2      18.805450   20.815708   21.002144 H          1 MOL1         0.0727
       7    C3      20.542399   19.738846   21.754219 C.3        1 MOL1        -0.1910
       8    H3      21.180900   19.960572   20.887795 H          1 MOL1         0.0729
       9    H4      20.729350   20.541670   22.479998 H          1 MOL1         0.0729
      10    C4      20.973932   18.376561   22.357073 C.3        1 MOL1        -0.1909
      11    H5      22.022643   18.199369   22.082134 H          1 MOL1         0.0729
      12    H6      20.404145   17.555709   21.900618 H          1 MOL1         0.0729
      13    C5      20.877077   18.293579   23.900328 C.3        1 MOL1        -0.1884
      14    H7      21.282084   17.324443   24.222659 H          1 MOL1         0.0729
      15    H8      21.520369   19.061061   24.352376 H          1 MOL1         0.0729
      16    C6      19.443434   18.436988   24.451382 C.3        1 MOL1        -0.2899
      17    H9      18.760985   17.730104   23.961418 H          1 MOL1         0.0741
      18    H10     19.424667   18.234686   25.530039 H          1 MOL1         0.0741
      19    H11     19.061242   19.453932   24.299364 H          1 MOL1         0.0741
@<TRIPOS>BOND
    1     1     2    1
    2     1     3    2
    3     1     4    1
    4     4     5    1
    5     4     6    1
    6     4     7    1
    7     7     8    1
    8     7     9    1
    9     7    10    1
   10    10    11    1
   11    10    12    1
   12    10    13    1
   13    13    14    1
   14    13    15    1
   15    13    16    1
   16    16    17    1
   17    16    18    1
   18    16    19    1
@<TRIPOS>SUBSTRUCTURE
       1 MOL1            1 RESIDUE      1      MOL     
@<SCITEGIC>MOL_PROPERTY
VConf Rank
SciTegic.value.IntegerValue
299

@<SCITEGIC>MOL_PROPERTY
Conf_Id
SciTegic.value.IntegerValue
73

@<SCITEGIC>MOL_PROPERTY
Delta U+W
SciTegic.value.DoubleValue
3.707

@<SCITEGIC>MOL_PROPERTY
U+W
SciTegic.value.DoubleValue
-51.184

@<SCITEGIC>MOL_PROPERTY
Grad RMS
SciTegic.value.DoubleValue
0.000000

@<SCITEGIC>MOL_PROPERTY
U
SciTegic.value.DoubleValue
12.334

@<SCITEGIC>MOL_PROPERTY
W
SciTegic.value.DoubleValue
-63.519

@<SCITEGIC>MOL_PROPERTY
W(PB)
SciTegic.value.DoubleValue
-65.541

@<SCITEGIC>MOL_PROPERTY
W(SA)
SciTegic.value.DoubleValue
2.022

@<SCITEGIC>MOL_PROPERTY
Valence
SciTegic.value.DoubleValue
9.984

@<SCITEGIC>MOL_PROPERTY
Coulomb
SciTegic.value.DoubleValue
1.768

@<SCITEGIC>MOL_PROPERTY
VdW
SciTegic.value.DoubleValue
0.583

@<SCITEGIC>MOL_PROPERTY
VdW6
SciTegic.value.DoubleValue
-7.767

@<SCITEGIC>MOL_PROPERTY
VdW12
SciTegic.value.DoubleValue
8.350

@<SCITEGIC>MOL_PROPERTY
Bond
SciTegic.value.DoubleValue
0.203

@<SCITEGIC>MOL_PROPERTY
Angle
SciTegic.value.DoubleValue
3.192

@<SCITEGIC>MOL_PROPERTY
Pdih
SciTegic.value.DoubleValue
6.589

@<SCITEGIC>MOL_PROPERTY
Idih
SciTegic.value.DoubleValue
0.001

@<SCITEGIC>MOL_PROPERTY
Tether
SciTegic.value.DoubleValue
0.000

@<TRIPOS>MOLECULE
guest-7_confgen4.mol2 : confsearch ligand conformer 300
          19          18           1
SMALL
USER_CHARGES
 
@<TRIPOS>ATOM
       1    C1      22.261584   18.741066   21.506649 C.2        1 MOL1         0.6115
       2    O1      22.393155   17.572538   21.813152 O.co2      1 MOL1        -0.6776
       3    O2      22.766751   19.236600   20.518514 O.co2      1 MOL1        -0.6776
       4    C2      21.445451   19.644492   22.427014 C.3        1 MOL1        -0.2013
       5    H1      22.052913   20.533025   22.634783 H          1 MOL1         0.0727
       6    H2      21.304276   19.133854   23.386501 H          1 MOL1         0.0727
       7    C3      20.077965   20.083937   21.836132 C.3        1 MOL1        -0.1910
       8    H3      19.594212   20.786106   22.527367 H          1 MOL1         0.0729
       9    H4      20.259707   20.648490   20.911275 H          1 MOL1         0.0729
      10    C4      19.110873   18.913815   21.520475 C.3        1 MOL1        -0.1909
      11    H5      19.554620   18.283572   20.737554 H          1 MOL1         0.0729
      12    H6      18.188332   19.325658   21.089316 H          1 MOL1         0.0729
      13    C5      18.742610   18.018476   22.728766 C.3        1 MOL1        -0.1884
      14    H7      18.071613   17.221111   22.381102 H          1 MOL1         0.0729
      15    H8      19.639797   17.513343   23.111311 H          1 MOL1         0.0729
      16    C6      18.048130   18.788826   23.872414 C.3        1 MOL1        -0.2899
      17    H9      18.725057   19.522737   24.327448 H          1 MOL1         0.0741
      18    H10     17.159724   19.319263   23.505830 H          1 MOL1         0.0741
      19    H11     17.727859   18.097138   24.662217 H          1 MOL1         0.0741
@<TRIPOS>BOND
    1     1     2    1
    2     1     3    2
    3     1     4    1
    4     4     5    1
    5     4     6    1
    6     4     7    1
    7     7     8    1
    8     7     9    1
    9     7    10    1
   10    10    11    1
   11    10    12    1
   12    10    13    1
   13    13    14    1
   14    13    15    1
   15    13    16    1
   16    16    17    1
   17    16    18    1
   18    16    19    1
@<TRIPOS>SUBSTRUCTURE
       1 MOL1            1 RESIDUE      1      MOL     
@<SCITEGIC>MOL_PROPERTY
VConf Rank
SciTegic.value.IntegerValue
300

@<SCITEGIC>MOL_PROPERTY
Conf_Id
SciTegic.value.IntegerValue
56

@<SCITEGIC>MOL_PROPERTY
Delta U+W
SciTegic.value.DoubleValue
1.735

@<SCITEGIC>MOL_PROPERTY
U+W
SciTegic.value.DoubleValue
-53.156

@<SCITEGIC>MOL_PROPERTY
Grad RMS
SciTegic.value.DoubleValue
0.000000

@<SCITEGIC>MOL_PROPERTY
U
SciTegic.value.DoubleValue
10.214

@<SCITEGIC>MOL_PROPERTY
W
SciTegic.value.DoubleValue
-63.370

@<SCITEGIC>MOL_PROPERTY
W(PB)
SciTegic.value.DoubleValue
-65.388

@<SCITEGIC>MOL_PROPERTY
W(SA)
SciTegic.value.DoubleValue
2.018

@<SCITEGIC>MOL_PROPERTY
Valence
SciTegic.value.DoubleValue
7.868

@<SCITEGIC>MOL_PROPERTY
Coulomb
SciTegic.value.DoubleValue
1.968

@<SCITEGIC>MOL_PROPERTY
VdW
SciTegic.value.DoubleValue
0.378

@<SCITEGIC>MOL_PROPERTY
VdW6
SciTegic.value.DoubleValue
-8.067

@<SCITEGIC>MOL_PROPERTY
VdW12
SciTegic.value.DoubleValue
8.445

@<SCITEGIC>MOL_PROPERTY
Bond
SciTegic.value.DoubleValue
0.191

@<SCITEGIC>MOL_PROPERTY
Angle
SciTegic.value.DoubleValue
3.117

@<SCITEGIC>MOL_PROPERTY
Pdih
SciTegic.value.DoubleValue
4.559

@<SCITEGIC>MOL_PROPERTY
Idih
SciTegic.value.DoubleValue
0.001

@<SCITEGIC>MOL_PROPERTY
Tether
SciTegic.value.DoubleValue
0.000

@<TRIPOS>MOLECULE
guest-7_confgen4.mol2 : confsearch ligand conformer 301
          19          18           1
SMALL
USER_CHARGES
 
@<TRIPOS>ATOM
       1    C1      19.215434   21.770068   22.551403 C.2        1 MOL1         0.6115
       2    O1      19.834853   22.554133   23.242725 O.co2      1 MOL1        -0.6776
       3    O2      18.129268   22.015457   22.065191 O.co2      1 MOL1        -0.6776
       4    C2      19.824770   20.395723   22.298177 C.3        1 MOL1        -0.2013
       5    H1      20.916131   20.501895   22.292119 H          1 MOL1         0.0727
       6    H2      19.518163   20.076953   21.295736 H          1 MOL1         0.0727
       7    C3      19.394321   19.344302   23.351838 C.3        1 MOL1        -0.1910
       8    H3      19.584433   19.752851   24.354008 H          1 MOL1         0.0729
       9    H4      18.308813   19.188334   23.284446 H          1 MOL1         0.0729
      10    C4      20.123758   17.982770   23.230825 C.3        1 MOL1        -0.1909
      11    H5      19.775788   17.347329   24.056721 H          1 MOL1         0.0729
      12    H6      21.202269   18.116824   23.391581 H          1 MOL1         0.0729
      13    C5      19.869236   17.228198   21.902312 C.3        1 MOL1        -0.1884
      14    H7      19.832600   16.150392   22.112867 H          1 MOL1         0.0729
      15    H8      18.883463   17.493498   21.495895 H          1 MOL1         0.0729
      16    C6      20.968151   17.469344   20.843558 C.3        1 MOL1        -0.2899
      17    H9      20.751592   16.900879   19.929870 H          1 MOL1         0.0741
      18    H10     21.046042   18.527071   20.568306 H          1 MOL1         0.0741
      19    H11     21.947739   17.143478   21.216856 H          1 MOL1         0.0741
@<TRIPOS>BOND
    1     1     2    1
    2     1     3    2
    3     1     4    1
    4     4     5    1
    5     4     6    1
    6     4     7    1
    7     7     8    1
    8     7     9    1
    9     7    10    1
   10    10    11    1
   11    10    12    1
   12    10    13    1
   13    13    14    1
   14    13    15    1
   15    13    16    1
   16    16    17    1
   17    16    18    1
   18    16    19    1
@<TRIPOS>SUBSTRUCTURE
       1 MOL1            1 RESIDUE      1      MOL     
@<SCITEGIC>MOL_PROPERTY
VConf Rank
SciTegic.value.IntegerValue
301

@<SCITEGIC>MOL_PROPERTY
Conf_Id
SciTegic.value.IntegerValue
53

@<SCITEGIC>MOL_PROPERTY
Delta U+W
SciTegic.value.DoubleValue
2.279

@<SCITEGIC>MOL_PROPERTY
U+W
SciTegic.value.DoubleValue
-52.612

@<SCITEGIC>MOL_PROPERTY
Grad RMS
SciTegic.value.DoubleValue
0.000000

@<SCITEGIC>MOL_PROPERTY
U
SciTegic.value.DoubleValue
10.231

@<SCITEGIC>MOL_PROPERTY
W
SciTegic.value.DoubleValue
-62.843

@<SCITEGIC>MOL_PROPERTY
W(PB)
SciTegic.value.DoubleValue
-64.893

@<SCITEGIC>MOL_PROPERTY
W(SA)
SciTegic.value.DoubleValue
2.050

@<SCITEGIC>MOL_PROPERTY
Valence
SciTegic.value.DoubleValue
9.644

@<SCITEGIC>MOL_PROPERTY
Coulomb
SciTegic.value.DoubleValue
-0.164

@<SCITEGIC>MOL_PROPERTY
VdW
SciTegic.value.DoubleValue
0.751

@<SCITEGIC>MOL_PROPERTY
VdW6
SciTegic.value.DoubleValue
-6.881

@<SCITEGIC>MOL_PROPERTY
VdW12
SciTegic.value.DoubleValue
7.631

@<SCITEGIC>MOL_PROPERTY
Bond
SciTegic.value.DoubleValue
0.163

@<SCITEGIC>MOL_PROPERTY
Angle
SciTegic.value.DoubleValue
2.998

@<SCITEGIC>MOL_PROPERTY
Pdih
SciTegic.value.DoubleValue
6.482

@<SCITEGIC>MOL_PROPERTY
Idih
SciTegic.value.DoubleValue
0.001

@<SCITEGIC>MOL_PROPERTY
Tether
SciTegic.value.DoubleValue
0.000

@<TRIPOS>MOLECULE
guest-7_confgen4.mol2 : confsearch ligand conformer 302
          19          18           1
SMALL
USER_CHARGES
 
@<TRIPOS>ATOM
       1    C1      17.922312   18.088696   22.103417 C.2        1 MOL1         0.6115
       2    O1      17.322581   19.080943   21.739242 O.co2      1 MOL1        -0.6776
       3    O2      17.583988   17.413731   23.055890 O.co2      1 MOL1        -0.6776
       4    C2      19.122116   17.628519   21.277469 C.3        1 MOL1        -0.2013
       5    H1      19.255413   18.312192   20.430270 H          1 MOL1         0.0727
       6    H2      18.849832   16.654621   20.854377 H          1 MOL1         0.0727
       7    C3      20.454179   17.482334   22.065733 C.3        1 MOL1        -0.1910
       8    H3      20.270140   16.971037   23.020850 H          1 MOL1         0.0729
       9    H4      21.116560   16.820404   21.491698 H          1 MOL1         0.0729
      10    C4      21.212647   18.810111   22.311520 C.3        1 MOL1        -0.1909
      11    H5      21.399621   19.312272   21.352506 H          1 MOL1         0.0729
      12    H6      22.199018   18.568072   22.730447 H          1 MOL1         0.0729
      13    C5      20.490445   19.779476   23.272941 C.3        1 MOL1        -0.1884
      14    H7      19.560214   20.140119   22.815762 H          1 MOL1         0.0729
      15    H8      20.211819   19.250820   24.195051 H          1 MOL1         0.0729
      16    C6      21.375575   20.992645   23.623085 C.3        1 MOL1        -0.2899
      17    H9      21.647056   21.553813   22.719344 H          1 MOL1         0.0741
      18    H10     20.845079   21.675337   24.299511 H          1 MOL1         0.0741
      19    H11     22.301003   20.674215   24.120581 H          1 MOL1         0.0741
@<TRIPOS>BOND
    1     1     2    1
    2     1     3    2
    3     1     4    1
    4     4     5    1
    5     4     6    1
    6     4     7    1
    7     7     8    1
    8     7     9    1
    9     7    10    1
   10    10    11    1
   11    10    12    1
   12    10    13    1
   13    13    14    1
   14    13    15    1
   15    13    16    1
   16    16    17    1
   17    16    18    1
   18    16    19    1
@<TRIPOS>SUBSTRUCTURE
       1 MOL1            1 RESIDUE      1      MOL     
@<SCITEGIC>MOL_PROPERTY
VConf Rank
SciTegic.value.IntegerValue
302

@<SCITEGIC>MOL_PROPERTY
Conf_Id
SciTegic.value.IntegerValue
25

@<SCITEGIC>MOL_PROPERTY
Delta U+W
SciTegic.value.DoubleValue
2.065

@<SCITEGIC>MOL_PROPERTY
U+W
SciTegic.value.DoubleValue
-52.826

@<SCITEGIC>MOL_PROPERTY
Grad RMS
SciTegic.value.DoubleValue
0.000000

@<SCITEGIC>MOL_PROPERTY
U
SciTegic.value.DoubleValue
10.967

@<SCITEGIC>MOL_PROPERTY
W
SciTegic.value.DoubleValue
-63.794

@<SCITEGIC>MOL_PROPERTY
W(PB)
SciTegic.value.DoubleValue
-65.830

@<SCITEGIC>MOL_PROPERTY
W(SA)
SciTegic.value.DoubleValue
2.036

@<SCITEGIC>MOL_PROPERTY
Valence
SciTegic.value.DoubleValue
8.609

@<SCITEGIC>MOL_PROPERTY
Coulomb
SciTegic.value.DoubleValue
1.892

@<SCITEGIC>MOL_PROPERTY
VdW
SciTegic.value.DoubleValue
0.467

@<SCITEGIC>MOL_PROPERTY
VdW6
SciTegic.value.DoubleValue
-7.569

@<SCITEGIC>MOL_PROPERTY
VdW12
SciTegic.value.DoubleValue
8.036

@<SCITEGIC>MOL_PROPERTY
Bond
SciTegic.value.DoubleValue
0.170

@<SCITEGIC>MOL_PROPERTY
Angle
SciTegic.value.DoubleValue
3.195

@<SCITEGIC>MOL_PROPERTY
Pdih
SciTegic.value.DoubleValue
5.237

@<SCITEGIC>MOL_PROPERTY
Idih
SciTegic.value.DoubleValue
0.007

@<SCITEGIC>MOL_PROPERTY
Tether
SciTegic.value.DoubleValue
0.000

@<TRIPOS>MOLECULE
guest-7_confgen4.mol2 : confsearch ligand conformer 303
          19          18           1
SMALL
USER_CHARGES
 
@<TRIPOS>ATOM
       1    C1      19.513354   17.387472   20.670893 C.2        1 MOL1         0.6115
       2    O1      18.330766   17.534680   20.432016 O.co2      1 MOL1        -0.6776
       3    O2      20.004692   16.322275   20.988375 O.co2      1 MOL1        -0.6776
       4    C2      20.443764   18.586251   20.495538 C.3        1 MOL1        -0.2013
       5    H1      20.399021   18.858641   19.434677 H          1 MOL1         0.0727
       6    H2      21.474834   18.269822   20.694764 H          1 MOL1         0.0727
       7    C3      20.088501   19.833612   21.352864 C.3        1 MOL1        -0.1910
       8    H3      20.564756   20.708937   20.890908 H          1 MOL1         0.0729
       9    H4      19.006559   20.021208   21.310999 H          1 MOL1         0.0729
      10    C4      20.558948   19.764226   22.826819 C.3        1 MOL1        -0.1909
      11    H5      20.395604   20.749445   23.284719 H          1 MOL1         0.0729
      12    H6      21.642047   19.583820   22.861282 H          1 MOL1         0.0729
      13    C5      19.827926   18.697889   23.671868 C.3        1 MOL1        -0.1884
      14    H7      18.741118   18.813486   23.558366 H          1 MOL1         0.0729
      15    H8      20.083329   17.692714   23.312983 H          1 MOL1         0.0729
      16    C6      20.203329   18.803743   25.163748 C.3        1 MOL1        -0.2899
      17    H9      19.682580   18.034402   25.748538 H          1 MOL1         0.0741
      18    H10     21.283028   18.665746   25.307152 H          1 MOL1         0.0741
      19    H11     19.925386   19.784682   25.570961 H          1 MOL1         0.0741
@<TRIPOS>BOND
    1     1     2    1
    2     1     3    2
    3     1     4    1
    4     4     5    1
    5     4     6    1
    6     4     7    1
    7     7     8    1
    8     7     9    1
    9     7    10    1
   10    10    11    1
   11    10    12    1
   12    10    13    1
   13    13    14    1
   14    13    15    1
   15    13    16    1
   16    16    17    1
   17    16    18    1
   18    16    19    1
@<TRIPOS>SUBSTRUCTURE
       1 MOL1            1 RESIDUE      1      MOL     
@<SCITEGIC>MOL_PROPERTY
VConf Rank
SciTegic.value.IntegerValue
303

@<SCITEGIC>MOL_PROPERTY
Conf_Id
SciTegic.value.IntegerValue
52

@<SCITEGIC>MOL_PROPERTY
Delta U+W
SciTegic.value.DoubleValue
2.070

@<SCITEGIC>MOL_PROPERTY
U+W
SciTegic.value.DoubleValue
-52.822

@<SCITEGIC>MOL_PROPERTY
Grad RMS
SciTegic.value.DoubleValue
0.000000

@<SCITEGIC>MOL_PROPERTY
U
SciTegic.value.DoubleValue
10.967

@<SCITEGIC>MOL_PROPERTY
W
SciTegic.value.DoubleValue
-63.789

@<SCITEGIC>MOL_PROPERTY
W(PB)
SciTegic.value.DoubleValue
-65.837

@<SCITEGIC>MOL_PROPERTY
W(SA)
SciTegic.value.DoubleValue
2.048

@<SCITEGIC>MOL_PROPERTY
Valence
SciTegic.value.DoubleValue
8.609

@<SCITEGIC>MOL_PROPERTY
Coulomb
SciTegic.value.DoubleValue
1.892

@<SCITEGIC>MOL_PROPERTY
VdW
SciTegic.value.DoubleValue
0.467

@<SCITEGIC>MOL_PROPERTY
VdW6
SciTegic.value.DoubleValue
-7.569

@<SCITEGIC>MOL_PROPERTY
VdW12
SciTegic.value.DoubleValue
8.035

@<SCITEGIC>MOL_PROPERTY
Bond
SciTegic.value.DoubleValue
0.170

@<SCITEGIC>MOL_PROPERTY
Angle
SciTegic.value.DoubleValue
3.196

@<SCITEGIC>MOL_PROPERTY
Pdih
SciTegic.value.DoubleValue
5.237

@<SCITEGIC>MOL_PROPERTY
Idih
SciTegic.value.DoubleValue
0.007

@<SCITEGIC>MOL_PROPERTY
Tether
SciTegic.value.DoubleValue
0.000

@<TRIPOS>MOLECULE
guest-7_confgen4.mol2 : confsearch ligand conformer 304
          19          18           1
SMALL
USER_CHARGES
 
@<TRIPOS>ATOM
       1    C1      21.439900   17.645024   23.329590 C.2        1 MOL1         0.6115
       2    O1      21.354997   16.565321   22.777189 O.co2      1 MOL1        -0.6776
       3    O2      22.463279   18.299762   23.356292 O.co2      1 MOL1        -0.6776
       4    C2      20.244900   18.151931   24.138541 C.3        1 MOL1        -0.2013
       5    H1      20.430397   19.190551   24.437535 H          1 MOL1         0.0727
       6    H2      20.230522   17.559571   25.060592 H          1 MOL1         0.0727
       7    C3      18.858524   18.032441   23.443519 C.3        1 MOL1        -0.1910
       8    H3      18.785177   17.072241   22.914447 H          1 MOL1         0.0729
       9    H4      18.090109   17.999056   24.227598 H          1 MOL1         0.0729
      10    C4      18.493748   19.193498   22.483279 C.3        1 MOL1        -0.1909
      11    H5      18.468460   20.143079   23.035269 H          1 MOL1         0.0729
      12    H6      17.464428   19.024624   22.138391 H          1 MOL1         0.0729
      13    C5      19.401412   19.320578   21.235887 C.3        1 MOL1        -0.1884
      14    H7      19.895623   18.362975   21.021161 H          1 MOL1         0.0729
      15    H8      18.773710   19.541420   20.361605 H          1 MOL1         0.0729
      16    C6      20.448747   20.446566   21.371386 C.3        1 MOL1        -0.2899
      17    H9      19.960822   21.423079   21.486660 H          1 MOL1         0.0741
      18    H10     21.098804   20.288338   22.239786 H          1 MOL1         0.0741
      19    H11     21.085171   20.490171   20.478255 H          1 MOL1         0.0741
@<TRIPOS>BOND
    1     1     2    1
    2     1     3    2
    3     1     4    1
    4     4     5    1
    5     4     6    1
    6     4     7    1
    7     7     8    1
    8     7     9    1
    9     7    10    1
   10    10    11    1
   11    10    12    1
   12    10    13    1
   13    13    14    1
   14    13    15    1
   15    13    16    1
   16    16    17    1
   17    16    18    1
   18    16    19    1
@<TRIPOS>SUBSTRUCTURE
       1 MOL1            1 RESIDUE      1      MOL     
@<SCITEGIC>MOL_PROPERTY
VConf Rank
SciTegic.value.IntegerValue
304

@<SCITEGIC>MOL_PROPERTY
Conf_Id
SciTegic.value.IntegerValue
66

@<SCITEGIC>MOL_PROPERTY
Delta U+W
SciTegic.value.DoubleValue
5.819

@<SCITEGIC>MOL_PROPERTY
U+W
SciTegic.value.DoubleValue
-49.072

@<SCITEGIC>MOL_PROPERTY
Grad RMS
SciTegic.value.DoubleValue
0.000000

@<SCITEGIC>MOL_PROPERTY
U
SciTegic.value.DoubleValue
15.324

@<SCITEGIC>MOL_PROPERTY
W
SciTegic.value.DoubleValue
-64.396

@<SCITEGIC>MOL_PROPERTY
W(PB)
SciTegic.value.DoubleValue
-66.382

@<SCITEGIC>MOL_PROPERTY
W(SA)
SciTegic.value.DoubleValue
1.986

@<SCITEGIC>MOL_PROPERTY
Valence
SciTegic.value.DoubleValue
11.748

@<SCITEGIC>MOL_PROPERTY
Coulomb
SciTegic.value.DoubleValue
3.201

@<SCITEGIC>MOL_PROPERTY
VdW
SciTegic.value.DoubleValue
0.375

@<SCITEGIC>MOL_PROPERTY
VdW6
SciTegic.value.DoubleValue
-8.854

@<SCITEGIC>MOL_PROPERTY
VdW12
SciTegic.value.DoubleValue
9.229

@<SCITEGIC>MOL_PROPERTY
Bond
SciTegic.value.DoubleValue
0.216

@<SCITEGIC>MOL_PROPERTY
Angle
SciTegic.value.DoubleValue
3.812

@<SCITEGIC>MOL_PROPERTY
Pdih
SciTegic.value.DoubleValue
7.699

@<SCITEGIC>MOL_PROPERTY
Idih
SciTegic.value.DoubleValue
0.022

@<SCITEGIC>MOL_PROPERTY
Tether
SciTegic.value.DoubleValue
0.000

@<TRIPOS>MOLECULE
guest-7_confgen4.mol2 : confsearch ligand conformer 305
          19          18           1
SMALL
USER_CHARGES
 
@<TRIPOS>ATOM
       1    C1      20.519245   19.998804   25.325276 C.2        1 MOL1         0.6115
       2    O1      20.532393   21.014924   25.990850 O.co2      1 MOL1        -0.6776
       3    O2      20.756345   18.899676   25.787711 O.co2      1 MOL1        -0.6776
       4    C2      20.185681   20.141742   23.839349 C.3        1 MOL1        -0.2013
       5    H1      20.913875   20.837473   23.406056 H          1 MOL1         0.0727
       6    H2      19.202460   20.621789   23.769495 H          1 MOL1         0.0727
       7    C3      20.180824   18.817283   23.030510 C.3        1 MOL1        -0.1910
       8    H3      21.166744   18.338519   23.109350 H          1 MOL1         0.0729
       9    H4      19.453573   18.122593   23.473205 H          1 MOL1         0.0729
      10    C4      19.835383   19.053493   21.544194 C.3        1 MOL1        -0.1909
      11    H5      20.563550   19.748378   21.103674 H          1 MOL1         0.0729
      12    H6      18.849454   19.532287   21.467707 H          1 MOL1         0.0729
      13    C5      19.831142   17.735633   20.741933 C.3        1 MOL1        -0.1884
      14    H7      20.816401   17.254486   20.814415 H          1 MOL1         0.0729
      15    H8      19.102431   17.038470   21.178325 H          1 MOL1         0.0729
      16    C6      19.485996   17.975224   19.258538 C.3        1 MOL1        -0.2899
      17    H9      20.217802   18.645059   18.788216 H          1 MOL1         0.0741
      18    H10     19.487437   17.028251   18.703248 H          1 MOL1         0.0741
      19    H11     18.490921   18.427439   19.154862 H          1 MOL1         0.0741
@<TRIPOS>BOND
    1     1     2    1
    2     1     3    2
    3     1     4    1
    4     4     5    1
    5     4     6    1
    6     4     7    1
    7     7     8    1
    8     7     9    1
    9     7    10    1
   10    10    11    1
   11    10    12    1
   12    10    13    1
   13    13    14    1
   14    13    15    1
   15    13    16    1
   16    16    17    1
   17    16    18    1
   18    16    19    1
@<TRIPOS>SUBSTRUCTURE
       1 MOL1            1 RESIDUE      1      MOL     
@<SCITEGIC>MOL_PROPERTY
VConf Rank
SciTegic.value.IntegerValue
305

@<SCITEGIC>MOL_PROPERTY
Conf_Id
SciTegic.value.IntegerValue
0

@<SCITEGIC>MOL_PROPERTY
Delta U+W
SciTegic.value.DoubleValue
0.000

@<SCITEGIC>MOL_PROPERTY
U+W
SciTegic.value.DoubleValue
-54.891

@<SCITEGIC>MOL_PROPERTY
Grad RMS
SciTegic.value.DoubleValue
0.000000

@<SCITEGIC>MOL_PROPERTY
U
SciTegic.value.DoubleValue
6.966

@<SCITEGIC>MOL_PROPERTY
W
SciTegic.value.DoubleValue
-61.857

@<SCITEGIC>MOL_PROPERTY
W(PB)
SciTegic.value.DoubleValue
-63.965

@<SCITEGIC>MOL_PROPERTY
W(SA)
SciTegic.value.DoubleValue
2.108

@<SCITEGIC>MOL_PROPERTY
Valence
SciTegic.value.DoubleValue
7.175

@<SCITEGIC>MOL_PROPERTY
Coulomb
SciTegic.value.DoubleValue
-1.360

@<SCITEGIC>MOL_PROPERTY
VdW
SciTegic.value.DoubleValue
1.151

@<SCITEGIC>MOL_PROPERTY
VdW6
SciTegic.value.DoubleValue
-5.641

@<SCITEGIC>MOL_PROPERTY
VdW12
SciTegic.value.DoubleValue
6.792

@<SCITEGIC>MOL_PROPERTY
Bond
SciTegic.value.DoubleValue
0.119

@<SCITEGIC>MOL_PROPERTY
Angle
SciTegic.value.DoubleValue
2.715

@<SCITEGIC>MOL_PROPERTY
Pdih
SciTegic.value.DoubleValue
4.340

@<SCITEGIC>MOL_PROPERTY
Idih
SciTegic.value.DoubleValue
0.000

@<SCITEGIC>MOL_PROPERTY
Tether
SciTegic.value.DoubleValue
0.000

@<TRIPOS>MOLECULE
guest-7_confgen4.mol2 : confsearch ligand conformer 306
          19          18           1
SMALL
USER_CHARGES
 
@<TRIPOS>ATOM
       1    C1      23.216237   18.262523   22.604552 C.2        1 MOL1         0.6115
       2    O1      23.455032   17.424061   23.450801 O.co2      1 MOL1        -0.6776
       3    O2      23.921162   18.459043   21.634685 O.co2      1 MOL1        -0.6776
       4    C2      21.951568   19.100165   22.757328 C.3        1 MOL1        -0.2013
       5    H1      22.146171   20.092041   22.331825 H          1 MOL1         0.0727
       6    H2      21.761736   19.238650   23.828556 H          1 MOL1         0.0727
       7    C3      20.718338   18.458715   22.074833 C.3        1 MOL1        -0.1910
       8    H3      20.928992   18.315106   21.005931 H          1 MOL1         0.0729
       9    H4      20.544631   17.461551   22.502664 H          1 MOL1         0.0729
      10    C4      19.452089   19.325665   22.244066 C.3        1 MOL1        -0.1909
      11    H5      19.629379   20.322201   21.816659 H          1 MOL1         0.0729
      12    H6      19.244905   19.468433   23.313591 H          1 MOL1         0.0729
      13    C5      18.225180   18.684268   21.563128 C.3        1 MOL1        -0.1884
      14    H7      18.427847   18.541557   20.492590 H          1 MOL1         0.0729
      15    H8      18.043354   17.687922   21.989423 H          1 MOL1         0.0729
      16    C6      16.962720   19.552568   21.734021 C.3        1 MOL1        -0.2899
      17    H9      16.100374   19.081981   21.244106 H          1 MOL1         0.0741
      18    H10     16.718271   19.685551   22.796087 H          1 MOL1         0.0741
      19    H11     17.105672   20.545599   21.288064 H          1 MOL1         0.0741
@<TRIPOS>BOND
    1     1     2    1
    2     1     3    2
    3     1     4    1
    4     4     5    1
    5     4     6    1
    6     4     7    1
    7     7     8    1
    8     7     9    1
    9     7    10    1
   10    10    11    1
   11    10    12    1
   12    10    13    1
   13    13    14    1
   14    13    15    1
   15    13    16    1
   16    16    17    1
   17    16    18    1
   18    16    19    1
@<TRIPOS>SUBSTRUCTURE
       1 MOL1            1 RESIDUE      1      MOL     
@<SCITEGIC>MOL_PROPERTY
VConf Rank
SciTegic.value.IntegerValue
306

@<SCITEGIC>MOL_PROPERTY
Conf_Id
SciTegic.value.IntegerValue
18

@<SCITEGIC>MOL_PROPERTY
Delta U+W
SciTegic.value.DoubleValue
-1.199

@<SCITEGIC>MOL_PROPERTY
U+W
SciTegic.value.DoubleValue
-56.090

@<SCITEGIC>MOL_PROPERTY
Grad RMS
SciTegic.value.DoubleValue
0.000000

@<SCITEGIC>MOL_PROPERTY
U
SciTegic.value.DoubleValue
5.975

@<SCITEGIC>MOL_PROPERTY
W
SciTegic.value.DoubleValue
-62.066

@<SCITEGIC>MOL_PROPERTY
W(PB)
SciTegic.value.DoubleValue
-64.219

@<SCITEGIC>MOL_PROPERTY
W(SA)
SciTegic.value.DoubleValue
2.153

@<SCITEGIC>MOL_PROPERTY
Valence
SciTegic.value.DoubleValue
6.673

@<SCITEGIC>MOL_PROPERTY
Coulomb
SciTegic.value.DoubleValue
-1.307

@<SCITEGIC>MOL_PROPERTY
VdW
SciTegic.value.DoubleValue
0.610

@<SCITEGIC>MOL_PROPERTY
VdW6
SciTegic.value.DoubleValue
-5.351

@<SCITEGIC>MOL_PROPERTY
VdW12
SciTegic.value.DoubleValue
5.961

@<SCITEGIC>MOL_PROPERTY
Bond
SciTegic.value.DoubleValue
0.086

@<SCITEGIC>MOL_PROPERTY
Angle
SciTegic.value.DoubleValue
2.253

@<SCITEGIC>MOL_PROPERTY
Pdih
SciTegic.value.DoubleValue
4.333

@<SCITEGIC>MOL_PROPERTY
Idih
SciTegic.value.DoubleValue
0.001

@<SCITEGIC>MOL_PROPERTY
Tether
SciTegic.value.DoubleValue
0.000

@<TRIPOS>MOLECULE
guest-7_confgen4.mol2 : confsearch ligand conformer 307
          19          18           1
SMALL
USER_CHARGES
 
@<TRIPOS>ATOM
       1    C1      18.802444   21.842203   21.559505 C.2        1 MOL1         0.6115
       2    O1      19.495060   22.824282   21.380364 O.co2      1 MOL1        -0.6776
       3    O2      17.638776   21.768812   21.217811 O.co2      1 MOL1        -0.6776
       4    C2      19.434395   20.627886   22.230648 C.3        1 MOL1        -0.2013
       5    H1      18.654904   20.127216   22.815940 H          1 MOL1         0.0727
       6    H2      20.192834   20.985811   22.937167 H          1 MOL1         0.0727
       7    C3      20.071725   19.644518   21.214783 C.3        1 MOL1        -0.1910
       8    H3      19.294643   19.258617   20.540591 H          1 MOL1         0.0729
       9    H4      20.781138   20.199119   20.585043 H          1 MOL1         0.0729
      10    C4      20.818321   18.464984   21.881735 C.3        1 MOL1        -0.1909
      11    H5      21.600044   18.853973   22.548521 H          1 MOL1         0.0729
      12    H6      21.334273   17.891855   21.099220 H          1 MOL1         0.0729
      13    C5      19.887757   17.515084   22.668663 C.3        1 MOL1        -0.1884
      14    H7      19.418830   18.050775   23.504427 H          1 MOL1         0.0729
      15    H8      19.076257   17.165846   22.015389 H          1 MOL1         0.0729
      16    C6      20.658387   16.299639   23.221918 C.3        1 MOL1        -0.2899
      17    H9      19.985081   15.636406   23.780372 H          1 MOL1         0.0741
      18    H10     21.109997   15.716783   22.408461 H          1 MOL1         0.0741
      19    H11     21.459784   16.619049   23.900996 H          1 MOL1         0.0741
@<TRIPOS>BOND
    1     1     2    1
    2     1     3    2
    3     1     4    1
    4     4     5    1
    5     4     6    1
    6     4     7    1
    7     7     8    1
    8     7     9    1
    9     7    10    1
   10    10    11    1
   11    10    12    1
   12    10    13    1
   13    13    14    1
   14    13    15    1
   15    13    16    1
   16    16    17    1
   17    16    18    1
   18    16    19    1
@<TRIPOS>SUBSTRUCTURE
       1 MOL1            1 RESIDUE      1      MOL     
@<SCITEGIC>MOL_PROPERTY
VConf Rank
SciTegic.value.IntegerValue
307

@<SCITEGIC>MOL_PROPERTY
Conf_Id
SciTegic.value.IntegerValue
34

@<SCITEGIC>MOL_PROPERTY
Delta U+W
SciTegic.value.DoubleValue
-0.563

@<SCITEGIC>MOL_PROPERTY
U+W
SciTegic.value.DoubleValue
-55.455

@<SCITEGIC>MOL_PROPERTY
Grad RMS
SciTegic.value.DoubleValue
0.000000

@<SCITEGIC>MOL_PROPERTY
U
SciTegic.value.DoubleValue
6.914

@<SCITEGIC>MOL_PROPERTY
W
SciTegic.value.DoubleValue
-62.369

@<SCITEGIC>MOL_PROPERTY
W(PB)
SciTegic.value.DoubleValue
-64.446

@<SCITEGIC>MOL_PROPERTY
W(SA)
SciTegic.value.DoubleValue
2.077

@<SCITEGIC>MOL_PROPERTY
Valence
SciTegic.value.DoubleValue
7.196

@<SCITEGIC>MOL_PROPERTY
Coulomb
SciTegic.value.DoubleValue
-1.020

@<SCITEGIC>MOL_PROPERTY
VdW
SciTegic.value.DoubleValue
0.738

@<SCITEGIC>MOL_PROPERTY
VdW6
SciTegic.value.DoubleValue
-6.010

@<SCITEGIC>MOL_PROPERTY
VdW12
SciTegic.value.DoubleValue
6.748

@<SCITEGIC>MOL_PROPERTY
Bond
SciTegic.value.DoubleValue
0.126

@<SCITEGIC>MOL_PROPERTY
Angle
SciTegic.value.DoubleValue
2.499

@<SCITEGIC>MOL_PROPERTY
Pdih
SciTegic.value.DoubleValue
4.570

@<SCITEGIC>MOL_PROPERTY
Idih
SciTegic.value.DoubleValue
0.001

@<SCITEGIC>MOL_PROPERTY
Tether
SciTegic.value.DoubleValue
0.000

@<TRIPOS>MOLECULE
guest-7_confgen4.mol2 : confsearch ligand conformer 308
          19          18           1
SMALL
USER_CHARGES
 
@<TRIPOS>ATOM
       1    C1      18.534381   19.210568   19.327041 C.2        1 MOL1         0.6115
       2    O1      17.443681   18.739511   19.072544 O.co2      1 MOL1        -0.6776
       3    O2      19.332892   19.554308   18.478227 O.co2      1 MOL1        -0.6776
       4    C2      18.931316   19.357898   20.791655 C.3        1 MOL1        -0.2013
       5    H1      18.022385   19.555814   21.372332 H          1 MOL1         0.0727
       6    H2      19.570848   20.243729   20.876195 H          1 MOL1         0.0727
       7    C3      19.657457   18.104544   21.345734 C.3        1 MOL1        -0.1910
       8    H3      19.027818   17.222804   21.162671 H          1 MOL1         0.0729
       9    H4      20.588659   17.942319   20.785506 H          1 MOL1         0.0729
      10    C4      19.965611   18.187776   22.859550 C.3        1 MOL1        -0.1909
      11    H5      20.367549   17.219235   23.187249 H          1 MOL1         0.0729
      12    H6      19.031710   18.341435   23.417427 H          1 MOL1         0.0729
      13    C5      20.976800   19.298956   23.220504 C.3        1 MOL1        -0.1884
      14    H7      21.891880   19.175147   22.625048 H          1 MOL1         0.0729
      15    H8      20.562085   20.284249   22.970359 H          1 MOL1         0.0729
      16    C6      21.334425   19.271881   24.720049 C.3        1 MOL1        -0.2899
      17    H9      20.440302   19.421075   25.339477 H          1 MOL1         0.0741
      18    H10     21.788615   18.311983   24.998788 H          1 MOL1         0.0741
      19    H11     22.050632   20.068107   24.961215 H          1 MOL1         0.0741
@<TRIPOS>BOND
    1     1     2    1
    2     1     3    2
    3     1     4    1
    4     4     5    1
    5     4     6    1
    6     4     7    1
    7     7     8    1
    8     7     9    1
    9     7    10    1
   10    10    11    1
   11    10    12    1
   12    10    13    1
   13    13    14    1
   14    13    15    1
   15    13    16    1
   16    16    17    1
   17    16    18    1
   18    16    19    1
@<TRIPOS>SUBSTRUCTURE
       1 MOL1            1 RESIDUE      1      MOL     
@<SCITEGIC>MOL_PROPERTY
VConf Rank
SciTegic.value.IntegerValue
308

@<SCITEGIC>MOL_PROPERTY
Conf_Id
SciTegic.value.IntegerValue
33

@<SCITEGIC>MOL_PROPERTY
Delta U+W
SciTegic.value.DoubleValue
-0.526

@<SCITEGIC>MOL_PROPERTY
U+W
SciTegic.value.DoubleValue
-55.418

@<SCITEGIC>MOL_PROPERTY
Grad RMS
SciTegic.value.DoubleValue
0.000000

@<SCITEGIC>MOL_PROPERTY
U
SciTegic.value.DoubleValue
6.914

@<SCITEGIC>MOL_PROPERTY
W
SciTegic.value.DoubleValue
-62.332

@<SCITEGIC>MOL_PROPERTY
W(PB)
SciTegic.value.DoubleValue
-64.421

@<SCITEGIC>MOL_PROPERTY
W(SA)
SciTegic.value.DoubleValue
2.090

@<SCITEGIC>MOL_PROPERTY
Valence
SciTegic.value.DoubleValue
7.196

@<SCITEGIC>MOL_PROPERTY
Coulomb
SciTegic.value.DoubleValue
-1.020

@<SCITEGIC>MOL_PROPERTY
VdW
SciTegic.value.DoubleValue
0.738

@<SCITEGIC>MOL_PROPERTY
VdW6
SciTegic.value.DoubleValue
-6.010

@<SCITEGIC>MOL_PROPERTY
VdW12
SciTegic.value.DoubleValue
6.748

@<SCITEGIC>MOL_PROPERTY
Bond
SciTegic.value.DoubleValue
0.126

@<SCITEGIC>MOL_PROPERTY
Angle
SciTegic.value.DoubleValue
2.499

@<SCITEGIC>MOL_PROPERTY
Pdih
SciTegic.value.DoubleValue
4.570

@<SCITEGIC>MOL_PROPERTY
Idih
SciTegic.value.DoubleValue
0.001

@<SCITEGIC>MOL_PROPERTY
Tether
SciTegic.value.DoubleValue
0.000

@<TRIPOS>MOLECULE
guest-7_confgen4.mol2 : confsearch ligand conformer 309
          19          18           1
SMALL
USER_CHARGES
 
@<TRIPOS>ATOM
       1    C1      21.536858   21.665505   22.052079 C.2        1 MOL1         0.6115
       2    O1      21.269348   22.237189   21.013891 O.co2      1 MOL1        -0.6776
       3    O2      21.775787   22.241636   23.094783 O.co2      1 MOL1        -0.6776
       4    C2      21.556629   20.141002   22.050649 C.3        1 MOL1        -0.2013
       5    H1      22.312021   19.809551   22.773285 H          1 MOL1         0.0727
       6    H2      21.886186   19.805123   21.060041 H          1 MOL1         0.0727
       7    C3      20.179720   19.520557   22.393592 C.3        1 MOL1        -0.1910
       8    H3      19.859220   19.873581   23.383488 H          1 MOL1         0.0729
       9    H4      19.437326   19.880754   21.669211 H          1 MOL1         0.0729
      10    C4      20.228182   17.975188   22.381465 C.3        1 MOL1        -0.1909
      11    H5      21.024775   17.637143   23.058339 H          1 MOL1         0.0729
      12    H6      20.501057   17.620922   21.377951 H          1 MOL1         0.0729
      13    C5      18.899794   17.315924   22.818894 C.3        1 MOL1        -0.1884
      14    H7      19.053682   16.230805   22.896859 H          1 MOL1         0.0729
      15    H8      18.626330   17.663597   23.824711 H          1 MOL1         0.0729
      16    C6      17.734358   17.583443   21.842143 C.3        1 MOL1        -0.2899
      17    H9      17.996083   17.270380   20.823001 H          1 MOL1         0.0741
      18    H10     16.840937   17.024089   22.148514 H          1 MOL1         0.0741
      19    H11     17.467696   18.647426   21.818167 H          1 MOL1         0.0741
@<TRIPOS>BOND
    1     1     2    1
    2     1     3    2
    3     1     4    1
    4     4     5    1
    5     4     6    1
    6     4     7    1
    7     7     8    1
    8     7     9    1
    9     7    10    1
   10    10    11    1
   11    10    12    1
   12    10    13    1
   13    13    14    1
   14    13    15    1
   15    13    16    1
   16    16    17    1
   17    16    18    1
   18    16    19    1
@<TRIPOS>SUBSTRUCTURE
       1 MOL1            1 RESIDUE      1      MOL     
@<SCITEGIC>MOL_PROPERTY
VConf Rank
SciTegic.value.IntegerValue
309

@<SCITEGIC>MOL_PROPERTY
Conf_Id
SciTegic.value.IntegerValue
42

@<SCITEGIC>MOL_PROPERTY
Delta U+W
SciTegic.value.DoubleValue
-0.344

@<SCITEGIC>MOL_PROPERTY
U+W
SciTegic.value.DoubleValue
-55.236

@<SCITEGIC>MOL_PROPERTY
Grad RMS
SciTegic.value.DoubleValue
0.000000

@<SCITEGIC>MOL_PROPERTY
U
SciTegic.value.DoubleValue
7.244

@<SCITEGIC>MOL_PROPERTY
W
SciTegic.value.DoubleValue
-62.479

@<SCITEGIC>MOL_PROPERTY
W(PB)
SciTegic.value.DoubleValue
-64.610

@<SCITEGIC>MOL_PROPERTY
W(SA)
SciTegic.value.DoubleValue
2.130

@<SCITEGIC>MOL_PROPERTY
Valence
SciTegic.value.DoubleValue
7.174

@<SCITEGIC>MOL_PROPERTY
Coulomb
SciTegic.value.DoubleValue
-0.669

@<SCITEGIC>MOL_PROPERTY
VdW
SciTegic.value.DoubleValue
0.739

@<SCITEGIC>MOL_PROPERTY
VdW6
SciTegic.value.DoubleValue
-5.969

@<SCITEGIC>MOL_PROPERTY
VdW12
SciTegic.value.DoubleValue
6.708

@<SCITEGIC>MOL_PROPERTY
Bond
SciTegic.value.DoubleValue
0.116

@<SCITEGIC>MOL_PROPERTY
Angle
SciTegic.value.DoubleValue
2.481

@<SCITEGIC>MOL_PROPERTY
Pdih
SciTegic.value.DoubleValue
4.576

@<SCITEGIC>MOL_PROPERTY
Idih
SciTegic.value.DoubleValue
0.000

@<SCITEGIC>MOL_PROPERTY
Tether
SciTegic.value.DoubleValue
0.000

@<TRIPOS>MOLECULE
guest-7_confgen4.mol2 : confsearch ligand conformer 310
          19          18           1
SMALL
USER_CHARGES
 
@<TRIPOS>ATOM
       1    C1      20.282692   19.838024   19.204310 C.2        1 MOL1         0.6115
       2    O1      21.336958   19.454267   18.737969 O.co2      1 MOL1        -0.6776
       3    O2      19.753120   20.887145   18.895856 O.co2      1 MOL1        -0.6776
       4    C2      19.595528   18.963717   20.247331 C.3        1 MOL1        -0.2013
       5    H1      19.821794   17.915748   20.016480 H          1 MOL1         0.0727
       6    H2      18.511851   19.092823   20.139378 H          1 MOL1         0.0727
       7    C3      20.032399   19.297426   21.695166 C.3        1 MOL1        -0.1910
       8    H3      21.121204   19.179432   21.773915 H          1 MOL1         0.0729
       9    H4      19.808017   20.351780   21.907840 H          1 MOL1         0.0729
      10    C4      19.323425   18.394145   22.730588 C.3        1 MOL1        -0.1909
      11    H5      19.587248   17.343423   22.547869 H          1 MOL1         0.0729
      12    H6      18.236833   18.471695   22.588124 H          1 MOL1         0.0729
      13    C5      19.653977   18.762922   24.195282 C.3        1 MOL1        -0.1884
      14    H7      19.386220   19.811826   24.383525 H          1 MOL1         0.0729
      15    H8      19.024416   18.157537   24.861920 H          1 MOL1         0.0729
      16    C6      21.135084   18.530669   24.564375 C.3        1 MOL1        -0.2899
      17    H9      21.798003   19.200037   24.002031 H          1 MOL1         0.0741
      18    H10     21.298758   18.722006   25.632805 H          1 MOL1         0.0741
      19    H11     21.433990   17.494930   24.356875 H          1 MOL1         0.0741
@<TRIPOS>BOND
    1     1     2    1
    2     1     3    2
    3     1     4    1
    4     4     5    1
    5     4     6    1
    6     4     7    1
    7     7     8    1
    8     7     9    1
    9     7    10    1
   10    10    11    1
   11    10    12    1
   12    10    13    1
   13    13    14    1
   14    13    15    1
   15    13    16    1
   16    16    17    1
   17    16    18    1
   18    16    19    1
@<TRIPOS>SUBSTRUCTURE
       1 MOL1            1 RESIDUE      1      MOL     
@<SCITEGIC>MOL_PROPERTY
VConf Rank
SciTegic.value.IntegerValue
310

@<SCITEGIC>MOL_PROPERTY
Conf_Id
SciTegic.value.IntegerValue
41

@<SCITEGIC>MOL_PROPERTY
Delta U+W
SciTegic.value.DoubleValue
-0.361

@<SCITEGIC>MOL_PROPERTY
U+W
SciTegic.value.DoubleValue
-55.252

@<SCITEGIC>MOL_PROPERTY
Grad RMS
SciTegic.value.DoubleValue
0.000000

@<SCITEGIC>MOL_PROPERTY
U
SciTegic.value.DoubleValue
7.244

@<SCITEGIC>MOL_PROPERTY
W
SciTegic.value.DoubleValue
-62.496

@<SCITEGIC>MOL_PROPERTY
W(PB)
SciTegic.value.DoubleValue
-64.596

@<SCITEGIC>MOL_PROPERTY
W(SA)
SciTegic.value.DoubleValue
2.099

@<SCITEGIC>MOL_PROPERTY
Valence
SciTegic.value.DoubleValue
7.174

@<SCITEGIC>MOL_PROPERTY
Coulomb
SciTegic.value.DoubleValue
-0.669

@<SCITEGIC>MOL_PROPERTY
VdW
SciTegic.value.DoubleValue
0.739

@<SCITEGIC>MOL_PROPERTY
VdW6
SciTegic.value.DoubleValue
-5.969

@<SCITEGIC>MOL_PROPERTY
VdW12
SciTegic.value.DoubleValue
6.708

@<SCITEGIC>MOL_PROPERTY
Bond
SciTegic.value.DoubleValue
0.116

@<SCITEGIC>MOL_PROPERTY
Angle
SciTegic.value.DoubleValue
2.481

@<SCITEGIC>MOL_PROPERTY
Pdih
SciTegic.value.DoubleValue
4.576

@<SCITEGIC>MOL_PROPERTY
Idih
SciTegic.value.DoubleValue
0.000

@<SCITEGIC>MOL_PROPERTY
Tether
SciTegic.value.DoubleValue
0.000

@<TRIPOS>MOLECULE
guest-7_confgen4.mol2 : confsearch ligand conformer 311
          19          18           1
SMALL
USER_CHARGES
 
@<TRIPOS>ATOM
       1    C1      20.192343   20.832378   20.186345 C.2        1 MOL1         0.6115
       2    O1      19.585297   20.251963   19.308185 O.co2      1 MOL1        -0.6776
       3    O2      20.003717   21.997262   20.476422 O.co2      1 MOL1        -0.6776
       4    C2      21.265875   20.064931   20.953090 C.3        1 MOL1        -0.2013
       5    H1      22.153700   20.706200   21.004603 H          1 MOL1         0.0727
       6    H2      21.547386   19.179485   20.370232 H          1 MOL1         0.0727
       7    C3      20.843285   19.650000   22.386387 C.3        1 MOL1        -0.1910
       8    H3      21.714899   19.231657   22.907744 H          1 MOL1         0.0729
       9    H4      20.537108   20.543288   22.948457 H          1 MOL1         0.0729
      10    C4      19.699752   18.610954   22.391447 C.3        1 MOL1        -0.1909
      11    H5      20.005687   17.725505   21.817500 H          1 MOL1         0.0729
      12    H6      18.817767   19.028513   21.886304 H          1 MOL1         0.0729
      13    C5      19.317352   18.189393   23.825553 C.3        1 MOL1        -0.1884
      14    H7      20.194864   17.767000   24.334461 H          1 MOL1         0.0729
      15    H8      19.008572   19.072975   24.401237 H          1 MOL1         0.0729
      16    C6      18.176267   17.152621   23.827230 C.3        1 MOL1        -0.2899
      17    H9      18.469815   16.244704   23.284162 H          1 MOL1         0.0741
      18    H10     17.916838   16.864459   24.854238 H          1 MOL1         0.0741
      19    H11     17.274696   17.560320   23.351420 H          1 MOL1         0.0741
@<TRIPOS>BOND
    1     1     2    1
    2     1     3    2
    3     1     4    1
    4     4     5    1
    5     4     6    1
    6     4     7    1
    7     7     8    1
    8     7     9    1
    9     7    10    1
   10    10    11    1
   11    10    12    1
   12    10    13    1
   13    13    14    1
   14    13    15    1
   15    13    16    1
   16    16    17    1
   17    16    18    1
   18    16    19    1
@<TRIPOS>SUBSTRUCTURE
       1 MOL1            1 RESIDUE      1      MOL     
@<SCITEGIC>MOL_PROPERTY
VConf Rank
SciTegic.value.IntegerValue
311

@<SCITEGIC>MOL_PROPERTY
Conf_Id
SciTegic.value.IntegerValue
36

@<SCITEGIC>MOL_PROPERTY
Delta U+W
SciTegic.value.DoubleValue
-0.079

@<SCITEGIC>MOL_PROPERTY
U+W
SciTegic.value.DoubleValue
-54.971

@<SCITEGIC>MOL_PROPERTY
Grad RMS
SciTegic.value.DoubleValue
0.000000

@<SCITEGIC>MOL_PROPERTY
U
SciTegic.value.DoubleValue
8.266

@<SCITEGIC>MOL_PROPERTY
W
SciTegic.value.DoubleValue
-63.237

@<SCITEGIC>MOL_PROPERTY
W(PB)
SciTegic.value.DoubleValue
-65.340

@<SCITEGIC>MOL_PROPERTY
W(SA)
SciTegic.value.DoubleValue
2.103

@<SCITEGIC>MOL_PROPERTY
Valence
SciTegic.value.DoubleValue
6.935

@<SCITEGIC>MOL_PROPERTY
Coulomb
SciTegic.value.DoubleValue
0.874

@<SCITEGIC>MOL_PROPERTY
VdW
SciTegic.value.DoubleValue
0.457

@<SCITEGIC>MOL_PROPERTY
VdW6
SciTegic.value.DoubleValue
-6.205

@<SCITEGIC>MOL_PROPERTY
VdW12
SciTegic.value.DoubleValue
6.662

@<SCITEGIC>MOL_PROPERTY
Bond
SciTegic.value.DoubleValue
0.107

@<SCITEGIC>MOL_PROPERTY
Angle
SciTegic.value.DoubleValue
2.420

@<SCITEGIC>MOL_PROPERTY
Pdih
SciTegic.value.DoubleValue
4.407

@<SCITEGIC>MOL_PROPERTY
Idih
SciTegic.value.DoubleValue
0.001

@<SCITEGIC>MOL_PROPERTY
Tether
SciTegic.value.DoubleValue
0.000

@<TRIPOS>MOLECULE
guest-7_confgen4.mol2 : confsearch ligand conformer 312
          19          18           1
SMALL
USER_CHARGES
 
@<TRIPOS>ATOM
       1    C1      19.868086   16.144980   22.833710 C.2        1 MOL1         0.6115
       2    O1      19.005894   16.165016   23.689734 O.co2      1 MOL1        -0.6776
       3    O2      20.917799   15.544203   22.951399 O.co2      1 MOL1        -0.6776
       4    C2      19.611798   16.896791   21.530467 C.3        1 MOL1        -0.2013
       5    H1      18.534958   17.084533   21.440147 H          1 MOL1         0.0727
       6    H2      19.887395   16.228054   20.706485 H          1 MOL1         0.0727
       7    C3      20.399414   18.226665   21.403234 C.3        1 MOL1        -0.1910
       8    H3      21.473186   18.026656   21.524230 H          1 MOL1         0.0729
       9    H4      20.264304   18.625071   20.388565 H          1 MOL1         0.0729
      10    C4      19.945374   19.286935   22.431332 C.3        1 MOL1        -0.1909
      11    H5      20.093387   18.902258   23.449928 H          1 MOL1         0.0729
      12    H6      18.868989   19.473763   22.315056 H          1 MOL1         0.0729
      13    C5      20.719683   20.611219   22.266041 C.3        1 MOL1        -0.1884
      14    H7      21.796617   20.427608   22.384255 H          1 MOL1         0.0729
      15    H8      20.571882   21.003023   21.250130 H          1 MOL1         0.0729
      16    C6      20.264380   21.666978   23.293199 C.3        1 MOL1        -0.2899
      17    H9      20.430106   21.313409   24.319340 H          1 MOL1         0.0741
      18    H10     20.825100   22.601557   23.161893 H          1 MOL1         0.0741
      19    H11     19.196334   21.893098   23.176784 H          1 MOL1         0.0741
@<TRIPOS>BOND
    1     1     2    1
    2     1     3    2
    3     1     4    1
    4     4     5    1
    5     4     6    1
    6     4     7    1
    7     7     8    1
    8     7     9    1
    9     7    10    1
   10    10    11    1
   11    10    12    1
   12    10    13    1
   13    13    14    1
   14    13    15    1
   15    13    16    1
   16    16    17    1
   17    16    18    1
   18    16    19    1
@<TRIPOS>SUBSTRUCTURE
       1 MOL1            1 RESIDUE      1      MOL     
@<SCITEGIC>MOL_PROPERTY
VConf Rank
SciTegic.value.IntegerValue
312

@<SCITEGIC>MOL_PROPERTY
Conf_Id
SciTegic.value.IntegerValue
35

@<SCITEGIC>MOL_PROPERTY
Delta U+W
SciTegic.value.DoubleValue
-0.030

@<SCITEGIC>MOL_PROPERTY
U+W
SciTegic.value.DoubleValue
-54.921

@<SCITEGIC>MOL_PROPERTY
Grad RMS
SciTegic.value.DoubleValue
0.000000

@<SCITEGIC>MOL_PROPERTY
U
SciTegic.value.DoubleValue
8.267

@<SCITEGIC>MOL_PROPERTY
W
SciTegic.value.DoubleValue
-63.188

@<SCITEGIC>MOL_PROPERTY
W(PB)
SciTegic.value.DoubleValue
-65.294

@<SCITEGIC>MOL_PROPERTY
W(SA)
SciTegic.value.DoubleValue
2.106

@<SCITEGIC>MOL_PROPERTY
Valence
SciTegic.value.DoubleValue
6.935

@<SCITEGIC>MOL_PROPERTY
Coulomb
SciTegic.value.DoubleValue
0.875

@<SCITEGIC>MOL_PROPERTY
VdW
SciTegic.value.DoubleValue
0.457

@<SCITEGIC>MOL_PROPERTY
VdW6
SciTegic.value.DoubleValue
-6.205

@<SCITEGIC>MOL_PROPERTY
VdW12
SciTegic.value.DoubleValue
6.662

@<SCITEGIC>MOL_PROPERTY
Bond
SciTegic.value.DoubleValue
0.107

@<SCITEGIC>MOL_PROPERTY
Angle
SciTegic.value.DoubleValue
2.420

@<SCITEGIC>MOL_PROPERTY
Pdih
SciTegic.value.DoubleValue
4.407

@<SCITEGIC>MOL_PROPERTY
Idih
SciTegic.value.DoubleValue
0.001

@<SCITEGIC>MOL_PROPERTY
Tether
SciTegic.value.DoubleValue
0.000

@<TRIPOS>MOLECULE
guest-7_confgen4.mol2 : confsearch ligand conformer 313
          19          18           1
SMALL
USER_CHARGES
 
@<TRIPOS>ATOM
       1    C1      22.617112   18.770215   20.844816 C.2        1 MOL1         0.6115
       2    O1      22.910652   17.650259   20.475709 O.co2      1 MOL1        -0.6776
       3    O2      23.391862   19.515125   21.411841 O.co2      1 MOL1        -0.6776
       4    C2      21.204924   19.274537   20.560448 C.3        1 MOL1        -0.2013
       5    H1      20.971952   19.024771   19.518606 H          1 MOL1         0.0727
       6    H2      21.202088   20.368956   20.632546 H          1 MOL1         0.0727
       7    C3      20.118934   18.674415   21.491147 C.3        1 MOL1        -0.1910
       8    H3      19.132867   18.973430   21.113505 H          1 MOL1         0.0729
       9    H4      20.160068   17.577668   21.438392 H          1 MOL1         0.0729
      10    C4      20.274968   19.135267   22.960144 C.3        1 MOL1        -0.1909
      11    H5      20.195111   20.229514   23.015510 H          1 MOL1         0.0729
      12    H6      21.283572   18.880251   23.313287 H          1 MOL1         0.0729
      13    C5      19.246015   18.491824   23.918302 C.3        1 MOL1        -0.1884
      14    H7      19.324983   17.397106   23.866665 H          1 MOL1         0.0729
      15    H8      19.501454   18.772920   24.949300 H          1 MOL1         0.0729
      16    C6      17.790942   18.922182   23.632695 C.3        1 MOL1        -0.2899
      17    H9      17.449840   18.559243   22.655174 H          1 MOL1         0.0741
      18    H10     17.113650   18.512752   24.393339 H          1 MOL1         0.0741
      19    H11     17.694434   20.015620   23.647771 H          1 MOL1         0.0741
@<TRIPOS>BOND
    1     1     2    1
    2     1     3    2
    3     1     4    1
    4     4     5    1
    5     4     6    1
    6     4     7    1
    7     7     8    1
    8     7     9    1
    9     7    10    1
   10    10    11    1
   11    10    12    1
   12    10    13    1
   13    13    14    1
   14    13    15    1
   15    13    16    1
   16    16    17    1
   17    16    18    1
   18    16    19    1
@<TRIPOS>SUBSTRUCTURE
       1 MOL1            1 RESIDUE      1      MOL     
@<SCITEGIC>MOL_PROPERTY
VConf Rank
SciTegic.value.IntegerValue
313

@<SCITEGIC>MOL_PROPERTY
Conf_Id
SciTegic.value.IntegerValue
74

@<SCITEGIC>MOL_PROPERTY
Delta U+W
SciTegic.value.DoubleValue
0.797

@<SCITEGIC>MOL_PROPERTY
U+W
SciTegic.value.DoubleValue
-54.095

@<SCITEGIC>MOL_PROPERTY
Grad RMS
SciTegic.value.DoubleValue
0.000000

@<SCITEGIC>MOL_PROPERTY
U
SciTegic.value.DoubleValue
8.869

@<SCITEGIC>MOL_PROPERTY
W
SciTegic.value.DoubleValue
-62.964

@<SCITEGIC>MOL_PROPERTY
W(PB)
SciTegic.value.DoubleValue
-65.046

@<SCITEGIC>MOL_PROPERTY
W(SA)
SciTegic.value.DoubleValue
2.082

@<SCITEGIC>MOL_PROPERTY
Valence
SciTegic.value.DoubleValue
7.469

@<SCITEGIC>MOL_PROPERTY
Coulomb
SciTegic.value.DoubleValue
0.762

@<SCITEGIC>MOL_PROPERTY
VdW
SciTegic.value.DoubleValue
0.639

@<SCITEGIC>MOL_PROPERTY
VdW6
SciTegic.value.DoubleValue
-6.782

@<SCITEGIC>MOL_PROPERTY
VdW12
SciTegic.value.DoubleValue
7.421

@<SCITEGIC>MOL_PROPERTY
Bond
SciTegic.value.DoubleValue
0.141

@<SCITEGIC>MOL_PROPERTY
Angle
SciTegic.value.DoubleValue
2.667

@<SCITEGIC>MOL_PROPERTY
Pdih
SciTegic.value.DoubleValue
4.660

@<SCITEGIC>MOL_PROPERTY
Idih
SciTegic.value.DoubleValue
0.001

@<SCITEGIC>MOL_PROPERTY
Tether
SciTegic.value.DoubleValue
0.000

@<TRIPOS>MOLECULE
guest-7_confgen4.mol2 : confsearch ligand conformer 314
          19          18           1
SMALL
USER_CHARGES
 
@<TRIPOS>ATOM
       1    C1      19.269830   19.939955   24.957896 C.2        1 MOL1         0.6115
       2    O1      18.568770   20.885370   25.259773 O.co2      1 MOL1        -0.6776
       3    O2      19.492102   19.004025   25.700157 O.co2      1 MOL1        -0.6776
       4    C2      19.888796   19.918431   23.564829 C.3        1 MOL1        -0.2013
       5    H1      20.855279   19.406697   23.636928 H          1 MOL1         0.0727
       6    H2      20.089401   20.953807   23.264648 H          1 MOL1         0.0727
       7    C3      18.982880   19.223279   22.515700 C.3        1 MOL1        -0.1910
       8    H3      18.820158   18.177016   22.806618 H          1 MOL1         0.0729
       9    H4      17.993393   19.700580   22.532990 H          1 MOL1         0.0729
      10    C4      19.539734   19.295558   21.071603 C.3        1 MOL1        -0.1909
      11    H5      19.597638   20.348848   20.764972 H          1 MOL1         0.0729
      12    H6      18.818970   18.821157   20.391733 H          1 MOL1         0.0729
      13    C5      20.927527   18.640093   20.865947 C.3        1 MOL1        -0.1884
      14    H7      21.221534   18.766718   19.814945 H          1 MOL1         0.0729
      15    H8      21.687263   19.166563   21.458603 H          1 MOL1         0.0729
      16    C6      20.949913   17.135167   21.209592 C.3        1 MOL1        -0.2899
      17    H9      20.181640   16.591631   20.644475 H          1 MOL1         0.0741
      18    H10     21.925805   16.698726   20.960655 H          1 MOL1         0.0741
      19    H11     20.774154   16.967945   22.279831 H          1 MOL1         0.0741
@<TRIPOS>BOND
    1     1     2    1
    2     1     3    2
    3     1     4    1
    4     4     5    1
    5     4     6    1
    6     4     7    1
    7     7     8    1
    8     7     9    1
    9     7    10    1
   10    10    11    1
   11    10    12    1
   12    10    13    1
   13    13    14    1
   14    13    15    1
   15    13    16    1
   16    16    17    1
   17    16    18    1
   18    16    19    1
@<TRIPOS>SUBSTRUCTURE
       1 MOL1            1 RESIDUE      1      MOL     
@<SCITEGIC>MOL_PROPERTY
VConf Rank
SciTegic.value.IntegerValue
314

@<SCITEGIC>MOL_PROPERTY
Conf_Id
SciTegic.value.IntegerValue
67

@<SCITEGIC>MOL_PROPERTY
Delta U+W
SciTegic.value.DoubleValue
0.308

@<SCITEGIC>MOL_PROPERTY
U+W
SciTegic.value.DoubleValue
-54.583

@<SCITEGIC>MOL_PROPERTY
Grad RMS
SciTegic.value.DoubleValue
0.000000

@<SCITEGIC>MOL_PROPERTY
U
SciTegic.value.DoubleValue
8.219

@<SCITEGIC>MOL_PROPERTY
W
SciTegic.value.DoubleValue
-62.802

@<SCITEGIC>MOL_PROPERTY
W(PB)
SciTegic.value.DoubleValue
-64.859

@<SCITEGIC>MOL_PROPERTY
W(SA)
SciTegic.value.DoubleValue
2.057

@<SCITEGIC>MOL_PROPERTY
Valence
SciTegic.value.DoubleValue
7.609

@<SCITEGIC>MOL_PROPERTY
Coulomb
SciTegic.value.DoubleValue
-0.089

@<SCITEGIC>MOL_PROPERTY
VdW
SciTegic.value.DoubleValue
0.699

@<SCITEGIC>MOL_PROPERTY
VdW6
SciTegic.value.DoubleValue
-6.924

@<SCITEGIC>MOL_PROPERTY
VdW12
SciTegic.value.DoubleValue
7.623

@<SCITEGIC>MOL_PROPERTY
Bond
SciTegic.value.DoubleValue
0.163

@<SCITEGIC>MOL_PROPERTY
Angle
SciTegic.value.DoubleValue
2.870

@<SCITEGIC>MOL_PROPERTY
Pdih
SciTegic.value.DoubleValue
4.576

@<SCITEGIC>MOL_PROPERTY
Idih
SciTegic.value.DoubleValue
0.001

@<SCITEGIC>MOL_PROPERTY
Tether
SciTegic.value.DoubleValue
0.000

@<TRIPOS>MOLECULE
guest-7_confgen4.mol2 : confsearch ligand conformer 315
          19          18           1
SMALL
USER_CHARGES
 
@<TRIPOS>ATOM
       1    C1      17.874049   16.903906   22.089890 C.2        1 MOL1         0.6115
       2    O1      17.953050   15.696237   22.198128 O.co2      1 MOL1        -0.6776
       3    O2      16.980955   17.467828   21.489308 O.co2      1 MOL1        -0.6776
       4    C2      18.965961   17.756730   22.726001 C.3        1 MOL1        -0.2013
       5    H1      19.319698   17.241569   23.627020 H          1 MOL1         0.0727
       6    H2      18.508400   18.699248   23.047649 H          1 MOL1         0.0727
       7    C3      20.152066   18.028751   21.764883 C.3        1 MOL1        -0.1910
       8    H3      20.529171   17.067416   21.389616 H          1 MOL1         0.0729
       9    H4      19.792912   18.578230   20.884622 H          1 MOL1         0.0729
      10    C4      21.324925   18.792710   22.429330 C.3        1 MOL1        -0.1909
      11    H5      22.134735   18.902798   21.695254 H          1 MOL1         0.0729
      12    H6      21.734496   18.178116   23.242546 H          1 MOL1         0.0729
      13    C5      20.967252   20.189992   22.992867 C.3        1 MOL1        -0.1884
      14    H7      20.233025   20.095377   23.803772 H          1 MOL1         0.0729
      15    H8      21.867848   20.624072   23.448479 H          1 MOL1         0.0729
      16    C6      20.435206   21.164169   21.919878 C.3        1 MOL1        -0.2899
      17    H9      19.471864   20.826366   21.517225 H          1 MOL1         0.0741
      18    H10     20.284426   22.163183   22.348891 H          1 MOL1         0.0741
      19    H11     21.144224   21.256652   21.086950 H          1 MOL1         0.0741
@<TRIPOS>BOND
    1     1     2    1
    2     1     3    2
    3     1     4    1
    4     4     5    1
    5     4     6    1
    6     4     7    1
    7     7     8    1
    8     7     9    1
    9     7    10    1
   10    10    11    1
   11    10    12    1
   12    10    13    1
   13    13    14    1
   14    13    15    1
   15    13    16    1
   16    16    17    1
   17    16    18    1
   18    16    19    1
@<TRIPOS>SUBSTRUCTURE
       1 MOL1            1 RESIDUE      1      MOL     
@<SCITEGIC>MOL_PROPERTY
VConf Rank
SciTegic.value.IntegerValue
315

@<SCITEGIC>MOL_PROPERTY
Conf_Id
SciTegic.value.IntegerValue
21

@<SCITEGIC>MOL_PROPERTY
Delta U+W
SciTegic.value.DoubleValue
0.319

@<SCITEGIC>MOL_PROPERTY
U+W
SciTegic.value.DoubleValue
-54.572

@<SCITEGIC>MOL_PROPERTY
Grad RMS
SciTegic.value.DoubleValue
0.000000

@<SCITEGIC>MOL_PROPERTY
U
SciTegic.value.DoubleValue
8.220

@<SCITEGIC>MOL_PROPERTY
W
SciTegic.value.DoubleValue
-62.792

@<SCITEGIC>MOL_PROPERTY
W(PB)
SciTegic.value.DoubleValue
-64.830

@<SCITEGIC>MOL_PROPERTY
W(SA)
SciTegic.value.DoubleValue
2.038

@<SCITEGIC>MOL_PROPERTY
Valence
SciTegic.value.DoubleValue
7.609

@<SCITEGIC>MOL_PROPERTY
Coulomb
SciTegic.value.DoubleValue
-0.088

@<SCITEGIC>MOL_PROPERTY
VdW
SciTegic.value.DoubleValue
0.699

@<SCITEGIC>MOL_PROPERTY
VdW6
SciTegic.value.DoubleValue
-6.924

@<SCITEGIC>MOL_PROPERTY
VdW12
SciTegic.value.DoubleValue
7.623

@<SCITEGIC>MOL_PROPERTY
Bond
SciTegic.value.DoubleValue
0.163

@<SCITEGIC>MOL_PROPERTY
Angle
SciTegic.value.DoubleValue
2.870

@<SCITEGIC>MOL_PROPERTY
Pdih
SciTegic.value.DoubleValue
4.576

@<SCITEGIC>MOL_PROPERTY
Idih
SciTegic.value.DoubleValue
0.000

@<SCITEGIC>MOL_PROPERTY
Tether
SciTegic.value.DoubleValue
0.000

@<TRIPOS>MOLECULE
guest-7_confgen4.mol2 : confsearch ligand conformer 316
          19          18           1
SMALL
USER_CHARGES
 
@<TRIPOS>ATOM
       1    C1      17.164844   19.511782   22.589339 C.2        1 MOL1         0.6115
       2    O1      16.576149   20.191597   23.406485 O.co2      1 MOL1        -0.6776
       3    O2      16.723101   19.252023   21.487685 O.co2      1 MOL1        -0.6776
       4    C2      18.540957   18.970749   22.960390 C.3        1 MOL1        -0.2013
       5    H1      18.670135   18.007786   22.456567 H          1 MOL1         0.0727
       6    H2      18.546000   18.770035   24.038385 H          1 MOL1         0.0727
       7    C3      19.689120   19.949146   22.596998 C.3        1 MOL1        -0.1910
       8    H3      19.650229   20.197580   21.527395 H          1 MOL1         0.0729
       9    H4      19.513789   20.890470   23.136038 H          1 MOL1         0.0729
      10    C4      21.095249   19.417120   22.973420 C.3        1 MOL1        -0.1909
      11    H5      21.030339   18.753720   23.846681 H          1 MOL1         0.0729
      12    H6      21.709088   20.270747   23.292005 H          1 MOL1         0.0729
      13    C5      21.847827   18.707628   21.820963 C.3        1 MOL1        -0.1884
      14    H7      21.986478   19.407838   20.985655 H          1 MOL1         0.0729
      15    H8      22.855308   18.445536   22.172367 H          1 MOL1         0.0729
      16    C6      21.156191   17.428348   21.306398 C.3        1 MOL1        -0.2899
      17    H9      21.801108   16.906379   20.587758 H          1 MOL1         0.0741
      18    H10     20.939991   16.737569   22.131661 H          1 MOL1         0.0741
      19    H11     20.215971   17.666225   20.793369 H          1 MOL1         0.0741
@<TRIPOS>BOND
    1     1     2    1
    2     1     3    2
    3     1     4    1
    4     4     5    1
    5     4     6    1
    6     4     7    1
    7     7     8    1
    8     7     9    1
    9     7    10    1
   10    10    11    1
   11    10    12    1
   12    10    13    1
   13    13    14    1
   14    13    15    1
   15    13    16    1
   16    16    17    1
   17    16    18    1
   18    16    19    1
@<TRIPOS>SUBSTRUCTURE
       1 MOL1            1 RESIDUE      1      MOL     
@<SCITEGIC>MOL_PROPERTY
VConf Rank
SciTegic.value.IntegerValue
316

@<SCITEGIC>MOL_PROPERTY
Conf_Id
SciTegic.value.IntegerValue
24

@<SCITEGIC>MOL_PROPERTY
Delta U+W
SciTegic.value.DoubleValue
2.477

@<SCITEGIC>MOL_PROPERTY
U+W
SciTegic.value.DoubleValue
-52.414

@<SCITEGIC>MOL_PROPERTY
Grad RMS
SciTegic.value.DoubleValue
0.000000

@<SCITEGIC>MOL_PROPERTY
U
SciTegic.value.DoubleValue
10.422

@<SCITEGIC>MOL_PROPERTY
W
SciTegic.value.DoubleValue
-62.836

@<SCITEGIC>MOL_PROPERTY
W(PB)
SciTegic.value.DoubleValue
-64.906

@<SCITEGIC>MOL_PROPERTY
W(SA)
SciTegic.value.DoubleValue
2.070

@<SCITEGIC>MOL_PROPERTY
Valence
SciTegic.value.DoubleValue
9.628

@<SCITEGIC>MOL_PROPERTY
Coulomb
SciTegic.value.DoubleValue
0.101

@<SCITEGIC>MOL_PROPERTY
VdW
SciTegic.value.DoubleValue
0.693

@<SCITEGIC>MOL_PROPERTY
VdW6
SciTegic.value.DoubleValue
-6.927

@<SCITEGIC>MOL_PROPERTY
VdW12
SciTegic.value.DoubleValue
7.620

@<SCITEGIC>MOL_PROPERTY
Bond
SciTegic.value.DoubleValue
0.173

@<SCITEGIC>MOL_PROPERTY
Angle
SciTegic.value.DoubleValue
2.989

@<SCITEGIC>MOL_PROPERTY
Pdih
SciTegic.value.DoubleValue
6.465

@<SCITEGIC>MOL_PROPERTY
Idih
SciTegic.value.DoubleValue
0.001

@<SCITEGIC>MOL_PROPERTY
Tether
SciTegic.value.DoubleValue
0.000

@<TRIPOS>MOLECULE
guest-7_confgen4.mol2 : confsearch ligand conformer 317
          19          18           1
SMALL
USER_CHARGES
 
@<TRIPOS>ATOM
       1    C1      18.112857   20.136142   20.820391 C.2        1 MOL1         0.6115
       2    O1      18.158515   19.280011   19.959203 O.co2      1 MOL1        -0.6776
       3    O2      17.115425   20.784317   21.069539 O.co2      1 MOL1        -0.6776
       4    C2      19.382240   20.435994   21.613479 C.3        1 MOL1        -0.2013
       5    H1      19.516592   21.523970   21.609880 H          1 MOL1         0.0727
       6    H2      20.235060   20.013195   21.072948 H          1 MOL1         0.0727
       7    C3      19.344107   19.928281   23.081713 C.3        1 MOL1        -0.1910
       8    H3      20.187175   20.351934   23.643839 H          1 MOL1         0.0729
       9    H4      18.435572   20.325902   23.554994 H          1 MOL1         0.0729
      10    C4      19.344808   18.383598   23.221112 C.3        1 MOL1        -0.1909
      11    H5      18.855463   17.918569   22.354454 H          1 MOL1         0.0729
      12    H6      18.725520   18.119710   24.089230 H          1 MOL1         0.0729
      13    C5      20.743344   17.755486   23.439012 C.3        1 MOL1        -0.1884
      14    H7      21.190259   18.159280   24.357935 H          1 MOL1         0.0729
      15    H8      20.617971   16.676901   23.606611 H          1 MOL1         0.0729
      16    C6      21.718263   17.961698   22.261487 C.3        1 MOL1        -0.2899
      17    H9      22.005047   19.016169   22.165555 H          1 MOL1         0.0741
      18    H10     22.637225   17.382182   22.417847 H          1 MOL1         0.0741
      19    H11     21.267363   17.634520   21.315374 H          1 MOL1         0.0741
@<TRIPOS>BOND
    1     1     2    1
    2     1     3    2
    3     1     4    1
    4     4     5    1
    5     4     6    1
    6     4     7    1
    7     7     8    1
    8     7     9    1
    9     7    10    1
   10    10    11    1
   11    10    12    1
   12    10    13    1
   13    13    14    1
   14    13    15    1
   15    13    16    1
   16    16    17    1
   17    16    18    1
   18    16    19    1
@<TRIPOS>SUBSTRUCTURE
       1 MOL1            1 RESIDUE      1      MOL     
@<SCITEGIC>MOL_PROPERTY
VConf Rank
SciTegic.value.IntegerValue
317

@<SCITEGIC>MOL_PROPERTY
Conf_Id
SciTegic.value.IntegerValue
4

@<SCITEGIC>MOL_PROPERTY
Delta U+W
SciTegic.value.DoubleValue
3.753

@<SCITEGIC>MOL_PROPERTY
U+W
SciTegic.value.DoubleValue
-51.138

@<SCITEGIC>MOL_PROPERTY
Grad RMS
SciTegic.value.DoubleValue
0.000000

@<SCITEGIC>MOL_PROPERTY
U
SciTegic.value.DoubleValue
12.334

@<SCITEGIC>MOL_PROPERTY
W
SciTegic.value.DoubleValue
-63.472

@<SCITEGIC>MOL_PROPERTY
W(PB)
SciTegic.value.DoubleValue
-65.500

@<SCITEGIC>MOL_PROPERTY
W(SA)
SciTegic.value.DoubleValue
2.028

@<SCITEGIC>MOL_PROPERTY
Valence
SciTegic.value.DoubleValue
9.984

@<SCITEGIC>MOL_PROPERTY
Coulomb
SciTegic.value.DoubleValue
1.767

@<SCITEGIC>MOL_PROPERTY
VdW
SciTegic.value.DoubleValue
0.583

@<SCITEGIC>MOL_PROPERTY
VdW6
SciTegic.value.DoubleValue
-7.767

@<SCITEGIC>MOL_PROPERTY
VdW12
SciTegic.value.DoubleValue
8.349

@<SCITEGIC>MOL_PROPERTY
Bond
SciTegic.value.DoubleValue
0.203

@<SCITEGIC>MOL_PROPERTY
Angle
SciTegic.value.DoubleValue
3.191

@<SCITEGIC>MOL_PROPERTY
Pdih
SciTegic.value.DoubleValue
6.589

@<SCITEGIC>MOL_PROPERTY
Idih
SciTegic.value.DoubleValue
0.001

@<SCITEGIC>MOL_PROPERTY
Tether
SciTegic.value.DoubleValue
0.000

@<TRIPOS>MOLECULE
guest-7_confgen4.mol2 : confsearch ligand conformer 318
          19          18           1
SMALL
USER_CHARGES
 
@<TRIPOS>ATOM
       1    C1      18.698858   19.593910   20.219271 C.2        1 MOL1         0.6115
       2    O1      17.524192   19.537633   19.912569 O.co2      1 MOL1        -0.6776
       3    O2      19.413746   20.542971   19.964493 O.co2      1 MOL1        -0.6776
       4    C2      19.313119   18.394760   20.936873 C.3        1 MOL1        -0.2013
       5    H1      20.402554   18.465660   20.857308 H          1 MOL1         0.0727
       6    H2      19.015628   17.497889   20.381106 H          1 MOL1         0.0727
       7    C3      18.869460   18.250828   22.419232 C.3        1 MOL1        -0.1910
       8    H3      17.770927   18.253683   22.446679 H          1 MOL1         0.0729
       9    H4      19.178316   17.270580   22.806472 H          1 MOL1         0.0729
      10    C4      19.395313   19.372304   23.352636 C.3        1 MOL1        -0.1909
      11    H5      18.624087   19.576332   24.107861 H          1 MOL1         0.0729
      12    H6      19.520658   20.310327   22.794777 H          1 MOL1         0.0729
      13    C5      20.703442   19.025604   24.105298 C.3        1 MOL1        -0.1884
      14    H7      20.937221   19.849147   24.793977 H          1 MOL1         0.0729
      15    H8      20.544510   18.137028   24.731697 H          1 MOL1         0.0729
      16    C6      21.918779   18.792661   23.184292 C.3        1 MOL1        -0.2899
      17    H9      22.056618   19.635256   22.493988 H          1 MOL1         0.0741
      18    H10     22.835827   18.686802   23.778089 H          1 MOL1         0.0741
      19    H11     21.798672   17.874837   22.595626 H          1 MOL1         0.0741
@<TRIPOS>BOND
    1     1     2    1
    2     1     3    2
    3     1     4    1
    4     4     5    1
    5     4     6    1
    6     4     7    1
    7     7     8    1
    8     7     9    1
    9     7    10    1
   10    10    11    1
   11    10    12    1
   12    10    13    1
   13    13    14    1
   14    13    15    1
   15    13    16    1
   16    16    17    1
   17    16    18    1
   18    16    19    1
@<TRIPOS>SUBSTRUCTURE
       1 MOL1            1 RESIDUE      1      MOL     
@<SCITEGIC>MOL_PROPERTY
VConf Rank
SciTegic.value.IntegerValue
318

@<SCITEGIC>MOL_PROPERTY
Conf_Id
SciTegic.value.IntegerValue
73

@<SCITEGIC>MOL_PROPERTY
Delta U+W
SciTegic.value.DoubleValue
3.707

@<SCITEGIC>MOL_PROPERTY
U+W
SciTegic.value.DoubleValue
-51.184

@<SCITEGIC>MOL_PROPERTY
Grad RMS
SciTegic.value.DoubleValue
0.000000

@<SCITEGIC>MOL_PROPERTY
U
SciTegic.value.DoubleValue
12.334

@<SCITEGIC>MOL_PROPERTY
W
SciTegic.value.DoubleValue
-63.519

@<SCITEGIC>MOL_PROPERTY
W(PB)
SciTegic.value.DoubleValue
-65.541

@<SCITEGIC>MOL_PROPERTY
W(SA)
SciTegic.value.DoubleValue
2.022

@<SCITEGIC>MOL_PROPERTY
Valence
SciTegic.value.DoubleValue
9.984

@<SCITEGIC>MOL_PROPERTY
Coulomb
SciTegic.value.DoubleValue
1.768

@<SCITEGIC>MOL_PROPERTY
VdW
SciTegic.value.DoubleValue
0.583

@<SCITEGIC>MOL_PROPERTY
VdW6
SciTegic.value.DoubleValue
-7.767

@<SCITEGIC>MOL_PROPERTY
VdW12
SciTegic.value.DoubleValue
8.350

@<SCITEGIC>MOL_PROPERTY
Bond
SciTegic.value.DoubleValue
0.203

@<SCITEGIC>MOL_PROPERTY
Angle
SciTegic.value.DoubleValue
3.192

@<SCITEGIC>MOL_PROPERTY
Pdih
SciTegic.value.DoubleValue
6.589

@<SCITEGIC>MOL_PROPERTY
Idih
SciTegic.value.DoubleValue
0.001

@<SCITEGIC>MOL_PROPERTY
Tether
SciTegic.value.DoubleValue
0.000

@<TRIPOS>MOLECULE
guest-7_confgen4.mol2 : confsearch ligand conformer 319
          19          18           1
SMALL
USER_CHARGES
 
@<TRIPOS>ATOM
       1    C1      20.707244   16.644942   21.838271 C.2        1 MOL1         0.6115
       2    O1      21.298816   16.457646   22.883104 O.co2      1 MOL1        -0.6776
       3    O2      20.146570   15.763397   21.217237 O.co2      1 MOL1        -0.6776
       4    C2      20.693260   18.055606   21.255899 C.3        1 MOL1        -0.2013
       5    H1      21.007003   17.979388   20.208318 H          1 MOL1         0.0727
       6    H2      21.456796   18.654286   21.765693 H          1 MOL1         0.0727
       7    C3      19.310256   18.758724   21.327974 C.3        1 MOL1        -0.1910
       8    H3      19.372528   19.731702   20.823691 H          1 MOL1         0.0729
       9    H4      18.584697   18.167128   20.752918 H          1 MOL1         0.0729
      10    C4      18.763774   18.951227   22.766165 C.3        1 MOL1        -0.1909
      11    H5      18.590535   17.965112   23.218545 H          1 MOL1         0.0729
      12    H6      17.778518   19.433289   22.707167 H          1 MOL1         0.0729
      13    C5      19.670000   19.778144   23.710717 C.3        1 MOL1        -0.1884
      14    H7      19.189871   19.831440   24.697395 H          1 MOL1         0.0729
      15    H8      20.625332   19.259117   23.866913 H          1 MOL1         0.0729
      16    C6      19.930899   21.214024   23.206881 C.3        1 MOL1        -0.2899
      17    H9      20.511171   21.210595   22.275653 H          1 MOL1         0.0741
      18    H10     18.986942   21.743524   23.023611 H          1 MOL1         0.0741
      19    H11     20.500417   21.784755   23.951670 H          1 MOL1         0.0741
@<TRIPOS>BOND
    1     1     2    1
    2     1     3    2
    3     1     4    1
    4     4     5    1
    5     4     6    1
    6     4     7    1
    7     7     8    1
    8     7     9    1
    9     7    10    1
   10    10    11    1
   11    10    12    1
   12    10    13    1
   13    13    14    1
   14    13    15    1
   15    13    16    1
   16    16    17    1
   17    16    18    1
   18    16    19    1
@<TRIPOS>SUBSTRUCTURE
       1 MOL1            1 RESIDUE      1      MOL     
@<SCITEGIC>MOL_PROPERTY
VConf Rank
SciTegic.value.IntegerValue
319

@<SCITEGIC>MOL_PROPERTY
Conf_Id
SciTegic.value.IntegerValue
56

@<SCITEGIC>MOL_PROPERTY
Delta U+W
SciTegic.value.DoubleValue
1.735

@<SCITEGIC>MOL_PROPERTY
U+W
SciTegic.value.DoubleValue
-53.156

@<SCITEGIC>MOL_PROPERTY
Grad RMS
SciTegic.value.DoubleValue
0.000000

@<SCITEGIC>MOL_PROPERTY
U
SciTegic.value.DoubleValue
10.214

@<SCITEGIC>MOL_PROPERTY
W
SciTegic.value.DoubleValue
-63.370

@<SCITEGIC>MOL_PROPERTY
W(PB)
SciTegic.value.DoubleValue
-65.388

@<SCITEGIC>MOL_PROPERTY
W(SA)
SciTegic.value.DoubleValue
2.018

@<SCITEGIC>MOL_PROPERTY
Valence
SciTegic.value.DoubleValue
7.868

@<SCITEGIC>MOL_PROPERTY
Coulomb
SciTegic.value.DoubleValue
1.968

@<SCITEGIC>MOL_PROPERTY
VdW
SciTegic.value.DoubleValue
0.378

@<SCITEGIC>MOL_PROPERTY
VdW6
SciTegic.value.DoubleValue
-8.067

@<SCITEGIC>MOL_PROPERTY
VdW12
SciTegic.value.DoubleValue
8.445

@<SCITEGIC>MOL_PROPERTY
Bond
SciTegic.value.DoubleValue
0.191

@<SCITEGIC>MOL_PROPERTY
Angle
SciTegic.value.DoubleValue
3.117

@<SCITEGIC>MOL_PROPERTY
Pdih
SciTegic.value.DoubleValue
4.559

@<SCITEGIC>MOL_PROPERTY
Idih
SciTegic.value.DoubleValue
0.001

@<SCITEGIC>MOL_PROPERTY
Tether
SciTegic.value.DoubleValue
0.000

@<TRIPOS>MOLECULE
guest-7_confgen4.mol2 : confsearch ligand conformer 320
          19          18           1
SMALL
USER_CHARGES
 
@<TRIPOS>ATOM
       1    C1      22.047852   20.811456   21.435750 C.2        1 MOL1         0.6115
       2    O1      22.746994   20.620349   20.460537 O.co2      1 MOL1        -0.6776
       3    O2      22.268712   21.674267   22.262280 O.co2      1 MOL1        -0.6776
       4    C2      20.839905   19.905146   21.644810 C.3        1 MOL1        -0.2013
       5    H1      20.463586   19.605005   20.659581 H          1 MOL1         0.0727
       6    H2      20.058569   20.501007   22.129551 H          1 MOL1         0.0727
       7    C3      21.168252   18.653563   22.497279 C.3        1 MOL1        -0.1910
       8    H3      22.046802   18.154679   22.065231 H          1 MOL1         0.0729
       9    H4      21.461010   18.970901   23.507618 H          1 MOL1         0.0729
      10    C4      20.015102   17.622932   22.589675 C.3        1 MOL1        -0.1909
      11    H5      20.384350   16.765506   23.168854 H          1 MOL1         0.0729
      12    H6      19.779758   17.229395   21.591306 H          1 MOL1         0.0729
      13    C5      18.729909   18.149673   23.275189 C.3        1 MOL1        -0.1884
      14    H7      18.280765   17.330918   23.854196 H          1 MOL1         0.0729
      15    H8      18.979729   18.935689   24.001190 H          1 MOL1         0.0729
      16    C6      17.670542   18.661713   22.274048 C.3        1 MOL1        -0.2899
      17    H9      16.774847   19.006640   22.806620 H          1 MOL1         0.0741
      18    H10     18.045347   19.498441   21.674027 H          1 MOL1         0.0741
      19    H11     17.364790   17.862220   21.586692 H          1 MOL1         0.0741
@<TRIPOS>BOND
    1     1     2    1
    2     1     3    2
    3     1     4    1
    4     4     5    1
    5     4     6    1
    6     4     7    1
    7     7     8    1
    8     7     9    1
    9     7    10    1
   10    10    11    1
   11    10    12    1
   12    10    13    1
   13    13    14    1
   14    13    15    1
   15    13    16    1
   16    16    17    1
   17    16    18    1
   18    16    19    1
@<TRIPOS>SUBSTRUCTURE
       1 MOL1            1 RESIDUE      1      MOL     
@<SCITEGIC>MOL_PROPERTY
VConf Rank
SciTegic.value.IntegerValue
320

@<SCITEGIC>MOL_PROPERTY
Conf_Id
SciTegic.value.IntegerValue
53

@<SCITEGIC>MOL_PROPERTY
Delta U+W
SciTegic.value.DoubleValue
2.279

@<SCITEGIC>MOL_PROPERTY
U+W
SciTegic.value.DoubleValue
-52.612

@<SCITEGIC>MOL_PROPERTY
Grad RMS
SciTegic.value.DoubleValue
0.000000

@<SCITEGIC>MOL_PROPERTY
U
SciTegic.value.DoubleValue
10.231

@<SCITEGIC>MOL_PROPERTY
W
SciTegic.value.DoubleValue
-62.843

@<SCITEGIC>MOL_PROPERTY
W(PB)
SciTegic.value.DoubleValue
-64.893

@<SCITEGIC>MOL_PROPERTY
W(SA)
SciTegic.value.DoubleValue
2.050

@<SCITEGIC>MOL_PROPERTY
Valence
SciTegic.value.DoubleValue
9.644

@<SCITEGIC>MOL_PROPERTY
Coulomb
SciTegic.value.DoubleValue
-0.164

@<SCITEGIC>MOL_PROPERTY
VdW
SciTegic.value.DoubleValue
0.751

@<SCITEGIC>MOL_PROPERTY
VdW6
SciTegic.value.DoubleValue
-6.881

@<SCITEGIC>MOL_PROPERTY
VdW12
SciTegic.value.DoubleValue
7.631

@<SCITEGIC>MOL_PROPERTY
Bond
SciTegic.value.DoubleValue
0.163

@<SCITEGIC>MOL_PROPERTY
Angle
SciTegic.value.DoubleValue
2.998

@<SCITEGIC>MOL_PROPERTY
Pdih
SciTegic.value.DoubleValue
6.482

@<SCITEGIC>MOL_PROPERTY
Idih
SciTegic.value.DoubleValue
0.001

@<SCITEGIC>MOL_PROPERTY
Tether
SciTegic.value.DoubleValue
0.000

@<TRIPOS>MOLECULE
guest-7_confgen4.mol2 : confsearch ligand conformer 321
          19          18           1
SMALL
USER_CHARGES
 
@<TRIPOS>ATOM
       1    C1      21.339355   21.010455   22.283404 C.2        1 MOL1         0.6115
       2    O1      20.664278   21.627456   21.483132 O.co2      1 MOL1        -0.6776
       3    O2      22.521636   20.778148   22.123747 O.co2      1 MOL1        -0.6776
       4    C2      20.682273   20.565942   23.588828 C.3        1 MOL1        -0.2013
       5    H1      19.637910   20.900896   23.594743 H          1 MOL1         0.0727
       6    H2      21.191059   21.112073   24.391637 H          1 MOL1         0.0727
       7    C3      20.760301   19.041941   23.886243 C.3        1 MOL1        -0.1910
       8    H3      21.773024   18.670625   23.676339 H          1 MOL1         0.0729
       9    H4      20.603570   18.898681   24.963893 H          1 MOL1         0.0729
      10    C4      19.712925   18.179780   23.139007 C.3        1 MOL1        -0.1909
      11    H5      18.702914   18.551756   23.358884 H          1 MOL1         0.0729
      12    H6      19.760138   17.158788   23.541940 H          1 MOL1         0.0729
      13    C5      19.922302   18.119047   21.609940 C.3        1 MOL1        -0.1884
      14    H7      19.748658   19.107726   21.166355 H          1 MOL1         0.0729
      15    H8      20.962713   17.844698   21.387060 H          1 MOL1         0.0729
      16    C6      18.969516   17.102820   20.948641 C.3        1 MOL1        -0.2899
      17    H9      17.920978   17.369523   21.135176 H          1 MOL1         0.0741
      18    H10     19.124945   17.078061   19.862236 H          1 MOL1         0.0741
      19    H11     19.141101   16.090942   21.338486 H          1 MOL1         0.0741
@<TRIPOS>BOND
    1     1     2    1
    2     1     3    2
    3     1     4    1
    4     4     5    1
    5     4     6    1
    6     4     7    1
    7     7     8    1
    8     7     9    1
    9     7    10    1
   10    10    11    1
   11    10    12    1
   12    10    13    1
   13    13    14    1
   14    13    15    1
   15    13    16    1
   16    16    17    1
   17    16    18    1
   18    16    19    1
@<TRIPOS>SUBSTRUCTURE
       1 MOL1            1 RESIDUE      1      MOL     
@<SCITEGIC>MOL_PROPERTY
VConf Rank
SciTegic.value.IntegerValue
321

@<SCITEGIC>MOL_PROPERTY
Conf_Id
SciTegic.value.IntegerValue
25

@<SCITEGIC>MOL_PROPERTY
Delta U+W
SciTegic.value.DoubleValue
2.065

@<SCITEGIC>MOL_PROPERTY
U+W
SciTegic.value.DoubleValue
-52.826

@<SCITEGIC>MOL_PROPERTY
Grad RMS
SciTegic.value.DoubleValue
0.000000

@<SCITEGIC>MOL_PROPERTY
U
SciTegic.value.DoubleValue
10.967

@<SCITEGIC>MOL_PROPERTY
W
SciTegic.value.DoubleValue
-63.794

@<SCITEGIC>MOL_PROPERTY
W(PB)
SciTegic.value.DoubleValue
-65.830

@<SCITEGIC>MOL_PROPERTY
W(SA)
SciTegic.value.DoubleValue
2.036

@<SCITEGIC>MOL_PROPERTY
Valence
SciTegic.value.DoubleValue
8.609

@<SCITEGIC>MOL_PROPERTY
Coulomb
SciTegic.value.DoubleValue
1.892

@<SCITEGIC>MOL_PROPERTY
VdW
SciTegic.value.DoubleValue
0.467

@<SCITEGIC>MOL_PROPERTY
VdW6
SciTegic.value.DoubleValue
-7.569

@<SCITEGIC>MOL_PROPERTY
VdW12
SciTegic.value.DoubleValue
8.036

@<SCITEGIC>MOL_PROPERTY
Bond
SciTegic.value.DoubleValue
0.170

@<SCITEGIC>MOL_PROPERTY
Angle
SciTegic.value.DoubleValue
3.195

@<SCITEGIC>MOL_PROPERTY
Pdih
SciTegic.value.DoubleValue
5.237

@<SCITEGIC>MOL_PROPERTY
Idih
SciTegic.value.DoubleValue
0.007

@<SCITEGIC>MOL_PROPERTY
Tether
SciTegic.value.DoubleValue
0.000

@<TRIPOS>MOLECULE
guest-7_confgen4.mol2 : confsearch ligand conformer 322
          19          18           1
SMALL
USER_CHARGES
 
@<TRIPOS>ATOM
       1    C1      20.640081   16.649916   23.368072 C.2        1 MOL1         0.6115
       2    O1      21.396810   16.101012   22.591338 O.co2      1 MOL1        -0.6776
       3    O2      19.552814   16.201144   23.673534 O.co2      1 MOL1        -0.6776
       4    C2      21.106812   17.934424   24.050482 C.3        1 MOL1        -0.2013
       5    H1      21.983752   17.663910   24.650000 H          1 MOL1         0.0727
       6    H2      20.334560   18.264631   24.755828 H          1 MOL1         0.0727
       7    C3      21.490050   19.095246   23.089884 C.3        1 MOL1        -0.1910
       8    H3      22.134385   19.792865   23.641770 H          1 MOL1         0.0729
       9    H4      22.101370   18.710078   22.261948 H          1 MOL1         0.0729
      10    C4      20.290156   19.901377   22.533929 C.3        1 MOL1        -0.1909
      11    H5      20.684165   20.778864   22.003095 H          1 MOL1         0.0729
      12    H6      19.687651   20.289415   23.366546 H          1 MOL1         0.0729
      13    C5      19.387599   19.102290   21.568307 C.3        1 MOL1        -0.1884
      14    H7      20.002060   18.628555   20.790227 H          1 MOL1         0.0729
      15    H8      18.877312   18.295771   22.110102 H          1 MOL1         0.0729
      16    C6      18.327315   20.005861   20.907102 C.3        1 MOL1        -0.2899
      17    H9      17.689369   19.421724   20.231192 H          1 MOL1         0.0741
      18    H10     17.682480   20.471960   21.663606 H          1 MOL1         0.0741
      19    H11     18.800802   20.804008   20.320511 H          1 MOL1         0.0741
@<TRIPOS>BOND
    1     1     2    1
    2     1     3    2
    3     1     4    1
    4     4     5    1
    5     4     6    1
    6     4     7    1
    7     7     8    1
    8     7     9    1
    9     7    10    1
   10    10    11    1
   11    10    12    1
   12    10    13    1
   13    13    14    1
   14    13    15    1
   15    13    16    1
   16    16    17    1
   17    16    18    1
   18    16    19    1
@<TRIPOS>SUBSTRUCTURE
       1 MOL1            1 RESIDUE      1      MOL     
@<SCITEGIC>MOL_PROPERTY
VConf Rank
SciTegic.value.IntegerValue
322

@<SCITEGIC>MOL_PROPERTY
Conf_Id
SciTegic.value.IntegerValue
52

@<SCITEGIC>MOL_PROPERTY
Delta U+W
SciTegic.value.DoubleValue
2.070

@<SCITEGIC>MOL_PROPERTY
U+W
SciTegic.value.DoubleValue
-52.822

@<SCITEGIC>MOL_PROPERTY
Grad RMS
SciTegic.value.DoubleValue
0.000000

@<SCITEGIC>MOL_PROPERTY
U
SciTegic.value.DoubleValue
10.967

@<SCITEGIC>MOL_PROPERTY
W
SciTegic.value.DoubleValue
-63.789

@<SCITEGIC>MOL_PROPERTY
W(PB)
SciTegic.value.DoubleValue
-65.837

@<SCITEGIC>MOL_PROPERTY
W(SA)
SciTegic.value.DoubleValue
2.048

@<SCITEGIC>MOL_PROPERTY
Valence
SciTegic.value.DoubleValue
8.609

@<SCITEGIC>MOL_PROPERTY
Coulomb
SciTegic.value.DoubleValue
1.892

@<SCITEGIC>MOL_PROPERTY
VdW
SciTegic.value.DoubleValue
0.467

@<SCITEGIC>MOL_PROPERTY
VdW6
SciTegic.value.DoubleValue
-7.569

@<SCITEGIC>MOL_PROPERTY
VdW12
SciTegic.value.DoubleValue
8.035

@<SCITEGIC>MOL_PROPERTY
Bond
SciTegic.value.DoubleValue
0.170

@<SCITEGIC>MOL_PROPERTY
Angle
SciTegic.value.DoubleValue
3.196

@<SCITEGIC>MOL_PROPERTY
Pdih
SciTegic.value.DoubleValue
5.237

@<SCITEGIC>MOL_PROPERTY
Idih
SciTegic.value.DoubleValue
0.007

@<SCITEGIC>MOL_PROPERTY
Tether
SciTegic.value.DoubleValue
0.000

@<TRIPOS>MOLECULE
guest-7_confgen4.mol2 : confsearch ligand conformer 323
          19          18           1
SMALL
USER_CHARGES
 
@<TRIPOS>ATOM
       1    C1      21.389136   17.923489   23.744169 C.2        1 MOL1         0.6115
       2    O1      20.876749   17.034782   24.396684 O.co2      1 MOL1        -0.6776
       3    O2      22.354810   17.750092   23.027158 O.co2      1 MOL1        -0.6776
       4    C2      20.880260   19.354431   23.925363 C.3        1 MOL1        -0.2013
       5    H1      21.338613   19.995984   23.163221 H          1 MOL1         0.0727
       6    H2      21.268096   19.693273   24.892856 H          1 MOL1         0.0727
       7    C3      19.334639   19.528579   23.915346 C.3        1 MOL1        -0.1910
       8    H3      18.860966   18.711108   24.476288 H          1 MOL1         0.0729
       9    H4      19.095225   20.446487   24.468955 H          1 MOL1         0.0729
      10    C4      18.688135   19.649501   22.511570 C.3        1 MOL1        -0.1909
      11    H5      19.089461   20.528074   21.988039 H          1 MOL1         0.0729
      12    H6      17.618990   19.855550   22.657995 H          1 MOL1         0.0729
      13    C5      18.814937   18.389057   21.622081 C.3        1 MOL1        -0.1884
      14    H7      18.983133   17.497114   22.241358 H          1 MOL1         0.0729
      15    H8      17.860547   18.223492   21.103548 H          1 MOL1         0.0729
      16    C6      19.923923   18.519252   20.556097 C.3        1 MOL1        -0.2899
      17    H9      19.711557   19.349202   19.869787 H          1 MOL1         0.0741
      18    H10     20.902805   18.701293   21.014768 H          1 MOL1         0.0741
      19    H11     19.996749   17.599465   19.961700 H          1 MOL1         0.0741
@<TRIPOS>BOND
    1     1     2    1
    2     1     3    2
    3     1     4    1
    4     4     5    1
    5     4     6    1
    6     4     7    1
    7     7     8    1
    8     7     9    1
    9     7    10    1
   10    10    11    1
   11    10    12    1
   12    10    13    1
   13    13    14    1
   14    13    15    1
   15    13    16    1
   16    16    17    1
   17    16    18    1
   18    16    19    1
@<TRIPOS>SUBSTRUCTURE
       1 MOL1            1 RESIDUE      1      MOL     
@<SCITEGIC>MOL_PROPERTY
VConf Rank
SciTegic.value.IntegerValue
323

@<SCITEGIC>MOL_PROPERTY
Conf_Id
SciTegic.value.IntegerValue
66

@<SCITEGIC>MOL_PROPERTY
Delta U+W
SciTegic.value.DoubleValue
5.819

@<SCITEGIC>MOL_PROPERTY
U+W
SciTegic.value.DoubleValue
-49.072

@<SCITEGIC>MOL_PROPERTY
Grad RMS
SciTegic.value.DoubleValue
0.000000

@<SCITEGIC>MOL_PROPERTY
U
SciTegic.value.DoubleValue
15.324

@<SCITEGIC>MOL_PROPERTY
W
SciTegic.value.DoubleValue
-64.396

@<SCITEGIC>MOL_PROPERTY
W(PB)
SciTegic.value.DoubleValue
-66.382

@<SCITEGIC>MOL_PROPERTY
W(SA)
SciTegic.value.DoubleValue
1.986

@<SCITEGIC>MOL_PROPERTY
Valence
SciTegic.value.DoubleValue
11.748

@<SCITEGIC>MOL_PROPERTY
Coulomb
SciTegic.value.DoubleValue
3.201

@<SCITEGIC>MOL_PROPERTY
VdW
SciTegic.value.DoubleValue
0.375

@<SCITEGIC>MOL_PROPERTY
VdW6
SciTegic.value.DoubleValue
-8.854

@<SCITEGIC>MOL_PROPERTY
VdW12
SciTegic.value.DoubleValue
9.229

@<SCITEGIC>MOL_PROPERTY
Bond
SciTegic.value.DoubleValue
0.216

@<SCITEGIC>MOL_PROPERTY
Angle
SciTegic.value.DoubleValue
3.812

@<SCITEGIC>MOL_PROPERTY
Pdih
SciTegic.value.DoubleValue
7.699

@<SCITEGIC>MOL_PROPERTY
Idih
SciTegic.value.DoubleValue
0.022

@<SCITEGIC>MOL_PROPERTY
Tether
SciTegic.value.DoubleValue
0.000

@<TRIPOS>MOLECULE
guest-7_confgen4.mol2 : confsearch ligand conformer 324
          19          18           1
SMALL
USER_CHARGES
 
@<TRIPOS>ATOM
       1    C1      22.153787   21.209526   23.417311 C.2        1 MOL1         0.6115
       2    O1      23.159037   21.828329   23.130575 O.co2      1 MOL1        -0.6776
       3    O2      21.588778   21.321109   24.488040 O.co2      1 MOL1        -0.6776
       4    C2      21.597550   20.253113   22.361115 C.3        1 MOL1        -0.2013
       5    H1      22.392572   19.539397   22.114947 H          1 MOL1         0.0727
       6    H2      21.403423   20.841630   21.456674 H          1 MOL1         0.0727
       7    C3      20.313086   19.485428   22.772507 C.3        1 MOL1        -0.1910
       8    H3      20.512603   18.902496   23.682371 H          1 MOL1         0.0729
       9    H4      19.522437   20.206098   23.023460 H          1 MOL1         0.0729
      10    C4      19.821951   18.545217   21.650433 C.3        1 MOL1        -0.1909
      11    H5      20.613960   17.825728   21.401016 H          1 MOL1         0.0729
      12    H6      19.623216   19.130014   20.741771 H          1 MOL1         0.0729
      13    C5      18.545039   17.783009   22.061443 C.3        1 MOL1        -0.1884
      14    H7      18.740295   17.195222   22.969118 H          1 MOL1         0.0729
      15    H8      17.749638   18.499341   22.309833 H          1 MOL1         0.0729
      16    C6      18.057618   16.845262   20.938926 C.3        1 MOL1        -0.2899
      17    H9      18.822673   16.097546   20.691879 H          1 MOL1         0.0741
      18    H10     17.149421   16.311568   21.247887 H          1 MOL1         0.0741
      19    H11     17.824570   17.411488   20.027610 H          1 MOL1         0.0741
@<TRIPOS>BOND
    1     1     2    1
    2     1     3    2
    3     1     4    1
    4     4     5    1
    5     4     6    1
    6     4     7    1
    7     7     8    1
    8     7     9    1
    9     7    10    1
   10    10    11    1
   11    10    12    1
   12    10    13    1
   13    13    14    1
   14    13    15    1
   15    13    16    1
   16    16    17    1
   17    16    18    1
   18    16    19    1
@<TRIPOS>SUBSTRUCTURE
       1 MOL1            1 RESIDUE      1      MOL     
@<SCITEGIC>MOL_PROPERTY
VConf Rank
SciTegic.value.IntegerValue
324

@<SCITEGIC>MOL_PROPERTY
Conf_Id
SciTegic.value.IntegerValue
0

@<SCITEGIC>MOL_PROPERTY
Delta U+W
SciTegic.value.DoubleValue
0.000

@<SCITEGIC>MOL_PROPERTY
U+W
SciTegic.value.DoubleValue
-54.891

@<SCITEGIC>MOL_PROPERTY
Grad RMS
SciTegic.value.DoubleValue
0.000000

@<SCITEGIC>MOL_PROPERTY
U
SciTegic.value.DoubleValue
6.966

@<SCITEGIC>MOL_PROPERTY
W
SciTegic.value.DoubleValue
-61.857

@<SCITEGIC>MOL_PROPERTY
W(PB)
SciTegic.value.DoubleValue
-63.965

@<SCITEGIC>MOL_PROPERTY
W(SA)
SciTegic.value.DoubleValue
2.108

@<SCITEGIC>MOL_PROPERTY
Valence
SciTegic.value.DoubleValue
7.175

@<SCITEGIC>MOL_PROPERTY
Coulomb
SciTegic.value.DoubleValue
-1.360

@<SCITEGIC>MOL_PROPERTY
VdW
SciTegic.value.DoubleValue
1.151

@<SCITEGIC>MOL_PROPERTY
VdW6
SciTegic.value.DoubleValue
-5.641

@<SCITEGIC>MOL_PROPERTY
VdW12
SciTegic.value.DoubleValue
6.792

@<SCITEGIC>MOL_PROPERTY
Bond
SciTegic.value.DoubleValue
0.119

@<SCITEGIC>MOL_PROPERTY
Angle
SciTegic.value.DoubleValue
2.715

@<SCITEGIC>MOL_PROPERTY
Pdih
SciTegic.value.DoubleValue
4.340

@<SCITEGIC>MOL_PROPERTY
Idih
SciTegic.value.DoubleValue
0.000

@<SCITEGIC>MOL_PROPERTY
Tether
SciTegic.value.DoubleValue
0.000

@<TRIPOS>MOLECULE
guest-7_confgen4.mol2 : confsearch ligand conformer 325
          19          18           1
SMALL
USER_CHARGES
 
@<TRIPOS>ATOM
       1    C1      19.688829   22.296745   22.495764 C.2        1 MOL1         0.6115
       2    O1      20.727208   22.855529   22.788526 O.co2      1 MOL1        -0.6776
       3    O2      18.802303   22.819878   21.850329 O.co2      1 MOL1        -0.6776
       4    C2      19.496358   20.852784   22.945544 C.3        1 MOL1        -0.2013
       5    H1      18.427255   20.692989   23.130548 H          1 MOL1         0.0727
       6    H2      20.014062   20.722237   23.903502 H          1 MOL1         0.0727
       7    C3      20.018970   19.825251   21.911540 C.3        1 MOL1        -0.1910
       8    H3      19.500159   19.977302   20.954845 H          1 MOL1         0.0729
       9    H4      21.087074   20.006671   21.727721 H          1 MOL1         0.0729
      10    C4      19.812572   18.372125   22.390550 C.3        1 MOL1        -0.1909
      11    H5      18.744090   18.194328   22.574741 H          1 MOL1         0.0729
      12    H6      20.331313   18.223673   23.347661 H          1 MOL1         0.0729
      13    C5      20.334030   17.350694   21.358497 C.3        1 MOL1        -0.1884
      14    H7      19.816092   17.494764   20.400125 H          1 MOL1         0.0729
      15    H8      21.403164   17.524041   21.173031 H          1 MOL1         0.0729
      16    C6      20.126285   15.900879   21.839988 C.3        1 MOL1        -0.2899
      17    H9      20.502410   15.188113   21.094600 H          1 MOL1         0.0741
      18    H10     20.660228   15.719536   22.782030 H          1 MOL1         0.0741
      19    H11     19.061256   15.690061   22.003367 H          1 MOL1         0.0741
@<TRIPOS>BOND
    1     1     2    1
    2     1     3    2
    3     1     4    1
    4     4     5    1
    5     4     6    1
    6     4     7    1
    7     7     8    1
    8     7     9    1
    9     7    10    1
   10    10    11    1
   11    10    12    1
   12    10    13    1
   13    13    14    1
   14    13    15    1
   15    13    16    1
   16    16    17    1
   17    16    18    1
   18    16    19    1
@<TRIPOS>SUBSTRUCTURE
       1 MOL1            1 RESIDUE      1      MOL     
@<SCITEGIC>MOL_PROPERTY
VConf Rank
SciTegic.value.IntegerValue
325

@<SCITEGIC>MOL_PROPERTY
Conf_Id
SciTegic.value.IntegerValue
18

@<SCITEGIC>MOL_PROPERTY
Delta U+W
SciTegic.value.DoubleValue
-1.199

@<SCITEGIC>MOL_PROPERTY
U+W
SciTegic.value.DoubleValue
-56.090

@<SCITEGIC>MOL_PROPERTY
Grad RMS
SciTegic.value.DoubleValue
0.000000

@<SCITEGIC>MOL_PROPERTY
U
SciTegic.value.DoubleValue
5.975

@<SCITEGIC>MOL_PROPERTY
W
SciTegic.value.DoubleValue
-62.066

@<SCITEGIC>MOL_PROPERTY
W(PB)
SciTegic.value.DoubleValue
-64.219

@<SCITEGIC>MOL_PROPERTY
W(SA)
SciTegic.value.DoubleValue
2.153

@<SCITEGIC>MOL_PROPERTY
Valence
SciTegic.value.DoubleValue
6.673

@<SCITEGIC>MOL_PROPERTY
Coulomb
SciTegic.value.DoubleValue
-1.307

@<SCITEGIC>MOL_PROPERTY
VdW
SciTegic.value.DoubleValue
0.610

@<SCITEGIC>MOL_PROPERTY
VdW6
SciTegic.value.DoubleValue
-5.351

@<SCITEGIC>MOL_PROPERTY
VdW12
SciTegic.value.DoubleValue
5.961

@<SCITEGIC>MOL_PROPERTY
Bond
SciTegic.value.DoubleValue
0.086

@<SCITEGIC>MOL_PROPERTY
Angle
SciTegic.value.DoubleValue
2.253

@<SCITEGIC>MOL_PROPERTY
Pdih
SciTegic.value.DoubleValue
4.333

@<SCITEGIC>MOL_PROPERTY
Idih
SciTegic.value.DoubleValue
0.001

@<SCITEGIC>MOL_PROPERTY
Tether
SciTegic.value.DoubleValue
0.000

@<TRIPOS>MOLECULE
guest-7_confgen4.mol2 : confsearch ligand conformer 326
          19          18           1
SMALL
USER_CHARGES
 
@<TRIPOS>ATOM
       1    C1      21.122277   16.088523   21.179735 C.2        1 MOL1         0.6115
       2    O1      20.419817   15.196615   20.746910 O.co2      1 MOL1        -0.6776
       3    O2      22.321265   16.150618   20.993093 O.co2      1 MOL1        -0.6776
       4    C2      20.459381   17.201952   21.982983 C.3        1 MOL1        -0.2013
       5    H1      21.179103   17.544288   22.735079 H          1 MOL1         0.0727
       6    H2      19.606033   16.771844   22.520861 H          1 MOL1         0.0727
       7    C3      19.991199   18.384909   21.096079 C.3        1 MOL1        -0.1910
       8    H3      20.860108   18.835711   20.596993 H          1 MOL1         0.0729
       9    H4      19.344387   17.993165   20.298837 H          1 MOL1         0.0729
      10    C4      19.213804   19.471792   21.875743 C.3        1 MOL1        -0.1909
      11    H5      18.341092   19.019535   22.366502 H          1 MOL1         0.0729
      12    H6      18.821246   20.203371   21.156227 H          1 MOL1         0.0729
      13    C5      20.075677   20.211072   22.923671 C.3        1 MOL1        -0.1884
      14    H7      20.416456   19.509762   23.696583 H          1 MOL1         0.0729
      15    H8      20.974708   20.620105   22.442316 H          1 MOL1         0.0729
      16    C6      19.289919   21.354646   23.596049 C.3        1 MOL1        -0.2899
      17    H9      19.913949   21.867822   24.339236 H          1 MOL1         0.0741
      18    H10     18.965367   22.097344   22.855475 H          1 MOL1         0.0741
      19    H11     18.398861   20.969786   24.109181 H          1 MOL1         0.0741
@<TRIPOS>BOND
    1     1     2    1
    2     1     3    2
    3     1     4    1
    4     4     5    1
    5     4     6    1
    6     4     7    1
    7     7     8    1
    8     7     9    1
    9     7    10    1
   10    10    11    1
   11    10    12    1
   12    10    13    1
   13    13    14    1
   14    13    15    1
   15    13    16    1
   16    16    17    1
   17    16    18    1
   18    16    19    1
@<TRIPOS>SUBSTRUCTURE
       1 MOL1            1 RESIDUE      1      MOL     
@<SCITEGIC>MOL_PROPERTY
VConf Rank
SciTegic.value.IntegerValue
326

@<SCITEGIC>MOL_PROPERTY
Conf_Id
SciTegic.value.IntegerValue
34

@<SCITEGIC>MOL_PROPERTY
Delta U+W
SciTegic.value.DoubleValue
-0.563

@<SCITEGIC>MOL_PROPERTY
U+W
SciTegic.value.DoubleValue
-55.455

@<SCITEGIC>MOL_PROPERTY
Grad RMS
SciTegic.value.DoubleValue
0.000000

@<SCITEGIC>MOL_PROPERTY
U
SciTegic.value.DoubleValue
6.914

@<SCITEGIC>MOL_PROPERTY
W
SciTegic.value.DoubleValue
-62.369

@<SCITEGIC>MOL_PROPERTY
W(PB)
SciTegic.value.DoubleValue
-64.446

@<SCITEGIC>MOL_PROPERTY
W(SA)
SciTegic.value.DoubleValue
2.077

@<SCITEGIC>MOL_PROPERTY
Valence
SciTegic.value.DoubleValue
7.196

@<SCITEGIC>MOL_PROPERTY
Coulomb
SciTegic.value.DoubleValue
-1.020

@<SCITEGIC>MOL_PROPERTY
VdW
SciTegic.value.DoubleValue
0.738

@<SCITEGIC>MOL_PROPERTY
VdW6
SciTegic.value.DoubleValue
-6.010

@<SCITEGIC>MOL_PROPERTY
VdW12
SciTegic.value.DoubleValue
6.748

@<SCITEGIC>MOL_PROPERTY
Bond
SciTegic.value.DoubleValue
0.126

@<SCITEGIC>MOL_PROPERTY
Angle
SciTegic.value.DoubleValue
2.499

@<SCITEGIC>MOL_PROPERTY
Pdih
SciTegic.value.DoubleValue
4.570

@<SCITEGIC>MOL_PROPERTY
Idih
SciTegic.value.DoubleValue
0.001

@<SCITEGIC>MOL_PROPERTY
Tether
SciTegic.value.DoubleValue
0.000

@<TRIPOS>MOLECULE
guest-7_confgen4.mol2 : confsearch ligand conformer 327
          19          18           1
SMALL
USER_CHARGES
 
@<TRIPOS>ATOM
       1    C1      19.000932   21.693594   20.883673 C.2        1 MOL1         0.6115
       2    O1      19.653332   22.718093   20.916288 O.co2      1 MOL1        -0.6776
       3    O2      17.808014   21.663219   20.655013 O.co2      1 MOL1        -0.6776
       4    C2      19.714170   20.376236   21.166904 C.3        1 MOL1        -0.2013
       5    H1      20.745809   20.463214   20.805424 H          1 MOL1         0.0727
       6    H2      19.225054   19.597523   20.570904 H          1 MOL1         0.0727
       7    C3      19.704712   19.999943   22.671396 C.3        1 MOL1        -0.1910
       8    H3      20.118242   20.839492   23.247219 H          1 MOL1         0.0729
       9    H4      18.667646   19.871913   23.011121 H          1 MOL1         0.0729
      10    C4      20.521990   18.726816   22.995013 C.3        1 MOL1        -0.1909
      11    H5      20.559159   18.604421   24.086182 H          1 MOL1         0.0729
      12    H6      21.560231   18.861283   22.661873 H          1 MOL1         0.0729
      13    C5      19.935089   17.443484   22.365631 C.3        1 MOL1        -0.1884
      14    H7      18.881313   17.335866   22.657598 H          1 MOL1         0.0729
      15    H8      19.958962   17.513776   21.270254 H          1 MOL1         0.0729
      16    C6      20.718299   16.189978   22.804457 C.3        1 MOL1        -0.2899
      17    H9      21.771069   16.258678   22.500545 H          1 MOL1         0.0741
      18    H10     20.683364   16.066087   23.894786 H          1 MOL1         0.0741
      19    H11     20.291659   15.287723   22.347287 H          1 MOL1         0.0741
@<TRIPOS>BOND
    1     1     2    1
    2     1     3    2
    3     1     4    1
    4     4     5    1
    5     4     6    1
    6     4     7    1
    7     7     8    1
    8     7     9    1
    9     7    10    1
   10    10    11    1
   11    10    12    1
   12    10    13    1
   13    13    14    1
   14    13    15    1
   15    13    16    1
   16    16    17    1
   17    16    18    1
   18    16    19    1
@<TRIPOS>SUBSTRUCTURE
       1 MOL1            1 RESIDUE      1      MOL     
@<SCITEGIC>MOL_PROPERTY
VConf Rank
SciTegic.value.IntegerValue
327

@<SCITEGIC>MOL_PROPERTY
Conf_Id
SciTegic.value.IntegerValue
33

@<SCITEGIC>MOL_PROPERTY
Delta U+W
SciTegic.value.DoubleValue
-0.526

@<SCITEGIC>MOL_PROPERTY
U+W
SciTegic.value.DoubleValue
-55.418

@<SCITEGIC>MOL_PROPERTY
Grad RMS
SciTegic.value.DoubleValue
0.000000

@<SCITEGIC>MOL_PROPERTY
U
SciTegic.value.DoubleValue
6.914

@<SCITEGIC>MOL_PROPERTY
W
SciTegic.value.DoubleValue
-62.332

@<SCITEGIC>MOL_PROPERTY
W(PB)
SciTegic.value.DoubleValue
-64.421

@<SCITEGIC>MOL_PROPERTY
W(SA)
SciTegic.value.DoubleValue
2.090

@<SCITEGIC>MOL_PROPERTY
Valence
SciTegic.value.DoubleValue
7.196

@<SCITEGIC>MOL_PROPERTY
Coulomb
SciTegic.value.DoubleValue
-1.020

@<SCITEGIC>MOL_PROPERTY
VdW
SciTegic.value.DoubleValue
0.738

@<SCITEGIC>MOL_PROPERTY
VdW6
SciTegic.value.DoubleValue
-6.010

@<SCITEGIC>MOL_PROPERTY
VdW12
SciTegic.value.DoubleValue
6.748

@<SCITEGIC>MOL_PROPERTY
Bond
SciTegic.value.DoubleValue
0.126

@<SCITEGIC>MOL_PROPERTY
Angle
SciTegic.value.DoubleValue
2.499

@<SCITEGIC>MOL_PROPERTY
Pdih
SciTegic.value.DoubleValue
4.570

@<SCITEGIC>MOL_PROPERTY
Idih
SciTegic.value.DoubleValue
0.001

@<SCITEGIC>MOL_PROPERTY
Tether
SciTegic.value.DoubleValue
0.000

@<TRIPOS>MOLECULE
guest-7_confgen4.mol2 : confsearch ligand conformer 328
          19          18           1
SMALL
USER_CHARGES
 
@<TRIPOS>ATOM
       1    C1      21.985525   20.924669   20.881203 C.2        1 MOL1         0.6115
       2    O1      23.098541   20.712217   21.319698 O.co2      1 MOL1        -0.6776
       3    O2      21.767381   21.259589   19.733821 O.co2      1 MOL1        -0.6776
       4    C2      20.795779   20.744081   21.817362 C.3        1 MOL1        -0.2013
       5    H1      20.021766   21.464816   21.527323 H          1 MOL1         0.0727
       6    H2      21.117938   21.005258   22.832609 H          1 MOL1         0.0727
       7    C3      20.223167   19.305346   21.792875 C.3        1 MOL1        -0.1910
       8    H3      19.914007   19.055380   20.768582 H          1 MOL1         0.0729
       9    H4      21.019512   18.601229   22.067965 H          1 MOL1         0.0729
      10    C4      19.021199   19.150223   22.753015 C.3        1 MOL1        -0.1909
      11    H5      18.266692   19.909942   22.506965 H          1 MOL1         0.0729
      12    H6      19.342106   19.352530   23.784082 H          1 MOL1         0.0729
      13    C5      18.355421   17.756518   22.682908 C.3        1 MOL1        -0.1884
      14    H7      17.447087   17.768253   23.300997 H          1 MOL1         0.0729
      15    H8      18.027999   17.552811   21.654012 H          1 MOL1         0.0729
      16    C6      19.273840   16.615513   23.171237 C.3        1 MOL1        -0.2899
      17    H9      19.637562   16.811843   24.188251 H          1 MOL1         0.0741
      18    H10     18.728094   15.663201   23.185507 H          1 MOL1         0.0741
      19    H11     20.142375   16.490396   22.512651 H          1 MOL1         0.0741
@<TRIPOS>BOND
    1     1     2    1
    2     1     3    2
    3     1     4    1
    4     4     5    1
    5     4     6    1
    6     4     7    1
    7     7     8    1
    8     7     9    1
    9     7    10    1
   10    10    11    1
   11    10    12    1
   12    10    13    1
   13    13    14    1
   14    13    15    1
   15    13    16    1
   16    16    17    1
   17    16    18    1
   18    16    19    1
@<TRIPOS>SUBSTRUCTURE
       1 MOL1            1 RESIDUE      1      MOL     
@<SCITEGIC>MOL_PROPERTY
VConf Rank
SciTegic.value.IntegerValue
328

@<SCITEGIC>MOL_PROPERTY
Conf_Id
SciTegic.value.IntegerValue
42

@<SCITEGIC>MOL_PROPERTY
Delta U+W
SciTegic.value.DoubleValue
-0.344

@<SCITEGIC>MOL_PROPERTY
U+W
SciTegic.value.DoubleValue
-55.236

@<SCITEGIC>MOL_PROPERTY
Grad RMS
SciTegic.value.DoubleValue
0.000000

@<SCITEGIC>MOL_PROPERTY
U
SciTegic.value.DoubleValue
7.244

@<SCITEGIC>MOL_PROPERTY
W
SciTegic.value.DoubleValue
-62.479

@<SCITEGIC>MOL_PROPERTY
W(PB)
SciTegic.value.DoubleValue
-64.610

@<SCITEGIC>MOL_PROPERTY
W(SA)
SciTegic.value.DoubleValue
2.130

@<SCITEGIC>MOL_PROPERTY
Valence
SciTegic.value.DoubleValue
7.174

@<SCITEGIC>MOL_PROPERTY
Coulomb
SciTegic.value.DoubleValue
-0.669

@<SCITEGIC>MOL_PROPERTY
VdW
SciTegic.value.DoubleValue
0.739

@<SCITEGIC>MOL_PROPERTY
VdW6
SciTegic.value.DoubleValue
-5.969

@<SCITEGIC>MOL_PROPERTY
VdW12
SciTegic.value.DoubleValue
6.708

@<SCITEGIC>MOL_PROPERTY
Bond
SciTegic.value.DoubleValue
0.116

@<SCITEGIC>MOL_PROPERTY
Angle
SciTegic.value.DoubleValue
2.481

@<SCITEGIC>MOL_PROPERTY
Pdih
SciTegic.value.DoubleValue
4.576

@<SCITEGIC>MOL_PROPERTY
Idih
SciTegic.value.DoubleValue
0.000

@<SCITEGIC>MOL_PROPERTY
Tether
SciTegic.value.DoubleValue
0.000

@<TRIPOS>MOLECULE
guest-7_confgen4.mol2 : confsearch ligand conformer 329
          19          18           1
SMALL
USER_CHARGES
 
@<TRIPOS>ATOM
       1    C1      18.425941   17.170505   24.295534 C.2        1 MOL1         0.6115
       2    O1      17.235056   17.289710   24.086240 O.co2      1 MOL1        -0.6776
       3    O2      18.902833   17.026003   25.403658 O.co2      1 MOL1        -0.6776
       4    C2      19.375668   17.223361   23.104011 C.3        1 MOL1        -0.2013
       5    H1      18.857384   16.798975   22.235676 H          1 MOL1         0.0727
       6    H2      20.231020   16.572290   23.321170 H          1 MOL1         0.0727
       7    C3      19.863028   18.658460   22.785558 C.3        1 MOL1        -0.1910
       8    H3      18.989981   19.295088   22.590329 H          1 MOL1         0.0729
       9    H4      20.371264   19.072914   23.667126 H          1 MOL1         0.0729
      10    C4      20.820761   18.682654   21.571959 C.3        1 MOL1        -0.1909
      11    H5      20.297052   18.314061   20.679280 H          1 MOL1         0.0729
      12    H6      21.649668   17.985678   21.756701 H          1 MOL1         0.0729
      13    C5      21.411267   20.082246   21.283803 C.3        1 MOL1        -0.1884
      14    H7      21.940806   20.451982   22.172740 H          1 MOL1         0.0729
      15    H8      22.164936   19.990195   20.489602 H          1 MOL1         0.0729
      16    C6      20.350269   21.114329   20.844553 C.3        1 MOL1        -0.2899
      17    H9      19.638118   21.325477   21.652020 H          1 MOL1         0.0741
      18    H10     20.828987   22.062552   20.567708 H          1 MOL1         0.0741
      19    H11     19.787479   20.753074   19.973968 H          1 MOL1         0.0741
@<TRIPOS>BOND
    1     1     2    1
    2     1     3    2
    3     1     4    1
    4     4     5    1
    5     4     6    1
    6     4     7    1
    7     7     8    1
    8     7     9    1
    9     7    10    1
   10    10    11    1
   11    10    12    1
   12    10    13    1
   13    13    14    1
   14    13    15    1
   15    13    16    1
   16    16    17    1
   17    16    18    1
   18    16    19    1
@<TRIPOS>SUBSTRUCTURE
       1 MOL1            1 RESIDUE      1      MOL     
@<SCITEGIC>MOL_PROPERTY
VConf Rank
SciTegic.value.IntegerValue
329

@<SCITEGIC>MOL_PROPERTY
Conf_Id
SciTegic.value.IntegerValue
41

@<SCITEGIC>MOL_PROPERTY
Delta U+W
SciTegic.value.DoubleValue
-0.361

@<SCITEGIC>MOL_PROPERTY
U+W
SciTegic.value.DoubleValue
-55.252

@<SCITEGIC>MOL_PROPERTY
Grad RMS
SciTegic.value.DoubleValue
0.000000

@<SCITEGIC>MOL_PROPERTY
U
SciTegic.value.DoubleValue
7.244

@<SCITEGIC>MOL_PROPERTY
W
SciTegic.value.DoubleValue
-62.496

@<SCITEGIC>MOL_PROPERTY
W(PB)
SciTegic.value.DoubleValue
-64.596

@<SCITEGIC>MOL_PROPERTY
W(SA)
SciTegic.value.DoubleValue
2.099

@<SCITEGIC>MOL_PROPERTY
Valence
SciTegic.value.DoubleValue
7.174

@<SCITEGIC>MOL_PROPERTY
Coulomb
SciTegic.value.DoubleValue
-0.669

@<SCITEGIC>MOL_PROPERTY
VdW
SciTegic.value.DoubleValue
0.739

@<SCITEGIC>MOL_PROPERTY
VdW6
SciTegic.value.DoubleValue
-5.969

@<SCITEGIC>MOL_PROPERTY
VdW12
SciTegic.value.DoubleValue
6.708

@<SCITEGIC>MOL_PROPERTY
Bond
SciTegic.value.DoubleValue
0.116

@<SCITEGIC>MOL_PROPERTY
Angle
SciTegic.value.DoubleValue
2.481

@<SCITEGIC>MOL_PROPERTY
Pdih
SciTegic.value.DoubleValue
4.576

@<SCITEGIC>MOL_PROPERTY
Idih
SciTegic.value.DoubleValue
0.000

@<SCITEGIC>MOL_PROPERTY
Tether
SciTegic.value.DoubleValue
0.000

@<TRIPOS>MOLECULE
guest-7_confgen4.mol2 : confsearch ligand conformer 330
          19          18           1
SMALL
USER_CHARGES
 
@<TRIPOS>ATOM
       1    C1      17.393733   18.757482   20.849617 C.2        1 MOL1         0.6115
       2    O1      16.646636   18.367667   21.725082 O.co2      1 MOL1        -0.6776
       3    O2      17.148040   19.704822   20.129297 O.co2      1 MOL1        -0.6776
       4    C2      18.702234   18.004317   20.626208 C.3        1 MOL1        -0.2013
       5    H1      18.804845   17.838123   19.547337 H          1 MOL1         0.0727
       6    H2      18.621440   17.015259   21.093351 H          1 MOL1         0.0727
       7    C3      19.956390   18.746113   21.157172 C.3        1 MOL1        -0.1910
       8    H3      20.854938   18.204064   20.832628 H          1 MOL1         0.0729
       9    H4      20.008020   19.745163   20.702347 H          1 MOL1         0.0729
      10    C4      19.965398   18.871003   22.697182 C.3        1 MOL1        -0.1909
      11    H5      19.900485   17.870777   23.147032 H          1 MOL1         0.0729
      12    H6      19.077713   19.427306   23.028791 H          1 MOL1         0.0729
      13    C5      21.236159   19.583635   23.205047 C.3        1 MOL1        -0.1884
      14    H7      22.127409   19.029238   22.879859 H          1 MOL1         0.0729
      15    H8      21.302320   20.585452   22.758438 H          1 MOL1         0.0729
      16    C6      21.242210   19.706605   24.741867 C.3        1 MOL1        -0.2899
      17    H9      21.208257   18.716536   25.215171 H          1 MOL1         0.0741
      18    H10     22.151949   20.215768   25.085690 H          1 MOL1         0.0741
      19    H11     20.377045   20.284278   25.092903 H          1 MOL1         0.0741
@<TRIPOS>BOND
    1     1     2    1
    2     1     3    2
    3     1     4    1
    4     4     5    1
    5     4     6    1
    6     4     7    1
    7     7     8    1
    8     7     9    1
    9     7    10    1
   10    10    11    1
   11    10    12    1
   12    10    13    1
   13    13    14    1
   14    13    15    1
   15    13    16    1
   16    16    17    1
   17    16    18    1
   18    16    19    1
@<TRIPOS>SUBSTRUCTURE
       1 MOL1            1 RESIDUE      1      MOL     
@<SCITEGIC>MOL_PROPERTY
VConf Rank
SciTegic.value.IntegerValue
330

@<SCITEGIC>MOL_PROPERTY
Conf_Id
SciTegic.value.IntegerValue
36

@<SCITEGIC>MOL_PROPERTY
Delta U+W
SciTegic.value.DoubleValue
-0.079

@<SCITEGIC>MOL_PROPERTY
U+W
SciTegic.value.DoubleValue
-54.971

@<SCITEGIC>MOL_PROPERTY
Grad RMS
SciTegic.value.DoubleValue
0.000000

@<SCITEGIC>MOL_PROPERTY
U
SciTegic.value.DoubleValue
8.266

@<SCITEGIC>MOL_PROPERTY
W
SciTegic.value.DoubleValue
-63.237

@<SCITEGIC>MOL_PROPERTY
W(PB)
SciTegic.value.DoubleValue
-65.340

@<SCITEGIC>MOL_PROPERTY
W(SA)
SciTegic.value.DoubleValue
2.103

@<SCITEGIC>MOL_PROPERTY
Valence
SciTegic.value.DoubleValue
6.935

@<SCITEGIC>MOL_PROPERTY
Coulomb
SciTegic.value.DoubleValue
0.874

@<SCITEGIC>MOL_PROPERTY
VdW
SciTegic.value.DoubleValue
0.457

@<SCITEGIC>MOL_PROPERTY
VdW6
SciTegic.value.DoubleValue
-6.205

@<SCITEGIC>MOL_PROPERTY
VdW12
SciTegic.value.DoubleValue
6.662

@<SCITEGIC>MOL_PROPERTY
Bond
SciTegic.value.DoubleValue
0.107

@<SCITEGIC>MOL_PROPERTY
Angle
SciTegic.value.DoubleValue
2.420

@<SCITEGIC>MOL_PROPERTY
Pdih
SciTegic.value.DoubleValue
4.407

@<SCITEGIC>MOL_PROPERTY
Idih
SciTegic.value.DoubleValue
0.001

@<SCITEGIC>MOL_PROPERTY
Tether
SciTegic.value.DoubleValue
0.000

@<TRIPOS>MOLECULE
guest-7_confgen4.mol2 : confsearch ligand conformer 331
          19          18           1
SMALL
USER_CHARGES
 
@<TRIPOS>ATOM
       1    C1      22.656816   17.600437   22.136651 C.2        1 MOL1         0.6115
       2    O1      22.422572   16.865506   21.197737 O.co2      1 MOL1        -0.6776
       3    O2      23.115817   17.214613   23.193599 O.co2      1 MOL1        -0.6776
       4    C2      22.380423   19.092626   21.974400 C.3        1 MOL1        -0.2013
       5    H1      22.304854   19.320689   20.904230 H          1 MOL1         0.0727
       6    H2      23.257238   19.631520   22.352418 H          1 MOL1         0.0727
       7    C3      21.110915   19.584133   22.717274 C.3        1 MOL1        -0.1910
       8    H3      21.188476   19.323400   23.781997 H          1 MOL1         0.0729
       9    H4      21.068021   20.680349   22.662437 H          1 MOL1         0.0729
      10    C4      19.810897   18.993424   22.127083 C.3        1 MOL1        -0.1909
      11    H5      19.838686   17.896979   22.193845 H          1 MOL1         0.0729
      12    H6      19.744461   19.245629   21.059840 H          1 MOL1         0.0729
      13    C5      18.559744   19.520013   22.860517 C.3        1 MOL1        -0.1884
      14    H7      18.622483   19.266984   23.927997 H          1 MOL1         0.0729
      15    H8      18.524346   20.616224   22.793431 H          1 MOL1         0.0729
      16    C6      17.264375   18.928824   22.269336 C.3        1 MOL1        -0.2899
      17    H9      17.259151   17.834009   22.351780 H          1 MOL1         0.0741
      18    H10     16.385126   19.313181   22.802511 H          1 MOL1         0.0741
      19    H11     17.160284   19.193274   21.208847 H          1 MOL1         0.0741
@<TRIPOS>BOND
    1     1     2    1
    2     1     3    2
    3     1     4    1
    4     4     5    1
    5     4     6    1
    6     4     7    1
    7     7     8    1
    8     7     9    1
    9     7    10    1
   10    10    11    1
   11    10    12    1
   12    10    13    1
   13    13    14    1
   14    13    15    1
   15    13    16    1
   16    16    17    1
   17    16    18    1
   18    16    19    1
@<TRIPOS>SUBSTRUCTURE
       1 MOL1            1 RESIDUE      1      MOL     
@<SCITEGIC>MOL_PROPERTY
VConf Rank
SciTegic.value.IntegerValue
331

@<SCITEGIC>MOL_PROPERTY
Conf_Id
SciTegic.value.IntegerValue
35

@<SCITEGIC>MOL_PROPERTY
Delta U+W
SciTegic.value.DoubleValue
-0.030

@<SCITEGIC>MOL_PROPERTY
U+W
SciTegic.value.DoubleValue
-54.921

@<SCITEGIC>MOL_PROPERTY
Grad RMS
SciTegic.value.DoubleValue
0.000000

@<SCITEGIC>MOL_PROPERTY
U
SciTegic.value.DoubleValue
8.267

@<SCITEGIC>MOL_PROPERTY
W
SciTegic.value.DoubleValue
-63.188

@<SCITEGIC>MOL_PROPERTY
W(PB)
SciTegic.value.DoubleValue
-65.294

@<SCITEGIC>MOL_PROPERTY
W(SA)
SciTegic.value.DoubleValue
2.106

@<SCITEGIC>MOL_PROPERTY
Valence
SciTegic.value.DoubleValue
6.935

@<SCITEGIC>MOL_PROPERTY
Coulomb
SciTegic.value.DoubleValue
0.875

@<SCITEGIC>MOL_PROPERTY
VdW
SciTegic.value.DoubleValue
0.457

@<SCITEGIC>MOL_PROPERTY
VdW6
SciTegic.value.DoubleValue
-6.205

@<SCITEGIC>MOL_PROPERTY
VdW12
SciTegic.value.DoubleValue
6.662

@<SCITEGIC>MOL_PROPERTY
Bond
SciTegic.value.DoubleValue
0.107

@<SCITEGIC>MOL_PROPERTY
Angle
SciTegic.value.DoubleValue
2.420

@<SCITEGIC>MOL_PROPERTY
Pdih
SciTegic.value.DoubleValue
4.407

@<SCITEGIC>MOL_PROPERTY
Idih
SciTegic.value.DoubleValue
0.001

@<SCITEGIC>MOL_PROPERTY
Tether
SciTegic.value.DoubleValue
0.000

@<TRIPOS>MOLECULE
guest-7_confgen4.mol2 : confsearch ligand conformer 332
          19          18           1
SMALL
USER_CHARGES
 
@<TRIPOS>ATOM
       1    C1      22.787106   19.976948   22.553671 C.2        1 MOL1         0.6115
       2    O1      23.207926   20.456238   21.519311 O.co2      1 MOL1        -0.6776
       3    O2      23.424458   19.207719   23.245563 O.co2      1 MOL1        -0.6776
       4    C2      21.390623   20.381297   23.018232 C.3        1 MOL1        -0.2013
       5    H1      21.314238   21.470210   22.915627 H          1 MOL1         0.0727
       6    H2      21.297765   20.156146   24.087644 H          1 MOL1         0.0727
       7    C3      20.239986   19.705609   22.227536 C.3        1 MOL1        -0.1910
       8    H3      19.292102   20.170975   22.526369 H          1 MOL1         0.0729
       9    H4      20.368366   19.906788   21.154981 H          1 MOL1         0.0729
      10    C4      20.169159   18.178921   22.470214 C.3        1 MOL1        -0.1909
      11    H5      20.002336   17.980939   23.537824 H          1 MOL1         0.0729
      12    H6      21.139271   17.728195   22.219709 H          1 MOL1         0.0729
      13    C5      19.074538   17.474495   21.635698 C.3        1 MOL1        -0.1884
      14    H7      19.240032   17.669013   20.567014 H          1 MOL1         0.0729
      15    H8      19.172239   16.388641   21.772069 H          1 MOL1         0.0729
      16    C6      17.641265   17.896509   22.025120 C.3        1 MOL1        -0.2899
      17    H9      17.457940   18.953487   21.795311 H          1 MOL1         0.0741
      18    H10     16.902800   17.303475   21.470217 H          1 MOL1         0.0741
      19    H11     17.463280   17.740451   23.097087 H          1 MOL1         0.0741
@<TRIPOS>BOND
    1     1     2    1
    2     1     3    2
    3     1     4    1
    4     4     5    1
    5     4     6    1
    6     4     7    1
    7     7     8    1
    8     7     9    1
    9     7    10    1
   10    10    11    1
   11    10    12    1
   12    10    13    1
   13    13    14    1
   14    13    15    1
   15    13    16    1
   16    16    17    1
   17    16    18    1
   18    16    19    1
@<TRIPOS>SUBSTRUCTURE
       1 MOL1            1 RESIDUE      1      MOL     
@<SCITEGIC>MOL_PROPERTY
VConf Rank
SciTegic.value.IntegerValue
332

@<SCITEGIC>MOL_PROPERTY
Conf_Id
SciTegic.value.IntegerValue
74

@<SCITEGIC>MOL_PROPERTY
Delta U+W
SciTegic.value.DoubleValue
0.797

@<SCITEGIC>MOL_PROPERTY
U+W
SciTegic.value.DoubleValue
-54.095

@<SCITEGIC>MOL_PROPERTY
Grad RMS
SciTegic.value.DoubleValue
0.000000

@<SCITEGIC>MOL_PROPERTY
U
SciTegic.value.DoubleValue
8.869

@<SCITEGIC>MOL_PROPERTY
W
SciTegic.value.DoubleValue
-62.964

@<SCITEGIC>MOL_PROPERTY
W(PB)
SciTegic.value.DoubleValue
-65.046

@<SCITEGIC>MOL_PROPERTY
W(SA)
SciTegic.value.DoubleValue
2.082

@<SCITEGIC>MOL_PROPERTY
Valence
SciTegic.value.DoubleValue
7.469

@<SCITEGIC>MOL_PROPERTY
Coulomb
SciTegic.value.DoubleValue
0.762

@<SCITEGIC>MOL_PROPERTY
VdW
SciTegic.value.DoubleValue
0.639

@<SCITEGIC>MOL_PROPERTY
VdW6
SciTegic.value.DoubleValue
-6.782

@<SCITEGIC>MOL_PROPERTY
VdW12
SciTegic.value.DoubleValue
7.421

@<SCITEGIC>MOL_PROPERTY
Bond
SciTegic.value.DoubleValue
0.141

@<SCITEGIC>MOL_PROPERTY
Angle
SciTegic.value.DoubleValue
2.667

@<SCITEGIC>MOL_PROPERTY
Pdih
SciTegic.value.DoubleValue
4.660

@<SCITEGIC>MOL_PROPERTY
Idih
SciTegic.value.DoubleValue
0.001

@<SCITEGIC>MOL_PROPERTY
Tether
SciTegic.value.DoubleValue
0.000

@<TRIPOS>MOLECULE
guest-7_confgen4.mol2 : confsearch ligand conformer 333
          19          18           1
SMALL
USER_CHARGES
 
@<TRIPOS>ATOM
       1    C1      21.591582   16.831858   21.039334 C.2        1 MOL1         0.6115
       2    O1      21.877155   16.680344   19.868046 O.co2      1 MOL1        -0.6776
       3    O2      22.240659   16.366424   21.954971 O.co2      1 MOL1        -0.6776
       4    C2      20.362302   17.667384   21.378427 C.3        1 MOL1        -0.2013
       5    H1      19.925344   17.260467   22.297473 H          1 MOL1         0.0727
       6    H2      19.625292   17.530241   20.578199 H          1 MOL1         0.0727
       7    C3      20.688902   19.173243   21.552529 C.3        1 MOL1        -0.1910
       8    H3      21.398116   19.301844   22.380934 H          1 MOL1         0.0729
       9    H4      21.207470   19.527876   20.651129 H          1 MOL1         0.0729
      10    C4      19.436269   20.056351   21.780034 C.3        1 MOL1        -0.1909
      11    H5      18.789699   19.991553   20.894290 H          1 MOL1         0.0729
      12    H6      19.752722   21.106114   21.848132 H          1 MOL1         0.0729
      13    C5      18.599336   19.703832   23.034296 C.3        1 MOL1        -0.1884
      14    H7      17.736576   20.382480   23.080803 H          1 MOL1         0.0729
      15    H8      18.183973   18.691717   22.940989 H          1 MOL1         0.0729
      16    C6      19.394304   19.820842   24.352526 C.3        1 MOL1        -0.2899
      17    H9      19.838475   20.819339   24.456185 H          1 MOL1         0.0741
      18    H10     18.736024   19.651780   25.214443 H          1 MOL1         0.0741
      19    H11     20.200587   19.077875   24.399156 H          1 MOL1         0.0741
@<TRIPOS>BOND
    1     1     2    1
    2     1     3    2
    3     1     4    1
    4     4     5    1
    5     4     6    1
    6     4     7    1
    7     7     8    1
    8     7     9    1
    9     7    10    1
   10    10    11    1
   11    10    12    1
   12    10    13    1
   13    13    14    1
   14    13    15    1
   15    13    16    1
   16    16    17    1
   17    16    18    1
   18    16    19    1
@<TRIPOS>SUBSTRUCTURE
       1 MOL1            1 RESIDUE      1      MOL     
@<SCITEGIC>MOL_PROPERTY
VConf Rank
SciTegic.value.IntegerValue
333

@<SCITEGIC>MOL_PROPERTY
Conf_Id
SciTegic.value.IntegerValue
67

@<SCITEGIC>MOL_PROPERTY
Delta U+W
SciTegic.value.DoubleValue
0.308

@<SCITEGIC>MOL_PROPERTY
U+W
SciTegic.value.DoubleValue
-54.583

@<SCITEGIC>MOL_PROPERTY
Grad RMS
SciTegic.value.DoubleValue
0.000000

@<SCITEGIC>MOL_PROPERTY
U
SciTegic.value.DoubleValue
8.219

@<SCITEGIC>MOL_PROPERTY
W
SciTegic.value.DoubleValue
-62.802

@<SCITEGIC>MOL_PROPERTY
W(PB)
SciTegic.value.DoubleValue
-64.859

@<SCITEGIC>MOL_PROPERTY
W(SA)
SciTegic.value.DoubleValue
2.057

@<SCITEGIC>MOL_PROPERTY
Valence
SciTegic.value.DoubleValue
7.609

@<SCITEGIC>MOL_PROPERTY
Coulomb
SciTegic.value.DoubleValue
-0.089

@<SCITEGIC>MOL_PROPERTY
VdW
SciTegic.value.DoubleValue
0.699

@<SCITEGIC>MOL_PROPERTY
VdW6
SciTegic.value.DoubleValue
-6.924

@<SCITEGIC>MOL_PROPERTY
VdW12
SciTegic.value.DoubleValue
7.623

@<SCITEGIC>MOL_PROPERTY
Bond
SciTegic.value.DoubleValue
0.163

@<SCITEGIC>MOL_PROPERTY
Angle
SciTegic.value.DoubleValue
2.870

@<SCITEGIC>MOL_PROPERTY
Pdih
SciTegic.value.DoubleValue
4.576

@<SCITEGIC>MOL_PROPERTY
Idih
SciTegic.value.DoubleValue
0.001

@<SCITEGIC>MOL_PROPERTY
Tether
SciTegic.value.DoubleValue
0.000

@<TRIPOS>MOLECULE
guest-7_confgen4.mol2 : confsearch ligand conformer 334
          19          18           1
SMALL
USER_CHARGES
 
@<TRIPOS>ATOM
       1    C1      21.262004   19.527559   19.732457 C.2        1 MOL1         0.6115
       2    O1      21.657206   18.764959   18.872992 O.co2      1 MOL1        -0.6776
       3    O2      21.674195   20.662864   19.864757 O.co2      1 MOL1        -0.6776
       4    C2      20.205361   19.025420   20.709994 C.3        1 MOL1        -0.2013
       5    H1      19.565376   18.308510   20.181967 H          1 MOL1         0.0727
       6    H2      19.577228   19.878810   20.989878 H          1 MOL1         0.0727
       7    C3      20.819561   18.365872   21.971875 C.3        1 MOL1        -0.1910
       8    H3      21.513335   17.575378   21.654075 H          1 MOL1         0.0729
       9    H4      21.427195   19.103341   22.512891 H          1 MOL1         0.0729
      10    C4      19.764791   17.743553   22.921034 C.3        1 MOL1        -0.1909
      11    H5      20.285812   17.262584   23.760073 H          1 MOL1         0.0729
      12    H6      19.238765   16.938807   22.389551 H          1 MOL1         0.0729
      13    C5      18.717694   18.735317   23.484852 C.3        1 MOL1        -0.1884
      14    H7      18.112065   19.151866   22.669187 H          1 MOL1         0.0729
      15    H8      18.020427   18.179781   24.126942 H          1 MOL1         0.0729
      16    C6      19.342894   19.882525   24.307310 C.3        1 MOL1        -0.2899
      17    H9      19.959749   20.535105   23.676519 H          1 MOL1         0.0741
      18    H10     18.558371   20.502484   24.760068 H          1 MOL1         0.0741
      19    H11     19.972235   19.488615   25.115886 H          1 MOL1         0.0741
@<TRIPOS>BOND
    1     1     2    1
    2     1     3    2
    3     1     4    1
    4     4     5    1
    5     4     6    1
    6     4     7    1
    7     7     8    1
    8     7     9    1
    9     7    10    1
   10    10    11    1
   11    10    12    1
   12    10    13    1
   13    13    14    1
   14    13    15    1
   15    13    16    1
   16    16    17    1
   17    16    18    1
   18    16    19    1
@<TRIPOS>SUBSTRUCTURE
       1 MOL1            1 RESIDUE      1      MOL     
@<SCITEGIC>MOL_PROPERTY
VConf Rank
SciTegic.value.IntegerValue
334

@<SCITEGIC>MOL_PROPERTY
Conf_Id
SciTegic.value.IntegerValue
21

@<SCITEGIC>MOL_PROPERTY
Delta U+W
SciTegic.value.DoubleValue
0.319

@<SCITEGIC>MOL_PROPERTY
U+W
SciTegic.value.DoubleValue
-54.572

@<SCITEGIC>MOL_PROPERTY
Grad RMS
SciTegic.value.DoubleValue
0.000000

@<SCITEGIC>MOL_PROPERTY
U
SciTegic.value.DoubleValue
8.220

@<SCITEGIC>MOL_PROPERTY
W
SciTegic.value.DoubleValue
-62.792

@<SCITEGIC>MOL_PROPERTY
W(PB)
SciTegic.value.DoubleValue
-64.830

@<SCITEGIC>MOL_PROPERTY
W(SA)
SciTegic.value.DoubleValue
2.038

@<SCITEGIC>MOL_PROPERTY
Valence
SciTegic.value.DoubleValue
7.609

@<SCITEGIC>MOL_PROPERTY
Coulomb
SciTegic.value.DoubleValue
-0.088

@<SCITEGIC>MOL_PROPERTY
VdW
SciTegic.value.DoubleValue
0.699

@<SCITEGIC>MOL_PROPERTY
VdW6
SciTegic.value.DoubleValue
-6.924

@<SCITEGIC>MOL_PROPERTY
VdW12
SciTegic.value.DoubleValue
7.623

@<SCITEGIC>MOL_PROPERTY
Bond
SciTegic.value.DoubleValue
0.163

@<SCITEGIC>MOL_PROPERTY
Angle
SciTegic.value.DoubleValue
2.870

@<SCITEGIC>MOL_PROPERTY
Pdih
SciTegic.value.DoubleValue
4.576

@<SCITEGIC>MOL_PROPERTY
Idih
SciTegic.value.DoubleValue
0.000

@<SCITEGIC>MOL_PROPERTY
Tether
SciTegic.value.DoubleValue
0.000

@<TRIPOS>MOLECULE
guest-7_confgen4.mol2 : confsearch ligand conformer 335
          19          18           1
SMALL
USER_CHARGES
 
@<TRIPOS>ATOM
       1    C1      22.058563   17.045458   21.573613 C.2        1 MOL1         0.6115
       2    O1      23.201770   16.934981   21.970237 O.co2      1 MOL1        -0.6776
       3    O2      21.436969   16.140087   21.053827 O.co2      1 MOL1        -0.6776
       4    C2      21.360265   18.388420   21.755033 C.3        1 MOL1        -0.2013
       5    H1      20.662674   18.519346   20.921937 H          1 MOL1         0.0727
       6    H2      22.116294   19.177547   21.665132 H          1 MOL1         0.0727
       7    C3      20.629351   18.506095   23.118672 C.3        1 MOL1        -0.1910
       8    H3      19.912238   17.681914   23.235958 H          1 MOL1         0.0729
       9    H4      21.376209   18.377011   23.914245 H          1 MOL1         0.0729
      10    C4      19.918971   19.868394   23.322252 C.3        1 MOL1        -0.1909
      11    H5      20.448613   20.659812   22.774497 H          1 MOL1         0.0729
      12    H6      19.995704   20.137908   24.384536 H          1 MOL1         0.0729
      13    C5      18.416400   19.876243   22.947913 C.3        1 MOL1        -0.1884
      14    H7      17.879329   19.142804   23.565068 H          1 MOL1         0.0729
      15    H8      17.998477   20.859142   23.205678 H          1 MOL1         0.0729
      16    C6      18.133893   19.595163   21.457652 C.3        1 MOL1        -0.2899
      17    H9      17.069639   19.744518   21.234333 H          1 MOL1         0.0741
      18    H10     18.713216   20.268316   20.812495 H          1 MOL1         0.0741
      19    H11     18.383300   18.559122   21.196480 H          1 MOL1         0.0741
@<TRIPOS>BOND
    1     1     2    1
    2     1     3    2
    3     1     4    1
    4     4     5    1
    5     4     6    1
    6     4     7    1
    7     7     8    1
    8     7     9    1
    9     7    10    1
   10    10    11    1
   11    10    12    1
   12    10    13    1
   13    13    14    1
   14    13    15    1
   15    13    16    1
   16    16    17    1
   17    16    18    1
   18    16    19    1
@<TRIPOS>SUBSTRUCTURE
       1 MOL1            1 RESIDUE      1      MOL     
@<SCITEGIC>MOL_PROPERTY
VConf Rank
SciTegic.value.IntegerValue
335

@<SCITEGIC>MOL_PROPERTY
Conf_Id
SciTegic.value.IntegerValue
24

@<SCITEGIC>MOL_PROPERTY
Delta U+W
SciTegic.value.DoubleValue
2.477

@<SCITEGIC>MOL_PROPERTY
U+W
SciTegic.value.DoubleValue
-52.414

@<SCITEGIC>MOL_PROPERTY
Grad RMS
SciTegic.value.DoubleValue
0.000000

@<SCITEGIC>MOL_PROPERTY
U
SciTegic.value.DoubleValue
10.422

@<SCITEGIC>MOL_PROPERTY
W
SciTegic.value.DoubleValue
-62.836

@<SCITEGIC>MOL_PROPERTY
W(PB)
SciTegic.value.DoubleValue
-64.906

@<SCITEGIC>MOL_PROPERTY
W(SA)
SciTegic.value.DoubleValue
2.070

@<SCITEGIC>MOL_PROPERTY
Valence
SciTegic.value.DoubleValue
9.628

@<SCITEGIC>MOL_PROPERTY
Coulomb
SciTegic.value.DoubleValue
0.101

@<SCITEGIC>MOL_PROPERTY
VdW
SciTegic.value.DoubleValue
0.693

@<SCITEGIC>MOL_PROPERTY
VdW6
SciTegic.value.DoubleValue
-6.927

@<SCITEGIC>MOL_PROPERTY
VdW12
SciTegic.value.DoubleValue
7.620

@<SCITEGIC>MOL_PROPERTY
Bond
SciTegic.value.DoubleValue
0.173

@<SCITEGIC>MOL_PROPERTY
Angle
SciTegic.value.DoubleValue
2.989

@<SCITEGIC>MOL_PROPERTY
Pdih
SciTegic.value.DoubleValue
6.465

@<SCITEGIC>MOL_PROPERTY
Idih
SciTegic.value.DoubleValue
0.001

@<SCITEGIC>MOL_PROPERTY
Tether
SciTegic.value.DoubleValue
0.000

@<TRIPOS>MOLECULE
guest-7_confgen4.mol2 : confsearch ligand conformer 336
          19          18           1
SMALL
USER_CHARGES
 
@<TRIPOS>ATOM
       1    C1      18.422836   18.328101   20.356170 C.2        1 MOL1         0.6115
       2    O1      19.098862   18.885461   19.514131 O.co2      1 MOL1        -0.6776
       3    O2      17.793577   17.310008   20.145001 O.co2      1 MOL1        -0.6776
       4    C2      18.333952   18.953424   21.745884 C.3        1 MOL1        -0.2013
       5    H1      17.272079   18.993711   22.015252 H          1 MOL1         0.0727
       6    H2      18.680266   19.989805   21.680978 H          1 MOL1         0.0727
       7    C3      19.112048   18.171970   22.840797 C.3        1 MOL1        -0.1910
       8    H3      18.839678   18.552934   23.834232 H          1 MOL1         0.0729
       9    H4      18.775190   17.126295   22.815787 H          1 MOL1         0.0729
      10    C4      20.653424   18.204356   22.671713 C.3        1 MOL1        -0.1909
      11    H5      20.922634   18.286945   21.609870 H          1 MOL1         0.0729
      12    H6      21.053032   17.237002   23.005365 H          1 MOL1         0.0729
      13    C5      21.369380   19.309565   23.486469 C.3        1 MOL1        -0.1884
      14    H7      21.168479   19.167519   24.557293 H          1 MOL1         0.0729
      15    H8      22.453902   19.188598   23.358672 H          1 MOL1         0.0729
      16    C6      20.981738   20.745806   23.078421 C.3        1 MOL1        -0.2899
      17    H9      19.941341   20.966154   23.347452 H          1 MOL1         0.0741
      18    H10     21.618256   21.476459   23.593949 H          1 MOL1         0.0741
      19    H11     21.102130   20.893746   21.997169 H          1 MOL1         0.0741
@<TRIPOS>BOND
    1     1     2    1
    2     1     3    2
    3     1     4    1
    4     4     5    1
    5     4     6    1
    6     4     7    1
    7     7     8    1
    8     7     9    1
    9     7    10    1
   10    10    11    1
   11    10    12    1
   12    10    13    1
   13    13    14    1
   14    13    15    1
   15    13    16    1
   16    16    17    1
   17    16    18    1
   18    16    19    1
@<TRIPOS>SUBSTRUCTURE
       1 MOL1            1 RESIDUE      1      MOL     
@<SCITEGIC>MOL_PROPERTY
VConf Rank
SciTegic.value.IntegerValue
336

@<SCITEGIC>MOL_PROPERTY
Conf_Id
SciTegic.value.IntegerValue
4

@<SCITEGIC>MOL_PROPERTY
Delta U+W
SciTegic.value.DoubleValue
3.753

@<SCITEGIC>MOL_PROPERTY
U+W
SciTegic.value.DoubleValue
-51.138

@<SCITEGIC>MOL_PROPERTY
Grad RMS
SciTegic.value.DoubleValue
0.000000

@<SCITEGIC>MOL_PROPERTY
U
SciTegic.value.DoubleValue
12.334

@<SCITEGIC>MOL_PROPERTY
W
SciTegic.value.DoubleValue
-63.472

@<SCITEGIC>MOL_PROPERTY
W(PB)
SciTegic.value.DoubleValue
-65.500

@<SCITEGIC>MOL_PROPERTY
W(SA)
SciTegic.value.DoubleValue
2.028

@<SCITEGIC>MOL_PROPERTY
Valence
SciTegic.value.DoubleValue
9.984

@<SCITEGIC>MOL_PROPERTY
Coulomb
SciTegic.value.DoubleValue
1.767

@<SCITEGIC>MOL_PROPERTY
VdW
SciTegic.value.DoubleValue
0.583

@<SCITEGIC>MOL_PROPERTY
VdW6
SciTegic.value.DoubleValue
-7.767

@<SCITEGIC>MOL_PROPERTY
VdW12
SciTegic.value.DoubleValue
8.349

@<SCITEGIC>MOL_PROPERTY
Bond
SciTegic.value.DoubleValue
0.203

@<SCITEGIC>MOL_PROPERTY
Angle
SciTegic.value.DoubleValue
3.191

@<SCITEGIC>MOL_PROPERTY
Pdih
SciTegic.value.DoubleValue
6.589

@<SCITEGIC>MOL_PROPERTY
Idih
SciTegic.value.DoubleValue
0.001

@<SCITEGIC>MOL_PROPERTY
Tether
SciTegic.value.DoubleValue
0.000

@<TRIPOS>MOLECULE
guest-7_confgen4.mol2 : confsearch ligand conformer 337
          19          18           1
SMALL
USER_CHARGES
 
@<TRIPOS>ATOM
       1    C1      20.611714   20.803434   24.056852 C.2        1 MOL1         0.6115
       2    O1      20.374501   20.957805   25.238789 O.co2      1 MOL1        -0.6776
       3    O2      21.697112   21.022976   23.556449 O.co2      1 MOL1        -0.6776
       4    C2      19.475748   20.336693   23.150230 C.3        1 MOL1        -0.2013
       5    H1      19.752723   20.548733   22.112660 H          1 MOL1         0.0727
       6    H2      18.603841   20.961567   23.376208 H          1 MOL1         0.0727
       7    C3      19.096379   18.840778   23.332595 C.3        1 MOL1        -0.1910
       8    H3      18.895366   18.669058   24.399197 H          1 MOL1         0.0729
       9    H4      18.153629   18.629730   22.810184 H          1 MOL1         0.0729
      10    C4      20.189430   17.845338   22.863754 C.3        1 MOL1        -0.1909
      11    H5      20.167535   16.975096   23.533815 H          1 MOL1         0.0729
      12    H6      21.188447   18.286648   22.982138 H          1 MOL1         0.0729
      13    C5      20.009787   17.323290   21.417001 C.3        1 MOL1        -0.1884
      14    H7      20.784247   16.569086   21.220680 H          1 MOL1         0.0729
      15    H8      19.045671   16.803720   21.329083 H          1 MOL1         0.0729
      16    C6      20.102255   18.418593   20.334726 C.3        1 MOL1        -0.2899
      17    H9      21.024366   19.004226   20.445320 H          1 MOL1         0.0741
      18    H10     20.103374   17.969585   19.333143 H          1 MOL1         0.0741
      19    H11     19.245803   19.101860   20.389420 H          1 MOL1         0.0741
@<TRIPOS>BOND
    1     1     2    1
    2     1     3    2
    3     1     4    1
    4     4     5    1
    5     4     6    1
    6     4     7    1
    7     7     8    1
    8     7     9    1
    9     7    10    1
   10    10    11    1
   11    10    12    1
   12    10    13    1
   13    13    14    1
   14    13    15    1
   15    13    16    1
   16    16    17    1
   17    16    18    1
   18    16    19    1
@<TRIPOS>SUBSTRUCTURE
       1 MOL1            1 RESIDUE      1      MOL     
@<SCITEGIC>MOL_PROPERTY
VConf Rank
SciTegic.value.IntegerValue
337

@<SCITEGIC>MOL_PROPERTY
Conf_Id
SciTegic.value.IntegerValue
73

@<SCITEGIC>MOL_PROPERTY
Delta U+W
SciTegic.value.DoubleValue
3.707

@<SCITEGIC>MOL_PROPERTY
U+W
SciTegic.value.DoubleValue
-51.184

@<SCITEGIC>MOL_PROPERTY
Grad RMS
SciTegic.value.DoubleValue
0.000000

@<SCITEGIC>MOL_PROPERTY
U
SciTegic.value.DoubleValue
12.334

@<SCITEGIC>MOL_PROPERTY
W
SciTegic.value.DoubleValue
-63.519

@<SCITEGIC>MOL_PROPERTY
W(PB)
SciTegic.value.DoubleValue
-65.541

@<SCITEGIC>MOL_PROPERTY
W(SA)
SciTegic.value.DoubleValue
2.022

@<SCITEGIC>MOL_PROPERTY
Valence
SciTegic.value.DoubleValue
9.984

@<SCITEGIC>MOL_PROPERTY
Coulomb
SciTegic.value.DoubleValue
1.768

@<SCITEGIC>MOL_PROPERTY
VdW
SciTegic.value.DoubleValue
0.583

@<SCITEGIC>MOL_PROPERTY
VdW6
SciTegic.value.DoubleValue
-7.767

@<SCITEGIC>MOL_PROPERTY
VdW12
SciTegic.value.DoubleValue
8.350

@<SCITEGIC>MOL_PROPERTY
Bond
SciTegic.value.DoubleValue
0.203

@<SCITEGIC>MOL_PROPERTY
Angle
SciTegic.value.DoubleValue
3.192

@<SCITEGIC>MOL_PROPERTY
Pdih
SciTegic.value.DoubleValue
6.589

@<SCITEGIC>MOL_PROPERTY
Idih
SciTegic.value.DoubleValue
0.001

@<SCITEGIC>MOL_PROPERTY
Tether
SciTegic.value.DoubleValue
0.000

@<TRIPOS>MOLECULE
guest-7_confgen4.mol2 : confsearch ligand conformer 338
          19          18           1
SMALL
USER_CHARGES
 
@<TRIPOS>ATOM
       1    C1      17.426060   19.056042   23.299223 C.2        1 MOL1         0.6115
       2    O1      17.588269   19.947482   24.108998 O.co2      1 MOL1        -0.6776
       3    O2      16.388171   18.882596   22.691061 O.co2      1 MOL1        -0.6776
       4    C2      18.574554   18.081176   23.054432 C.3        1 MOL1        -0.2013
       5    H1      18.167629   17.067512   23.146997 H          1 MOL1         0.0727
       6    H2      19.310115   18.194903   23.858989 H          1 MOL1         0.0727
       7    C3      19.254819   18.236796   21.666883 C.3        1 MOL1        -0.1910
       8    H3      20.014442   17.453605   21.546681 H          1 MOL1         0.0729
       9    H4      18.505227   18.052117   20.885143 H          1 MOL1         0.0729
      10    C4      19.895947   19.626823   21.420158 C.3        1 MOL1        -0.1909
      11    H5      19.106504   20.390928   21.422350 H          1 MOL1         0.0729
      12    H6      20.327260   19.641661   20.410038 H          1 MOL1         0.0729
      13    C5      20.988270   20.039028   22.437083 C.3        1 MOL1        -0.1884
      14    H7      21.352869   21.040704   22.171360 H          1 MOL1         0.0729
      15    H8      20.553009   20.132162   23.441234 H          1 MOL1         0.0729
      16    C6      22.187614   19.067517   22.474723 C.3        1 MOL1        -0.2899
      17    H9      21.888688   18.079157   22.845801 H          1 MOL1         0.0741
      18    H10     22.624161   18.943575   21.475184 H          1 MOL1         0.0741
      19    H11     22.971024   19.450262   23.141484 H          1 MOL1         0.0741
@<TRIPOS>BOND
    1     1     2    1
    2     1     3    2
    3     1     4    1
    4     4     5    1
    5     4     6    1
    6     4     7    1
    7     7     8    1
    8     7     9    1
    9     7    10    1
   10    10    11    1
   11    10    12    1
   12    10    13    1
   13    13    14    1
   14    13    15    1
   15    13    16    1
   16    16    17    1
   17    16    18    1
   18    16    19    1
@<TRIPOS>SUBSTRUCTURE
       1 MOL1            1 RESIDUE      1      MOL     
@<SCITEGIC>MOL_PROPERTY
VConf Rank
SciTegic.value.IntegerValue
338

@<SCITEGIC>MOL_PROPERTY
Conf_Id
SciTegic.value.IntegerValue
56

@<SCITEGIC>MOL_PROPERTY
Delta U+W
SciTegic.value.DoubleValue
1.735

@<SCITEGIC>MOL_PROPERTY
U+W
SciTegic.value.DoubleValue
-53.156

@<SCITEGIC>MOL_PROPERTY
Grad RMS
SciTegic.value.DoubleValue
0.000000

@<SCITEGIC>MOL_PROPERTY
U
SciTegic.value.DoubleValue
10.214

@<SCITEGIC>MOL_PROPERTY
W
SciTegic.value.DoubleValue
-63.370

@<SCITEGIC>MOL_PROPERTY
W(PB)
SciTegic.value.DoubleValue
-65.388

@<SCITEGIC>MOL_PROPERTY
W(SA)
SciTegic.value.DoubleValue
2.018

@<SCITEGIC>MOL_PROPERTY
Valence
SciTegic.value.DoubleValue
7.868

@<SCITEGIC>MOL_PROPERTY
Coulomb
SciTegic.value.DoubleValue
1.968

@<SCITEGIC>MOL_PROPERTY
VdW
SciTegic.value.DoubleValue
0.378

@<SCITEGIC>MOL_PROPERTY
VdW6
SciTegic.value.DoubleValue
-8.067

@<SCITEGIC>MOL_PROPERTY
VdW12
SciTegic.value.DoubleValue
8.445

@<SCITEGIC>MOL_PROPERTY
Bond
SciTegic.value.DoubleValue
0.191

@<SCITEGIC>MOL_PROPERTY
Angle
SciTegic.value.DoubleValue
3.117

@<SCITEGIC>MOL_PROPERTY
Pdih
SciTegic.value.DoubleValue
4.559

@<SCITEGIC>MOL_PROPERTY
Idih
SciTegic.value.DoubleValue
0.001

@<SCITEGIC>MOL_PROPERTY
Tether
SciTegic.value.DoubleValue
0.000

@<TRIPOS>MOLECULE
guest-7_confgen4.mol2 : confsearch ligand conformer 339
          19          18           1
SMALL
USER_CHARGES
 
@<TRIPOS>ATOM
       1    C1      20.327054   16.390929   23.678124 C.2        1 MOL1         0.6115
       2    O1      20.177417   15.314444   23.134845 O.co2      1 MOL1        -0.6776
       3    O2      20.445896   16.526485   24.879738 O.co2      1 MOL1        -0.6776
       4    C2      20.345081   17.641446   22.806276 C.3        1 MOL1        -0.2013
       5    H1      20.770668   17.372488   21.832153 H          1 MOL1         0.0727
       6    H2      21.023386   18.362728   23.275492 H          1 MOL1         0.0727
       7    C3      18.939050   18.266278   22.622877 C.3        1 MOL1        -0.1910
       8    H3      18.247172   17.481981   22.285858 H          1 MOL1         0.0729
       9    H4      18.565103   18.607631   23.597986 H          1 MOL1         0.0729
      10    C4      18.886935   19.435538   21.607689 C.3        1 MOL1        -0.1909
      11    H5      17.839023   19.755160   21.525859 H          1 MOL1         0.0729
      12    H6      19.169234   19.079685   20.607351 H          1 MOL1         0.0729
      13    C5      19.737829   20.669580   21.997851 C.3        1 MOL1        -0.1884
      14    H7      19.207979   21.576686   21.675735 H          1 MOL1         0.0729
      15    H8      19.827990   20.740542   23.090619 H          1 MOL1         0.0729
      16    C6      21.137000   20.677608   21.342882 C.3        1 MOL1        -0.2899
      17    H9      21.692259   21.578045   21.635757 H          1 MOL1         0.0741
      18    H10     21.732462   19.806837   21.639197 H          1 MOL1         0.0741
      19    H11     21.055287   20.675408   20.248145 H          1 MOL1         0.0741
@<TRIPOS>BOND
    1     1     2    1
    2     1     3    2
    3     1     4    1
    4     4     5    1
    5     4     6    1
    6     4     7    1
    7     7     8    1
    8     7     9    1
    9     7    10    1
   10    10    11    1
   11    10    12    1
   12    10    13    1
   13    13    14    1
   14    13    15    1
   15    13    16    1
   16    16    17    1
   17    16    18    1
   18    16    19    1
@<TRIPOS>SUBSTRUCTURE
       1 MOL1            1 RESIDUE      1      MOL     
@<SCITEGIC>MOL_PROPERTY
VConf Rank
SciTegic.value.IntegerValue
339

@<SCITEGIC>MOL_PROPERTY
Conf_Id
SciTegic.value.IntegerValue
53

@<SCITEGIC>MOL_PROPERTY
Delta U+W
SciTegic.value.DoubleValue
2.279

@<SCITEGIC>MOL_PROPERTY
U+W
SciTegic.value.DoubleValue
-52.612

@<SCITEGIC>MOL_PROPERTY
Grad RMS
SciTegic.value.DoubleValue
0.000000

@<SCITEGIC>MOL_PROPERTY
U
SciTegic.value.DoubleValue
10.231

@<SCITEGIC>MOL_PROPERTY
W
SciTegic.value.DoubleValue
-62.843

@<SCITEGIC>MOL_PROPERTY
W(PB)
SciTegic.value.DoubleValue
-64.893

@<SCITEGIC>MOL_PROPERTY
W(SA)
SciTegic.value.DoubleValue
2.050

@<SCITEGIC>MOL_PROPERTY
Valence
SciTegic.value.DoubleValue
9.644

@<SCITEGIC>MOL_PROPERTY
Coulomb
SciTegic.value.DoubleValue
-0.164

@<SCITEGIC>MOL_PROPERTY
VdW
SciTegic.value.DoubleValue
0.751

@<SCITEGIC>MOL_PROPERTY
VdW6
SciTegic.value.DoubleValue
-6.881

@<SCITEGIC>MOL_PROPERTY
VdW12
SciTegic.value.DoubleValue
7.631

@<SCITEGIC>MOL_PROPERTY
Bond
SciTegic.value.DoubleValue
0.163

@<SCITEGIC>MOL_PROPERTY
Angle
SciTegic.value.DoubleValue
2.998

@<SCITEGIC>MOL_PROPERTY
Pdih
SciTegic.value.DoubleValue
6.482

@<SCITEGIC>MOL_PROPERTY
Idih
SciTegic.value.DoubleValue
0.001

@<SCITEGIC>MOL_PROPERTY
Tether
SciTegic.value.DoubleValue
0.000

@<TRIPOS>MOLECULE
guest-7_confgen4.mol2 : confsearch ligand conformer 340
          19          18           1
SMALL
USER_CHARGES
 
@<TRIPOS>ATOM
       1    C1      20.092172   16.717348   21.469230 C.2        1 MOL1         0.6115
       2    O1      19.170293   16.169222   22.040677 O.co2      1 MOL1        -0.6776
       3    O2      21.221217   16.268555   21.436247 O.co2      1 MOL1        -0.6776
       4    C2      19.798365   18.000467   20.694140 C.3        1 MOL1        -0.2013
       5    H1      18.730251   18.233640   20.781804 H          1 MOL1         0.0727
       6    H2      19.983587   17.772008   19.638146 H          1 MOL1         0.0727
       7    C3      20.653501   19.233184   21.101910 C.3        1 MOL1        -0.1910
       8    H3      21.706154   18.938396   21.213995 H          1 MOL1         0.0729
       9    H4      20.628131   19.952439   20.272183 H          1 MOL1         0.0729
      10    C4      20.168757   19.967065   22.376711 C.3        1 MOL1        -0.1909
      11    H5      19.118431   20.265155   22.255090 H          1 MOL1         0.0729
      12    H6      20.744132   20.897790   22.475230 H          1 MOL1         0.0729
      13    C5      20.328373   19.146209   23.675284 C.3        1 MOL1        -0.1884
      14    H7      19.659506   18.276358   23.655729 H          1 MOL1         0.0729
      15    H8      21.354871   18.761100   23.748698 H          1 MOL1         0.0729
      16    C6      20.006443   19.993325   24.922918 C.3        1 MOL1        -0.2899
      17    H9      18.975646   20.369449   24.886195 H          1 MOL1         0.0741
      18    H10     20.116186   19.393569   25.835768 H          1 MOL1         0.0741
      19    H11     20.683583   20.854080   24.999737 H          1 MOL1         0.0741
@<TRIPOS>BOND
    1     1     2    1
    2     1     3    2
    3     1     4    1
    4     4     5    1
    5     4     6    1
    6     4     7    1
    7     7     8    1
    8     7     9    1
    9     7    10    1
   10    10    11    1
   11    10    12    1
   12    10    13    1
   13    13    14    1
   14    13    15    1
   15    13    16    1
   16    16    17    1
   17    16    18    1
   18    16    19    1
@<TRIPOS>SUBSTRUCTURE
       1 MOL1            1 RESIDUE      1      MOL     
@<SCITEGIC>MOL_PROPERTY
VConf Rank
SciTegic.value.IntegerValue
340

@<SCITEGIC>MOL_PROPERTY
Conf_Id
SciTegic.value.IntegerValue
25

@<SCITEGIC>MOL_PROPERTY
Delta U+W
SciTegic.value.DoubleValue
2.065

@<SCITEGIC>MOL_PROPERTY
U+W
SciTegic.value.DoubleValue
-52.826

@<SCITEGIC>MOL_PROPERTY
Grad RMS
SciTegic.value.DoubleValue
0.000000

@<SCITEGIC>MOL_PROPERTY
U
SciTegic.value.DoubleValue
10.967

@<SCITEGIC>MOL_PROPERTY
W
SciTegic.value.DoubleValue
-63.794

@<SCITEGIC>MOL_PROPERTY
W(PB)
SciTegic.value.DoubleValue
-65.830

@<SCITEGIC>MOL_PROPERTY
W(SA)
SciTegic.value.DoubleValue
2.036

@<SCITEGIC>MOL_PROPERTY
Valence
SciTegic.value.DoubleValue
8.609

@<SCITEGIC>MOL_PROPERTY
Coulomb
SciTegic.value.DoubleValue
1.892

@<SCITEGIC>MOL_PROPERTY
VdW
SciTegic.value.DoubleValue
0.467

@<SCITEGIC>MOL_PROPERTY
VdW6
SciTegic.value.DoubleValue
-7.569

@<SCITEGIC>MOL_PROPERTY
VdW12
SciTegic.value.DoubleValue
8.036

@<SCITEGIC>MOL_PROPERTY
Bond
SciTegic.value.DoubleValue
0.170

@<SCITEGIC>MOL_PROPERTY
Angle
SciTegic.value.DoubleValue
3.195

@<SCITEGIC>MOL_PROPERTY
Pdih
SciTegic.value.DoubleValue
5.237

@<SCITEGIC>MOL_PROPERTY
Idih
SciTegic.value.DoubleValue
0.007

@<SCITEGIC>MOL_PROPERTY
Tether
SciTegic.value.DoubleValue
0.000

@<TRIPOS>MOLECULE
guest-7_confgen4.mol2 : confsearch ligand conformer 341
          19          18           1
SMALL
USER_CHARGES
 
@<TRIPOS>ATOM
       1    C1      20.629576   20.129568   20.517379 C.2        1 MOL1         0.6115
       2    O1      20.469814   21.308408   20.766499 O.co2      1 MOL1        -0.6776
       3    O2      20.026165   19.542788   19.640774 O.co2      1 MOL1        -0.6776
       4    C2      21.693686   19.360612   21.298316 C.3        1 MOL1        -0.2013
       5    H1      22.653104   19.834692   21.060849 H          1 MOL1         0.0727
       6    H2      21.747069   18.334921   20.913569 H          1 MOL1         0.0727
       7    C3      21.504921   19.347353   22.841469 C.3        1 MOL1        -0.1910
       8    H3      22.474034   19.107109   23.299202 H          1 MOL1         0.0729
       9    H4      21.244947   20.354536   23.195784 H          1 MOL1         0.0729
      10    C4      20.470516   18.318177   23.360583 C.3        1 MOL1        -0.1909
      11    H5      20.536979   18.289622   24.456839 H          1 MOL1         0.0729
      12    H6      20.740326   17.313003   23.008922 H          1 MOL1         0.0729
      13    C5      19.012442   18.634010   22.960776 C.3        1 MOL1        -0.1884
      14    H7      18.771864   19.674139   23.220869 H          1 MOL1         0.0729
      15    H8      18.890489   18.538059   21.874347 H          1 MOL1         0.0729
      16    C6      18.016648   17.685855   23.658798 C.3        1 MOL1        -0.2899
      17    H9      16.986782   17.917741   23.357716 H          1 MOL1         0.0741
      18    H10     18.219912   16.639888   23.394233 H          1 MOL1         0.0741
      19    H11     18.080273   17.782569   24.750547 H          1 MOL1         0.0741
@<TRIPOS>BOND
    1     1     2    1
    2     1     3    2
    3     1     4    1
    4     4     5    1
    5     4     6    1
    6     4     7    1
    7     7     8    1
    8     7     9    1
    9     7    10    1
   10    10    11    1
   11    10    12    1
   12    10    13    1
   13    13    14    1
   14    13    15    1
   15    13    16    1
   16    16    17    1
   17    16    18    1
   18    16    19    1
@<TRIPOS>SUBSTRUCTURE
       1 MOL1            1 RESIDUE      1      MOL     
@<SCITEGIC>MOL_PROPERTY
VConf Rank
SciTegic.value.IntegerValue
341

@<SCITEGIC>MOL_PROPERTY
Conf_Id
SciTegic.value.IntegerValue
52

@<SCITEGIC>MOL_PROPERTY
Delta U+W
SciTegic.value.DoubleValue
2.070

@<SCITEGIC>MOL_PROPERTY
U+W
SciTegic.value.DoubleValue
-52.822

@<SCITEGIC>MOL_PROPERTY
Grad RMS
SciTegic.value.DoubleValue
0.000000

@<SCITEGIC>MOL_PROPERTY
U
SciTegic.value.DoubleValue
10.967

@<SCITEGIC>MOL_PROPERTY
W
SciTegic.value.DoubleValue
-63.789

@<SCITEGIC>MOL_PROPERTY
W(PB)
SciTegic.value.DoubleValue
-65.837

@<SCITEGIC>MOL_PROPERTY
W(SA)
SciTegic.value.DoubleValue
2.048

@<SCITEGIC>MOL_PROPERTY
Valence
SciTegic.value.DoubleValue
8.609

@<SCITEGIC>MOL_PROPERTY
Coulomb
SciTegic.value.DoubleValue
1.892

@<SCITEGIC>MOL_PROPERTY
VdW
SciTegic.value.DoubleValue
0.467

@<SCITEGIC>MOL_PROPERTY
VdW6
SciTegic.value.DoubleValue
-7.569

@<SCITEGIC>MOL_PROPERTY
VdW12
SciTegic.value.DoubleValue
8.035

@<SCITEGIC>MOL_PROPERTY
Bond
SciTegic.value.DoubleValue
0.170

@<SCITEGIC>MOL_PROPERTY
Angle
SciTegic.value.DoubleValue
3.196

@<SCITEGIC>MOL_PROPERTY
Pdih
SciTegic.value.DoubleValue
5.237

@<SCITEGIC>MOL_PROPERTY
Idih
SciTegic.value.DoubleValue
0.007

@<SCITEGIC>MOL_PROPERTY
Tether
SciTegic.value.DoubleValue
0.000

@<TRIPOS>MOLECULE
guest-7_confgen4.mol2 : confsearch ligand conformer 342
          19          18           1
SMALL
USER_CHARGES
 
@<TRIPOS>ATOM
       1    C1      19.614093   20.906784   21.934419 C.2        1 MOL1         0.6115
       2    O1      18.561919   21.329531   22.372974 O.co2      1 MOL1        -0.6776
       3    O2      20.672590   21.488103   22.069889 O.co2      1 MOL1        -0.6776
       4    C2      19.594222   19.650621   21.062042 C.3        1 MOL1        -0.2013
       5    H1      20.625557   19.325063   20.880670 H          1 MOL1         0.0727
       6    H2      19.190182   19.962236   20.092031 H          1 MOL1         0.0727
       7    C3      18.744028   18.465582   21.602620 C.3        1 MOL1        -0.1910
       8    H3      17.804457   18.841838   22.030310 H          1 MOL1         0.0729
       9    H4      18.452187   17.842085   20.746795 H          1 MOL1         0.0729
      10    C4      19.459115   17.546474   22.625884 C.3        1 MOL1        -0.1909
      11    H5      20.345684   17.089969   22.164759 H          1 MOL1         0.0729
      12    H6      18.780110   16.712457   22.850235 H          1 MOL1         0.0729
      13    C5      19.838788   18.227221   23.963203 C.3        1 MOL1        -0.1884
      14    H7      19.210758   19.112186   24.135743 H          1 MOL1         0.0729
      15    H8      19.621252   17.534668   24.787943 H          1 MOL1         0.0729
      16    C6      21.333257   18.606999   24.037049 C.3        1 MOL1        -0.2899
      17    H9      21.967917   17.714244   23.965420 H          1 MOL1         0.0741
      18    H10     21.615175   19.288700   23.226164 H          1 MOL1         0.0741
      19    H11     21.557441   19.105464   24.988833 H          1 MOL1         0.0741
@<TRIPOS>BOND
    1     1     2    1
    2     1     3    2
    3     1     4    1
    4     4     5    1
    5     4     6    1
    6     4     7    1
    7     7     8    1
    8     7     9    1
    9     7    10    1
   10    10    11    1
   11    10    12    1
   12    10    13    1
   13    13    14    1
   14    13    15    1
   15    13    16    1
   16    16    17    1
   17    16    18    1
   18    16    19    1
@<TRIPOS>SUBSTRUCTURE
       1 MOL1            1 RESIDUE      1      MOL     
@<SCITEGIC>MOL_PROPERTY
VConf Rank
SciTegic.value.IntegerValue
342

@<SCITEGIC>MOL_PROPERTY
Conf_Id
SciTegic.value.IntegerValue
66

@<SCITEGIC>MOL_PROPERTY
Delta U+W
SciTegic.value.DoubleValue
5.819

@<SCITEGIC>MOL_PROPERTY
U+W
SciTegic.value.DoubleValue
-49.072

@<SCITEGIC>MOL_PROPERTY
Grad RMS
SciTegic.value.DoubleValue
0.000000

@<SCITEGIC>MOL_PROPERTY
U
SciTegic.value.DoubleValue
15.324

@<SCITEGIC>MOL_PROPERTY
W
SciTegic.value.DoubleValue
-64.396

@<SCITEGIC>MOL_PROPERTY
W(PB)
SciTegic.value.DoubleValue
-66.382

@<SCITEGIC>MOL_PROPERTY
W(SA)
SciTegic.value.DoubleValue
1.986

@<SCITEGIC>MOL_PROPERTY
Valence
SciTegic.value.DoubleValue
11.748

@<SCITEGIC>MOL_PROPERTY
Coulomb
SciTegic.value.DoubleValue
3.201

@<SCITEGIC>MOL_PROPERTY
VdW
SciTegic.value.DoubleValue
0.375

@<SCITEGIC>MOL_PROPERTY
VdW6
SciTegic.value.DoubleValue
-8.854

@<SCITEGIC>MOL_PROPERTY
VdW12
SciTegic.value.DoubleValue
9.229

@<SCITEGIC>MOL_PROPERTY
Bond
SciTegic.value.DoubleValue
0.216

@<SCITEGIC>MOL_PROPERTY
Angle
SciTegic.value.DoubleValue
3.812

@<SCITEGIC>MOL_PROPERTY
Pdih
SciTegic.value.DoubleValue
7.699

@<SCITEGIC>MOL_PROPERTY
Idih
SciTegic.value.DoubleValue
0.022

@<SCITEGIC>MOL_PROPERTY
Tether
SciTegic.value.DoubleValue
0.000

@<TRIPOS>MOLECULE
guest-7_confgen4.mol2 : confsearch ligand conformer 343
          19          18           1
SMALL
USER_CHARGES
 
@<TRIPOS>ATOM
       1    C1      23.171302   17.829058   22.707930 C.2        1 MOL1         0.6115
       2    O1      23.834610   16.812642   22.758758 O.co2      1 MOL1        -0.6776
       3    O2      23.636592   18.935349   22.902275 O.co2      1 MOL1        -0.6776
       4    C2      21.684519   17.676949   22.382334 C.3        1 MOL1        -0.2013
       5    H1      21.250844   17.010464   23.137168 H          1 MOL1         0.0727
       6    H2      21.611992   17.159958   21.418222 H          1 MOL1         0.0727
       7    C3      20.878655   19.002125   22.328264 C.3        1 MOL1        -0.1910
       8    H3      20.960169   19.517915   23.295107 H          1 MOL1         0.0729
       9    H4      21.321731   19.667585   21.574398 H          1 MOL1         0.0729
      10    C4      19.391253   18.756361   21.994353 C.3        1 MOL1        -0.1909
      11    H5      18.950351   18.090737   22.749138 H          1 MOL1         0.0729
      12    H6      19.312091   18.240536   21.027498 H          1 MOL1         0.0729
      13    C5      18.591952   20.074952   21.941139 C.3        1 MOL1        -0.1884
      14    H7      18.667113   20.593112   22.907242 H          1 MOL1         0.0729
      15    H8      19.028729   20.742841   21.185730 H          1 MOL1         0.0729
      16    C6      17.107464   19.825813   21.607648 C.3        1 MOL1        -0.2899
      17    H9      16.636824   19.185429   22.365162 H          1 MOL1         0.0741
      18    H10     16.554308   20.773434   21.573863 H          1 MOL1         0.0741
      19    H11     17.001159   19.336262   20.630683 H          1 MOL1         0.0741
@<TRIPOS>BOND
    1     1     2    1
    2     1     3    2
    3     1     4    1
    4     4     5    1
    5     4     6    1
    6     4     7    1
    7     7     8    1
    8     7     9    1
    9     7    10    1
   10    10    11    1
   11    10    12    1
   12    10    13    1
   13    13    14    1
   14    13    15    1
   15    13    16    1
   16    16    17    1
   17    16    18    1
   18    16    19    1
@<TRIPOS>SUBSTRUCTURE
       1 MOL1            1 RESIDUE      1      MOL     
@<SCITEGIC>MOL_PROPERTY
VConf Rank
SciTegic.value.IntegerValue
343

@<SCITEGIC>MOL_PROPERTY
Conf_Id
SciTegic.value.IntegerValue
0

@<SCITEGIC>MOL_PROPERTY
Delta U+W
SciTegic.value.DoubleValue
0.000

@<SCITEGIC>MOL_PROPERTY
U+W
SciTegic.value.DoubleValue
-54.891

@<SCITEGIC>MOL_PROPERTY
Grad RMS
SciTegic.value.DoubleValue
0.000000

@<SCITEGIC>MOL_PROPERTY
U
SciTegic.value.DoubleValue
6.966

@<SCITEGIC>MOL_PROPERTY
W
SciTegic.value.DoubleValue
-61.857

@<SCITEGIC>MOL_PROPERTY
W(PB)
SciTegic.value.DoubleValue
-63.965

@<SCITEGIC>MOL_PROPERTY
W(SA)
SciTegic.value.DoubleValue
2.108

@<SCITEGIC>MOL_PROPERTY
Valence
SciTegic.value.DoubleValue
7.175

@<SCITEGIC>MOL_PROPERTY
Coulomb
SciTegic.value.DoubleValue
-1.360

@<SCITEGIC>MOL_PROPERTY
VdW
SciTegic.value.DoubleValue
1.151

@<SCITEGIC>MOL_PROPERTY
VdW6
SciTegic.value.DoubleValue
-5.641

@<SCITEGIC>MOL_PROPERTY
VdW12
SciTegic.value.DoubleValue
6.792

@<SCITEGIC>MOL_PROPERTY
Bond
SciTegic.value.DoubleValue
0.119

@<SCITEGIC>MOL_PROPERTY
Angle
SciTegic.value.DoubleValue
2.715

@<SCITEGIC>MOL_PROPERTY
Pdih
SciTegic.value.DoubleValue
4.340

@<SCITEGIC>MOL_PROPERTY
Idih
SciTegic.value.DoubleValue
0.000

@<SCITEGIC>MOL_PROPERTY
Tether
SciTegic.value.DoubleValue
0.000

@<TRIPOS>MOLECULE
guest-7_confgen4.mol2 : confsearch ligand conformer 344
          19          18           1
SMALL
USER_CHARGES
 
@<TRIPOS>ATOM
       1    C1      17.195802   18.641276   20.146668 C.2        1 MOL1         0.6115
       2    O1      17.401407   18.119707   19.068766 O.co2      1 MOL1        -0.6776
       3    O2      16.135149   18.573299   20.735375 O.co2      1 MOL1        -0.6776
       4    C2      18.337974   19.405879   20.806362 C.3        1 MOL1        -0.2013
       5    H1      17.905927   20.229059   21.388128 H          1 MOL1         0.0727
       6    H2      18.949783   19.854819   20.014601 H          1 MOL1         0.0727
       7    C3      19.214941   18.511187   21.716620 C.3        1 MOL1        -0.1910
       8    H3      18.585690   18.059378   22.496018 H          1 MOL1         0.0729
       9    H4      19.629494   17.684987   21.122408 H          1 MOL1         0.0729
      10    C4      20.363192   19.308582   22.371834 C.3        1 MOL1        -0.1909
      11    H5      19.945628   20.134538   22.963975 H          1 MOL1         0.0729
      12    H6      20.989634   19.759999   21.590179 H          1 MOL1         0.0729
      13    C5      21.235098   18.414808   23.278101 C.3        1 MOL1        -0.1884
      14    H7      20.612308   17.962857   24.062553 H          1 MOL1         0.0729
      15    H8      21.656279   17.588412   22.688889 H          1 MOL1         0.0729
      16    C6      22.380521   19.214228   23.930704 C.3        1 MOL1        -0.2899
      17    H9      22.990122   18.563776   24.571334 H          1 MOL1         0.0741
      18    H10     23.038259   19.651768   23.168232 H          1 MOL1         0.0741
      19    H11     21.986450   20.029043   24.552161 H          1 MOL1         0.0741
@<TRIPOS>BOND
    1     1     2    1
    2     1     3    2
    3     1     4    1
    4     4     5    1
    5     4     6    1
    6     4     7    1
    7     7     8    1
    8     7     9    1
    9     7    10    1
   10    10    11    1
   11    10    12    1
   12    10    13    1
   13    13    14    1
   14    13    15    1
   15    13    16    1
   16    16    17    1
   17    16    18    1
   18    16    19    1
@<TRIPOS>SUBSTRUCTURE
       1 MOL1            1 RESIDUE      1      MOL     
@<SCITEGIC>MOL_PROPERTY
VConf Rank
SciTegic.value.IntegerValue
344

@<SCITEGIC>MOL_PROPERTY
Conf_Id
SciTegic.value.IntegerValue
18

@<SCITEGIC>MOL_PROPERTY
Delta U+W
SciTegic.value.DoubleValue
-1.199

@<SCITEGIC>MOL_PROPERTY
U+W
SciTegic.value.DoubleValue
-56.090

@<SCITEGIC>MOL_PROPERTY
Grad RMS
SciTegic.value.DoubleValue
0.000000

@<SCITEGIC>MOL_PROPERTY
U
SciTegic.value.DoubleValue
5.975

@<SCITEGIC>MOL_PROPERTY
W
SciTegic.value.DoubleValue
-62.066

@<SCITEGIC>MOL_PROPERTY
W(PB)
SciTegic.value.DoubleValue
-64.219

@<SCITEGIC>MOL_PROPERTY
W(SA)
SciTegic.value.DoubleValue
2.153

@<SCITEGIC>MOL_PROPERTY
Valence
SciTegic.value.DoubleValue
6.673

@<SCITEGIC>MOL_PROPERTY
Coulomb
SciTegic.value.DoubleValue
-1.307

@<SCITEGIC>MOL_PROPERTY
VdW
SciTegic.value.DoubleValue
0.610

@<SCITEGIC>MOL_PROPERTY
VdW6
SciTegic.value.DoubleValue
-5.351

@<SCITEGIC>MOL_PROPERTY
VdW12
SciTegic.value.DoubleValue
5.961

@<SCITEGIC>MOL_PROPERTY
Bond
SciTegic.value.DoubleValue
0.086

@<SCITEGIC>MOL_PROPERTY
Angle
SciTegic.value.DoubleValue
2.253

@<SCITEGIC>MOL_PROPERTY
Pdih
SciTegic.value.DoubleValue
4.333

@<SCITEGIC>MOL_PROPERTY
Idih
SciTegic.value.DoubleValue
0.001

@<SCITEGIC>MOL_PROPERTY
Tether
SciTegic.value.DoubleValue
0.000

@<TRIPOS>MOLECULE
guest-7_confgen4.mol2 : confsearch ligand conformer 345
          19          18           1
SMALL
USER_CHARGES
 
@<TRIPOS>ATOM
       1    C1      19.659834   21.829350   20.858685 C.2        1 MOL1         0.6115
       2    O1      18.953864   22.054791   19.895840 O.co2      1 MOL1        -0.6776
       3    O2      20.061272   22.691712   21.614621 O.co2      1 MOL1        -0.6776
       4    C2      20.045398   20.382595   21.146092 C.3        1 MOL1        -0.2013
       5    H1      21.045439   20.386856   21.594136 H          1 MOL1         0.0727
       6    H2      20.119842   19.853569   20.188439 H          1 MOL1         0.0727
       7    C3      19.032802   19.664966   22.076059 C.3        1 MOL1        -0.1910
       8    H3      18.999729   20.177413   23.047458 H          1 MOL1         0.0729
       9    H4      18.027827   19.758602   21.641686 H          1 MOL1         0.0729
      10    C4      19.343708   18.164150   22.286823 C.3        1 MOL1        -0.1909
      11    H5      19.367658   17.653103   21.314576 H          1 MOL1         0.0729
      12    H6      18.518086   17.713477   22.854498 H          1 MOL1         0.0729
      13    C5      20.668355   17.911133   23.041013 C.3        1 MOL1        -0.1884
      14    H7      21.516325   18.287205   22.453751 H          1 MOL1         0.0729
      15    H8      20.665484   18.463450   23.990858 H          1 MOL1         0.0729
      16    C6      20.880289   16.410090   23.322477 C.3        1 MOL1        -0.2899
      17    H9      21.825860   16.246350   23.855557 H          1 MOL1         0.0741
      18    H10     20.068144   16.007603   23.942003 H          1 MOL1         0.0741
      19    H11     20.914733   15.836445   22.386982 H          1 MOL1         0.0741
@<TRIPOS>BOND
    1     1     2    1
    2     1     3    2
    3     1     4    1
    4     4     5    1
    5     4     6    1
    6     4     7    1
    7     7     8    1
    8     7     9    1
    9     7    10    1
   10    10    11    1
   11    10    12    1
   12    10    13    1
   13    13    14    1
   14    13    15    1
   15    13    16    1
   16    16    17    1
   17    16    18    1
   18    16    19    1
@<TRIPOS>SUBSTRUCTURE
       1 MOL1            1 RESIDUE      1      MOL     
@<SCITEGIC>MOL_PROPERTY
VConf Rank
SciTegic.value.IntegerValue
345

@<SCITEGIC>MOL_PROPERTY
Conf_Id
SciTegic.value.IntegerValue
34

@<SCITEGIC>MOL_PROPERTY
Delta U+W
SciTegic.value.DoubleValue
-0.563

@<SCITEGIC>MOL_PROPERTY
U+W
SciTegic.value.DoubleValue
-55.455

@<SCITEGIC>MOL_PROPERTY
Grad RMS
SciTegic.value.DoubleValue
0.000000

@<SCITEGIC>MOL_PROPERTY
U
SciTegic.value.DoubleValue
6.914

@<SCITEGIC>MOL_PROPERTY
W
SciTegic.value.DoubleValue
-62.369

@<SCITEGIC>MOL_PROPERTY
W(PB)
SciTegic.value.DoubleValue
-64.446

@<SCITEGIC>MOL_PROPERTY
W(SA)
SciTegic.value.DoubleValue
2.077

@<SCITEGIC>MOL_PROPERTY
Valence
SciTegic.value.DoubleValue
7.196

@<SCITEGIC>MOL_PROPERTY
Coulomb
SciTegic.value.DoubleValue
-1.020

@<SCITEGIC>MOL_PROPERTY
VdW
SciTegic.value.DoubleValue
0.738

@<SCITEGIC>MOL_PROPERTY
VdW6
SciTegic.value.DoubleValue
-6.010

@<SCITEGIC>MOL_PROPERTY
VdW12
SciTegic.value.DoubleValue
6.748

@<SCITEGIC>MOL_PROPERTY
Bond
SciTegic.value.DoubleValue
0.126

@<SCITEGIC>MOL_PROPERTY
Angle
SciTegic.value.DoubleValue
2.499

@<SCITEGIC>MOL_PROPERTY
Pdih
SciTegic.value.DoubleValue
4.570

@<SCITEGIC>MOL_PROPERTY
Idih
SciTegic.value.DoubleValue
0.001

@<SCITEGIC>MOL_PROPERTY
Tether
SciTegic.value.DoubleValue
0.000

@<TRIPOS>MOLECULE
guest-7_confgen4.mol2 : confsearch ligand conformer 346
          19          18           1
SMALL
USER_CHARGES
 
@<TRIPOS>ATOM
       1    C1      22.768263   18.305746   23.648187 C.2        1 MOL1         0.6115
       2    O1      23.569945   19.164978   23.956918 O.co2      1 MOL1        -0.6776
       3    O2      23.047705   17.126740   23.558079 O.co2      1 MOL1        -0.6776
       4    C2      21.338731   18.733478   23.335392 C.3        1 MOL1        -0.2013
       5    H1      21.100914   19.605616   23.956142 H          1 MOL1         0.0727
       6    H2      20.672154   17.921184   23.646354 H          1 MOL1         0.0727
       7    C3      21.127430   19.070483   21.836406 C.3        1 MOL1        -0.1910
       8    H3      21.871156   19.821446   21.535825 H          1 MOL1         0.0729
       9    H4      21.325400   18.177189   21.228011 H          1 MOL1         0.0729
      10    C4      19.715255   19.616915   21.519076 C.3        1 MOL1        -0.1909
      11    H5      19.693687   19.938163   20.468672 H          1 MOL1         0.0729
      12    H6      19.523751   20.514747   22.122593 H          1 MOL1         0.0729
      13    C5      18.590169   18.583561   21.751183 C.3        1 MOL1        -0.1884
      14    H7      18.807655   17.665832   21.187497 H          1 MOL1         0.0729
      15    H8      18.544604   18.305193   22.812220 H          1 MOL1         0.0729
      16    C6      17.217357   19.136493   21.318844 C.3        1 MOL1        -0.2899
      17    H9      16.961789   20.040515   21.887030 H          1 MOL1         0.0741
      18    H10     17.214261   19.390318   20.250692 H          1 MOL1         0.0741
      19    H11     16.428820   18.392746   21.492451 H          1 MOL1         0.0741
@<TRIPOS>BOND
    1     1     2    1
    2     1     3    2
    3     1     4    1
    4     4     5    1
    5     4     6    1
    6     4     7    1
    7     7     8    1
    8     7     9    1
    9     7    10    1
   10    10    11    1
   11    10    12    1
   12    10    13    1
   13    13    14    1
   14    13    15    1
   15    13    16    1
   16    16    17    1
   17    16    18    1
   18    16    19    1
@<TRIPOS>SUBSTRUCTURE
       1 MOL1            1 RESIDUE      1      MOL     
@<SCITEGIC>MOL_PROPERTY
VConf Rank
SciTegic.value.IntegerValue
346

@<SCITEGIC>MOL_PROPERTY
Conf_Id
SciTegic.value.IntegerValue
33

@<SCITEGIC>MOL_PROPERTY
Delta U+W
SciTegic.value.DoubleValue
-0.526

@<SCITEGIC>MOL_PROPERTY
U+W
SciTegic.value.DoubleValue
-55.418

@<SCITEGIC>MOL_PROPERTY
Grad RMS
SciTegic.value.DoubleValue
0.000000

@<SCITEGIC>MOL_PROPERTY
U
SciTegic.value.DoubleValue
6.914

@<SCITEGIC>MOL_PROPERTY
W
SciTegic.value.DoubleValue
-62.332

@<SCITEGIC>MOL_PROPERTY
W(PB)
SciTegic.value.DoubleValue
-64.421

@<SCITEGIC>MOL_PROPERTY
W(SA)
SciTegic.value.DoubleValue
2.090

@<SCITEGIC>MOL_PROPERTY
Valence
SciTegic.value.DoubleValue
7.196

@<SCITEGIC>MOL_PROPERTY
Coulomb
SciTegic.value.DoubleValue
-1.020

@<SCITEGIC>MOL_PROPERTY
VdW
SciTegic.value.DoubleValue
0.738

@<SCITEGIC>MOL_PROPERTY
VdW6
SciTegic.value.DoubleValue
-6.010

@<SCITEGIC>MOL_PROPERTY
VdW12
SciTegic.value.DoubleValue
6.748

@<SCITEGIC>MOL_PROPERTY
Bond
SciTegic.value.DoubleValue
0.126

@<SCITEGIC>MOL_PROPERTY
Angle
SciTegic.value.DoubleValue
2.499

@<SCITEGIC>MOL_PROPERTY
Pdih
SciTegic.value.DoubleValue
4.570

@<SCITEGIC>MOL_PROPERTY
Idih
SciTegic.value.DoubleValue
0.001

@<SCITEGIC>MOL_PROPERTY
Tether
SciTegic.value.DoubleValue
0.000

@<TRIPOS>MOLECULE
guest-7_confgen4.mol2 : confsearch ligand conformer 347
          19          18           1
SMALL
USER_CHARGES
 
@<TRIPOS>ATOM
       1    C1      22.701763   18.905059   23.725286 C.2        1 MOL1         0.6115
       2    O1      23.282091   19.957329   23.545941 O.co2      1 MOL1        -0.6776
       3    O2      22.770394   18.266510   24.756687 O.co2      1 MOL1        -0.6776
       4    C2      21.825259   18.364939   22.600780 C.3        1 MOL1        -0.2013
       5    H1      21.856531   17.269451   22.640873 H          1 MOL1         0.0727
       6    H2      22.271196   18.667292   21.645558 H          1 MOL1         0.0727
       7    C3      20.360970   18.861795   22.686983 C.3        1 MOL1        -0.1910
       8    H3      19.931655   18.559695   23.652210 H          1 MOL1         0.0729
       9    H4      20.356275   19.959548   22.663827 H          1 MOL1         0.0729
      10    C4      19.496709   18.301928   21.533612 C.3        1 MOL1        -0.1909
      11    H5      19.571885   17.205876   21.530033 H          1 MOL1         0.0729
      12    H6      19.897807   18.644728   20.569965 H          1 MOL1         0.0729
      13    C5      18.004158   18.691192   21.640162 C.3        1 MOL1        -0.1884
      14    H7      17.444732   18.160714   20.857296 H          1 MOL1         0.0729
      15    H8      17.597838   18.345017   22.600576 H          1 MOL1         0.0729
      16    C6      17.755855   20.207388   21.487374 C.3        1 MOL1        -0.2899
      17    H9      18.179778   20.582141   20.546625 H          1 MOL1         0.0741
      18    H10     16.679190   20.421167   21.481682 H          1 MOL1         0.0741
      19    H11     18.201903   20.772044   22.315594 H          1 MOL1         0.0741
@<TRIPOS>BOND
    1     1     2    1
    2     1     3    2
    3     1     4    1
    4     4     5    1
    5     4     6    1
    6     4     7    1
    7     7     8    1
    8     7     9    1
    9     7    10    1
   10    10    11    1
   11    10    12    1
   12    10    13    1
   13    13    14    1
   14    13    15    1
   15    13    16    1
   16    16    17    1
   17    16    18    1
   18    16    19    1
@<TRIPOS>SUBSTRUCTURE
       1 MOL1            1 RESIDUE      1      MOL     
@<SCITEGIC>MOL_PROPERTY
VConf Rank
SciTegic.value.IntegerValue
347

@<SCITEGIC>MOL_PROPERTY
Conf_Id
SciTegic.value.IntegerValue
42

@<SCITEGIC>MOL_PROPERTY
Delta U+W
SciTegic.value.DoubleValue
-0.344

@<SCITEGIC>MOL_PROPERTY
U+W
SciTegic.value.DoubleValue
-55.236

@<SCITEGIC>MOL_PROPERTY
Grad RMS
SciTegic.value.DoubleValue
0.000000

@<SCITEGIC>MOL_PROPERTY
U
SciTegic.value.DoubleValue
7.244

@<SCITEGIC>MOL_PROPERTY
W
SciTegic.value.DoubleValue
-62.479

@<SCITEGIC>MOL_PROPERTY
W(PB)
SciTegic.value.DoubleValue
-64.610

@<SCITEGIC>MOL_PROPERTY
W(SA)
SciTegic.value.DoubleValue
2.130

@<SCITEGIC>MOL_PROPERTY
Valence
SciTegic.value.DoubleValue
7.174

@<SCITEGIC>MOL_PROPERTY
Coulomb
SciTegic.value.DoubleValue
-0.669

@<SCITEGIC>MOL_PROPERTY
VdW
SciTegic.value.DoubleValue
0.739

@<SCITEGIC>MOL_PROPERTY
VdW6
SciTegic.value.DoubleValue
-5.969

@<SCITEGIC>MOL_PROPERTY
VdW12
SciTegic.value.DoubleValue
6.708

@<SCITEGIC>MOL_PROPERTY
Bond
SciTegic.value.DoubleValue
0.116

@<SCITEGIC>MOL_PROPERTY
Angle
SciTegic.value.DoubleValue
2.481

@<SCITEGIC>MOL_PROPERTY
Pdih
SciTegic.value.DoubleValue
4.576

@<SCITEGIC>MOL_PROPERTY
Idih
SciTegic.value.DoubleValue
0.000

@<SCITEGIC>MOL_PROPERTY
Tether
SciTegic.value.DoubleValue
0.000

@<TRIPOS>MOLECULE
guest-7_confgen4.mol2 : confsearch ligand conformer 348
          19          18           1
SMALL
USER_CHARGES
 
@<TRIPOS>ATOM
       1    C1      17.396128   18.931807   23.953076 C.2        1 MOL1         0.6115
       2    O1      16.454568   18.622500   23.250213 O.co2      1 MOL1        -0.6776
       3    O2      17.320780   19.731759   24.864473 O.co2      1 MOL1        -0.6776
       4    C2      18.750822   18.294821   23.664020 C.3        1 MOL1        -0.2013
       5    H1      18.576617   17.283284   23.277790 H          1 MOL1         0.0727
       6    H2      19.288019   18.190933   24.614443 H          1 MOL1         0.0727
       7    C3      19.597903   19.111763   22.657290 C.3        1 MOL1        -0.1910
       8    H3      19.032942   19.218415   21.721840 H          1 MOL1         0.0729
       9    H4      19.755672   20.124287   23.053701 H          1 MOL1         0.0729
      10    C4      20.963404   18.441444   22.380277 C.3        1 MOL1        -0.1909
      11    H5      20.805634   17.448173   21.938091 H          1 MOL1         0.0729
      12    H6      21.481930   18.278478   23.335036 H          1 MOL1         0.0729
      13    C5      21.881952   19.277297   21.459294 C.3        1 MOL1        -0.1884
      14    H7      22.046687   20.269782   21.901068 H          1 MOL1         0.0729
      15    H8      22.866690   18.792464   21.409578 H          1 MOL1         0.0729
      16    C6      21.331471   19.432020   20.025110 C.3        1 MOL1        -0.2899
      17    H9      20.401182   20.013547   20.013430 H          1 MOL1         0.0741
      18    H10     22.057899   19.954985   19.389696 H          1 MOL1         0.0741
      19    H11     21.131217   18.451795   19.573212 H          1 MOL1         0.0741
@<TRIPOS>BOND
    1     1     2    1
    2     1     3    2
    3     1     4    1
    4     4     5    1
    5     4     6    1
    6     4     7    1
    7     7     8    1
    8     7     9    1
    9     7    10    1
   10    10    11    1
   11    10    12    1
   12    10    13    1
   13    13    14    1
   14    13    15    1
   15    13    16    1
   16    16    17    1
   17    16    18    1
   18    16    19    1
@<TRIPOS>SUBSTRUCTURE
       1 MOL1            1 RESIDUE      1      MOL     
@<SCITEGIC>MOL_PROPERTY
VConf Rank
SciTegic.value.IntegerValue
348

@<SCITEGIC>MOL_PROPERTY
Conf_Id
SciTegic.value.IntegerValue
41

@<SCITEGIC>MOL_PROPERTY
Delta U+W
SciTegic.value.DoubleValue
-0.361

@<SCITEGIC>MOL_PROPERTY
U+W
SciTegic.value.DoubleValue
-55.252

@<SCITEGIC>MOL_PROPERTY
Grad RMS
SciTegic.value.DoubleValue
0.000000

@<SCITEGIC>MOL_PROPERTY
U
SciTegic.value.DoubleValue
7.244

@<SCITEGIC>MOL_PROPERTY
W
SciTegic.value.DoubleValue
-62.496

@<SCITEGIC>MOL_PROPERTY
W(PB)
SciTegic.value.DoubleValue
-64.596

@<SCITEGIC>MOL_PROPERTY
W(SA)
SciTegic.value.DoubleValue
2.099

@<SCITEGIC>MOL_PROPERTY
Valence
SciTegic.value.DoubleValue
7.174

@<SCITEGIC>MOL_PROPERTY
Coulomb
SciTegic.value.DoubleValue
-0.669

@<SCITEGIC>MOL_PROPERTY
VdW
SciTegic.value.DoubleValue
0.739

@<SCITEGIC>MOL_PROPERTY
VdW6
SciTegic.value.DoubleValue
-5.969

@<SCITEGIC>MOL_PROPERTY
VdW12
SciTegic.value.DoubleValue
6.708

@<SCITEGIC>MOL_PROPERTY
Bond
SciTegic.value.DoubleValue
0.116

@<SCITEGIC>MOL_PROPERTY
Angle
SciTegic.value.DoubleValue
2.481

@<SCITEGIC>MOL_PROPERTY
Pdih
SciTegic.value.DoubleValue
4.576

@<SCITEGIC>MOL_PROPERTY
Idih
SciTegic.value.DoubleValue
0.000

@<SCITEGIC>MOL_PROPERTY
Tether
SciTegic.value.DoubleValue
0.000

@<TRIPOS>MOLECULE
guest-7_confgen4.mol2 : confsearch ligand conformer 349
          19          18           1
SMALL
USER_CHARGES
 
@<TRIPOS>ATOM
       1    C1      22.391413   18.398552   23.478803 C.2        1 MOL1         0.6115
       2    O1      22.081360   17.512040   24.249851 O.co2      1 MOL1        -0.6776
       3    O2      23.295985   18.302269   22.673098 O.co2      1 MOL1        -0.6776
       4    C2      21.618532   19.713236   23.538825 C.3        1 MOL1        -0.2013
       5    H1      22.353732   20.526563   23.529209 H          1 MOL1         0.0727
       6    H2      21.096198   19.769027   24.501655 H          1 MOL1         0.0727
       7    C3      20.614573   19.909305   22.373185 C.3        1 MOL1        -0.1910
       8    H3      20.210536   20.929700   22.418823 H          1 MOL1         0.0729
       9    H4      21.147026   19.822370   21.415810 H          1 MOL1         0.0729
      10    C4      19.447956   18.897184   22.417075 C.3        1 MOL1        -0.1909
      11    H5      18.927057   18.978914   23.380929 H          1 MOL1         0.0729
      12    H6      19.843062   17.873750   22.354643 H          1 MOL1         0.0729
      13    C5      18.445646   19.130648   21.267521 C.3        1 MOL1        -0.1884
      14    H7      18.043856   20.151636   21.327327 H          1 MOL1         0.0729
      15    H8      18.963635   19.047061   20.302029 H          1 MOL1         0.0729
      16    C6      17.282855   18.119351   21.314111 C.3        1 MOL1        -0.2899
      17    H9      16.727457   18.202745   22.257501 H          1 MOL1         0.0741
      18    H10     16.580324   18.299310   20.490004 H          1 MOL1         0.0741
      19    H11     17.654017   17.089947   21.224619 H          1 MOL1         0.0741
@<TRIPOS>BOND
    1     1     2    1
    2     1     3    2
    3     1     4    1
    4     4     5    1
    5     4     6    1
    6     4     7    1
    7     7     8    1
    8     7     9    1
    9     7    10    1
   10    10    11    1
   11    10    12    1
   12    10    13    1
   13    13    14    1
   14    13    15    1
   15    13    16    1
   16    16    17    1
   17    16    18    1
   18    16    19    1
@<TRIPOS>SUBSTRUCTURE
       1 MOL1            1 RESIDUE      1      MOL     
@<SCITEGIC>MOL_PROPERTY
VConf Rank
SciTegic.value.IntegerValue
349

@<SCITEGIC>MOL_PROPERTY
Conf_Id
SciTegic.value.IntegerValue
36

@<SCITEGIC>MOL_PROPERTY
Delta U+W
SciTegic.value.DoubleValue
-0.079

@<SCITEGIC>MOL_PROPERTY
U+W
SciTegic.value.DoubleValue
-54.971

@<SCITEGIC>MOL_PROPERTY
Grad RMS
SciTegic.value.DoubleValue
0.000000

@<SCITEGIC>MOL_PROPERTY
U
SciTegic.value.DoubleValue
8.266

@<SCITEGIC>MOL_PROPERTY
W
SciTegic.value.DoubleValue
-63.237

@<SCITEGIC>MOL_PROPERTY
W(PB)
SciTegic.value.DoubleValue
-65.340

@<SCITEGIC>MOL_PROPERTY
W(SA)
SciTegic.value.DoubleValue
2.103

@<SCITEGIC>MOL_PROPERTY
Valence
SciTegic.value.DoubleValue
6.935

@<SCITEGIC>MOL_PROPERTY
Coulomb
SciTegic.value.DoubleValue
0.874

@<SCITEGIC>MOL_PROPERTY
VdW
SciTegic.value.DoubleValue
0.457

@<SCITEGIC>MOL_PROPERTY
VdW6
SciTegic.value.DoubleValue
-6.205

@<SCITEGIC>MOL_PROPERTY
VdW12
SciTegic.value.DoubleValue
6.662

@<SCITEGIC>MOL_PROPERTY
Bond
SciTegic.value.DoubleValue
0.107

@<SCITEGIC>MOL_PROPERTY
Angle
SciTegic.value.DoubleValue
2.420

@<SCITEGIC>MOL_PROPERTY
Pdih
SciTegic.value.DoubleValue
4.407

@<SCITEGIC>MOL_PROPERTY
Idih
SciTegic.value.DoubleValue
0.001

@<SCITEGIC>MOL_PROPERTY
Tether
SciTegic.value.DoubleValue
0.000

@<TRIPOS>MOLECULE
guest-7_confgen4.mol2 : confsearch ligand conformer 350
          19          18           1
SMALL
USER_CHARGES
 
@<TRIPOS>ATOM
       1    C1      17.418542   19.820782   22.548688 C.2        1 MOL1         0.6115
       2    O1      16.851011   18.749624   22.464530 O.co2      1 MOL1        -0.6776
       3    O2      17.138067   20.785240   21.864703 O.co2      1 MOL1        -0.6776
       4    C2      18.529866   19.971786   23.583822 C.3        1 MOL1        -0.2013
       5    H1      18.431744   19.167589   24.323164 H          1 MOL1         0.0727
       6    H2      18.356524   20.914662   24.115844 H          1 MOL1         0.0727
       7    C3      19.958649   19.972923   22.980769 C.3        1 MOL1        -0.1910
       8    H3      20.032823   20.764565   22.222196 H          1 MOL1         0.0729
       9    H4      20.678805   20.223932   23.771278 H          1 MOL1         0.0729
      10    C4      20.341292   18.612323   22.356542 C.3        1 MOL1        -0.1909
      11    H5      19.635088   18.361953   21.552792 H          1 MOL1         0.0729
      12    H6      20.252996   17.822533   23.115137 H          1 MOL1         0.0729
      13    C5      21.776906   18.626672   21.791378 C.3        1 MOL1        -0.1884
      14    H7      21.867375   19.414321   21.030524 H          1 MOL1         0.0729
      15    H8      22.488295   18.872433   22.591977 H          1 MOL1         0.0729
      16    C6      22.155648   17.267788   21.169310 C.3        1 MOL1        -0.2899
      17    H9      21.478414   17.011405   20.344043 H          1 MOL1         0.0741
      18    H10     23.178675   17.295745   20.772170 H          1 MOL1         0.0741
      19    H11     22.103966   16.465539   21.917061 H          1 MOL1         0.0741
@<TRIPOS>BOND
    1     1     2    1
    2     1     3    2
    3     1     4    1
    4     4     5    1
    5     4     6    1
    6     4     7    1
    7     7     8    1
    8     7     9    1
    9     7    10    1
   10    10    11    1
   11    10    12    1
   12    10    13    1
   13    13    14    1
   14    13    15    1
   15    13    16    1
   16    16    17    1
   17    16    18    1
   18    16    19    1
@<TRIPOS>SUBSTRUCTURE
       1 MOL1            1 RESIDUE      1      MOL     
@<SCITEGIC>MOL_PROPERTY
VConf Rank
SciTegic.value.IntegerValue
350

@<SCITEGIC>MOL_PROPERTY
Conf_Id
SciTegic.value.IntegerValue
35

@<SCITEGIC>MOL_PROPERTY
Delta U+W
SciTegic.value.DoubleValue
-0.030

@<SCITEGIC>MOL_PROPERTY
U+W
SciTegic.value.DoubleValue
-54.921

@<SCITEGIC>MOL_PROPERTY
Grad RMS
SciTegic.value.DoubleValue
0.000000

@<SCITEGIC>MOL_PROPERTY
U
SciTegic.value.DoubleValue
8.267

@<SCITEGIC>MOL_PROPERTY
W
SciTegic.value.DoubleValue
-63.188

@<SCITEGIC>MOL_PROPERTY
W(PB)
SciTegic.value.DoubleValue
-65.294

@<SCITEGIC>MOL_PROPERTY
W(SA)
SciTegic.value.DoubleValue
2.106

@<SCITEGIC>MOL_PROPERTY
Valence
SciTegic.value.DoubleValue
6.935

@<SCITEGIC>MOL_PROPERTY
Coulomb
SciTegic.value.DoubleValue
0.875

@<SCITEGIC>MOL_PROPERTY
VdW
SciTegic.value.DoubleValue
0.457

@<SCITEGIC>MOL_PROPERTY
VdW6
SciTegic.value.DoubleValue
-6.205

@<SCITEGIC>MOL_PROPERTY
VdW12
SciTegic.value.DoubleValue
6.662

@<SCITEGIC>MOL_PROPERTY
Bond
SciTegic.value.DoubleValue
0.107

@<SCITEGIC>MOL_PROPERTY
Angle
SciTegic.value.DoubleValue
2.420

@<SCITEGIC>MOL_PROPERTY
Pdih
SciTegic.value.DoubleValue
4.407

@<SCITEGIC>MOL_PROPERTY
Idih
SciTegic.value.DoubleValue
0.001

@<SCITEGIC>MOL_PROPERTY
Tether
SciTegic.value.DoubleValue
0.000

@<TRIPOS>MOLECULE
guest-7_confgen4.mol2 : confsearch ligand conformer 351
          19          18           1
SMALL
USER_CHARGES
 
@<TRIPOS>ATOM
       1    C1      18.551074   17.227679   20.439731 C.2        1 MOL1         0.6115
       2    O1      17.695989   17.847482   19.838581 O.co2      1 MOL1        -0.6776
       3    O2      18.348167   16.161956   20.987189 O.co2      1 MOL1        -0.6776
       4    C2      19.960742   17.810583   20.490120 C.3        1 MOL1        -0.2013
       5    H1      20.215318   18.139212   19.475581 H          1 MOL1         0.0727
       6    H2      20.662835   17.008840   20.749412 H          1 MOL1         0.0727
       7    C3      20.119506   18.999358   21.473649 C.3        1 MOL1        -0.1910
       8    H3      21.112235   19.443217   21.325900 H          1 MOL1         0.0729
       9    H4      19.383815   19.777094   21.226234 H          1 MOL1         0.0729
      10    C4      19.955190   18.572986   22.952125 C.3        1 MOL1        -0.1909
      11    H5      20.716316   17.823366   23.208203 H          1 MOL1         0.0729
      12    H6      18.981099   18.081203   23.079875 H          1 MOL1         0.0729
      13    C5      20.038114   19.755288   23.945158 C.3        1 MOL1        -0.1884
      14    H7      19.276414   20.505902   23.692767 H          1 MOL1         0.0729
      15    H8      19.790623   19.388264   24.950774 H          1 MOL1         0.0729
      16    C6      21.430274   20.421619   23.988848 C.3        1 MOL1        -0.2899
      17    H9      21.672483   20.907532   23.035513 H          1 MOL1         0.0741
      18    H10     21.462718   21.191089   24.771024 H          1 MOL1         0.0741
      19    H11     22.212515   19.683382   24.208514 H          1 MOL1         0.0741
@<TRIPOS>BOND
    1     1     2    1
    2     1     3    2
    3     1     4    1
    4     4     5    1
    5     4     6    1
    6     4     7    1
    7     7     8    1
    8     7     9    1
    9     7    10    1
   10    10    11    1
   11    10    12    1
   12    10    13    1
   13    13    14    1
   14    13    15    1
   15    13    16    1
   16    16    17    1
   17    16    18    1
   18    16    19    1
@<TRIPOS>SUBSTRUCTURE
       1 MOL1            1 RESIDUE      1      MOL     
@<SCITEGIC>MOL_PROPERTY
VConf Rank
SciTegic.value.IntegerValue
351

@<SCITEGIC>MOL_PROPERTY
Conf_Id
SciTegic.value.IntegerValue
74

@<SCITEGIC>MOL_PROPERTY
Delta U+W
SciTegic.value.DoubleValue
0.797

@<SCITEGIC>MOL_PROPERTY
U+W
SciTegic.value.DoubleValue
-54.095

@<SCITEGIC>MOL_PROPERTY
Grad RMS
SciTegic.value.DoubleValue
0.000000

@<SCITEGIC>MOL_PROPERTY
U
SciTegic.value.DoubleValue
8.869

@<SCITEGIC>MOL_PROPERTY
W
SciTegic.value.DoubleValue
-62.964

@<SCITEGIC>MOL_PROPERTY
W(PB)
SciTegic.value.DoubleValue
-65.046

@<SCITEGIC>MOL_PROPERTY
W(SA)
SciTegic.value.DoubleValue
2.082

@<SCITEGIC>MOL_PROPERTY
Valence
SciTegic.value.DoubleValue
7.469

@<SCITEGIC>MOL_PROPERTY
Coulomb
SciTegic.value.DoubleValue
0.762

@<SCITEGIC>MOL_PROPERTY
VdW
SciTegic.value.DoubleValue
0.639

@<SCITEGIC>MOL_PROPERTY
VdW6
SciTegic.value.DoubleValue
-6.782

@<SCITEGIC>MOL_PROPERTY
VdW12
SciTegic.value.DoubleValue
7.421

@<SCITEGIC>MOL_PROPERTY
Bond
SciTegic.value.DoubleValue
0.141

@<SCITEGIC>MOL_PROPERTY
Angle
SciTegic.value.DoubleValue
2.667

@<SCITEGIC>MOL_PROPERTY
Pdih
SciTegic.value.DoubleValue
4.660

@<SCITEGIC>MOL_PROPERTY
Idih
SciTegic.value.DoubleValue
0.001

@<SCITEGIC>MOL_PROPERTY
Tether
SciTegic.value.DoubleValue
0.000

@<TRIPOS>MOLECULE
guest-7_confgen4.mol2 : confsearch ligand conformer 352
          19          18           1
SMALL
USER_CHARGES
 
@<TRIPOS>ATOM
       1    C1      18.679111   20.677863   20.340285 C.2        1 MOL1         0.6115
       2    O1      18.041336   21.696151   20.521272 O.co2      1 MOL1        -0.6776
       3    O2      19.227764   20.406100   19.290787 O.co2      1 MOL1        -0.6776
       4    C2      18.813624   19.696957   21.499572 C.3        1 MOL1        -0.2013
       5    H1      18.868114   18.686963   21.077551 H          1 MOL1         0.0727
       6    H2      17.897650   19.750732   22.099952 H          1 MOL1         0.0727
       7    C3      20.052595   19.982443   22.387287 C.3        1 MOL1        -0.1910
       8    H3      20.965712   19.888339   21.784675 H          1 MOL1         0.0729
       9    H4      20.014553   21.029095   22.719359 H          1 MOL1         0.0729
      10    C4      20.141731   19.071663   23.637592 C.3        1 MOL1        -0.1909
      11    H5      19.267548   19.257763   24.276313 H          1 MOL1         0.0729
      12    H6      21.018178   19.369702   24.229027 H          1 MOL1         0.0729
      13    C5      20.229395   17.553872   23.343441 C.3        1 MOL1        -0.1884
      14    H7      20.272516   17.014502   24.299631 H          1 MOL1         0.0729
      15    H8      19.314103   17.210955   22.843183 H          1 MOL1         0.0729
      16    C6      21.461489   17.164993   22.498389 C.3        1 MOL1        -0.2899
      17    H9      22.388120   17.518488   22.968948 H          1 MOL1         0.0741
      18    H10     21.528336   16.074188   22.395960 H          1 MOL1         0.0741
      19    H11     21.402913   17.590798   21.488674 H          1 MOL1         0.0741
@<TRIPOS>BOND
    1     1     2    1
    2     1     3    2
    3     1     4    1
    4     4     5    1
    5     4     6    1
    6     4     7    1
    7     7     8    1
    8     7     9    1
    9     7    10    1
   10    10    11    1
   11    10    12    1
   12    10    13    1
   13    13    14    1
   14    13    15    1
   15    13    16    1
   16    16    17    1
   17    16    18    1
   18    16    19    1
@<TRIPOS>SUBSTRUCTURE
       1 MOL1            1 RESIDUE      1      MOL     
@<SCITEGIC>MOL_PROPERTY
VConf Rank
SciTegic.value.IntegerValue
352

@<SCITEGIC>MOL_PROPERTY
Conf_Id
SciTegic.value.IntegerValue
67

@<SCITEGIC>MOL_PROPERTY
Delta U+W
SciTegic.value.DoubleValue
0.308

@<SCITEGIC>MOL_PROPERTY
U+W
SciTegic.value.DoubleValue
-54.583

@<SCITEGIC>MOL_PROPERTY
Grad RMS
SciTegic.value.DoubleValue
0.000000

@<SCITEGIC>MOL_PROPERTY
U
SciTegic.value.DoubleValue
8.219

@<SCITEGIC>MOL_PROPERTY
W
SciTegic.value.DoubleValue
-62.802

@<SCITEGIC>MOL_PROPERTY
W(PB)
SciTegic.value.DoubleValue
-64.859

@<SCITEGIC>MOL_PROPERTY
W(SA)
SciTegic.value.DoubleValue
2.057

@<SCITEGIC>MOL_PROPERTY
Valence
SciTegic.value.DoubleValue
7.609

@<SCITEGIC>MOL_PROPERTY
Coulomb
SciTegic.value.DoubleValue
-0.089

@<SCITEGIC>MOL_PROPERTY
VdW
SciTegic.value.DoubleValue
0.699

@<SCITEGIC>MOL_PROPERTY
VdW6
SciTegic.value.DoubleValue
-6.924

@<SCITEGIC>MOL_PROPERTY
VdW12
SciTegic.value.DoubleValue
7.623

@<SCITEGIC>MOL_PROPERTY
Bond
SciTegic.value.DoubleValue
0.163

@<SCITEGIC>MOL_PROPERTY
Angle
SciTegic.value.DoubleValue
2.870

@<SCITEGIC>MOL_PROPERTY
Pdih
SciTegic.value.DoubleValue
4.576

@<SCITEGIC>MOL_PROPERTY
Idih
SciTegic.value.DoubleValue
0.001

@<SCITEGIC>MOL_PROPERTY
Tether
SciTegic.value.DoubleValue
0.000

@<TRIPOS>MOLECULE
guest-7_confgen4.mol2 : confsearch ligand conformer 353
          19          18           1
SMALL
USER_CHARGES
 
@<TRIPOS>ATOM
       1    C1      20.811435   16.887548   20.366671 C.2        1 MOL1         0.6115
       2    O1      21.874633   16.307651   20.267918 O.co2      1 MOL1        -0.6776
       3    O2      20.027520   17.015056   19.447138 O.co2      1 MOL1        -0.6776
       4    C2      20.450699   17.505488   21.712864 C.3        1 MOL1        -0.2013
       5    H1      20.887179   16.882088   22.502302 H          1 MOL1         0.0727
       6    H2      19.361367   17.454813   21.822167 H          1 MOL1         0.0727
       7    C3      20.943340   18.969107   21.853271 C.3        1 MOL1        -0.1910
       8    H3      22.022356   18.998949   21.648252 H          1 MOL1         0.0729
       9    H4      20.470621   19.591337   21.081816 H          1 MOL1         0.0729
      10    C4      20.691412   19.575407   23.256715 C.3        1 MOL1        -0.1909
      11    H5      21.108310   20.591453   23.281754 H          1 MOL1         0.0729
      12    H6      21.256615   18.997476   24.000580 H          1 MOL1         0.0729
      13    C5      19.207012   19.632879   23.693925 C.3        1 MOL1        -0.1884
      14    H7      18.796644   18.617885   23.777565 H          1 MOL1         0.0729
      15    H8      19.156364   20.064447   24.703016 H          1 MOL1         0.0729
      16    C6      18.323464   20.475413   22.749002 C.3        1 MOL1        -0.2899
      17    H9      18.251637   20.015884   21.755049 H          1 MOL1         0.0741
      18    H10     17.305320   20.561402   23.150003 H          1 MOL1         0.0741
      19    H11     18.728336   21.489064   22.632300 H          1 MOL1         0.0741
@<TRIPOS>BOND
    1     1     2    1
    2     1     3    2
    3     1     4    1
    4     4     5    1
    5     4     6    1
    6     4     7    1
    7     7     8    1
    8     7     9    1
    9     7    10    1
   10    10    11    1
   11    10    12    1
   12    10    13    1
   13    13    14    1
   14    13    15    1
   15    13    16    1
   16    16    17    1
   17    16    18    1
   18    16    19    1
@<TRIPOS>SUBSTRUCTURE
       1 MOL1            1 RESIDUE      1      MOL     
@<SCITEGIC>MOL_PROPERTY
VConf Rank
SciTegic.value.IntegerValue
353

@<SCITEGIC>MOL_PROPERTY
Conf_Id
SciTegic.value.IntegerValue
21

@<SCITEGIC>MOL_PROPERTY
Delta U+W
SciTegic.value.DoubleValue
0.319

@<SCITEGIC>MOL_PROPERTY
U+W
SciTegic.value.DoubleValue
-54.572

@<SCITEGIC>MOL_PROPERTY
Grad RMS
SciTegic.value.DoubleValue
0.000000

@<SCITEGIC>MOL_PROPERTY
U
SciTegic.value.DoubleValue
8.220

@<SCITEGIC>MOL_PROPERTY
W
SciTegic.value.DoubleValue
-62.792

@<SCITEGIC>MOL_PROPERTY
W(PB)
SciTegic.value.DoubleValue
-64.830

@<SCITEGIC>MOL_PROPERTY
W(SA)
SciTegic.value.DoubleValue
2.038

@<SCITEGIC>MOL_PROPERTY
Valence
SciTegic.value.DoubleValue
7.609

@<SCITEGIC>MOL_PROPERTY
Coulomb
SciTegic.value.DoubleValue
-0.088

@<SCITEGIC>MOL_PROPERTY
VdW
SciTegic.value.DoubleValue
0.699

@<SCITEGIC>MOL_PROPERTY
VdW6
SciTegic.value.DoubleValue
-6.924

@<SCITEGIC>MOL_PROPERTY
VdW12
SciTegic.value.DoubleValue
7.623

@<SCITEGIC>MOL_PROPERTY
Bond
SciTegic.value.DoubleValue
0.163

@<SCITEGIC>MOL_PROPERTY
Angle
SciTegic.value.DoubleValue
2.870

@<SCITEGIC>MOL_PROPERTY
Pdih
SciTegic.value.DoubleValue
4.576

@<SCITEGIC>MOL_PROPERTY
Idih
SciTegic.value.DoubleValue
0.000

@<SCITEGIC>MOL_PROPERTY
Tether
SciTegic.value.DoubleValue
0.000

@<TRIPOS>MOLECULE
guest-7_confgen4.mol2 : confsearch ligand conformer 354
          19          18           1
SMALL
USER_CHARGES
 
@<TRIPOS>ATOM
       1    C1      18.835965   21.467822   23.072178 C.2        1 MOL1         0.6115
       2    O1      18.679409   21.969870   24.167567 O.co2      1 MOL1        -0.6776
       3    O2      18.887258   22.107721   22.040601 O.co2      1 MOL1        -0.6776
       4    C2      18.995062   19.953867   22.990267 C.3        1 MOL1        -0.2013
       5    H1      18.568698   19.622502   22.038303 H          1 MOL1         0.0727
       6    H2      18.386709   19.506408   23.785296 H          1 MOL1         0.0727
       7    C3      20.471178   19.496513   23.129920 C.3        1 MOL1        -0.1910
       8    H3      21.093469   19.989291   22.370179 H          1 MOL1         0.0729
       9    H4      20.842399   19.846521   24.103103 H          1 MOL1         0.0729
      10    C4      20.650259   17.958889   23.055177 C.3        1 MOL1        -0.1909
      11    H5      19.752181   17.451928   23.433786 H          1 MOL1         0.0729
      12    H6      21.462913   17.676349   23.738359 H          1 MOL1         0.0729
      13    C5      21.014377   17.417993   21.650628 C.3        1 MOL1        -0.1884
      14    H7      21.961742   17.864455   21.318320 H          1 MOL1         0.0729
      15    H8      21.195424   16.337192   21.729900 H          1 MOL1         0.0729
      16    C6      19.931456   17.659784   20.578941 C.3        1 MOL1        -0.2899
      17    H9      20.191412   17.140907   19.647274 H          1 MOL1         0.0741
      18    H10     18.954930   17.286452   20.913602 H          1 MOL1         0.0741
      19    H11     19.837033   18.727816   20.346156 H          1 MOL1         0.0741
@<TRIPOS>BOND
    1     1     2    1
    2     1     3    2
    3     1     4    1
    4     4     5    1
    5     4     6    1
    6     4     7    1
    7     7     8    1
    8     7     9    1
    9     7    10    1
   10    10    11    1
   11    10    12    1
   12    10    13    1
   13    13    14    1
   14    13    15    1
   15    13    16    1
   16    16    17    1
   17    16    18    1
   18    16    19    1
@<TRIPOS>SUBSTRUCTURE
       1 MOL1            1 RESIDUE      1      MOL     
@<SCITEGIC>MOL_PROPERTY
VConf Rank
SciTegic.value.IntegerValue
354

@<SCITEGIC>MOL_PROPERTY
Conf_Id
SciTegic.value.IntegerValue
24

@<SCITEGIC>MOL_PROPERTY
Delta U+W
SciTegic.value.DoubleValue
2.477

@<SCITEGIC>MOL_PROPERTY
U+W
SciTegic.value.DoubleValue
-52.414

@<SCITEGIC>MOL_PROPERTY
Grad RMS
SciTegic.value.DoubleValue
0.000000

@<SCITEGIC>MOL_PROPERTY
U
SciTegic.value.DoubleValue
10.422

@<SCITEGIC>MOL_PROPERTY
W
SciTegic.value.DoubleValue
-62.836

@<SCITEGIC>MOL_PROPERTY
W(PB)
SciTegic.value.DoubleValue
-64.906

@<SCITEGIC>MOL_PROPERTY
W(SA)
SciTegic.value.DoubleValue
2.070

@<SCITEGIC>MOL_PROPERTY
Valence
SciTegic.value.DoubleValue
9.628

@<SCITEGIC>MOL_PROPERTY
Coulomb
SciTegic.value.DoubleValue
0.101

@<SCITEGIC>MOL_PROPERTY
VdW
SciTegic.value.DoubleValue
0.693

@<SCITEGIC>MOL_PROPERTY
VdW6
SciTegic.value.DoubleValue
-6.927

@<SCITEGIC>MOL_PROPERTY
VdW12
SciTegic.value.DoubleValue
7.620

@<SCITEGIC>MOL_PROPERTY
Bond
SciTegic.value.DoubleValue
0.173

@<SCITEGIC>MOL_PROPERTY
Angle
SciTegic.value.DoubleValue
2.989

@<SCITEGIC>MOL_PROPERTY
Pdih
SciTegic.value.DoubleValue
6.465

@<SCITEGIC>MOL_PROPERTY
Idih
SciTegic.value.DoubleValue
0.001

@<SCITEGIC>MOL_PROPERTY
Tether
SciTegic.value.DoubleValue
0.000

@<TRIPOS>MOLECULE
guest-7_confgen4.mol2 : confsearch ligand conformer 355
          19          18           1
SMALL
USER_CHARGES
 
@<TRIPOS>ATOM
       1    C1      17.493419   20.002960   21.940906 C.2        1 MOL1         0.6115
       2    O1      17.606049   20.982253   22.651533 O.co2      1 MOL1        -0.6776
       3    O2      16.807480   19.977385   20.937956 O.co2      1 MOL1        -0.6776
       4    C2      18.228242   18.726639   22.342491 C.3        1 MOL1        -0.2013
       5    H1      17.503303   17.905951   22.290601 H          1 MOL1         0.0727
       6    H2      18.526318   18.815498   23.392009 H          1 MOL1         0.0727
       7    C3      19.449110   18.390924   21.441539 C.3        1 MOL1        -0.1910
       8    H3      19.798687   17.371549   21.653445 H          1 MOL1         0.0729
       9    H4      19.108002   18.381965   20.396982 H          1 MOL1         0.0729
      10    C4      20.630064   19.387718   21.572789 C.3        1 MOL1        -0.1909
      11    H5      20.261063   20.390276   21.828763 H          1 MOL1         0.0729
      12    H6      21.102541   19.487770   20.586109 H          1 MOL1         0.0729
      13    C5      21.730164   18.957347   22.574021 C.3        1 MOL1        -0.1884
      14    H7      22.157908   17.994845   22.261245 H          1 MOL1         0.0729
      15    H8      22.549459   19.687816   22.525799 H          1 MOL1         0.0729
      16    C6      21.247659   18.853019   24.035479 C.3        1 MOL1        -0.2899
      17    H9      20.548655   18.017174   24.162422 H          1 MOL1         0.0741
      18    H10     22.096896   18.678799   24.708696 H          1 MOL1         0.0741
      19    H11     20.747786   19.777973   24.351820 H          1 MOL1         0.0741
@<TRIPOS>BOND
    1     1     2    1
    2     1     3    2
    3     1     4    1
    4     4     5    1
    5     4     6    1
    6     4     7    1
    7     7     8    1
    8     7     9    1
    9     7    10    1
   10    10    11    1
   11    10    12    1
   12    10    13    1
   13    13    14    1
   14    13    15    1
   15    13    16    1
   16    16    17    1
   17    16    18    1
   18    16    19    1
@<TRIPOS>SUBSTRUCTURE
       1 MOL1            1 RESIDUE      1      MOL     
@<SCITEGIC>MOL_PROPERTY
VConf Rank
SciTegic.value.IntegerValue
355

@<SCITEGIC>MOL_PROPERTY
Conf_Id
SciTegic.value.IntegerValue
4

@<SCITEGIC>MOL_PROPERTY
Delta U+W
SciTegic.value.DoubleValue
3.753

@<SCITEGIC>MOL_PROPERTY
U+W
SciTegic.value.DoubleValue
-51.138

@<SCITEGIC>MOL_PROPERTY
Grad RMS
SciTegic.value.DoubleValue
0.000000

@<SCITEGIC>MOL_PROPERTY
U
SciTegic.value.DoubleValue
12.334

@<SCITEGIC>MOL_PROPERTY
W
SciTegic.value.DoubleValue
-63.472

@<SCITEGIC>MOL_PROPERTY
W(PB)
SciTegic.value.DoubleValue
-65.500

@<SCITEGIC>MOL_PROPERTY
W(SA)
SciTegic.value.DoubleValue
2.028

@<SCITEGIC>MOL_PROPERTY
Valence
SciTegic.value.DoubleValue
9.984

@<SCITEGIC>MOL_PROPERTY
Coulomb
SciTegic.value.DoubleValue
1.767

@<SCITEGIC>MOL_PROPERTY
VdW
SciTegic.value.DoubleValue
0.583

@<SCITEGIC>MOL_PROPERTY
VdW6
SciTegic.value.DoubleValue
-7.767

@<SCITEGIC>MOL_PROPERTY
VdW12
SciTegic.value.DoubleValue
8.349

@<SCITEGIC>MOL_PROPERTY
Bond
SciTegic.value.DoubleValue
0.203

@<SCITEGIC>MOL_PROPERTY
Angle
SciTegic.value.DoubleValue
3.191

@<SCITEGIC>MOL_PROPERTY
Pdih
SciTegic.value.DoubleValue
6.589

@<SCITEGIC>MOL_PROPERTY
Idih
SciTegic.value.DoubleValue
0.001

@<SCITEGIC>MOL_PROPERTY
Tether
SciTegic.value.DoubleValue
0.000

@<TRIPOS>MOLECULE
guest-7_confgen4.mol2 : confsearch ligand conformer 356
          19          18           1
SMALL
USER_CHARGES
 
@<TRIPOS>ATOM
       1    C1      17.948967   20.431166   23.161672 C.2        1 MOL1         0.6115
       2    O1      17.710629   21.596710   22.913125 O.co2      1 MOL1        -0.6776
       3    O2      17.101277   19.560516   23.170845 O.co2      1 MOL1        -0.6776
       4    C2      19.385482   20.048963   23.508912 C.3        1 MOL1        -0.2013
       5    H1      19.373413   19.070787   24.000090 H          1 MOL1         0.0727
       6    H2      19.740984   20.769966   24.254249 H          1 MOL1         0.0727
       7    C3      20.351218   20.050830   22.291420 C.3        1 MOL1        -0.1910
       8    H3      20.272572   21.029117   21.797147 H          1 MOL1         0.0729
       9    H4      21.389649   19.971705   22.640179 H          1 MOL1         0.0729
      10    C4      20.062640   18.939698   21.248548 C.3        1 MOL1        -0.1909
      11    H5      20.287839   19.341782   20.251354 H          1 MOL1         0.0729
      12    H6      18.992222   18.693077   21.234886 H          1 MOL1         0.0729
      13    C5      20.900339   17.650080   21.430343 C.3        1 MOL1        -0.1884
      14    H7      20.677494   16.970125   20.596584 H          1 MOL1         0.0729
      15    H8      21.969654   17.890555   21.353276 H          1 MOL1         0.0729
      16    C6      20.636297   16.907630   22.756468 C.3        1 MOL1        -0.2899
      17    H9      19.563485   16.719954   22.895528 H          1 MOL1         0.0741
      18    H10     21.154023   15.939810   22.764337 H          1 MOL1         0.0741
      19    H11     21.003744   17.485744   23.613278 H          1 MOL1         0.0741
@<TRIPOS>BOND
    1     1     2    1
    2     1     3    2
    3     1     4    1
    4     4     5    1
    5     4     6    1
    6     4     7    1
    7     7     8    1
    8     7     9    1
    9     7    10    1
   10    10    11    1
   11    10    12    1
   12    10    13    1
   13    13    14    1
   14    13    15    1
   15    13    16    1
   16    16    17    1
   17    16    18    1
   18    16    19    1
@<TRIPOS>SUBSTRUCTURE
       1 MOL1            1 RESIDUE      1      MOL     
@<SCITEGIC>MOL_PROPERTY
VConf Rank
SciTegic.value.IntegerValue
356

@<SCITEGIC>MOL_PROPERTY
Conf_Id
SciTegic.value.IntegerValue
73

@<SCITEGIC>MOL_PROPERTY
Delta U+W
SciTegic.value.DoubleValue
3.707

@<SCITEGIC>MOL_PROPERTY
U+W
SciTegic.value.DoubleValue
-51.184

@<SCITEGIC>MOL_PROPERTY
Grad RMS
SciTegic.value.DoubleValue
0.000000

@<SCITEGIC>MOL_PROPERTY
U
SciTegic.value.DoubleValue
12.334

@<SCITEGIC>MOL_PROPERTY
W
SciTegic.value.DoubleValue
-63.519

@<SCITEGIC>MOL_PROPERTY
W(PB)
SciTegic.value.DoubleValue
-65.541

@<SCITEGIC>MOL_PROPERTY
W(SA)
SciTegic.value.DoubleValue
2.022

@<SCITEGIC>MOL_PROPERTY
Valence
SciTegic.value.DoubleValue
9.984

@<SCITEGIC>MOL_PROPERTY
Coulomb
SciTegic.value.DoubleValue
1.768

@<SCITEGIC>MOL_PROPERTY
VdW
SciTegic.value.DoubleValue
0.583

@<SCITEGIC>MOL_PROPERTY
VdW6
SciTegic.value.DoubleValue
-7.767

@<SCITEGIC>MOL_PROPERTY
VdW12
SciTegic.value.DoubleValue
8.350

@<SCITEGIC>MOL_PROPERTY
Bond
SciTegic.value.DoubleValue
0.203

@<SCITEGIC>MOL_PROPERTY
Angle
SciTegic.value.DoubleValue
3.192

@<SCITEGIC>MOL_PROPERTY
Pdih
SciTegic.value.DoubleValue
6.589

@<SCITEGIC>MOL_PROPERTY
Idih
SciTegic.value.DoubleValue
0.001

@<SCITEGIC>MOL_PROPERTY
Tether
SciTegic.value.DoubleValue
0.000

@<TRIPOS>MOLECULE
guest-7_confgen4.mol2 : confsearch ligand conformer 357
          19          18           1
SMALL
USER_CHARGES
 
@<TRIPOS>ATOM
       1    C1      17.466786   19.810277   23.019964 C.2        1 MOL1         0.6115
       2    O1      16.914028   18.739799   22.861071 O.co2      1 MOL1        -0.6776
       3    O2      17.134563   20.618150   23.865025 O.co2      1 MOL1        -0.6776
       4    C2      18.619512   20.176194   22.089022 C.3        1 MOL1        -0.2013
       5    H1      18.413603   21.177161   21.692367 H          1 MOL1         0.0727
       6    H2      18.608923   19.494230   21.231054 H          1 MOL1         0.0727
       7    C3      20.014028   20.171570   22.772817 C.3        1 MOL1        -0.1910
       8    H3      20.769843   20.515846   22.055125 H          1 MOL1         0.0729
       9    H4      20.009985   20.911893   23.584614 H          1 MOL1         0.0729
      10    C4      20.436712   18.798641   23.356338 C.3        1 MOL1        -0.1909
      11    H5      19.740088   18.520838   24.159222 H          1 MOL1         0.0729
      12    H6      21.419968   18.906421   23.834026 H          1 MOL1         0.0729
      13    C5      20.501851   17.638913   22.332617 C.3        1 MOL1        -0.1884
      14    H7      20.793228   16.721484   22.862070 H          1 MOL1         0.0729
      15    H8      19.503257   17.444834   21.918384 H          1 MOL1         0.0729
      16    C6      21.504291   17.890351   21.185635 C.3        1 MOL1        -0.2899
      17    H9      21.189284   18.733750   20.558452 H          1 MOL1         0.0741
      18    H10     22.505452   18.108069   21.579703 H          1 MOL1         0.0741
      19    H11     21.579229   17.005624   20.540316 H          1 MOL1         0.0741
@<TRIPOS>BOND
    1     1     2    1
    2     1     3    2
    3     1     4    1
    4     4     5    1
    5     4     6    1
    6     4     7    1
    7     7     8    1
    8     7     9    1
    9     7    10    1
   10    10    11    1
   11    10    12    1
   12    10    13    1
   13    13    14    1
   14    13    15    1
   15    13    16    1
   16    16    17    1
   17    16    18    1
   18    16    19    1
@<TRIPOS>SUBSTRUCTURE
       1 MOL1            1 RESIDUE      1      MOL     
@<SCITEGIC>MOL_PROPERTY
VConf Rank
SciTegic.value.IntegerValue
357

@<SCITEGIC>MOL_PROPERTY
Conf_Id
SciTegic.value.IntegerValue
56

@<SCITEGIC>MOL_PROPERTY
Delta U+W
SciTegic.value.DoubleValue
1.735

@<SCITEGIC>MOL_PROPERTY
U+W
SciTegic.value.DoubleValue
-53.156

@<SCITEGIC>MOL_PROPERTY
Grad RMS
SciTegic.value.DoubleValue
0.000000

@<SCITEGIC>MOL_PROPERTY
U
SciTegic.value.DoubleValue
10.214

@<SCITEGIC>MOL_PROPERTY
W
SciTegic.value.DoubleValue
-63.370

@<SCITEGIC>MOL_PROPERTY
W(PB)
SciTegic.value.DoubleValue
-65.388

@<SCITEGIC>MOL_PROPERTY
W(SA)
SciTegic.value.DoubleValue
2.018

@<SCITEGIC>MOL_PROPERTY
Valence
SciTegic.value.DoubleValue
7.868

@<SCITEGIC>MOL_PROPERTY
Coulomb
SciTegic.value.DoubleValue
1.968

@<SCITEGIC>MOL_PROPERTY
VdW
SciTegic.value.DoubleValue
0.378

@<SCITEGIC>MOL_PROPERTY
VdW6
SciTegic.value.DoubleValue
-8.067

@<SCITEGIC>MOL_PROPERTY
VdW12
SciTegic.value.DoubleValue
8.445

@<SCITEGIC>MOL_PROPERTY
Bond
SciTegic.value.DoubleValue
0.191

@<SCITEGIC>MOL_PROPERTY
Angle
SciTegic.value.DoubleValue
3.117

@<SCITEGIC>MOL_PROPERTY
Pdih
SciTegic.value.DoubleValue
4.559

@<SCITEGIC>MOL_PROPERTY
Idih
SciTegic.value.DoubleValue
0.001

@<SCITEGIC>MOL_PROPERTY
Tether
SciTegic.value.DoubleValue
0.000

@<TRIPOS>MOLECULE
guest-7_confgen4.mol2 : confsearch ligand conformer 358
          19          18           1
SMALL
USER_CHARGES
 
@<TRIPOS>ATOM
       1    C1      18.210093   17.629503   24.243581 C.2        1 MOL1         0.6115
       2    O1      17.617710   18.235138   25.114587 O.co2      1 MOL1        -0.6776
       3    O2      18.304515   16.418518   24.212386 O.co2      1 MOL1        -0.6776
       4    C2      18.890104   18.434260   23.141678 C.3        1 MOL1        -0.2013
       5    H1      18.306786   19.347958   22.976527 H          1 MOL1         0.0727
       6    H2      18.843304   17.841426   22.221424 H          1 MOL1         0.0727
       7    C3      20.360247   18.790252   23.477721 C.3        1 MOL1        -0.1910
       8    H3      20.390347   19.257089   24.471983 H          1 MOL1         0.0729
       9    H4      20.947753   17.865000   23.554795 H          1 MOL1         0.0729
      10    C4      21.032778   19.750349   22.464603 C.3        1 MOL1        -0.1909
      11    H5      22.043325   19.967813   22.836726 H          1 MOL1         0.0729
      12    H6      20.505958   20.714342   22.451267 H          1 MOL1         0.0729
      13    C5      21.159515   19.188485   21.026773 C.3        1 MOL1        -0.1884
      14    H7      22.104985   19.543437   20.593835 H          1 MOL1         0.0729
      15    H8      21.227219   18.092053   21.050407 H          1 MOL1         0.0729
      16    C6      20.011630   19.634702   20.094047 C.3        1 MOL1        -0.2899
      17    H9      20.156211   19.226060   19.085591 H          1 MOL1         0.0741
      18    H10     19.034888   19.294247   20.455551 H          1 MOL1         0.0741
      19    H11     19.979456   20.728864   20.010951 H          1 MOL1         0.0741
@<TRIPOS>BOND
    1     1     2    1
    2     1     3    2
    3     1     4    1
    4     4     5    1
    5     4     6    1
    6     4     7    1
    7     7     8    1
    8     7     9    1
    9     7    10    1
   10    10    11    1
   11    10    12    1
   12    10    13    1
   13    13    14    1
   14    13    15    1
   15    13    16    1
   16    16    17    1
   17    16    18    1
   18    16    19    1
@<TRIPOS>SUBSTRUCTURE
       1 MOL1            1 RESIDUE      1      MOL     
@<SCITEGIC>MOL_PROPERTY
VConf Rank
SciTegic.value.IntegerValue
358

@<SCITEGIC>MOL_PROPERTY
Conf_Id
SciTegic.value.IntegerValue
53

@<SCITEGIC>MOL_PROPERTY
Delta U+W
SciTegic.value.DoubleValue
2.279

@<SCITEGIC>MOL_PROPERTY
U+W
SciTegic.value.DoubleValue
-52.612

@<SCITEGIC>MOL_PROPERTY
Grad RMS
SciTegic.value.DoubleValue
0.000000

@<SCITEGIC>MOL_PROPERTY
U
SciTegic.value.DoubleValue
10.231

@<SCITEGIC>MOL_PROPERTY
W
SciTegic.value.DoubleValue
-62.843

@<SCITEGIC>MOL_PROPERTY
W(PB)
SciTegic.value.DoubleValue
-64.893

@<SCITEGIC>MOL_PROPERTY
W(SA)
SciTegic.value.DoubleValue
2.050

@<SCITEGIC>MOL_PROPERTY
Valence
SciTegic.value.DoubleValue
9.644

@<SCITEGIC>MOL_PROPERTY
Coulomb
SciTegic.value.DoubleValue
-0.164

@<SCITEGIC>MOL_PROPERTY
VdW
SciTegic.value.DoubleValue
0.751

@<SCITEGIC>MOL_PROPERTY
VdW6
SciTegic.value.DoubleValue
-6.881

@<SCITEGIC>MOL_PROPERTY
VdW12
SciTegic.value.DoubleValue
7.631

@<SCITEGIC>MOL_PROPERTY
Bond
SciTegic.value.DoubleValue
0.163

@<SCITEGIC>MOL_PROPERTY
Angle
SciTegic.value.DoubleValue
2.998

@<SCITEGIC>MOL_PROPERTY
Pdih
SciTegic.value.DoubleValue
6.482

@<SCITEGIC>MOL_PROPERTY
Idih
SciTegic.value.DoubleValue
0.001

@<SCITEGIC>MOL_PROPERTY
Tether
SciTegic.value.DoubleValue
0.000

@<TRIPOS>MOLECULE
guest-7_confgen4.mol2 : confsearch ligand conformer 359
          19          18           1
SMALL
USER_CHARGES
 
@<TRIPOS>ATOM
       1    C1      18.030334   19.103487   23.620457 C.2        1 MOL1         0.6115
       2    O1      17.785183   17.962634   23.959882 O.co2      1 MOL1        -0.6776
       3    O2      17.288903   19.768898   22.924214 O.co2      1 MOL1        -0.6776
       4    C2      19.303365   19.756478   24.155692 C.3        1 MOL1        -0.2013
       5    H1      19.823834   19.043226   24.806312 H          1 MOL1         0.0727
       6    H2      18.979100   20.585372   24.795543 H          1 MOL1         0.0727
       7    C3      20.274584   20.304492   23.072392 C.3        1 MOL1        -0.1910
       8    H3      19.709409   20.850177   22.304052 H          1 MOL1         0.0729
       9    H4      20.929815   21.046134   23.548896 H          1 MOL1         0.0729
      10    C4      21.177437   19.235369   22.408682 C.3        1 MOL1        -0.1909
      11    H5      21.744658   18.698810   23.181468 H          1 MOL1         0.0729
      12    H6      21.919192   19.753275   21.785318 H          1 MOL1         0.0729
      13    C5      20.411972   18.222351   21.529231 C.3        1 MOL1        -0.1884
      14    H7      19.758298   17.599935   22.153502 H          1 MOL1         0.0729
      15    H8      19.765206   18.758221   20.820758 H          1 MOL1         0.0729
      16    C6      21.377688   17.305442   20.751731 C.3        1 MOL1        -0.2899
      17    H9      22.018881   16.738359   21.439224 H          1 MOL1         0.0741
      18    H10     20.818439   16.586580   20.138930 H          1 MOL1         0.0741
      19    H11     22.023301   17.890115   20.083405 H          1 MOL1         0.0741
@<TRIPOS>BOND
    1     1     2    1
    2     1     3    2
    3     1     4    1
    4     4     5    1
    5     4     6    1
    6     4     7    1
    7     7     8    1
    8     7     9    1
    9     7    10    1
   10    10    11    1
   11    10    12    1
   12    10    13    1
   13    13    14    1
   14    13    15    1
   15    13    16    1
   16    16    17    1
   17    16    18    1
   18    16    19    1
@<TRIPOS>SUBSTRUCTURE
       1 MOL1            1 RESIDUE      1      MOL     
@<SCITEGIC>MOL_PROPERTY
VConf Rank
SciTegic.value.IntegerValue
359

@<SCITEGIC>MOL_PROPERTY
Conf_Id
SciTegic.value.IntegerValue
25

@<SCITEGIC>MOL_PROPERTY
Delta U+W
SciTegic.value.DoubleValue
2.065

@<SCITEGIC>MOL_PROPERTY
U+W
SciTegic.value.DoubleValue
-52.826

@<SCITEGIC>MOL_PROPERTY
Grad RMS
SciTegic.value.DoubleValue
0.000000

@<SCITEGIC>MOL_PROPERTY
U
SciTegic.value.DoubleValue
10.967

@<SCITEGIC>MOL_PROPERTY
W
SciTegic.value.DoubleValue
-63.794

@<SCITEGIC>MOL_PROPERTY
W(PB)
SciTegic.value.DoubleValue
-65.830

@<SCITEGIC>MOL_PROPERTY
W(SA)
SciTegic.value.DoubleValue
2.036

@<SCITEGIC>MOL_PROPERTY
Valence
SciTegic.value.DoubleValue
8.609

@<SCITEGIC>MOL_PROPERTY
Coulomb
SciTegic.value.DoubleValue
1.892

@<SCITEGIC>MOL_PROPERTY
VdW
SciTegic.value.DoubleValue
0.467

@<SCITEGIC>MOL_PROPERTY
VdW6
SciTegic.value.DoubleValue
-7.569

@<SCITEGIC>MOL_PROPERTY
VdW12
SciTegic.value.DoubleValue
8.036

@<SCITEGIC>MOL_PROPERTY
Bond
SciTegic.value.DoubleValue
0.170

@<SCITEGIC>MOL_PROPERTY
Angle
SciTegic.value.DoubleValue
3.195

@<SCITEGIC>MOL_PROPERTY
Pdih
SciTegic.value.DoubleValue
5.237

@<SCITEGIC>MOL_PROPERTY
Idih
SciTegic.value.DoubleValue
0.007

@<SCITEGIC>MOL_PROPERTY
Tether
SciTegic.value.DoubleValue
0.000

@<TRIPOS>MOLECULE
guest-7_confgen4.mol2 : confsearch ligand conformer 360
          19          18           1
SMALL
USER_CHARGES
 
@<TRIPOS>ATOM
       1    C1      18.783041   16.906161   21.945538 C.2        1 MOL1         0.6115
       2    O1      17.609345   17.219932   21.980659 O.co2      1 MOL1        -0.6776
       3    O2      19.262556   16.029187   22.636794 O.co2      1 MOL1        -0.6776
       4    C2      19.689708   17.600462   20.930952 C.3        1 MOL1        -0.2013
       5    H1      19.296483   17.344526   19.940248 H          1 MOL1         0.0727
       6    H2      20.693871   17.163613   20.992142 H          1 MOL1         0.0727
       7    C3      19.767327   19.147912   21.059415 C.3        1 MOL1        -0.1910
       8    H3      20.122191   19.549992   20.100864 H          1 MOL1         0.0729
       9    H4      18.760408   19.562607   21.206673 H          1 MOL1         0.0729
      10    C4      20.720297   19.660810   22.167324 C.3        1 MOL1        -0.1909
      11    H5      20.813423   20.750318   22.060967 H          1 MOL1         0.0729
      12    H6      21.726290   19.248428   22.009986 H          1 MOL1         0.0729
      13    C5      20.247147   19.341852   23.602584 C.3        1 MOL1        -0.1884
      14    H7      19.204286   19.663301   23.731062 H          1 MOL1         0.0729
      15    H8      20.273068   18.258460   23.775780 H          1 MOL1         0.0729
      16    C6      21.132765   20.035557   24.657236 C.3        1 MOL1        -0.2899
      17    H9      20.788819   19.792056   25.670870 H          1 MOL1         0.0741
      18    H10     22.177663   19.711007   24.566609 H          1 MOL1         0.0741
      19    H11     21.100855   21.126871   24.541767 H          1 MOL1         0.0741
@<TRIPOS>BOND
    1     1     2    1
    2     1     3    2
    3     1     4    1
    4     4     5    1
    5     4     6    1
    6     4     7    1
    7     7     8    1
    8     7     9    1
    9     7    10    1
   10    10    11    1
   11    10    12    1
   12    10    13    1
   13    13    14    1
   14    13    15    1
   15    13    16    1
   16    16    17    1
   17    16    18    1
   18    16    19    1
@<TRIPOS>SUBSTRUCTURE
       1 MOL1            1 RESIDUE      1      MOL     
@<SCITEGIC>MOL_PROPERTY
VConf Rank
SciTegic.value.IntegerValue
360

@<SCITEGIC>MOL_PROPERTY
Conf_Id
SciTegic.value.IntegerValue
52

@<SCITEGIC>MOL_PROPERTY
Delta U+W
SciTegic.value.DoubleValue
2.070

@<SCITEGIC>MOL_PROPERTY
U+W
SciTegic.value.DoubleValue
-52.822

@<SCITEGIC>MOL_PROPERTY
Grad RMS
SciTegic.value.DoubleValue
0.000000

@<SCITEGIC>MOL_PROPERTY
U
SciTegic.value.DoubleValue
10.967

@<SCITEGIC>MOL_PROPERTY
W
SciTegic.value.DoubleValue
-63.789

@<SCITEGIC>MOL_PROPERTY
W(PB)
SciTegic.value.DoubleValue
-65.837

@<SCITEGIC>MOL_PROPERTY
W(SA)
SciTegic.value.DoubleValue
2.048

@<SCITEGIC>MOL_PROPERTY
Valence
SciTegic.value.DoubleValue
8.609

@<SCITEGIC>MOL_PROPERTY
Coulomb
SciTegic.value.DoubleValue
1.892

@<SCITEGIC>MOL_PROPERTY
VdW
SciTegic.value.DoubleValue
0.467

@<SCITEGIC>MOL_PROPERTY
VdW6
SciTegic.value.DoubleValue
-7.569

@<SCITEGIC>MOL_PROPERTY
VdW12
SciTegic.value.DoubleValue
8.035

@<SCITEGIC>MOL_PROPERTY
Bond
SciTegic.value.DoubleValue
0.170

@<SCITEGIC>MOL_PROPERTY
Angle
SciTegic.value.DoubleValue
3.196

@<SCITEGIC>MOL_PROPERTY
Pdih
SciTegic.value.DoubleValue
5.237

@<SCITEGIC>MOL_PROPERTY
Idih
SciTegic.value.DoubleValue
0.007

@<SCITEGIC>MOL_PROPERTY
Tether
SciTegic.value.DoubleValue
0.000

@<TRIPOS>MOLECULE
guest-7_confgen4.mol2 : confsearch ligand conformer 361
          19          18           1
SMALL
USER_CHARGES
 
@<TRIPOS>ATOM
       1    C1      18.443804   17.554183   21.663719 C.2        1 MOL1         0.6115
       2    O1      17.653998   18.230590   21.033800 O.co2      1 MOL1        -0.6776
       3    O2      19.052346   16.619712   21.180875 O.co2      1 MOL1        -0.6776
       4    C2      18.589935   17.803716   23.165637 C.3        1 MOL1        -0.2013
       5    H1      19.439323   17.222154   23.543609 H          1 MOL1         0.0727
       6    H2      17.691509   17.382543   23.631168 H          1 MOL1         0.0727
       7    C3      18.725743   19.292998   23.593383 C.3        1 MOL1        -0.1910
       8    H3      18.037750   19.916663   23.006026 H          1 MOL1         0.0729
       9    H4      18.387077   19.376841   24.634840 H          1 MOL1         0.0729
      10    C4      20.159811   19.877366   23.521667 C.3        1 MOL1        -0.1909
      11    H5      20.828009   19.314788   24.188040 H          1 MOL1         0.0729
      12    H6      20.121475   20.895577   23.932449 H          1 MOL1         0.0729
      13    C5      20.762974   19.958139   22.098410 C.3        1 MOL1        -0.1884
      14    H7      19.965212   19.964877   21.342841 H          1 MOL1         0.0729
      15    H8      21.291399   20.915418   21.991019 H          1 MOL1         0.0729
      16    C6      21.766343   18.821108   21.809393 C.3        1 MOL1        -0.2899
      17    H9      22.619466   18.867431   22.498576 H          1 MOL1         0.0741
      18    H10     21.298351   17.835515   21.915787 H          1 MOL1         0.0741
      19    H11     22.154208   18.900608   20.785743 H          1 MOL1         0.0741
@<TRIPOS>BOND
    1     1     2    1
    2     1     3    2
    3     1     4    1
    4     4     5    1
    5     4     6    1
    6     4     7    1
    7     7     8    1
    8     7     9    1
    9     7    10    1
   10    10    11    1
   11    10    12    1
   12    10    13    1
   13    13    14    1
   14    13    15    1
   15    13    16    1
   16    16    17    1
   17    16    18    1
   18    16    19    1
@<TRIPOS>SUBSTRUCTURE
       1 MOL1            1 RESIDUE      1      MOL     
@<SCITEGIC>MOL_PROPERTY
VConf Rank
SciTegic.value.IntegerValue
361

@<SCITEGIC>MOL_PROPERTY
Conf_Id
SciTegic.value.IntegerValue
66

@<SCITEGIC>MOL_PROPERTY
Delta U+W
SciTegic.value.DoubleValue
5.819

@<SCITEGIC>MOL_PROPERTY
U+W
SciTegic.value.DoubleValue
-49.072

@<SCITEGIC>MOL_PROPERTY
Grad RMS
SciTegic.value.DoubleValue
0.000000

@<SCITEGIC>MOL_PROPERTY
U
SciTegic.value.DoubleValue
15.324

@<SCITEGIC>MOL_PROPERTY
W
SciTegic.value.DoubleValue
-64.396

@<SCITEGIC>MOL_PROPERTY
W(PB)
SciTegic.value.DoubleValue
-66.382

@<SCITEGIC>MOL_PROPERTY
W(SA)
SciTegic.value.DoubleValue
1.986

@<SCITEGIC>MOL_PROPERTY
Valence
SciTegic.value.DoubleValue
11.748

@<SCITEGIC>MOL_PROPERTY
Coulomb
SciTegic.value.DoubleValue
3.201

@<SCITEGIC>MOL_PROPERTY
VdW
SciTegic.value.DoubleValue
0.375

@<SCITEGIC>MOL_PROPERTY
VdW6
SciTegic.value.DoubleValue
-8.854

@<SCITEGIC>MOL_PROPERTY
VdW12
SciTegic.value.DoubleValue
9.229

@<SCITEGIC>MOL_PROPERTY
Bond
SciTegic.value.DoubleValue
0.216

@<SCITEGIC>MOL_PROPERTY
Angle
SciTegic.value.DoubleValue
3.812

@<SCITEGIC>MOL_PROPERTY
Pdih
SciTegic.value.DoubleValue
7.699

@<SCITEGIC>MOL_PROPERTY
Idih
SciTegic.value.DoubleValue
0.022

@<SCITEGIC>MOL_PROPERTY
Tether
SciTegic.value.DoubleValue
0.000

@<TRIPOS>MOLECULE
guest-7_confgen4.mol2 : confsearch ligand conformer 362
          19          18           1
SMALL
USER_CHARGES
 
@<TRIPOS>ATOM
       1    C1      21.580072   18.069818   25.033122 C.2        1 MOL1         0.6115
       2    O1      22.694928   17.931109   25.495204 O.co2      1 MOL1        -0.6776
       3    O2      20.566607   17.891539   25.680617 O.co2      1 MOL1        -0.6776
       4    C2      21.479755   18.488581   23.565386 C.3        1 MOL1        -0.2013
       5    H1      22.015636   17.737239   22.973467 H          1 MOL1         0.0727
       6    H2      22.026603   19.432580   23.456423 H          1 MOL1         0.0727
       7    C3      20.036174   18.653275   23.020059 C.3        1 MOL1        -0.1910
       8    H3      19.491974   17.705894   23.137461 H          1 MOL1         0.0729
       9    H4      19.502939   19.402973   23.620959 H          1 MOL1         0.0729
      10    C4      20.028185   19.076394   21.535078 C.3        1 MOL1        -0.1909
      11    H5      20.561923   18.325626   20.936229 H          1 MOL1         0.0729
      12    H6      20.572844   20.023626   21.419979 H          1 MOL1         0.0729
      13    C5      18.592206   19.239511   20.994938 C.3        1 MOL1        -0.1884
      14    H7      18.044575   18.293398   21.106582 H          1 MOL1         0.0729
      15    H8      18.055534   19.991276   21.590191 H          1 MOL1         0.0729
      16    C6      18.588033   19.661870   19.512175 C.3        1 MOL1        -0.2899
      17    H9      19.091486   18.911467   18.888596 H          1 MOL1         0.0741
      18    H10     17.559633   19.773213   19.144609 H          1 MOL1         0.0741
      19    H11     19.102550   20.622133   19.375838 H          1 MOL1         0.0741
@<TRIPOS>BOND
    1     1     2    1
    2     1     3    2
    3     1     4    1
    4     4     5    1
    5     4     6    1
    6     4     7    1
    7     7     8    1
    8     7     9    1
    9     7    10    1
   10    10    11    1
   11    10    12    1
   12    10    13    1
   13    13    14    1
   14    13    15    1
   15    13    16    1
   16    16    17    1
   17    16    18    1
   18    16    19    1
@<TRIPOS>SUBSTRUCTURE
       1 MOL1            1 RESIDUE      1      MOL     
@<SCITEGIC>MOL_PROPERTY
VConf Rank
SciTegic.value.IntegerValue
362

@<SCITEGIC>MOL_PROPERTY
Conf_Id
SciTegic.value.IntegerValue
0

@<SCITEGIC>MOL_PROPERTY
Delta U+W
SciTegic.value.DoubleValue
0.000

@<SCITEGIC>MOL_PROPERTY
U+W
SciTegic.value.DoubleValue
-54.891

@<SCITEGIC>MOL_PROPERTY
Grad RMS
SciTegic.value.DoubleValue
0.000000

@<SCITEGIC>MOL_PROPERTY
U
SciTegic.value.DoubleValue
6.966

@<SCITEGIC>MOL_PROPERTY
W
SciTegic.value.DoubleValue
-61.857

@<SCITEGIC>MOL_PROPERTY
W(PB)
SciTegic.value.DoubleValue
-63.965

@<SCITEGIC>MOL_PROPERTY
W(SA)
SciTegic.value.DoubleValue
2.108

@<SCITEGIC>MOL_PROPERTY
Valence
SciTegic.value.DoubleValue
7.175

@<SCITEGIC>MOL_PROPERTY
Coulomb
SciTegic.value.DoubleValue
-1.360

@<SCITEGIC>MOL_PROPERTY
VdW
SciTegic.value.DoubleValue
1.151

@<SCITEGIC>MOL_PROPERTY
VdW6
SciTegic.value.DoubleValue
-5.641

@<SCITEGIC>MOL_PROPERTY
VdW12
SciTegic.value.DoubleValue
6.792

@<SCITEGIC>MOL_PROPERTY
Bond
SciTegic.value.DoubleValue
0.119

@<SCITEGIC>MOL_PROPERTY
Angle
SciTegic.value.DoubleValue
2.715

@<SCITEGIC>MOL_PROPERTY
Pdih
SciTegic.value.DoubleValue
4.340

@<SCITEGIC>MOL_PROPERTY
Idih
SciTegic.value.DoubleValue
0.000

@<SCITEGIC>MOL_PROPERTY
Tether
SciTegic.value.DoubleValue
0.000

@<TRIPOS>MOLECULE
guest-7_confgen4.mol2 : confsearch ligand conformer 363
          19          18           1
SMALL
USER_CHARGES
 
@<TRIPOS>ATOM
       1    C1      22.200595   21.423467   22.475378 C.2        1 MOL1         0.6115
       2    O1      22.973945   21.290574   23.402981 O.co2      1 MOL1        -0.6776
       3    O2      22.478760   22.005717   21.445915 O.co2      1 MOL1        -0.6776
       4    C2      20.811519   20.807984   22.601947 C.3        1 MOL1        -0.2013
       5    H1      20.107614   21.437539   22.044346 H          1 MOL1         0.0727
       6    H2      20.515923   20.847708   23.657309 H          1 MOL1         0.0727
       7    C3      20.749569   19.349766   22.084381 C.3        1 MOL1        -0.1910
       8    H3      21.060359   19.325265   21.030645 H          1 MOL1         0.0729
       9    H4      21.468846   18.735410   22.643627 H          1 MOL1         0.0729
      10    C4      19.333695   18.750162   22.223682 C.3        1 MOL1        -0.1909
      11    H5      18.616816   19.367272   21.664708 H          1 MOL1         0.0729
      12    H6      19.025409   18.777235   23.277920 H          1 MOL1         0.0729
      13    C5      19.274938   17.297502   21.707251 C.3        1 MOL1        -0.1884
      14    H7      19.580855   17.266518   20.652288 H          1 MOL1         0.0729
      15    H8      19.989333   16.676522   22.265387 H          1 MOL1         0.0729
      16    C6      17.859810   16.702003   21.847787 C.3        1 MOL1        -0.2899
      17    H9      17.836042   15.669347   21.476080 H          1 MOL1         0.0741
      18    H10     17.540585   16.691580   22.898220 H          1 MOL1         0.0741
      19    H11     17.129045   17.286031   21.273056 H          1 MOL1         0.0741
@<TRIPOS>BOND
    1     1     2    1
    2     1     3    2
    3     1     4    1
    4     4     5    1
    5     4     6    1
    6     4     7    1
    7     7     8    1
    8     7     9    1
    9     7    10    1
   10    10    11    1
   11    10    12    1
   12    10    13    1
   13    13    14    1
   14    13    15    1
   15    13    16    1
   16    16    17    1
   17    16    18    1
   18    16    19    1
@<TRIPOS>SUBSTRUCTURE
       1 MOL1            1 RESIDUE      1      MOL     
@<SCITEGIC>MOL_PROPERTY
VConf Rank
SciTegic.value.IntegerValue
363

@<SCITEGIC>MOL_PROPERTY
Conf_Id
SciTegic.value.IntegerValue
18

@<SCITEGIC>MOL_PROPERTY
Delta U+W
SciTegic.value.DoubleValue
-1.199

@<SCITEGIC>MOL_PROPERTY
U+W
SciTegic.value.DoubleValue
-56.090

@<SCITEGIC>MOL_PROPERTY
Grad RMS
SciTegic.value.DoubleValue
0.000000

@<SCITEGIC>MOL_PROPERTY
U
SciTegic.value.DoubleValue
5.975

@<SCITEGIC>MOL_PROPERTY
W
SciTegic.value.DoubleValue
-62.066

@<SCITEGIC>MOL_PROPERTY
W(PB)
SciTegic.value.DoubleValue
-64.219

@<SCITEGIC>MOL_PROPERTY
W(SA)
SciTegic.value.DoubleValue
2.153

@<SCITEGIC>MOL_PROPERTY
Valence
SciTegic.value.DoubleValue
6.673

@<SCITEGIC>MOL_PROPERTY
Coulomb
SciTegic.value.DoubleValue
-1.307

@<SCITEGIC>MOL_PROPERTY
VdW
SciTegic.value.DoubleValue
0.610

@<SCITEGIC>MOL_PROPERTY
VdW6
SciTegic.value.DoubleValue
-5.351

@<SCITEGIC>MOL_PROPERTY
VdW12
SciTegic.value.DoubleValue
5.961

@<SCITEGIC>MOL_PROPERTY
Bond
SciTegic.value.DoubleValue
0.086

@<SCITEGIC>MOL_PROPERTY
Angle
SciTegic.value.DoubleValue
2.253

@<SCITEGIC>MOL_PROPERTY
Pdih
SciTegic.value.DoubleValue
4.333

@<SCITEGIC>MOL_PROPERTY
Idih
SciTegic.value.DoubleValue
0.001

@<SCITEGIC>MOL_PROPERTY
Tether
SciTegic.value.DoubleValue
0.000

@<TRIPOS>MOLECULE
guest-7_confgen4.mol2 : confsearch ligand conformer 364
          19          18           1
SMALL
USER_CHARGES
 
@<TRIPOS>ATOM
       1    C1      23.169798   19.158817   21.831321 C.2        1 MOL1         0.6115
       2    O1      23.965811   18.440060   22.402322 O.co2      1 MOL1        -0.6776
       3    O2      23.443203   19.815582   20.846349 O.co2      1 MOL1        -0.6776
       4    C2      21.744144   19.223524   22.367683 C.3        1 MOL1        -0.2013
       5    H1      21.363043   20.233720   22.180313 H          1 MOL1         0.0727
       6    H2      21.783071   19.086607   23.454996 H          1 MOL1         0.0727
       7    C3      20.813346   18.160734   21.727937 C.3        1 MOL1        -0.1910
       8    H3      20.747026   18.335131   20.645118 H          1 MOL1         0.0729
       9    H4      21.270541   17.169647   21.854980 H          1 MOL1         0.0729
      10    C4      19.393254   18.133682   22.341242 C.3        1 MOL1        -0.1909
      11    H5      19.462585   17.950695   23.422313 H          1 MOL1         0.0729
      12    H6      18.846155   17.281008   21.916222 H          1 MOL1         0.0729
      13    C5      18.587506   19.426466   22.082420 C.3        1 MOL1        -0.1884
      14    H7      19.078525   20.281754   22.564854 H          1 MOL1         0.0729
      15    H8      18.561294   19.637395   21.004417 H          1 MOL1         0.0729
      16    C6      17.145750   19.309887   22.616291 C.3        1 MOL1        -0.2899
      17    H9      16.587521   20.236139   22.427806 H          1 MOL1         0.0741
      18    H10     16.610321   18.486107   22.126303 H          1 MOL1         0.0741
      19    H11     17.141755   19.125905   23.698668 H          1 MOL1         0.0741
@<TRIPOS>BOND
    1     1     2    1
    2     1     3    2
    3     1     4    1
    4     4     5    1
    5     4     6    1
    6     4     7    1
    7     7     8    1
    8     7     9    1
    9     7    10    1
   10    10    11    1
   11    10    12    1
   12    10    13    1
   13    13    14    1
   14    13    15    1
   15    13    16    1
   16    16    17    1
   17    16    18    1
   18    16    19    1
@<TRIPOS>SUBSTRUCTURE
       1 MOL1            1 RESIDUE      1      MOL     
@<SCITEGIC>MOL_PROPERTY
VConf Rank
SciTegic.value.IntegerValue
364

@<SCITEGIC>MOL_PROPERTY
Conf_Id
SciTegic.value.IntegerValue
34

@<SCITEGIC>MOL_PROPERTY
Delta U+W
SciTegic.value.DoubleValue
-0.563

@<SCITEGIC>MOL_PROPERTY
U+W
SciTegic.value.DoubleValue
-55.455

@<SCITEGIC>MOL_PROPERTY
Grad RMS
SciTegic.value.DoubleValue
0.000000

@<SCITEGIC>MOL_PROPERTY
U
SciTegic.value.DoubleValue
6.914

@<SCITEGIC>MOL_PROPERTY
W
SciTegic.value.DoubleValue
-62.369

@<SCITEGIC>MOL_PROPERTY
W(PB)
SciTegic.value.DoubleValue
-64.446

@<SCITEGIC>MOL_PROPERTY
W(SA)
SciTegic.value.DoubleValue
2.077

@<SCITEGIC>MOL_PROPERTY
Valence
SciTegic.value.DoubleValue
7.196

@<SCITEGIC>MOL_PROPERTY
Coulomb
SciTegic.value.DoubleValue
-1.020

@<SCITEGIC>MOL_PROPERTY
VdW
SciTegic.value.DoubleValue
0.738

@<SCITEGIC>MOL_PROPERTY
VdW6
SciTegic.value.DoubleValue
-6.010

@<SCITEGIC>MOL_PROPERTY
VdW12
SciTegic.value.DoubleValue
6.748

@<SCITEGIC>MOL_PROPERTY
Bond
SciTegic.value.DoubleValue
0.126

@<SCITEGIC>MOL_PROPERTY
Angle
SciTegic.value.DoubleValue
2.499

@<SCITEGIC>MOL_PROPERTY
Pdih
SciTegic.value.DoubleValue
4.570

@<SCITEGIC>MOL_PROPERTY
Idih
SciTegic.value.DoubleValue
0.001

@<SCITEGIC>MOL_PROPERTY
Tether
SciTegic.value.DoubleValue
0.000

@<TRIPOS>MOLECULE
guest-7_confgen4.mol2 : confsearch ligand conformer 365
          19          18           1
SMALL
USER_CHARGES
 
@<TRIPOS>ATOM
       1    C1      17.248803   18.048369   20.724754 C.2        1 MOL1         0.6115
       2    O1      17.204285   17.271193   19.791853 O.co2      1 MOL1        -0.6776
       3    O2      16.348953   18.815453   21.004244 O.co2      1 MOL1        -0.6776
       4    C2      18.511969   18.077862   21.577924 C.3        1 MOL1        -0.2013
       5    H1      18.933735   17.065796   21.596594 H          1 MOL1         0.0727
       6    H2      18.215858   18.326004   22.603394 H          1 MOL1         0.0727
       7    C3      19.566637   19.087059   21.054114 C.3        1 MOL1        -0.1910
       8    H3      19.772355   18.865290   19.997742 H          1 MOL1         0.0729
       9    H4      19.148240   20.102676   21.081963 H          1 MOL1         0.0729
      10    C4      20.900344   19.049228   21.837261 C.3        1 MOL1        -0.1909
      11    H5      21.622014   19.702953   21.328490 H          1 MOL1         0.0729
      12    H6      21.320283   18.034686   21.800320 H          1 MOL1         0.0729
      13    C5      20.762298   19.502575   23.307952 C.3        1 MOL1        -0.1884
      14    H7      20.295238   20.496345   23.347263 H          1 MOL1         0.0729
      15    H8      20.103049   18.816330   23.855513 H          1 MOL1         0.0729
      16    C6      22.131761   19.552423   24.014599 C.3        1 MOL1        -0.2899
      17    H9      22.609804   18.564049   24.014128 H          1 MOL1         0.0741
      18    H10     22.806477   20.260082   23.515236 H          1 MOL1         0.0741
      19    H11     22.016944   19.872970   25.058225 H          1 MOL1         0.0741
@<TRIPOS>BOND
    1     1     2    1
    2     1     3    2
    3     1     4    1
    4     4     5    1
    5     4     6    1
    6     4     7    1
    7     7     8    1
    8     7     9    1
    9     7    10    1
   10    10    11    1
   11    10    12    1
   12    10    13    1
   13    13    14    1
   14    13    15    1
   15    13    16    1
   16    16    17    1
   17    16    18    1
   18    16    19    1
@<TRIPOS>SUBSTRUCTURE
       1 MOL1            1 RESIDUE      1      MOL     
@<SCITEGIC>MOL_PROPERTY
VConf Rank
SciTegic.value.IntegerValue
365

@<SCITEGIC>MOL_PROPERTY
Conf_Id
SciTegic.value.IntegerValue
33

@<SCITEGIC>MOL_PROPERTY
Delta U+W
SciTegic.value.DoubleValue
-0.526

@<SCITEGIC>MOL_PROPERTY
U+W
SciTegic.value.DoubleValue
-55.418

@<SCITEGIC>MOL_PROPERTY
Grad RMS
SciTegic.value.DoubleValue
0.000000

@<SCITEGIC>MOL_PROPERTY
U
SciTegic.value.DoubleValue
6.914

@<SCITEGIC>MOL_PROPERTY
W
SciTegic.value.DoubleValue
-62.332

@<SCITEGIC>MOL_PROPERTY
W(PB)
SciTegic.value.DoubleValue
-64.421

@<SCITEGIC>MOL_PROPERTY
W(SA)
SciTegic.value.DoubleValue
2.090

@<SCITEGIC>MOL_PROPERTY
Valence
SciTegic.value.DoubleValue
7.196

@<SCITEGIC>MOL_PROPERTY
Coulomb
SciTegic.value.DoubleValue
-1.020

@<SCITEGIC>MOL_PROPERTY
VdW
SciTegic.value.DoubleValue
0.738

@<SCITEGIC>MOL_PROPERTY
VdW6
SciTegic.value.DoubleValue
-6.010

@<SCITEGIC>MOL_PROPERTY
VdW12
SciTegic.value.DoubleValue
6.748

@<SCITEGIC>MOL_PROPERTY
Bond
SciTegic.value.DoubleValue
0.126

@<SCITEGIC>MOL_PROPERTY
Angle
SciTegic.value.DoubleValue
2.499

@<SCITEGIC>MOL_PROPERTY
Pdih
SciTegic.value.DoubleValue
4.570

@<SCITEGIC>MOL_PROPERTY
Idih
SciTegic.value.DoubleValue
0.001

@<SCITEGIC>MOL_PROPERTY
Tether
SciTegic.value.DoubleValue
0.000

@<TRIPOS>MOLECULE
guest-7_confgen4.mol2 : confsearch ligand conformer 366
          19          18           1
SMALL
USER_CHARGES
 
@<TRIPOS>ATOM
       1    C1      21.823878   20.089758   19.983353 C.2        1 MOL1         0.6115
       2    O1      22.297895   21.149327   20.342296 O.co2      1 MOL1        -0.6776
       3    O2      22.424259   19.279681   19.305443 O.co2      1 MOL1        -0.6776
       4    C2      20.403854   19.750185   20.422355 C.3        1 MOL1        -0.2013
       5    H1      19.937961   19.148535   19.632647 H          1 MOL1         0.0727
       6    H2      19.836291   20.685798   20.494647 H          1 MOL1         0.0727
       7    C3      20.355834   18.991443   21.771594 C.3        1 MOL1        -0.1910
       8    H3      20.936043   18.062311   21.686091 H          1 MOL1         0.0729
       9    H4      20.843610   19.604019   22.541299 H          1 MOL1         0.0729
      10    C4      18.904981   18.663405   22.193584 C.3        1 MOL1        -0.1909
      11    H5      18.412121   18.112510   21.380812 H          1 MOL1         0.0729
      12    H6      18.338201   19.595094   22.326715 H          1 MOL1         0.0729
      13    C5      18.817673   17.816353   23.484114 C.3        1 MOL1        -0.1884
      14    H7      17.769704   17.529245   23.647125 H          1 MOL1         0.0729
      15    H8      19.378877   16.880858   23.352863 H          1 MOL1         0.0729
      16    C6      19.330241   18.558061   24.737508 C.3        1 MOL1        -0.2899
      17    H9      18.803282   19.511566   24.872783 H          1 MOL1         0.0741
      18    H10     19.165790   17.950543   25.636852 H          1 MOL1         0.0741
      19    H11     20.405496   18.765122   24.668983 H          1 MOL1         0.0741
@<TRIPOS>BOND
    1     1     2    1
    2     1     3    2
    3     1     4    1
    4     4     5    1
    5     4     6    1
    6     4     7    1
    7     7     8    1
    8     7     9    1
    9     7    10    1
   10    10    11    1
   11    10    12    1
   12    10    13    1
   13    13    14    1
   14    13    15    1
   15    13    16    1
   16    16    17    1
   17    16    18    1
   18    16    19    1
@<TRIPOS>SUBSTRUCTURE
       1 MOL1            1 RESIDUE      1      MOL     
@<SCITEGIC>MOL_PROPERTY
VConf Rank
SciTegic.value.IntegerValue
366

@<SCITEGIC>MOL_PROPERTY
Conf_Id
SciTegic.value.IntegerValue
42

@<SCITEGIC>MOL_PROPERTY
Delta U+W
SciTegic.value.DoubleValue
-0.344

@<SCITEGIC>MOL_PROPERTY
U+W
SciTegic.value.DoubleValue
-55.236

@<SCITEGIC>MOL_PROPERTY
Grad RMS
SciTegic.value.DoubleValue
0.000000

@<SCITEGIC>MOL_PROPERTY
U
SciTegic.value.DoubleValue
7.244

@<SCITEGIC>MOL_PROPERTY
W
SciTegic.value.DoubleValue
-62.479

@<SCITEGIC>MOL_PROPERTY
W(PB)
SciTegic.value.DoubleValue
-64.610

@<SCITEGIC>MOL_PROPERTY
W(SA)
SciTegic.value.DoubleValue
2.130

@<SCITEGIC>MOL_PROPERTY
Valence
SciTegic.value.DoubleValue
7.174

@<SCITEGIC>MOL_PROPERTY
Coulomb
SciTegic.value.DoubleValue
-0.669

@<SCITEGIC>MOL_PROPERTY
VdW
SciTegic.value.DoubleValue
0.739

@<SCITEGIC>MOL_PROPERTY
VdW6
SciTegic.value.DoubleValue
-5.969

@<SCITEGIC>MOL_PROPERTY
VdW12
SciTegic.value.DoubleValue
6.708

@<SCITEGIC>MOL_PROPERTY
Bond
SciTegic.value.DoubleValue
0.116

@<SCITEGIC>MOL_PROPERTY
Angle
SciTegic.value.DoubleValue
2.481

@<SCITEGIC>MOL_PROPERTY
Pdih
SciTegic.value.DoubleValue
4.576

@<SCITEGIC>MOL_PROPERTY
Idih
SciTegic.value.DoubleValue
0.000

@<SCITEGIC>MOL_PROPERTY
Tether
SciTegic.value.DoubleValue
0.000

@<TRIPOS>MOLECULE
guest-7_confgen4.mol2 : confsearch ligand conformer 367
          19          18           1
SMALL
USER_CHARGES
 
@<TRIPOS>ATOM
       1    C1      22.879480   20.141723   23.044298 C.2        1 MOL1         0.6115
       2    O1      23.753679   19.623723   22.378210 O.co2      1 MOL1        -0.6776
       3    O2      23.027269   20.479991   24.201872 O.co2      1 MOL1        -0.6776
       4    C2      21.516565   20.362865   22.397723 C.3        1 MOL1        -0.2013
       5    H1      21.673101   20.555857   21.329557 H          1 MOL1         0.0727
       6    H2      21.077656   21.270060   22.830197 H          1 MOL1         0.0727
       7    C3      20.557746   19.161646   22.587943 C.3        1 MOL1        -0.1910
       8    H3      21.025692   18.262994   22.164771 H          1 MOL1         0.0729
       9    H4      20.418542   18.975165   23.661762 H          1 MOL1         0.0729
      10    C4      19.185959   19.411600   21.919825 C.3        1 MOL1        -0.1909
      11    H5      19.320263   19.549291   20.838155 H          1 MOL1         0.0729
      12    H6      18.767290   20.351943   22.303832 H          1 MOL1         0.0729
      13    C5      18.164066   18.279435   22.173848 C.3        1 MOL1        -0.1884
      14    H7      18.022808   18.142469   23.254872 H          1 MOL1         0.0729
      15    H8      17.189571   18.586989   21.770099 H          1 MOL1         0.0729
      16    C6      18.567590   16.936126   21.528447 C.3        1 MOL1        -0.2899
      17    H9      19.479854   16.530780   21.983654 H          1 MOL1         0.0741
      18    H10     17.771453   16.192182   21.661319 H          1 MOL1         0.0741
      19    H11     18.742935   17.054714   20.451252 H          1 MOL1         0.0741
@<TRIPOS>BOND
    1     1     2    1
    2     1     3    2
    3     1     4    1
    4     4     5    1
    5     4     6    1
    6     4     7    1
    7     7     8    1
    8     7     9    1
    9     7    10    1
   10    10    11    1
   11    10    12    1
   12    10    13    1
   13    13    14    1
   14    13    15    1
   15    13    16    1
   16    16    17    1
   17    16    18    1
   18    16    19    1
@<TRIPOS>SUBSTRUCTURE
       1 MOL1            1 RESIDUE      1      MOL     
@<SCITEGIC>MOL_PROPERTY
VConf Rank
SciTegic.value.IntegerValue
367

@<SCITEGIC>MOL_PROPERTY
Conf_Id
SciTegic.value.IntegerValue
41

@<SCITEGIC>MOL_PROPERTY
Delta U+W
SciTegic.value.DoubleValue
-0.361

@<SCITEGIC>MOL_PROPERTY
U+W
SciTegic.value.DoubleValue
-55.252

@<SCITEGIC>MOL_PROPERTY
Grad RMS
SciTegic.value.DoubleValue
0.000000

@<SCITEGIC>MOL_PROPERTY
U
SciTegic.value.DoubleValue
7.244

@<SCITEGIC>MOL_PROPERTY
W
SciTegic.value.DoubleValue
-62.496

@<SCITEGIC>MOL_PROPERTY
W(PB)
SciTegic.value.DoubleValue
-64.596

@<SCITEGIC>MOL_PROPERTY
W(SA)
SciTegic.value.DoubleValue
2.099

@<SCITEGIC>MOL_PROPERTY
Valence
SciTegic.value.DoubleValue
7.174

@<SCITEGIC>MOL_PROPERTY
Coulomb
SciTegic.value.DoubleValue
-0.669

@<SCITEGIC>MOL_PROPERTY
VdW
SciTegic.value.DoubleValue
0.739

@<SCITEGIC>MOL_PROPERTY
VdW6
SciTegic.value.DoubleValue
-5.969

@<SCITEGIC>MOL_PROPERTY
VdW12
SciTegic.value.DoubleValue
6.708

@<SCITEGIC>MOL_PROPERTY
Bond
SciTegic.value.DoubleValue
0.116

@<SCITEGIC>MOL_PROPERTY
Angle
SciTegic.value.DoubleValue
2.481

@<SCITEGIC>MOL_PROPERTY
Pdih
SciTegic.value.DoubleValue
4.576

@<SCITEGIC>MOL_PROPERTY
Idih
SciTegic.value.DoubleValue
0.000

@<SCITEGIC>MOL_PROPERTY
Tether
SciTegic.value.DoubleValue
0.000

@<TRIPOS>MOLECULE
guest-7_confgen4.mol2 : confsearch ligand conformer 368
          19          18           1
SMALL
USER_CHARGES
 
@<TRIPOS>ATOM
       1    C1      19.366360   16.195280   21.872356 C.2        1 MOL1         0.6115
       2    O1      18.152379   16.173207   21.920437 O.co2      1 MOL1        -0.6776
       3    O2      20.011311   15.718869   20.959256 O.co2      1 MOL1        -0.6776
       4    C2      20.125143   16.836033   23.031247 C.3        1 MOL1        -0.2013
       5    H1      20.936398   16.153015   23.309571 H          1 MOL1         0.0727
       6    H2      19.454035   16.900806   23.896351 H          1 MOL1         0.0727
       7    C3      20.713923   18.233145   22.704890 C.3        1 MOL1        -0.1910
       8    H3      21.354065   18.553457   23.538048 H          1 MOL1         0.0729
       9    H4      21.360809   18.157704   21.819746 H          1 MOL1         0.0729
      10    C4      19.620116   19.297647   22.464617 C.3        1 MOL1        -0.1909
      11    H5      18.968389   19.360016   23.346883 H          1 MOL1         0.0729
      12    H6      18.985452   18.992603   21.621070 H          1 MOL1         0.0729
      13    C5      20.227955   20.685497   22.173057 C.3        1 MOL1        -0.1884
      14    H7      20.860618   20.997770   23.015467 H          1 MOL1         0.0729
      15    H8      20.878508   20.626505   21.289443 H          1 MOL1         0.0729
      16    C6      19.134139   21.745371   21.933873 C.3        1 MOL1        -0.2899
      17    H9      18.487040   21.847600   22.814906 H          1 MOL1         0.0741
      18    H10     19.583562   22.725474   21.727711 H          1 MOL1         0.0741
      19    H11     18.505017   21.473611   21.076089 H          1 MOL1         0.0741
@<TRIPOS>BOND
    1     1     2    1
    2     1     3    2
    3     1     4    1
    4     4     5    1
    5     4     6    1
    6     4     7    1
    7     7     8    1
    8     7     9    1
    9     7    10    1
   10    10    11    1
   11    10    12    1
   12    10    13    1
   13    13    14    1
   14    13    15    1
   15    13    16    1
   16    16    17    1
   17    16    18    1
   18    16    19    1
@<TRIPOS>SUBSTRUCTURE
       1 MOL1            1 RESIDUE      1      MOL     
@<SCITEGIC>MOL_PROPERTY
VConf Rank
SciTegic.value.IntegerValue
368

@<SCITEGIC>MOL_PROPERTY
Conf_Id
SciTegic.value.IntegerValue
36

@<SCITEGIC>MOL_PROPERTY
Delta U+W
SciTegic.value.DoubleValue
-0.079

@<SCITEGIC>MOL_PROPERTY
U+W
SciTegic.value.DoubleValue
-54.971

@<SCITEGIC>MOL_PROPERTY
Grad RMS
SciTegic.value.DoubleValue
0.000000

@<SCITEGIC>MOL_PROPERTY
U
SciTegic.value.DoubleValue
8.266

@<SCITEGIC>MOL_PROPERTY
W
SciTegic.value.DoubleValue
-63.237

@<SCITEGIC>MOL_PROPERTY
W(PB)
SciTegic.value.DoubleValue
-65.340

@<SCITEGIC>MOL_PROPERTY
W(SA)
SciTegic.value.DoubleValue
2.103

@<SCITEGIC>MOL_PROPERTY
Valence
SciTegic.value.DoubleValue
6.935

@<SCITEGIC>MOL_PROPERTY
Coulomb
SciTegic.value.DoubleValue
0.874

@<SCITEGIC>MOL_PROPERTY
VdW
SciTegic.value.DoubleValue
0.457

@<SCITEGIC>MOL_PROPERTY
VdW6
SciTegic.value.DoubleValue
-6.205

@<SCITEGIC>MOL_PROPERTY
VdW12
SciTegic.value.DoubleValue
6.662

@<SCITEGIC>MOL_PROPERTY
Bond
SciTegic.value.DoubleValue
0.107

@<SCITEGIC>MOL_PROPERTY
Angle
SciTegic.value.DoubleValue
2.420

@<SCITEGIC>MOL_PROPERTY
Pdih
SciTegic.value.DoubleValue
4.407

@<SCITEGIC>MOL_PROPERTY
Idih
SciTegic.value.DoubleValue
0.001

@<SCITEGIC>MOL_PROPERTY
Tether
SciTegic.value.DoubleValue
0.000

@<TRIPOS>MOLECULE
guest-7_confgen4.mol2 : confsearch ligand conformer 369
          19          18           1
SMALL
USER_CHARGES
 
@<TRIPOS>ATOM
       1    C1      21.198015   19.420834   19.722130 C.2        1 MOL1         0.6115
       2    O1      20.959577   18.346899   19.206026 O.co2      1 MOL1        -0.6776
       3    O2      22.292645   19.948109   19.700983 O.co2      1 MOL1        -0.6776
       4    C2      20.057163   20.159388   20.416638 C.3        1 MOL1        -0.2013
       5    H1      19.105090   19.743913   20.064607 H          1 MOL1         0.0727
       6    H2      20.090697   21.203078   20.082429 H          1 MOL1         0.0727
       7    C3      20.122840   20.109502   21.965279 C.3        1 MOL1        -0.1910
       8    H3      21.092722   20.502078   22.301202 H          1 MOL1         0.0729
       9    H4      19.352434   20.775955   22.376194 H          1 MOL1         0.0729
      10    C4      19.913479   18.684005   22.523346 C.3        1 MOL1        -0.1909
      11    H5      20.690966   18.014480   22.130062 H          1 MOL1         0.0729
      12    H6      18.948763   18.291044   22.174156 H          1 MOL1         0.0729
      13    C5      19.951288   18.663104   24.065662 C.3        1 MOL1        -0.1884
      14    H7      20.916260   19.053503   24.417641 H          1 MOL1         0.0729
      15    H8      19.172763   19.327921   24.464846 H          1 MOL1         0.0729
      16    C6      19.742096   17.239497   24.619344 C.3        1 MOL1        -0.2899
      17    H9      20.525969   16.559602   24.260557 H          1 MOL1         0.0741
      18    H10     19.772355   17.242818   25.716686 H          1 MOL1         0.0741
      19    H11     18.769563   16.836087   24.308142 H          1 MOL1         0.0741
@<TRIPOS>BOND
    1     1     2    1
    2     1     3    2
    3     1     4    1
    4     4     5    1
    5     4     6    1
    6     4     7    1
    7     7     8    1
    8     7     9    1
    9     7    10    1
   10    10    11    1
   11    10    12    1
   12    10    13    1
   13    13    14    1
   14    13    15    1
   15    13    16    1
   16    16    17    1
   17    16    18    1
   18    16    19    1
@<TRIPOS>SUBSTRUCTURE
       1 MOL1            1 RESIDUE      1      MOL     
@<SCITEGIC>MOL_PROPERTY
VConf Rank
SciTegic.value.IntegerValue
369

@<SCITEGIC>MOL_PROPERTY
Conf_Id
SciTegic.value.IntegerValue
35

@<SCITEGIC>MOL_PROPERTY
Delta U+W
SciTegic.value.DoubleValue
-0.030

@<SCITEGIC>MOL_PROPERTY
U+W
SciTegic.value.DoubleValue
-54.921

@<SCITEGIC>MOL_PROPERTY
Grad RMS
SciTegic.value.DoubleValue
0.000000

@<SCITEGIC>MOL_PROPERTY
U
SciTegic.value.DoubleValue
8.267

@<SCITEGIC>MOL_PROPERTY
W
SciTegic.value.DoubleValue
-63.188

@<SCITEGIC>MOL_PROPERTY
W(PB)
SciTegic.value.DoubleValue
-65.294

@<SCITEGIC>MOL_PROPERTY
W(SA)
SciTegic.value.DoubleValue
2.106

@<SCITEGIC>MOL_PROPERTY
Valence
SciTegic.value.DoubleValue
6.935

@<SCITEGIC>MOL_PROPERTY
Coulomb
SciTegic.value.DoubleValue
0.875

@<SCITEGIC>MOL_PROPERTY
VdW
SciTegic.value.DoubleValue
0.457

@<SCITEGIC>MOL_PROPERTY
VdW6
SciTegic.value.DoubleValue
-6.205

@<SCITEGIC>MOL_PROPERTY
VdW12
SciTegic.value.DoubleValue
6.662

@<SCITEGIC>MOL_PROPERTY
Bond
SciTegic.value.DoubleValue
0.107

@<SCITEGIC>MOL_PROPERTY
Angle
SciTegic.value.DoubleValue
2.420

@<SCITEGIC>MOL_PROPERTY
Pdih
SciTegic.value.DoubleValue
4.407

@<SCITEGIC>MOL_PROPERTY
Idih
SciTegic.value.DoubleValue
0.001

@<SCITEGIC>MOL_PROPERTY
Tether
SciTegic.value.DoubleValue
0.000

@<TRIPOS>MOLECULE
guest-7_confgen4.mol2 : confsearch ligand conformer 370
          19          18           1
SMALL
USER_CHARGES
 
@<TRIPOS>ATOM
       1    C1      21.826323   18.262804   24.576800 C.2        1 MOL1         0.6115
       2    O1      22.416835   19.233295   25.008252 O.co2      1 MOL1        -0.6776
       3    O2      22.365513   17.200697   24.336282 O.co2      1 MOL1        -0.6776
       4    C2      20.322186   18.379753   24.345773 C.3        1 MOL1        -0.2013
       5    H1      19.891709   18.861999   25.231336 H          1 MOL1         0.0727
       6    H2      19.895518   17.370619   24.295158 H          1 MOL1         0.0727
       7    C3      19.937147   19.187389   23.078812 C.3        1 MOL1        -0.1910
       8    H3      18.851278   19.346172   23.083861 H          1 MOL1         0.0729
       9    H4      20.403690   20.181136   23.125014 H          1 MOL1         0.0729
      10    C4      20.352299   18.473178   21.770288 C.3        1 MOL1        -0.1909
      11    H5      19.854518   17.495874   21.707766 H          1 MOL1         0.0729
      12    H6      21.431608   18.269679   21.796884 H          1 MOL1         0.0729
      13    C5      20.042506   19.294480   20.497370 C.3        1 MOL1        -0.1884
      14    H7      20.540914   20.271952   20.556084 H          1 MOL1         0.0729
      15    H8      20.475909   18.776921   19.630470 H          1 MOL1         0.0729
      16    C6      18.531549   19.495266   20.250973 C.3        1 MOL1        -0.2899
      17    H9      18.075497   20.111206   21.035994 H          1 MOL1         0.0741
      18    H10     18.363458   20.002220   19.291974 H          1 MOL1         0.0741
      19    H11     18.006971   18.531413   20.220110 H          1 MOL1         0.0741
@<TRIPOS>BOND
    1     1     2    1
    2     1     3    2
    3     1     4    1
    4     4     5    1
    5     4     6    1
    6     4     7    1
    7     7     8    1
    8     7     9    1
    9     7    10    1
   10    10    11    1
   11    10    12    1
   12    10    13    1
   13    13    14    1
   14    13    15    1
   15    13    16    1
   16    16    17    1
   17    16    18    1
   18    16    19    1
@<TRIPOS>SUBSTRUCTURE
       1 MOL1            1 RESIDUE      1      MOL     
@<SCITEGIC>MOL_PROPERTY
VConf Rank
SciTegic.value.IntegerValue
370

@<SCITEGIC>MOL_PROPERTY
Conf_Id
SciTegic.value.IntegerValue
74

@<SCITEGIC>MOL_PROPERTY
Delta U+W
SciTegic.value.DoubleValue
0.797

@<SCITEGIC>MOL_PROPERTY
U+W
SciTegic.value.DoubleValue
-54.095

@<SCITEGIC>MOL_PROPERTY
Grad RMS
SciTegic.value.DoubleValue
0.000000

@<SCITEGIC>MOL_PROPERTY
U
SciTegic.value.DoubleValue
8.869

@<SCITEGIC>MOL_PROPERTY
W
SciTegic.value.DoubleValue
-62.964

@<SCITEGIC>MOL_PROPERTY
W(PB)
SciTegic.value.DoubleValue
-65.046

@<SCITEGIC>MOL_PROPERTY
W(SA)
SciTegic.value.DoubleValue
2.082

@<SCITEGIC>MOL_PROPERTY
Valence
SciTegic.value.DoubleValue
7.469

@<SCITEGIC>MOL_PROPERTY
Coulomb
SciTegic.value.DoubleValue
0.762

@<SCITEGIC>MOL_PROPERTY
VdW
SciTegic.value.DoubleValue
0.639

@<SCITEGIC>MOL_PROPERTY
VdW6
SciTegic.value.DoubleValue
-6.782

@<SCITEGIC>MOL_PROPERTY
VdW12
SciTegic.value.DoubleValue
7.421

@<SCITEGIC>MOL_PROPERTY
Bond
SciTegic.value.DoubleValue
0.141

@<SCITEGIC>MOL_PROPERTY
Angle
SciTegic.value.DoubleValue
2.667

@<SCITEGIC>MOL_PROPERTY
Pdih
SciTegic.value.DoubleValue
4.660

@<SCITEGIC>MOL_PROPERTY
Idih
SciTegic.value.DoubleValue
0.001

@<SCITEGIC>MOL_PROPERTY
Tether
SciTegic.value.DoubleValue
0.000

@<TRIPOS>MOLECULE
guest-7_confgen4.mol2 : confsearch ligand conformer 371
          19          18           1
SMALL
USER_CHARGES
 
@<TRIPOS>ATOM
       1    C1      18.073732   16.912005   23.246443 C.2        1 MOL1         0.6115
       2    O1      18.258099   15.737663   23.498143 O.co2      1 MOL1        -0.6776
       3    O2      17.158595   17.563070   23.710081 O.co2      1 MOL1        -0.6776
       4    C2      19.055463   17.610939   22.312681 C.3        1 MOL1        -0.2013
       5    H1      18.500610   18.375004   21.756350 H          1 MOL1         0.0727
       6    H2      19.416571   16.874940   21.584490 H          1 MOL1         0.0727
       7    C3      20.251130   18.248729   23.066467 C.3        1 MOL1        -0.1910
       8    H3      19.880630   19.010661   23.765013 H          1 MOL1         0.0729
       9    H4      20.729901   17.477044   23.684917 H          1 MOL1         0.0729
      10    C4      21.320339   18.860640   22.126741 C.3        1 MOL1        -0.1909
      11    H5      21.749783   18.060887   21.508059 H          1 MOL1         0.0729
      12    H6      22.146850   19.247836   22.738084 H          1 MOL1         0.0729
      13    C5      20.813168   19.990932   21.197701 C.3        1 MOL1        -0.1884
      14    H7      21.650378   20.332336   20.573519 H          1 MOL1         0.0729
      15    H8      20.057149   19.600819   20.503543 H          1 MOL1         0.0729
      16    C6      20.240069   21.201947   21.964772 C.3        1 MOL1        -0.2899
      17    H9      20.972151   21.594854   22.682206 H          1 MOL1         0.0741
      18    H10     19.980733   22.009958   21.268583 H          1 MOL1         0.0741
      19    H11     19.329435   20.931302   22.514102 H          1 MOL1         0.0741
@<TRIPOS>BOND
    1     1     2    1
    2     1     3    2
    3     1     4    1
    4     4     5    1
    5     4     6    1
    6     4     7    1
    7     7     8    1
    8     7     9    1
    9     7    10    1
   10    10    11    1
   11    10    12    1
   12    10    13    1
   13    13    14    1
   14    13    15    1
   15    13    16    1
   16    16    17    1
   17    16    18    1
   18    16    19    1
@<TRIPOS>SUBSTRUCTURE
       1 MOL1            1 RESIDUE      1      MOL     
@<SCITEGIC>MOL_PROPERTY
VConf Rank
SciTegic.value.IntegerValue
371

@<SCITEGIC>MOL_PROPERTY
Conf_Id
SciTegic.value.IntegerValue
67

@<SCITEGIC>MOL_PROPERTY
Delta U+W
SciTegic.value.DoubleValue
0.308

@<SCITEGIC>MOL_PROPERTY
U+W
SciTegic.value.DoubleValue
-54.583

@<SCITEGIC>MOL_PROPERTY
Grad RMS
SciTegic.value.DoubleValue
0.000000

@<SCITEGIC>MOL_PROPERTY
U
SciTegic.value.DoubleValue
8.219

@<SCITEGIC>MOL_PROPERTY
W
SciTegic.value.DoubleValue
-62.802

@<SCITEGIC>MOL_PROPERTY
W(PB)
SciTegic.value.DoubleValue
-64.859

@<SCITEGIC>MOL_PROPERTY
W(SA)
SciTegic.value.DoubleValue
2.057

@<SCITEGIC>MOL_PROPERTY
Valence
SciTegic.value.DoubleValue
7.609

@<SCITEGIC>MOL_PROPERTY
Coulomb
SciTegic.value.DoubleValue
-0.089

@<SCITEGIC>MOL_PROPERTY
VdW
SciTegic.value.DoubleValue
0.699

@<SCITEGIC>MOL_PROPERTY
VdW6
SciTegic.value.DoubleValue
-6.924

@<SCITEGIC>MOL_PROPERTY
VdW12
SciTegic.value.DoubleValue
7.623

@<SCITEGIC>MOL_PROPERTY
Bond
SciTegic.value.DoubleValue
0.163

@<SCITEGIC>MOL_PROPERTY
Angle
SciTegic.value.DoubleValue
2.870

@<SCITEGIC>MOL_PROPERTY
Pdih
SciTegic.value.DoubleValue
4.576

@<SCITEGIC>MOL_PROPERTY
Idih
SciTegic.value.DoubleValue
0.001

@<SCITEGIC>MOL_PROPERTY
Tether
SciTegic.value.DoubleValue
0.000

@<TRIPOS>MOLECULE
guest-7_confgen4.mol2 : confsearch ligand conformer 372
          19          18           1
SMALL
USER_CHARGES
 
@<TRIPOS>ATOM
       1    C1      17.999248   20.798624   23.374756 C.2        1 MOL1         0.6115
       2    O1      17.688538   21.903665   22.976301 O.co2      1 MOL1        -0.6776
       3    O2      17.826332   20.422999   24.517266 O.co2      1 MOL1        -0.6776
       4    C2      18.659817   19.838351   22.392034 C.3        1 MOL1        -0.2013
       5    H1      18.255641   20.041054   21.393080 H          1 MOL1         0.0727
       6    H2      18.358024   18.820896   22.665651 H          1 MOL1         0.0727
       7    C3      20.205531   19.961567   22.378806 C.3        1 MOL1        -0.1910
       8    H3      20.473845   21.010574   22.192285 H          1 MOL1         0.0729
       9    H4      20.601798   19.719367   23.373838 H          1 MOL1         0.0729
      10    C4      20.887921   19.079578   21.303091 C.3        1 MOL1        -0.1909
      11    H5      21.970961   19.260853   21.333799 H          1 MOL1         0.0729
      12    H6      20.553714   19.407937   20.309471 H          1 MOL1         0.0729
      13    C5      20.631366   17.558360   21.437160 C.3        1 MOL1        -0.1884
      14    H7      19.563306   17.340708   21.304929 H          1 MOL1         0.0729
      15    H8      21.149601   17.042920   20.616894 H          1 MOL1         0.0729
      16    C6      21.119960   16.971805   22.779035 C.3        1 MOL1        -0.2899
      17    H9      20.546676   17.375818   23.623065 H          1 MOL1         0.0741
      18    H10     21.000359   15.880734   22.787661 H          1 MOL1         0.0741
      19    H11     22.181623   17.197539   22.943186 H          1 MOL1         0.0741
@<TRIPOS>BOND
    1     1     2    1
    2     1     3    2
    3     1     4    1
    4     4     5    1
    5     4     6    1
    6     4     7    1
    7     7     8    1
    8     7     9    1
    9     7    10    1
   10    10    11    1
   11    10    12    1
   12    10    13    1
   13    13    14    1
   14    13    15    1
   15    13    16    1
   16    16    17    1
   17    16    18    1
   18    16    19    1
@<TRIPOS>SUBSTRUCTURE
       1 MOL1            1 RESIDUE      1      MOL     
@<SCITEGIC>MOL_PROPERTY
VConf Rank
SciTegic.value.IntegerValue
372

@<SCITEGIC>MOL_PROPERTY
Conf_Id
SciTegic.value.IntegerValue
21

@<SCITEGIC>MOL_PROPERTY
Delta U+W
SciTegic.value.DoubleValue
0.319

@<SCITEGIC>MOL_PROPERTY
U+W
SciTegic.value.DoubleValue
-54.572

@<SCITEGIC>MOL_PROPERTY
Grad RMS
SciTegic.value.DoubleValue
0.000000

@<SCITEGIC>MOL_PROPERTY
U
SciTegic.value.DoubleValue
8.220

@<SCITEGIC>MOL_PROPERTY
W
SciTegic.value.DoubleValue
-62.792

@<SCITEGIC>MOL_PROPERTY
W(PB)
SciTegic.value.DoubleValue
-64.830

@<SCITEGIC>MOL_PROPERTY
W(SA)
SciTegic.value.DoubleValue
2.038

@<SCITEGIC>MOL_PROPERTY
Valence
SciTegic.value.DoubleValue
7.609

@<SCITEGIC>MOL_PROPERTY
Coulomb
SciTegic.value.DoubleValue
-0.088

@<SCITEGIC>MOL_PROPERTY
VdW
SciTegic.value.DoubleValue
0.699

@<SCITEGIC>MOL_PROPERTY
VdW6
SciTegic.value.DoubleValue
-6.924

@<SCITEGIC>MOL_PROPERTY
VdW12
SciTegic.value.DoubleValue
7.623

@<SCITEGIC>MOL_PROPERTY
Bond
SciTegic.value.DoubleValue
0.163

@<SCITEGIC>MOL_PROPERTY
Angle
SciTegic.value.DoubleValue
2.870

@<SCITEGIC>MOL_PROPERTY
Pdih
SciTegic.value.DoubleValue
4.576

@<SCITEGIC>MOL_PROPERTY
Idih
SciTegic.value.DoubleValue
0.000

@<SCITEGIC>MOL_PROPERTY
Tether
SciTegic.value.DoubleValue
0.000

@<TRIPOS>MOLECULE
guest-7_confgen4.mol2 : confsearch ligand conformer 373
          19          18           1
SMALL
USER_CHARGES
 
@<TRIPOS>ATOM
       1    C1      20.927567   18.131117   24.941261 C.2        1 MOL1         0.6115
       2    O1      21.935132   18.444453   25.543814 O.co2      1 MOL1        -0.6776
       3    O2      19.921704   17.717417   25.482874 O.co2      1 MOL1        -0.6776
       4    C2      20.919343   18.282978   23.424371 C.3        1 MOL1        -0.2013
       5    H1      20.275724   17.499682   23.012032 H          1 MOL1         0.0727
       6    H2      21.934550   18.086738   23.059365 H          1 MOL1         0.0727
       7    C3      20.451999   19.689098   22.963928 C.3        1 MOL1        -0.1910
       8    H3      19.458535   19.911744   23.377135 H          1 MOL1         0.0729
       9    H4      21.136705   20.431142   23.397452 H          1 MOL1         0.0729
      10    C4      20.443736   19.862755   21.423889 C.3        1 MOL1        -0.1909
      11    H5      21.214140   19.228205   20.964844 H          1 MOL1         0.0729
      12    H6      20.734206   20.897388   21.195559 H          1 MOL1         0.0729
      13    C5      19.072627   19.605609   20.751694 C.3        1 MOL1        -0.1884
      14    H7      18.328043   20.306230   21.154163 H          1 MOL1         0.0729
      15    H8      19.161643   19.833948   19.680652 H          1 MOL1         0.0729
      16    C6      18.552445   18.161660   20.906989 C.3        1 MOL1        -0.2899
      17    H9      17.649188   18.012309   20.301485 H          1 MOL1         0.0741
      18    H10     19.305198   17.433619   20.577905 H          1 MOL1         0.0741
      19    H11     18.289389   17.946187   21.950143 H          1 MOL1         0.0741
@<TRIPOS>BOND
    1     1     2    1
    2     1     3    2
    3     1     4    1
    4     4     5    1
    5     4     6    1
    6     4     7    1
    7     7     8    1
    8     7     9    1
    9     7    10    1
   10    10    11    1
   11    10    12    1
   12    10    13    1
   13    13    14    1
   14    13    15    1
   15    13    16    1
   16    16    17    1
   17    16    18    1
   18    16    19    1
@<TRIPOS>SUBSTRUCTURE
       1 MOL1            1 RESIDUE      1      MOL     
@<SCITEGIC>MOL_PROPERTY
VConf Rank
SciTegic.value.IntegerValue
373

@<SCITEGIC>MOL_PROPERTY
Conf_Id
SciTegic.value.IntegerValue
24

@<SCITEGIC>MOL_PROPERTY
Delta U+W
SciTegic.value.DoubleValue
2.477

@<SCITEGIC>MOL_PROPERTY
U+W
SciTegic.value.DoubleValue
-52.414

@<SCITEGIC>MOL_PROPERTY
Grad RMS
SciTegic.value.DoubleValue
0.000000

@<SCITEGIC>MOL_PROPERTY
U
SciTegic.value.DoubleValue
10.422

@<SCITEGIC>MOL_PROPERTY
W
SciTegic.value.DoubleValue
-62.836

@<SCITEGIC>MOL_PROPERTY
W(PB)
SciTegic.value.DoubleValue
-64.906

@<SCITEGIC>MOL_PROPERTY
W(SA)
SciTegic.value.DoubleValue
2.070

@<SCITEGIC>MOL_PROPERTY
Valence
SciTegic.value.DoubleValue
9.628

@<SCITEGIC>MOL_PROPERTY
Coulomb
SciTegic.value.DoubleValue
0.101

@<SCITEGIC>MOL_PROPERTY
VdW
SciTegic.value.DoubleValue
0.693

@<SCITEGIC>MOL_PROPERTY
VdW6
SciTegic.value.DoubleValue
-6.927

@<SCITEGIC>MOL_PROPERTY
VdW12
SciTegic.value.DoubleValue
7.620

@<SCITEGIC>MOL_PROPERTY
Bond
SciTegic.value.DoubleValue
0.173

@<SCITEGIC>MOL_PROPERTY
Angle
SciTegic.value.DoubleValue
2.989

@<SCITEGIC>MOL_PROPERTY
Pdih
SciTegic.value.DoubleValue
6.465

@<SCITEGIC>MOL_PROPERTY
Idih
SciTegic.value.DoubleValue
0.001

@<SCITEGIC>MOL_PROPERTY
Tether
SciTegic.value.DoubleValue
0.000

@<TRIPOS>MOLECULE
guest-7_confgen4.mol2 : confsearch ligand conformer 374
          19          18           1
SMALL
USER_CHARGES
 
@<TRIPOS>ATOM
       1    C1      21.708677   18.294255   20.707341 C.2        1 MOL1         0.6115
       2    O1      21.182519   17.243724   20.397128 O.co2      1 MOL1        -0.6776
       3    O2      22.404398   18.944589   19.952283 O.co2      1 MOL1        -0.6776
       4    C2      21.510954   18.812690   22.129439 C.3        1 MOL1        -0.2013
       5    H1      22.500931   19.080325   22.516832 H          1 MOL1         0.0727
       6    H2      21.144154   17.988564   22.749524 H          1 MOL1         0.0727
       7    C3      20.570894   20.046286   22.226748 C.3        1 MOL1        -0.1910
       8    H3      20.636999   20.486067   23.230966 H          1 MOL1         0.0729
       9    H4      20.945675   20.814132   21.535744 H          1 MOL1         0.0729
      10    C4      19.088715   19.745551   21.882974 C.3        1 MOL1        -0.1909
      11    H5      19.021078   18.926531   21.153976 H          1 MOL1         0.0729
      12    H6      18.670298   20.627443   21.379012 H          1 MOL1         0.0729
      13    C5      18.191108   19.439593   23.107146 C.3        1 MOL1        -0.1884
      14    H7      18.192260   20.300305   23.790063 H          1 MOL1         0.0729
      15    H8      17.155324   19.325003   22.759046 H          1 MOL1         0.0729
      16    C6      18.594072   18.168931   23.883415 C.3        1 MOL1        -0.2899
      17    H9      19.556237   18.304962   24.392424 H          1 MOL1         0.0741
      18    H10     17.844840   17.933695   24.650288 H          1 MOL1         0.0741
      19    H11     18.673672   17.305216   23.210254 H          1 MOL1         0.0741
@<TRIPOS>BOND
    1     1     2    1
    2     1     3    2
    3     1     4    1
    4     4     5    1
    5     4     6    1
    6     4     7    1
    7     7     8    1
    8     7     9    1
    9     7    10    1
   10    10    11    1
   11    10    12    1
   12    10    13    1
   13    13    14    1
   14    13    15    1
   15    13    16    1
   16    16    17    1
   17    16    18    1
   18    16    19    1
@<TRIPOS>SUBSTRUCTURE
       1 MOL1            1 RESIDUE      1      MOL     
@<SCITEGIC>MOL_PROPERTY
VConf Rank
SciTegic.value.IntegerValue
374

@<SCITEGIC>MOL_PROPERTY
Conf_Id
SciTegic.value.IntegerValue
4

@<SCITEGIC>MOL_PROPERTY
Delta U+W
SciTegic.value.DoubleValue
3.753

@<SCITEGIC>MOL_PROPERTY
U+W
SciTegic.value.DoubleValue
-51.138

@<SCITEGIC>MOL_PROPERTY
Grad RMS
SciTegic.value.DoubleValue
0.000000

@<SCITEGIC>MOL_PROPERTY
U
SciTegic.value.DoubleValue
12.334

@<SCITEGIC>MOL_PROPERTY
W
SciTegic.value.DoubleValue
-63.472

@<SCITEGIC>MOL_PROPERTY
W(PB)
SciTegic.value.DoubleValue
-65.500

@<SCITEGIC>MOL_PROPERTY
W(SA)
SciTegic.value.DoubleValue
2.028

@<SCITEGIC>MOL_PROPERTY
Valence
SciTegic.value.DoubleValue
9.984

@<SCITEGIC>MOL_PROPERTY
Coulomb
SciTegic.value.DoubleValue
1.767

@<SCITEGIC>MOL_PROPERTY
VdW
SciTegic.value.DoubleValue
0.583

@<SCITEGIC>MOL_PROPERTY
VdW6
SciTegic.value.DoubleValue
-7.767

@<SCITEGIC>MOL_PROPERTY
VdW12
SciTegic.value.DoubleValue
8.349

@<SCITEGIC>MOL_PROPERTY
Bond
SciTegic.value.DoubleValue
0.203

@<SCITEGIC>MOL_PROPERTY
Angle
SciTegic.value.DoubleValue
3.191

@<SCITEGIC>MOL_PROPERTY
Pdih
SciTegic.value.DoubleValue
6.589

@<SCITEGIC>MOL_PROPERTY
Idih
SciTegic.value.DoubleValue
0.001

@<SCITEGIC>MOL_PROPERTY
Tether
SciTegic.value.DoubleValue
0.000

@<TRIPOS>MOLECULE
guest-7_confgen4.mol2 : confsearch ligand conformer 375
          19          18           1
SMALL
USER_CHARGES
 
@<TRIPOS>ATOM
       1    C1      20.712977   21.324428   22.953115 C.2        1 MOL1         0.6115
       2    O1      21.780129   21.873127   22.760268 O.co2      1 MOL1        -0.6776
       3    O2      19.639187   21.859503   22.759817 O.co2      1 MOL1        -0.6776
       4    C2      20.725501   19.897245   23.494614 C.3        1 MOL1        -0.2013
       5    H1      19.733961   19.673318   23.900735 H          1 MOL1         0.0727
       6    H2      21.422633   19.878195   24.340427 H          1 MOL1         0.0727
       7    C3      21.155716   18.829578   22.450612 C.3        1 MOL1        -0.1910
       8    H3      22.121376   19.138724   22.026980 H          1 MOL1         0.0729
       9    H4      21.340033   17.870712   22.953441 H          1 MOL1         0.0729
      10    C4      20.143877   18.627961   21.292594 C.3        1 MOL1        -0.1909
      11    H5      20.712006   18.409595   20.378084 H          1 MOL1         0.0729
      12    H6      19.600412   19.560778   21.089361 H          1 MOL1         0.0729
      13    C5      19.141237   17.467292   21.505815 C.3        1 MOL1        -0.1884
      14    H7      18.532348   17.362311   20.597308 H          1 MOL1         0.0729
      15    H8      19.689563   16.521932   21.619105 H          1 MOL1         0.0729
      16    C6      18.198840   17.660817   22.711632 C.3        1 MOL1        -0.2899
      17    H9      17.692084   18.633600   22.662864 H          1 MOL1         0.0741
      18    H10     17.429758   16.877848   22.727418 H          1 MOL1         0.0741
      19    H11     18.750290   17.601251   23.658052 H          1 MOL1         0.0741
@<TRIPOS>BOND
    1     1     2    1
    2     1     3    2
    3     1     4    1
    4     4     5    1
    5     4     6    1
    6     4     7    1
    7     7     8    1
    8     7     9    1
    9     7    10    1
   10    10    11    1
   11    10    12    1
   12    10    13    1
   13    13    14    1
   14    13    15    1
   15    13    16    1
   16    16    17    1
   17    16    18    1
   18    16    19    1
@<TRIPOS>SUBSTRUCTURE
       1 MOL1            1 RESIDUE      1      MOL     
@<SCITEGIC>MOL_PROPERTY
VConf Rank
SciTegic.value.IntegerValue
375

@<SCITEGIC>MOL_PROPERTY
Conf_Id
SciTegic.value.IntegerValue
73

@<SCITEGIC>MOL_PROPERTY
Delta U+W
SciTegic.value.DoubleValue
3.707

@<SCITEGIC>MOL_PROPERTY
U+W
SciTegic.value.DoubleValue
-51.184

@<SCITEGIC>MOL_PROPERTY
Grad RMS
SciTegic.value.DoubleValue
0.000000

@<SCITEGIC>MOL_PROPERTY
U
SciTegic.value.DoubleValue
12.334

@<SCITEGIC>MOL_PROPERTY
W
SciTegic.value.DoubleValue
-63.519

@<SCITEGIC>MOL_PROPERTY
W(PB)
SciTegic.value.DoubleValue
-65.541

@<SCITEGIC>MOL_PROPERTY
W(SA)
SciTegic.value.DoubleValue
2.022

@<SCITEGIC>MOL_PROPERTY
Valence
SciTegic.value.DoubleValue
9.984

@<SCITEGIC>MOL_PROPERTY
Coulomb
SciTegic.value.DoubleValue
1.768

@<SCITEGIC>MOL_PROPERTY
VdW
SciTegic.value.DoubleValue
0.583

@<SCITEGIC>MOL_PROPERTY
VdW6
SciTegic.value.DoubleValue
-7.767

@<SCITEGIC>MOL_PROPERTY
VdW12
SciTegic.value.DoubleValue
8.350

@<SCITEGIC>MOL_PROPERTY
Bond
SciTegic.value.DoubleValue
0.203

@<SCITEGIC>MOL_PROPERTY
Angle
SciTegic.value.DoubleValue
3.192

@<SCITEGIC>MOL_PROPERTY
Pdih
SciTegic.value.DoubleValue
6.589

@<SCITEGIC>MOL_PROPERTY
Idih
SciTegic.value.DoubleValue
0.001

@<SCITEGIC>MOL_PROPERTY
Tether
SciTegic.value.DoubleValue
0.000

@<TRIPOS>MOLECULE
guest-7_confgen4.mol2 : confsearch ligand conformer 376
          19          18           1
SMALL
USER_CHARGES
 
@<TRIPOS>ATOM
       1    C1      21.982931   20.346160   21.781946 C.2        1 MOL1         0.6115
       2    O1      21.576534   20.793305   20.727615 O.co2      1 MOL1        -0.6776
       3    O2      22.738004   20.948398   22.519735 O.co2      1 MOL1        -0.6776
       4    C2      21.549162   18.940520   22.188575 C.3        1 MOL1        -0.2013
       5    H1      22.455387   18.382409   22.451135 H          1 MOL1         0.0727
       6    H2      21.118012   18.438762   21.314708 H          1 MOL1         0.0727
       7    C3      20.558211   18.902584   23.383918 C.3        1 MOL1        -0.1910
       8    H3      20.358834   17.857863   23.655343 H          1 MOL1         0.0729
       9    H4      21.045697   19.353587   24.259170 H          1 MOL1         0.0729
      10    C4      19.218113   19.639491   23.128578 C.3        1 MOL1        -0.1909
      11    H5      19.420360   20.708817   22.977844 H          1 MOL1         0.0729
      12    H6      18.601623   19.574021   24.035356 H          1 MOL1         0.0729
      13    C5      18.396307   19.115550   21.925523 C.3        1 MOL1        -0.1884
      14    H7      17.484313   19.721338   21.835046 H          1 MOL1         0.0729
      15    H8      18.954673   19.268309   20.992069 H          1 MOL1         0.0729
      16    C6      17.995270   17.630554   22.058300 C.3        1 MOL1        -0.2899
      17    H9      18.875897   16.976339   22.038049 H          1 MOL1         0.0741
      18    H10     17.454132   17.452265   22.996593 H          1 MOL1         0.0741
      19    H11     17.341171   17.333773   21.228318 H          1 MOL1         0.0741
@<TRIPOS>BOND
    1     1     2    1
    2     1     3    2
    3     1     4    1
    4     4     5    1
    5     4     6    1
    6     4     7    1
    7     7     8    1
    8     7     9    1
    9     7    10    1
   10    10    11    1
   11    10    12    1
   12    10    13    1
   13    13    14    1
   14    13    15    1
   15    13    16    1
   16    16    17    1
   17    16    18    1
   18    16    19    1
@<TRIPOS>SUBSTRUCTURE
       1 MOL1            1 RESIDUE      1      MOL     
@<SCITEGIC>MOL_PROPERTY
VConf Rank
SciTegic.value.IntegerValue
376

@<SCITEGIC>MOL_PROPERTY
Conf_Id
SciTegic.value.IntegerValue
56

@<SCITEGIC>MOL_PROPERTY
Delta U+W
SciTegic.value.DoubleValue
1.735

@<SCITEGIC>MOL_PROPERTY
U+W
SciTegic.value.DoubleValue
-53.156

@<SCITEGIC>MOL_PROPERTY
Grad RMS
SciTegic.value.DoubleValue
0.000000

@<SCITEGIC>MOL_PROPERTY
U
SciTegic.value.DoubleValue
10.214

@<SCITEGIC>MOL_PROPERTY
W
SciTegic.value.DoubleValue
-63.370

@<SCITEGIC>MOL_PROPERTY
W(PB)
SciTegic.value.DoubleValue
-65.388

@<SCITEGIC>MOL_PROPERTY
W(SA)
SciTegic.value.DoubleValue
2.018

@<SCITEGIC>MOL_PROPERTY
Valence
SciTegic.value.DoubleValue
7.868

@<SCITEGIC>MOL_PROPERTY
Coulomb
SciTegic.value.DoubleValue
1.968

@<SCITEGIC>MOL_PROPERTY
VdW
SciTegic.value.DoubleValue
0.378

@<SCITEGIC>MOL_PROPERTY
VdW6
SciTegic.value.DoubleValue
-8.067

@<SCITEGIC>MOL_PROPERTY
VdW12
SciTegic.value.DoubleValue
8.445

@<SCITEGIC>MOL_PROPERTY
Bond
SciTegic.value.DoubleValue
0.191

@<SCITEGIC>MOL_PROPERTY
Angle
SciTegic.value.DoubleValue
3.117

@<SCITEGIC>MOL_PROPERTY
Pdih
SciTegic.value.DoubleValue
4.559

@<SCITEGIC>MOL_PROPERTY
Idih
SciTegic.value.DoubleValue
0.001

@<SCITEGIC>MOL_PROPERTY
Tether
SciTegic.value.DoubleValue
0.000

@<TRIPOS>MOLECULE
guest-7_confgen4.mol2 : confsearch ligand conformer 377
          19          18           1
SMALL
USER_CHARGES
 
@<TRIPOS>ATOM
       1    C1      18.001184   16.766030   22.110749 C.2        1 MOL1         0.6115
       2    O1      18.313724   15.615206   21.877751 O.co2      1 MOL1        -0.6776
       3    O2      16.854437   17.167382   22.094563 O.co2      1 MOL1        -0.6776
       4    C2      19.110466   17.765370   22.419053 C.3        1 MOL1        -0.2013
       5    H1      19.923870   17.228437   22.921502 H          1 MOL1         0.0727
       6    H2      18.709303   18.497052   23.129137 H          1 MOL1         0.0727
       7    C3      19.643019   18.481527   21.152372 C.3        1 MOL1        -0.1910
       8    H3      19.905229   17.721733   20.403132 H          1 MOL1         0.0729
       9    H4      18.836344   19.082839   20.710905 H          1 MOL1         0.0729
      10    C4      20.883684   19.376378   21.398308 C.3        1 MOL1        -0.1909
      11    H5      21.195957   19.782077   20.426266 H          1 MOL1         0.0729
      12    H6      21.725842   18.765298   21.750941 H          1 MOL1         0.0729
      13    C5      20.643282   20.565206   22.361637 C.3        1 MOL1        -0.1884
      14    H7      21.233884   21.423720   22.013094 H          1 MOL1         0.0729
      15    H8      19.591827   20.881691   22.321801 H          1 MOL1         0.0729
      16    C6      21.057229   20.262804   23.819007 C.3        1 MOL1        -0.2899
      17    H9      20.884188   21.139475   24.456487 H          1 MOL1         0.0741
      18    H10     20.489130   19.425981   24.240446 H          1 MOL1         0.0741
      19    H11     22.124223   20.011293   23.877286 H          1 MOL1         0.0741
@<TRIPOS>BOND
    1     1     2    1
    2     1     3    2
    3     1     4    1
    4     4     5    1
    5     4     6    1
    6     4     7    1
    7     7     8    1
    8     7     9    1
    9     7    10    1
   10    10    11    1
   11    10    12    1
   12    10    13    1
   13    13    14    1
   14    13    15    1
   15    13    16    1
   16    16    17    1
   17    16    18    1
   18    16    19    1
@<TRIPOS>SUBSTRUCTURE
       1 MOL1            1 RESIDUE      1      MOL     
@<SCITEGIC>MOL_PROPERTY
VConf Rank
SciTegic.value.IntegerValue
377

@<SCITEGIC>MOL_PROPERTY
Conf_Id
SciTegic.value.IntegerValue
53

@<SCITEGIC>MOL_PROPERTY
Delta U+W
SciTegic.value.DoubleValue
2.279

@<SCITEGIC>MOL_PROPERTY
U+W
SciTegic.value.DoubleValue
-52.612

@<SCITEGIC>MOL_PROPERTY
Grad RMS
SciTegic.value.DoubleValue
0.000000

@<SCITEGIC>MOL_PROPERTY
U
SciTegic.value.DoubleValue
10.231

@<SCITEGIC>MOL_PROPERTY
W
SciTegic.value.DoubleValue
-62.843

@<SCITEGIC>MOL_PROPERTY
W(PB)
SciTegic.value.DoubleValue
-64.893

@<SCITEGIC>MOL_PROPERTY
W(SA)
SciTegic.value.DoubleValue
2.050

@<SCITEGIC>MOL_PROPERTY
Valence
SciTegic.value.DoubleValue
9.644

@<SCITEGIC>MOL_PROPERTY
Coulomb
SciTegic.value.DoubleValue
-0.164

@<SCITEGIC>MOL_PROPERTY
VdW
SciTegic.value.DoubleValue
0.751

@<SCITEGIC>MOL_PROPERTY
VdW6
SciTegic.value.DoubleValue
-6.881

@<SCITEGIC>MOL_PROPERTY
VdW12
SciTegic.value.DoubleValue
7.631

@<SCITEGIC>MOL_PROPERTY
Bond
SciTegic.value.DoubleValue
0.163

@<SCITEGIC>MOL_PROPERTY
Angle
SciTegic.value.DoubleValue
2.998

@<SCITEGIC>MOL_PROPERTY
Pdih
SciTegic.value.DoubleValue
6.482

@<SCITEGIC>MOL_PROPERTY
Idih
SciTegic.value.DoubleValue
0.001

@<SCITEGIC>MOL_PROPERTY
Tether
SciTegic.value.DoubleValue
0.000

@<TRIPOS>MOLECULE
guest-7_confgen4.mol2 : confsearch ligand conformer 378
          19          18           1
SMALL
USER_CHARGES
 
@<TRIPOS>ATOM
       1    C1      22.181275   18.348925   21.282254 C.2        1 MOL1         0.6115
       2    O1      22.696061   17.489950   21.970739 O.co2      1 MOL1        -0.6776
       3    O2      22.741176   19.381545   20.970076 O.co2      1 MOL1        -0.6776
       4    C2      20.784518   18.083259   20.723709 C.3        1 MOL1        -0.2013
       5    H1      20.450803   17.092015   21.053848 H          1 MOL1         0.0727
       6    H2      20.893069   18.030559   19.634185 H          1 MOL1         0.0727
       7    C3      19.714415   19.155456   21.073561 C.3        1 MOL1        -0.1910
       8    H3      20.133039   20.161908   20.934456 H          1 MOL1         0.0729
       9    H4      18.895351   19.066141   20.347217 H          1 MOL1         0.0729
      10    C4      19.103664   19.025404   22.490864 C.3        1 MOL1        -0.1909
      11    H5      18.680802   18.019819   22.620559 H          1 MOL1         0.0729
      12    H6      18.261050   19.726396   22.565839 H          1 MOL1         0.0729
      13    C5      20.098017   19.321926   23.634941 C.3        1 MOL1        -0.1884
      14    H7      20.880759   18.553185   23.662470 H          1 MOL1         0.0729
      15    H8      20.597848   20.283628   23.454118 H          1 MOL1         0.0729
      16    C6      19.389697   19.359903   25.004129 C.3        1 MOL1        -0.2899
      17    H9      18.903007   18.399884   25.220589 H          1 MOL1         0.0741
      18    H10     20.110824   19.562964   25.806492 H          1 MOL1         0.0741
      19    H11     18.624223   20.146488   25.029645 H          1 MOL1         0.0741
@<TRIPOS>BOND
    1     1     2    1
    2     1     3    2
    3     1     4    1
    4     4     5    1
    5     4     6    1
    6     4     7    1
    7     7     8    1
    8     7     9    1
    9     7    10    1
   10    10    11    1
   11    10    12    1
   12    10    13    1
   13    13    14    1
   14    13    15    1
   15    13    16    1
   16    16    17    1
   17    16    18    1
   18    16    19    1
@<TRIPOS>SUBSTRUCTURE
       1 MOL1            1 RESIDUE      1      MOL     
@<SCITEGIC>MOL_PROPERTY
VConf Rank
SciTegic.value.IntegerValue
378

@<SCITEGIC>MOL_PROPERTY
Conf_Id
SciTegic.value.IntegerValue
25

@<SCITEGIC>MOL_PROPERTY
Delta U+W
SciTegic.value.DoubleValue
2.065

@<SCITEGIC>MOL_PROPERTY
U+W
SciTegic.value.DoubleValue
-52.826

@<SCITEGIC>MOL_PROPERTY
Grad RMS
SciTegic.value.DoubleValue
0.000000

@<SCITEGIC>MOL_PROPERTY
U
SciTegic.value.DoubleValue
10.967

@<SCITEGIC>MOL_PROPERTY
W
SciTegic.value.DoubleValue
-63.794

@<SCITEGIC>MOL_PROPERTY
W(PB)
SciTegic.value.DoubleValue
-65.830

@<SCITEGIC>MOL_PROPERTY
W(SA)
SciTegic.value.DoubleValue
2.036

@<SCITEGIC>MOL_PROPERTY
Valence
SciTegic.value.DoubleValue
8.609

@<SCITEGIC>MOL_PROPERTY
Coulomb
SciTegic.value.DoubleValue
1.892

@<SCITEGIC>MOL_PROPERTY
VdW
SciTegic.value.DoubleValue
0.467

@<SCITEGIC>MOL_PROPERTY
VdW6
SciTegic.value.DoubleValue
-7.569

@<SCITEGIC>MOL_PROPERTY
VdW12
SciTegic.value.DoubleValue
8.036

@<SCITEGIC>MOL_PROPERTY
Bond
SciTegic.value.DoubleValue
0.170

@<SCITEGIC>MOL_PROPERTY
Angle
SciTegic.value.DoubleValue
3.195

@<SCITEGIC>MOL_PROPERTY
Pdih
SciTegic.value.DoubleValue
5.237

@<SCITEGIC>MOL_PROPERTY
Idih
SciTegic.value.DoubleValue
0.007

@<SCITEGIC>MOL_PROPERTY
Tether
SciTegic.value.DoubleValue
0.000

@<TRIPOS>MOLECULE
guest-7_confgen4.mol2 : confsearch ligand conformer 379
          19          18           1
SMALL
USER_CHARGES
 
@<TRIPOS>ATOM
       1    C1      18.323073   17.376439   23.197709 C.2        1 MOL1         0.6115
       2    O1      17.309403   18.035158   23.323448 O.co2      1 MOL1        -0.6776
       3    O2      18.821227   16.735168   24.101848 O.co2      1 MOL1        -0.6776
       4    C2      18.966924   17.292303   21.815009 C.3        1 MOL1        -0.2013
       5    H1      18.230909   16.810431   21.161017 H          1 MOL1         0.0727
       6    H2      19.831122   16.618756   21.864210 H          1 MOL1         0.0727
       7    C3      19.381421   18.654834   21.191449 C.3        1 MOL1        -0.1910
       8    H3      19.476067   18.515793   20.106033 H          1 MOL1         0.0729
       9    H4      18.578193   19.391325   21.332692 H          1 MOL1         0.0729
      10    C4      20.723508   19.226106   21.712150 C.3        1 MOL1        -0.1909
      11    H5      20.986908   20.096488   21.095655 H          1 MOL1         0.0729
      12    H6      21.523048   18.487981   21.561338 H          1 MOL1         0.0729
      13    C5      20.690687   19.660381   23.194009 C.3        1 MOL1        -0.1884
      14    H7      19.829958   20.320427   23.369740 H          1 MOL1         0.0729
      15    H8      20.560388   18.783401   23.840797 H          1 MOL1         0.0729
      16    C6      21.988272   20.388602   23.598736 C.3        1 MOL1        -0.2899
      17    H9      21.952486   20.682659   24.655757 H          1 MOL1         0.0741
      18    H10     22.862598   19.739973   23.456638 H          1 MOL1         0.0741
      19    H11     22.133353   21.296826   22.999238 H          1 MOL1         0.0741
@<TRIPOS>BOND
    1     1     2    1
    2     1     3    2
    3     1     4    1
    4     4     5    1
    5     4     6    1
    6     4     7    1
    7     7     8    1
    8     7     9    1
    9     7    10    1
   10    10    11    1
   11    10    12    1
   12    10    13    1
   13    13    14    1
   14    13    15    1
   15    13    16    1
   16    16    17    1
   17    16    18    1
   18    16    19    1
@<TRIPOS>SUBSTRUCTURE
       1 MOL1            1 RESIDUE      1      MOL     
@<SCITEGIC>MOL_PROPERTY
VConf Rank
SciTegic.value.IntegerValue
379

@<SCITEGIC>MOL_PROPERTY
Conf_Id
SciTegic.value.IntegerValue
52

@<SCITEGIC>MOL_PROPERTY
Delta U+W
SciTegic.value.DoubleValue
2.070

@<SCITEGIC>MOL_PROPERTY
U+W
SciTegic.value.DoubleValue
-52.822

@<SCITEGIC>MOL_PROPERTY
Grad RMS
SciTegic.value.DoubleValue
0.000000

@<SCITEGIC>MOL_PROPERTY
U
SciTegic.value.DoubleValue
10.967

@<SCITEGIC>MOL_PROPERTY
W
SciTegic.value.DoubleValue
-63.789

@<SCITEGIC>MOL_PROPERTY
W(PB)
SciTegic.value.DoubleValue
-65.837

@<SCITEGIC>MOL_PROPERTY
W(SA)
SciTegic.value.DoubleValue
2.048

@<SCITEGIC>MOL_PROPERTY
Valence
SciTegic.value.DoubleValue
8.609

@<SCITEGIC>MOL_PROPERTY
Coulomb
SciTegic.value.DoubleValue
1.892

@<SCITEGIC>MOL_PROPERTY
VdW
SciTegic.value.DoubleValue
0.467

@<SCITEGIC>MOL_PROPERTY
VdW6
SciTegic.value.DoubleValue
-7.569

@<SCITEGIC>MOL_PROPERTY
VdW12
SciTegic.value.DoubleValue
8.035

@<SCITEGIC>MOL_PROPERTY
Bond
SciTegic.value.DoubleValue
0.170

@<SCITEGIC>MOL_PROPERTY
Angle
SciTegic.value.DoubleValue
3.196

@<SCITEGIC>MOL_PROPERTY
Pdih
SciTegic.value.DoubleValue
5.237

@<SCITEGIC>MOL_PROPERTY
Idih
SciTegic.value.DoubleValue
0.007

@<SCITEGIC>MOL_PROPERTY
Tether
SciTegic.value.DoubleValue
0.000

@<TRIPOS>MOLECULE
guest-7_confgen4.mol2 : confsearch ligand conformer 380
          19          18           1
SMALL
USER_CHARGES
 
@<TRIPOS>ATOM
       1    C1      20.190801   20.878970   21.904181 C.2        1 MOL1         0.6115
       2    O1      21.307720   20.915836   21.425381 O.co2      1 MOL1        -0.6776
       3    O2      19.201578   21.267933   21.315247 O.co2      1 MOL1        -0.6776
       4    C2      20.030560   20.442296   23.361240 C.3        1 MOL1        -0.2013
       5    H1      18.963462   20.320370   23.582542 H          1 MOL1         0.0727
       6    H2      20.381282   21.283797   23.969635 H          1 MOL1         0.0727
       7    C3      20.814260   19.163635   23.773807 C.3        1 MOL1        -0.1910
       8    H3      21.814428   19.173061   23.318993 H          1 MOL1         0.0729
       9    H4      20.980812   19.205664   24.858634 H          1 MOL1         0.0729
      10    C4      20.105742   17.820230   23.463252 C.3        1 MOL1        -0.1909
      11    H5      19.148491   17.768030   23.999892 H          1 MOL1         0.0729
      12    H6      20.724866   17.016293   23.884366 H          1 MOL1         0.0729
      13    C5      19.895591   17.523914   21.958585 C.3        1 MOL1        -0.1884
      14    H7      20.610533   18.095668   21.350877 H          1 MOL1         0.0729
      15    H8      20.117030   16.464133   21.771567 H          1 MOL1         0.0729
      16    C6      18.450884   17.802025   21.491040 C.3        1 MOL1        -0.2899
      17    H9      17.736765   17.161306   22.024379 H          1 MOL1         0.0741
      18    H10     18.165678   18.845872   21.666452 H          1 MOL1         0.0741
      19    H11     18.348248   17.601192   20.416912 H          1 MOL1         0.0741
@<TRIPOS>BOND
    1     1     2    1
    2     1     3    2
    3     1     4    1
    4     4     5    1
    5     4     6    1
    6     4     7    1
    7     7     8    1
    8     7     9    1
    9     7    10    1
   10    10    11    1
   11    10    12    1
   12    10    13    1
   13    13    14    1
   14    13    15    1
   15    13    16    1
   16    16    17    1
   17    16    18    1
   18    16    19    1
@<TRIPOS>SUBSTRUCTURE
       1 MOL1            1 RESIDUE      1      MOL     
@<SCITEGIC>MOL_PROPERTY
VConf Rank
SciTegic.value.IntegerValue
380

@<SCITEGIC>MOL_PROPERTY
Conf_Id
SciTegic.value.IntegerValue
66

@<SCITEGIC>MOL_PROPERTY
Delta U+W
SciTegic.value.DoubleValue
5.819

@<SCITEGIC>MOL_PROPERTY
U+W
SciTegic.value.DoubleValue
-49.072

@<SCITEGIC>MOL_PROPERTY
Grad RMS
SciTegic.value.DoubleValue
0.000000

@<SCITEGIC>MOL_PROPERTY
U
SciTegic.value.DoubleValue
15.324

@<SCITEGIC>MOL_PROPERTY
W
SciTegic.value.DoubleValue
-64.396

@<SCITEGIC>MOL_PROPERTY
W(PB)
SciTegic.value.DoubleValue
-66.382

@<SCITEGIC>MOL_PROPERTY
W(SA)
SciTegic.value.DoubleValue
1.986

@<SCITEGIC>MOL_PROPERTY
Valence
SciTegic.value.DoubleValue
11.748

@<SCITEGIC>MOL_PROPERTY
Coulomb
SciTegic.value.DoubleValue
3.201

@<SCITEGIC>MOL_PROPERTY
VdW
SciTegic.value.DoubleValue
0.375

@<SCITEGIC>MOL_PROPERTY
VdW6
SciTegic.value.DoubleValue
-8.854

@<SCITEGIC>MOL_PROPERTY
VdW12
SciTegic.value.DoubleValue
9.229

@<SCITEGIC>MOL_PROPERTY
Bond
SciTegic.value.DoubleValue
0.216

@<SCITEGIC>MOL_PROPERTY
Angle
SciTegic.value.DoubleValue
3.812

@<SCITEGIC>MOL_PROPERTY
Pdih
SciTegic.value.DoubleValue
7.699

@<SCITEGIC>MOL_PROPERTY
Idih
SciTegic.value.DoubleValue
0.022

@<SCITEGIC>MOL_PROPERTY
Tether
SciTegic.value.DoubleValue
0.000

@<TRIPOS>MOLECULE
guest-7_confgen4.mol2 : confsearch ligand conformer 381
          19          18           1
SMALL
USER_CHARGES
 
@<TRIPOS>ATOM
       1    C1      18.553601   16.147997   23.561510 C.2        1 MOL1         0.6115
       2    O1      17.677685   15.828905   24.340364 O.co2      1 MOL1        -0.6776
       3    O2      19.270508   15.340859   23.002299 O.co2      1 MOL1        -0.6776
       4    C2      18.738622   17.642415   23.292886 C.3        1 MOL1        -0.2013
       5    H1      18.931055   18.126810   24.257449 H          1 MOL1         0.0727
       6    H2      17.781214   18.029619   22.924794 H          1 MOL1         0.0727
       7    C3      19.868752   18.001160   22.291616 C.3        1 MOL1        -0.1910
       8    H3      20.824113   17.605445   22.663317 H          1 MOL1         0.0729
       9    H4      19.673092   17.508106   21.329284 H          1 MOL1         0.0729
      10    C4      19.985350   19.526210   22.079743 C.3        1 MOL1        -0.1909
      11    H5      20.180768   20.017123   23.043053 H          1 MOL1         0.0729
      12    H6      19.029163   19.919734   21.708264 H          1 MOL1         0.0729
      13    C5      21.109385   19.880677   21.084106 C.3        1 MOL1        -0.1884
      14    H7      22.068002   19.490314   21.453109 H          1 MOL1         0.0729
      15    H8      20.916477   19.393040   20.118451 H          1 MOL1         0.0729
      16    C6      21.223000   21.403957   20.875067 C.3        1 MOL1        -0.2899
      17    H9      21.447265   21.914563   21.820799 H          1 MOL1         0.0741
      18    H10     22.026555   21.638019   20.164699 H          1 MOL1         0.0741
      19    H11     20.287051   21.816569   20.476103 H          1 MOL1         0.0741
@<TRIPOS>BOND
    1     1     2    1
    2     1     3    2
    3     1     4    1
    4     4     5    1
    5     4     6    1
    6     4     7    1
    7     7     8    1
    8     7     9    1
    9     7    10    1
   10    10    11    1
   11    10    12    1
   12    10    13    1
   13    13    14    1
   14    13    15    1
   15    13    16    1
   16    16    17    1
   17    16    18    1
   18    16    19    1
@<TRIPOS>SUBSTRUCTURE
       1 MOL1            1 RESIDUE      1      MOL     
@<SCITEGIC>MOL_PROPERTY
VConf Rank
SciTegic.value.IntegerValue
381

@<SCITEGIC>MOL_PROPERTY
Conf_Id
SciTegic.value.IntegerValue
0

@<SCITEGIC>MOL_PROPERTY
Delta U+W
SciTegic.value.DoubleValue
0.000

@<SCITEGIC>MOL_PROPERTY
U+W
SciTegic.value.DoubleValue
-54.891

@<SCITEGIC>MOL_PROPERTY
Grad RMS
SciTegic.value.DoubleValue
0.000000

@<SCITEGIC>MOL_PROPERTY
U
SciTegic.value.DoubleValue
6.966

@<SCITEGIC>MOL_PROPERTY
W
SciTegic.value.DoubleValue
-61.857

@<SCITEGIC>MOL_PROPERTY
W(PB)
SciTegic.value.DoubleValue
-63.965

@<SCITEGIC>MOL_PROPERTY
W(SA)
SciTegic.value.DoubleValue
2.108

@<SCITEGIC>MOL_PROPERTY
Valence
SciTegic.value.DoubleValue
7.175

@<SCITEGIC>MOL_PROPERTY
Coulomb
SciTegic.value.DoubleValue
-1.360

@<SCITEGIC>MOL_PROPERTY
VdW
SciTegic.value.DoubleValue
1.151

@<SCITEGIC>MOL_PROPERTY
VdW6
SciTegic.value.DoubleValue
-5.641

@<SCITEGIC>MOL_PROPERTY
VdW12
SciTegic.value.DoubleValue
6.792

@<SCITEGIC>MOL_PROPERTY
Bond
SciTegic.value.DoubleValue
0.119

@<SCITEGIC>MOL_PROPERTY
Angle
SciTegic.value.DoubleValue
2.715

@<SCITEGIC>MOL_PROPERTY
Pdih
SciTegic.value.DoubleValue
4.340

@<SCITEGIC>MOL_PROPERTY
Idih
SciTegic.value.DoubleValue
0.000

@<SCITEGIC>MOL_PROPERTY
Tether
SciTegic.value.DoubleValue
0.000

@<TRIPOS>MOLECULE
guest-7_confgen4.mol2 : confsearch ligand conformer 382
          19          18           1
SMALL
USER_CHARGES
 
@<TRIPOS>ATOM
       1    C1      17.875042   21.418990   23.198996 C.2        1 MOL1         0.6115
       2    O1      17.365273   21.235897   24.286558 O.co2      1 MOL1        -0.6776
       3    O2      18.131973   22.519698   22.753336 O.co2      1 MOL1        -0.6776
       4    C2      18.230669   20.199590   22.355809 C.3        1 MOL1        -0.2013
       5    H1      18.124595   20.473142   21.299088 H          1 MOL1         0.0727
       6    H2      17.493022   19.414942   22.563049 H          1 MOL1         0.0727
       7    C3      19.661175   19.673950   22.630525 C.3        1 MOL1        -0.1910
       8    H3      20.386599   20.474791   22.430614 H          1 MOL1         0.0729
       9    H4      19.755034   19.416669   23.694736 H          1 MOL1         0.0729
      10    C4      19.996128   18.440082   21.765076 C.3        1 MOL1        -0.1909
      11    H5      19.900067   18.700103   20.701894 H          1 MOL1         0.0729
      12    H6      19.268486   17.641804   21.966273 H          1 MOL1         0.0729
      13    C5      21.421779   17.918664   22.040785 C.3        1 MOL1        -0.1884
      14    H7      22.152786   18.713856   21.838821 H          1 MOL1         0.0729
      15    H8      21.521248   17.655582   23.103041 H          1 MOL1         0.0729
      16    C6      21.752860   16.686740   21.174931 C.3        1 MOL1        -0.2899
      17    H9      22.769616   16.329273   21.383578 H          1 MOL1         0.0741
      18    H10     21.055537   15.863810   21.379747 H          1 MOL1         0.0741
      19    H11     21.691768   16.930019   20.106050 H          1 MOL1         0.0741
@<TRIPOS>BOND
    1     1     2    1
    2     1     3    2
    3     1     4    1
    4     4     5    1
    5     4     6    1
    6     4     7    1
    7     7     8    1
    8     7     9    1
    9     7    10    1
   10    10    11    1
   11    10    12    1
   12    10    13    1
   13    13    14    1
   14    13    15    1
   15    13    16    1
   16    16    17    1
   17    16    18    1
   18    16    19    1
@<TRIPOS>SUBSTRUCTURE
       1 MOL1            1 RESIDUE      1      MOL     
@<SCITEGIC>MOL_PROPERTY
VConf Rank
SciTegic.value.IntegerValue
382

@<SCITEGIC>MOL_PROPERTY
Conf_Id
SciTegic.value.IntegerValue
18

@<SCITEGIC>MOL_PROPERTY
Delta U+W
SciTegic.value.DoubleValue
-1.199

@<SCITEGIC>MOL_PROPERTY
U+W
SciTegic.value.DoubleValue
-56.090

@<SCITEGIC>MOL_PROPERTY
Grad RMS
SciTegic.value.DoubleValue
0.000000

@<SCITEGIC>MOL_PROPERTY
U
SciTegic.value.DoubleValue
5.975

@<SCITEGIC>MOL_PROPERTY
W
SciTegic.value.DoubleValue
-62.066

@<SCITEGIC>MOL_PROPERTY
W(PB)
SciTegic.value.DoubleValue
-64.219

@<SCITEGIC>MOL_PROPERTY
W(SA)
SciTegic.value.DoubleValue
2.153

@<SCITEGIC>MOL_PROPERTY
Valence
SciTegic.value.DoubleValue
6.673

@<SCITEGIC>MOL_PROPERTY
Coulomb
SciTegic.value.DoubleValue
-1.307

@<SCITEGIC>MOL_PROPERTY
VdW
SciTegic.value.DoubleValue
0.610

@<SCITEGIC>MOL_PROPERTY
VdW6
SciTegic.value.DoubleValue
-5.351

@<SCITEGIC>MOL_PROPERTY
VdW12
SciTegic.value.DoubleValue
5.961

@<SCITEGIC>MOL_PROPERTY
Bond
SciTegic.value.DoubleValue
0.086

@<SCITEGIC>MOL_PROPERTY
Angle
SciTegic.value.DoubleValue
2.253

@<SCITEGIC>MOL_PROPERTY
Pdih
SciTegic.value.DoubleValue
4.333

@<SCITEGIC>MOL_PROPERTY
Idih
SciTegic.value.DoubleValue
0.001

@<SCITEGIC>MOL_PROPERTY
Tether
SciTegic.value.DoubleValue
0.000

@<TRIPOS>MOLECULE
guest-7_confgen4.mol2 : confsearch ligand conformer 383
          19          18           1
SMALL
USER_CHARGES
 
@<TRIPOS>ATOM
       1    C1      20.802603   18.579520   25.273481 C.2        1 MOL1         0.6115
       2    O1      20.140579   19.011030   26.196418 O.co2      1 MOL1        -0.6776
       3    O2      21.650396   17.718300   25.399215 O.co2      1 MOL1        -0.6776
       4    C2      20.540104   19.134031   23.877783 C.3        1 MOL1        -0.2013
       5    H1      21.490170   19.125883   23.331751 H          1 MOL1         0.0727
       6    H2      20.232265   20.181539   23.980114 H          1 MOL1         0.0727
       7    C3      19.459573   18.332079   23.106740 C.3        1 MOL1        -0.1910
       8    H3      19.798560   17.295684   22.971521 H          1 MOL1         0.0729
       9    H4      18.550731   18.283249   23.722407 H          1 MOL1         0.0729
      10    C4      19.095981   18.946675   21.734294 C.3        1 MOL1        -0.1909
      11    H5      18.749434   19.979849   21.873802 H          1 MOL1         0.0729
      12    H6      18.247422   18.388116   21.315996 H          1 MOL1         0.0729
      13    C5      20.262337   18.920839   20.721151 C.3        1 MOL1        -0.1884
      14    H7      21.094584   19.537003   21.085934 H          1 MOL1         0.0729
      15    H8      20.642670   17.895004   20.619775 H          1 MOL1         0.0729
      16    C6      19.821373   19.442117   19.338730 C.3        1 MOL1        -0.2899
      17    H9      20.660706   19.420405   18.631526 H          1 MOL1         0.0741
      18    H10     19.013659   18.824356   18.924778 H          1 MOL1         0.0741
      19    H11     19.461503   20.477180   19.406138 H          1 MOL1         0.0741
@<TRIPOS>BOND
    1     1     2    1
    2     1     3    2
    3     1     4    1
    4     4     5    1
    5     4     6    1
    6     4     7    1
    7     7     8    1
    8     7     9    1
    9     7    10    1
   10    10    11    1
   11    10    12    1
   12    10    13    1
   13    13    14    1
   14    13    15    1
   15    13    16    1
   16    16    17    1
   17    16    18    1
   18    16    19    1
@<TRIPOS>SUBSTRUCTURE
       1 MOL1            1 RESIDUE      1      MOL     
@<SCITEGIC>MOL_PROPERTY
VConf Rank
SciTegic.value.IntegerValue
383

@<SCITEGIC>MOL_PROPERTY
Conf_Id
SciTegic.value.IntegerValue
34

@<SCITEGIC>MOL_PROPERTY
Delta U+W
SciTegic.value.DoubleValue
-0.563

@<SCITEGIC>MOL_PROPERTY
U+W
SciTegic.value.DoubleValue
-55.455

@<SCITEGIC>MOL_PROPERTY
Grad RMS
SciTegic.value.DoubleValue
0.000000

@<SCITEGIC>MOL_PROPERTY
U
SciTegic.value.DoubleValue
6.914

@<SCITEGIC>MOL_PROPERTY
W
SciTegic.value.DoubleValue
-62.369

@<SCITEGIC>MOL_PROPERTY
W(PB)
SciTegic.value.DoubleValue
-64.446

@<SCITEGIC>MOL_PROPERTY
W(SA)
SciTegic.value.DoubleValue
2.077

@<SCITEGIC>MOL_PROPERTY
Valence
SciTegic.value.DoubleValue
7.196

@<SCITEGIC>MOL_PROPERTY
Coulomb
SciTegic.value.DoubleValue
-1.020

@<SCITEGIC>MOL_PROPERTY
VdW
SciTegic.value.DoubleValue
0.738

@<SCITEGIC>MOL_PROPERTY
VdW6
SciTegic.value.DoubleValue
-6.010

@<SCITEGIC>MOL_PROPERTY
VdW12
SciTegic.value.DoubleValue
6.748

@<SCITEGIC>MOL_PROPERTY
Bond
SciTegic.value.DoubleValue
0.126

@<SCITEGIC>MOL_PROPERTY
Angle
SciTegic.value.DoubleValue
2.499

@<SCITEGIC>MOL_PROPERTY
Pdih
SciTegic.value.DoubleValue
4.570

@<SCITEGIC>MOL_PROPERTY
Idih
SciTegic.value.DoubleValue
0.001

@<SCITEGIC>MOL_PROPERTY
Tether
SciTegic.value.DoubleValue
0.000

@<TRIPOS>MOLECULE
guest-7_confgen4.mol2 : confsearch ligand conformer 384
          19          18           1
SMALL
USER_CHARGES
 
@<TRIPOS>ATOM
       1    C1      17.063211   17.941927   23.127319 C.2        1 MOL1         0.6115
       2    O1      16.134361   17.761968   22.364993 O.co2      1 MOL1        -0.6776
       3    O2      16.930522   18.086374   24.326399 O.co2      1 MOL1        -0.6776
       4    C2      18.470171   18.012239   22.544328 C.3        1 MOL1        -0.2013
       5    H1      18.508866   17.353725   21.668329 H          1 MOL1         0.0727
       6    H2      19.160835   17.602733   23.290071 H          1 MOL1         0.0727
       7    C3      18.884584   19.453370   22.148621 C.3        1 MOL1        -0.1910
       8    H3      18.123157   19.865805   21.472198 H          1 MOL1         0.0729
       9    H4      18.885242   20.093327   23.041797 H          1 MOL1         0.0729
      10    C4      20.262492   19.530030   21.449323 C.3        1 MOL1        -0.1909
      11    H5      20.419661   20.559962   21.100684 H          1 MOL1         0.0729
      12    H6      20.255796   18.895907   20.552187 H          1 MOL1         0.0729
      13    C5      21.439459   19.124839   22.364791 C.3        1 MOL1        -0.1884
      14    H7      21.416342   19.724102   23.285452 H          1 MOL1         0.0729
      15    H8      21.341800   18.073043   22.664042 H          1 MOL1         0.0729
      16    C6      22.796733   19.321353   21.660196 C.3        1 MOL1        -0.2899
      17    H9      22.857946   18.711512   20.749288 H          1 MOL1         0.0741
      18    H10     22.945915   20.372380   21.380065 H          1 MOL1         0.0741
      19    H11     23.621954   19.026746   22.321488 H          1 MOL1         0.0741
@<TRIPOS>BOND
    1     1     2    1
    2     1     3    2
    3     1     4    1
    4     4     5    1
    5     4     6    1
    6     4     7    1
    7     7     8    1
    8     7     9    1
    9     7    10    1
   10    10    11    1
   11    10    12    1
   12    10    13    1
   13    13    14    1
   14    13    15    1
   15    13    16    1
   16    16    17    1
   17    16    18    1
   18    16    19    1
@<TRIPOS>SUBSTRUCTURE
       1 MOL1            1 RESIDUE      1      MOL     
@<SCITEGIC>MOL_PROPERTY
VConf Rank
SciTegic.value.IntegerValue
384

@<SCITEGIC>MOL_PROPERTY
Conf_Id
SciTegic.value.IntegerValue
33

@<SCITEGIC>MOL_PROPERTY
Delta U+W
SciTegic.value.DoubleValue
-0.526

@<SCITEGIC>MOL_PROPERTY
U+W
SciTegic.value.DoubleValue
-55.418

@<SCITEGIC>MOL_PROPERTY
Grad RMS
SciTegic.value.DoubleValue
0.000000

@<SCITEGIC>MOL_PROPERTY
U
SciTegic.value.DoubleValue
6.914

@<SCITEGIC>MOL_PROPERTY
W
SciTegic.value.DoubleValue
-62.332

@<SCITEGIC>MOL_PROPERTY
W(PB)
SciTegic.value.DoubleValue
-64.421

@<SCITEGIC>MOL_PROPERTY
W(SA)
SciTegic.value.DoubleValue
2.090

@<SCITEGIC>MOL_PROPERTY
Valence
SciTegic.value.DoubleValue
7.196

@<SCITEGIC>MOL_PROPERTY
Coulomb
SciTegic.value.DoubleValue
-1.020

@<SCITEGIC>MOL_PROPERTY
VdW
SciTegic.value.DoubleValue
0.738

@<SCITEGIC>MOL_PROPERTY
VdW6
SciTegic.value.DoubleValue
-6.010

@<SCITEGIC>MOL_PROPERTY
VdW12
SciTegic.value.DoubleValue
6.748

@<SCITEGIC>MOL_PROPERTY
Bond
SciTegic.value.DoubleValue
0.126

@<SCITEGIC>MOL_PROPERTY
Angle
SciTegic.value.DoubleValue
2.499

@<SCITEGIC>MOL_PROPERTY
Pdih
SciTegic.value.DoubleValue
4.570

@<SCITEGIC>MOL_PROPERTY
Idih
SciTegic.value.DoubleValue
0.001

@<SCITEGIC>MOL_PROPERTY
Tether
SciTegic.value.DoubleValue
0.000

@<TRIPOS>MOLECULE
guest-7_confgen4.mol2 : confsearch ligand conformer 385
          19          18           1
SMALL
USER_CHARGES
 
@<TRIPOS>ATOM
       1    C1      20.600005   15.873922   21.972973 C.2        1 MOL1         0.6115
       2    O1      20.932759   15.433543   23.055360 O.co2      1 MOL1        -0.6776
       3    O2      19.979530   15.232989   21.148073 O.co2      1 MOL1        -0.6776
       4    C2      20.965855   17.315694   21.638388 C.3        1 MOL1        -0.2013
       5    H1      21.137907   17.381262   20.557288 H          1 MOL1         0.0727
       6    H2      21.916367   17.549883   22.132765 H          1 MOL1         0.0727
       7    C3      19.876637   18.328866   22.069120 C.3        1 MOL1        -0.1910
       8    H3      18.929304   18.075577   21.573496 H          1 MOL1         0.0729
       9    H4      19.708656   18.231966   23.149867 H          1 MOL1         0.0729
      10    C4      20.275211   19.781689   21.721120 C.3        1 MOL1        -0.1909
      11    H5      20.508243   19.841486   20.649152 H          1 MOL1         0.0729
      12    H6      21.196447   20.051286   22.255579 H          1 MOL1         0.0729
      13    C5      19.170467   20.814840   22.041631 C.3        1 MOL1        -0.1884
      14    H7      19.483492   21.795946   21.658629 H          1 MOL1         0.0729
      15    H8      18.248846   20.551646   21.504350 H          1 MOL1         0.0729
      16    C6      18.873103   20.942752   23.551288 C.3        1 MOL1        -0.2899
      17    H9      19.786613   21.176985   24.113242 H          1 MOL1         0.0741
      18    H10     18.148996   21.747519   23.732837 H          1 MOL1         0.0741
      19    H11     18.447553   20.015965   23.955907 H          1 MOL1         0.0741
@<TRIPOS>BOND
    1     1     2    1
    2     1     3    2
    3     1     4    1
    4     4     5    1
    5     4     6    1
    6     4     7    1
    7     7     8    1
    8     7     9    1
    9     7    10    1
   10    10    11    1
   11    10    12    1
   12    10    13    1
   13    13    14    1
   14    13    15    1
   15    13    16    1
   16    16    17    1
   17    16    18    1
   18    16    19    1
@<TRIPOS>SUBSTRUCTURE
       1 MOL1            1 RESIDUE      1      MOL     
@<SCITEGIC>MOL_PROPERTY
VConf Rank
SciTegic.value.IntegerValue
385

@<SCITEGIC>MOL_PROPERTY
Conf_Id
SciTegic.value.IntegerValue
42

@<SCITEGIC>MOL_PROPERTY
Delta U+W
SciTegic.value.DoubleValue
-0.344

@<SCITEGIC>MOL_PROPERTY
U+W
SciTegic.value.DoubleValue
-55.236

@<SCITEGIC>MOL_PROPERTY
Grad RMS
SciTegic.value.DoubleValue
0.000000

@<SCITEGIC>MOL_PROPERTY
U
SciTegic.value.DoubleValue
7.244

@<SCITEGIC>MOL_PROPERTY
W
SciTegic.value.DoubleValue
-62.479

@<SCITEGIC>MOL_PROPERTY
W(PB)
SciTegic.value.DoubleValue
-64.610

@<SCITEGIC>MOL_PROPERTY
W(SA)
SciTegic.value.DoubleValue
2.130

@<SCITEGIC>MOL_PROPERTY
Valence
SciTegic.value.DoubleValue
7.174

@<SCITEGIC>MOL_PROPERTY
Coulomb
SciTegic.value.DoubleValue
-0.669

@<SCITEGIC>MOL_PROPERTY
VdW
SciTegic.value.DoubleValue
0.739

@<SCITEGIC>MOL_PROPERTY
VdW6
SciTegic.value.DoubleValue
-5.969

@<SCITEGIC>MOL_PROPERTY
VdW12
SciTegic.value.DoubleValue
6.708

@<SCITEGIC>MOL_PROPERTY
Bond
SciTegic.value.DoubleValue
0.116

@<SCITEGIC>MOL_PROPERTY
Angle
SciTegic.value.DoubleValue
2.481

@<SCITEGIC>MOL_PROPERTY
Pdih
SciTegic.value.DoubleValue
4.576

@<SCITEGIC>MOL_PROPERTY
Idih
SciTegic.value.DoubleValue
0.000

@<SCITEGIC>MOL_PROPERTY
Tether
SciTegic.value.DoubleValue
0.000

@<TRIPOS>MOLECULE
guest-7_confgen4.mol2 : confsearch ligand conformer 386
          19          18           1
SMALL
USER_CHARGES
 
@<TRIPOS>ATOM
       1    C1      20.159789   19.306889   19.089241 C.2        1 MOL1         0.6115
       2    O1      20.049460   18.225979   18.545474 O.co2      1 MOL1        -0.6776
       3    O2      20.848511   20.209823   18.657248 O.co2      1 MOL1        -0.6776
       4    C2      19.407017   19.536651   20.395014 C.3        1 MOL1        -0.2013
       5    H1      18.476362   18.957613   20.358600 H          1 MOL1         0.0727
       6    H2      19.127990   20.596032   20.445359 H          1 MOL1         0.0727
       7    C3      20.232965   19.141083   21.643925 C.3        1 MOL1        -0.1910
       8    H3      20.516193   18.083382   21.562240 H          1 MOL1         0.0729
       9    H4      21.165311   19.722180   21.661165 H          1 MOL1         0.0729
      10    C4      19.444622   19.380910   22.952228 C.3        1 MOL1        -0.1909
      11    H5      18.536723   18.762277   22.956426 H          1 MOL1         0.0729
      12    H6      19.109032   20.426640   22.980855 H          1 MOL1         0.0729
      13    C5      20.270578   19.095394   24.227715 C.3        1 MOL1        -0.1884
      14    H7      21.176933   19.716556   24.229884 H          1 MOL1         0.0729
      15    H8      19.682741   19.401204   25.104170 H          1 MOL1         0.0729
      16    C6      20.659022   17.609284   24.384045 C.3        1 MOL1        -0.2899
      17    H9      21.343111   17.288017   23.588711 H          1 MOL1         0.0741
      18    H10     21.165018   17.443950   25.344032 H          1 MOL1         0.0741
      19    H11     19.770138   16.965689   24.355308 H          1 MOL1         0.0741
@<TRIPOS>BOND
    1     1     2    1
    2     1     3    2
    3     1     4    1
    4     4     5    1
    5     4     6    1
    6     4     7    1
    7     7     8    1
    8     7     9    1
    9     7    10    1
   10    10    11    1
   11    10    12    1
   12    10    13    1
   13    13    14    1
   14    13    15    1
   15    13    16    1
   16    16    17    1
   17    16    18    1
   18    16    19    1
@<TRIPOS>SUBSTRUCTURE
       1 MOL1            1 RESIDUE      1      MOL     
@<SCITEGIC>MOL_PROPERTY
VConf Rank
SciTegic.value.IntegerValue
386

@<SCITEGIC>MOL_PROPERTY
Conf_Id
SciTegic.value.IntegerValue
41

@<SCITEGIC>MOL_PROPERTY
Delta U+W
SciTegic.value.DoubleValue
-0.361

@<SCITEGIC>MOL_PROPERTY
U+W
SciTegic.value.DoubleValue
-55.252

@<SCITEGIC>MOL_PROPERTY
Grad RMS
SciTegic.value.DoubleValue
0.000000

@<SCITEGIC>MOL_PROPERTY
U
SciTegic.value.DoubleValue
7.244

@<SCITEGIC>MOL_PROPERTY
W
SciTegic.value.DoubleValue
-62.496

@<SCITEGIC>MOL_PROPERTY
W(PB)
SciTegic.value.DoubleValue
-64.596

@<SCITEGIC>MOL_PROPERTY
W(SA)
SciTegic.value.DoubleValue
2.099

@<SCITEGIC>MOL_PROPERTY
Valence
SciTegic.value.DoubleValue
7.174

@<SCITEGIC>MOL_PROPERTY
Coulomb
SciTegic.value.DoubleValue
-0.669

@<SCITEGIC>MOL_PROPERTY
VdW
SciTegic.value.DoubleValue
0.739

@<SCITEGIC>MOL_PROPERTY
VdW6
SciTegic.value.DoubleValue
-5.969

@<SCITEGIC>MOL_PROPERTY
VdW12
SciTegic.value.DoubleValue
6.708

@<SCITEGIC>MOL_PROPERTY
Bond
SciTegic.value.DoubleValue
0.116

@<SCITEGIC>MOL_PROPERTY
Angle
SciTegic.value.DoubleValue
2.481

@<SCITEGIC>MOL_PROPERTY
Pdih
SciTegic.value.DoubleValue
4.576

@<SCITEGIC>MOL_PROPERTY
Idih
SciTegic.value.DoubleValue
0.000

@<SCITEGIC>MOL_PROPERTY
Tether
SciTegic.value.DoubleValue
0.000

@<TRIPOS>MOLECULE
guest-7_confgen4.mol2 : confsearch ligand conformer 387
          19          18           1
SMALL
USER_CHARGES
 
@<TRIPOS>ATOM
       1    C1      22.198371   18.323126   23.808851 C.2        1 MOL1         0.6115
       2    O1      22.492871   19.422060   24.235658 O.co2      1 MOL1        -0.6776
       3    O2      22.106617   17.333371   24.507883 O.co2      1 MOL1        -0.6776
       4    C2      21.951483   18.170857   22.310450 C.3        1 MOL1        -0.2013
       5    H1      22.501222   17.283108   21.976084 H          1 MOL1         0.0727
       6    H2      22.393409   19.031209   21.793264 H          1 MOL1         0.0727
       7    C3      20.455310   18.027445   21.928362 C.3        1 MOL1        -0.1910
       8    H3      20.382225   17.785011   20.859522 H          1 MOL1         0.0729
       9    H4      20.019619   17.179866   22.475550 H          1 MOL1         0.0729
      10    C4      19.642839   19.309712   22.216448 C.3        1 MOL1        -0.1909
      11    H5      20.089931   20.156428   21.677737 H          1 MOL1         0.0729
      12    H6      19.696949   19.549596   23.287406 H          1 MOL1         0.0729
      13    C5      18.165276   19.155390   21.799798 C.3        1 MOL1        -0.1884
      14    H7      18.104713   18.919459   20.728305 H          1 MOL1         0.0729
      15    H8      17.714881   18.310515   22.339061 H          1 MOL1         0.0729
      16    C6      17.357357   20.436385   22.088406 C.3        1 MOL1        -0.2899
      17    H9      17.767665   21.292155   21.536400 H          1 MOL1         0.0741
      18    H10     16.309553   20.309168   21.786727 H          1 MOL1         0.0741
      19    H11     17.374929   20.678747   23.159104 H          1 MOL1         0.0741
@<TRIPOS>BOND
    1     1     2    1
    2     1     3    2
    3     1     4    1
    4     4     5    1
    5     4     6    1
    6     4     7    1
    7     7     8    1
    8     7     9    1
    9     7    10    1
   10    10    11    1
   11    10    12    1
   12    10    13    1
   13    13    14    1
   14    13    15    1
   15    13    16    1
   16    16    17    1
   17    16    18    1
   18    16    19    1
@<TRIPOS>SUBSTRUCTURE
       1 MOL1            1 RESIDUE      1      MOL     
@<SCITEGIC>MOL_PROPERTY
VConf Rank
SciTegic.value.IntegerValue
387

@<SCITEGIC>MOL_PROPERTY
Conf_Id
SciTegic.value.IntegerValue
36

@<SCITEGIC>MOL_PROPERTY
Delta U+W
SciTegic.value.DoubleValue
-0.079

@<SCITEGIC>MOL_PROPERTY
U+W
SciTegic.value.DoubleValue
-54.971

@<SCITEGIC>MOL_PROPERTY
Grad RMS
SciTegic.value.DoubleValue
0.000000

@<SCITEGIC>MOL_PROPERTY
U
SciTegic.value.DoubleValue
8.266

@<SCITEGIC>MOL_PROPERTY
W
SciTegic.value.DoubleValue
-63.237

@<SCITEGIC>MOL_PROPERTY
W(PB)
SciTegic.value.DoubleValue
-65.340

@<SCITEGIC>MOL_PROPERTY
W(SA)
SciTegic.value.DoubleValue
2.103

@<SCITEGIC>MOL_PROPERTY
Valence
SciTegic.value.DoubleValue
6.935

@<SCITEGIC>MOL_PROPERTY
Coulomb
SciTegic.value.DoubleValue
0.874

@<SCITEGIC>MOL_PROPERTY
VdW
SciTegic.value.DoubleValue
0.457

@<SCITEGIC>MOL_PROPERTY
VdW6
SciTegic.value.DoubleValue
-6.205

@<SCITEGIC>MOL_PROPERTY
VdW12
SciTegic.value.DoubleValue
6.662

@<SCITEGIC>MOL_PROPERTY
Bond
SciTegic.value.DoubleValue
0.107

@<SCITEGIC>MOL_PROPERTY
Angle
SciTegic.value.DoubleValue
2.420

@<SCITEGIC>MOL_PROPERTY
Pdih
SciTegic.value.DoubleValue
4.407

@<SCITEGIC>MOL_PROPERTY
Idih
SciTegic.value.DoubleValue
0.001

@<SCITEGIC>MOL_PROPERTY
Tether
SciTegic.value.DoubleValue
0.000

@<TRIPOS>MOLECULE
guest-7_confgen4.mol2 : confsearch ligand conformer 388
          19          18           1
SMALL
USER_CHARGES
 
@<TRIPOS>ATOM
       1    C1      22.954475   18.867278   22.872247 C.2        1 MOL1         0.6115
       2    O1      23.002960   19.571690   23.861188 O.co2      1 MOL1        -0.6776
       3    O2      23.661402   19.028719   21.897120 O.co2      1 MOL1        -0.6776
       4    C2      21.967892   17.702862   22.860608 C.3        1 MOL1        -0.2013
       5    H1      21.668171   17.487168   23.893387 H          1 MOL1         0.0727
       6    H2      22.506538   16.820337   22.495754 H          1 MOL1         0.0727
       7    C3      20.715050   17.945488   21.979352 C.3        1 MOL1        -0.1910
       8    H3      21.031825   18.188222   20.955456 H          1 MOL1         0.0729
       9    H4      20.136197   17.013928   21.918843 H          1 MOL1         0.0729
      10    C4      19.811267   19.071924   22.528560 C.3        1 MOL1        -0.1909
      11    H5      20.378536   20.011798   22.576142 H          1 MOL1         0.0729
      12    H6      19.507990   18.830928   23.556652 H          1 MOL1         0.0729
      13    C5      18.556081   19.274549   21.654457 C.3        1 MOL1        -0.1884
      14    H7      18.856590   19.518106   20.625939 H          1 MOL1         0.0729
      15    H8      17.982308   18.338637   21.606654 H          1 MOL1         0.0729
      16    C6      17.656441   20.399042   22.205039 C.3        1 MOL1        -0.2899
      17    H9      18.196160   21.354700   22.234449 H          1 MOL1         0.0741
      18    H10     16.769414   20.529969   21.571693 H          1 MOL1         0.0741
      19    H11     17.315388   20.166472   23.222389 H          1 MOL1         0.0741
@<TRIPOS>BOND
    1     1     2    1
    2     1     3    2
    3     1     4    1
    4     4     5    1
    5     4     6    1
    6     4     7    1
    7     7     8    1
    8     7     9    1
    9     7    10    1
   10    10    11    1
   11    10    12    1
   12    10    13    1
   13    13    14    1
   14    13    15    1
   15    13    16    1
   16    16    17    1
   17    16    18    1
   18    16    19    1
@<TRIPOS>SUBSTRUCTURE
       1 MOL1            1 RESIDUE      1      MOL     
@<SCITEGIC>MOL_PROPERTY
VConf Rank
SciTegic.value.IntegerValue
388

@<SCITEGIC>MOL_PROPERTY
Conf_Id
SciTegic.value.IntegerValue
35

@<SCITEGIC>MOL_PROPERTY
Delta U+W
SciTegic.value.DoubleValue
-0.030

@<SCITEGIC>MOL_PROPERTY
U+W
SciTegic.value.DoubleValue
-54.921

@<SCITEGIC>MOL_PROPERTY
Grad RMS
SciTegic.value.DoubleValue
0.000000

@<SCITEGIC>MOL_PROPERTY
U
SciTegic.value.DoubleValue
8.267

@<SCITEGIC>MOL_PROPERTY
W
SciTegic.value.DoubleValue
-63.188

@<SCITEGIC>MOL_PROPERTY
W(PB)
SciTegic.value.DoubleValue
-65.294

@<SCITEGIC>MOL_PROPERTY
W(SA)
SciTegic.value.DoubleValue
2.106

@<SCITEGIC>MOL_PROPERTY
Valence
SciTegic.value.DoubleValue
6.935

@<SCITEGIC>MOL_PROPERTY
Coulomb
SciTegic.value.DoubleValue
0.875

@<SCITEGIC>MOL_PROPERTY
VdW
SciTegic.value.DoubleValue
0.457

@<SCITEGIC>MOL_PROPERTY
VdW6
SciTegic.value.DoubleValue
-6.205

@<SCITEGIC>MOL_PROPERTY
VdW12
SciTegic.value.DoubleValue
6.662

@<SCITEGIC>MOL_PROPERTY
Bond
SciTegic.value.DoubleValue
0.107

@<SCITEGIC>MOL_PROPERTY
Angle
SciTegic.value.DoubleValue
2.420

@<SCITEGIC>MOL_PROPERTY
Pdih
SciTegic.value.DoubleValue
4.407

@<SCITEGIC>MOL_PROPERTY
Idih
SciTegic.value.DoubleValue
0.001

@<SCITEGIC>MOL_PROPERTY
Tether
SciTegic.value.DoubleValue
0.000

@<TRIPOS>MOLECULE
guest-7_confgen4.mol2 : confsearch ligand conformer 389
          19          18           1
SMALL
USER_CHARGES
 
@<TRIPOS>ATOM
       1    C1      21.117110   17.666925   24.762407 C.2        1 MOL1         0.6115
       2    O1      20.315932   16.937242   25.312301 O.co2      1 MOL1        -0.6776
       3    O2      21.756780   18.521099   25.343659 O.co2      1 MOL1        -0.6776
       4    C2      21.346727   17.484365   23.264599 C.3        1 MOL1        -0.2013
       5    H1      21.454656   16.409221   23.078831 H          1 MOL1         0.0727
       6    H2      22.302976   17.950100   22.996944 H          1 MOL1         0.0727
       7    C3      20.208672   18.050800   22.375946 C.3        1 MOL1        -0.1910
       8    H3      20.387724   17.737709   21.339479 H          1 MOL1         0.0729
       9    H4      19.252080   17.604952   22.681690 H          1 MOL1         0.0729
      10    C4      20.113970   19.593868   22.444193 C.3        1 MOL1        -0.1909
      11    H5      21.058318   20.038419   22.101559 H          1 MOL1         0.0729
      12    H6      19.988812   19.901891   23.491323 H          1 MOL1         0.0729
      13    C5      18.940082   20.174137   21.621937 C.3        1 MOL1        -0.1884
      14    H7      17.993718   19.732811   21.963898 H          1 MOL1         0.0729
      15    H8      18.869576   21.252267   21.821653 H          1 MOL1         0.0729
      16    C6      19.093682   19.960350   20.100517 C.3        1 MOL1        -0.2899
      17    H9      19.050806   18.895813   19.838707 H          1 MOL1         0.0741
      18    H10     18.285429   20.468086   19.558421 H          1 MOL1         0.0741
      19    H11     20.048377   20.365996   19.741135 H          1 MOL1         0.0741
@<TRIPOS>BOND
    1     1     2    1
    2     1     3    2
    3     1     4    1
    4     4     5    1
    5     4     6    1
    6     4     7    1
    7     7     8    1
    8     7     9    1
    9     7    10    1
   10    10    11    1
   11    10    12    1
   12    10    13    1
   13    13    14    1
   14    13    15    1
   15    13    16    1
   16    16    17    1
   17    16    18    1
   18    16    19    1
@<TRIPOS>SUBSTRUCTURE
       1 MOL1            1 RESIDUE      1      MOL     
@<SCITEGIC>MOL_PROPERTY
VConf Rank
SciTegic.value.IntegerValue
389

@<SCITEGIC>MOL_PROPERTY
Conf_Id
SciTegic.value.IntegerValue
74

@<SCITEGIC>MOL_PROPERTY
Delta U+W
SciTegic.value.DoubleValue
0.797

@<SCITEGIC>MOL_PROPERTY
U+W
SciTegic.value.DoubleValue
-54.095

@<SCITEGIC>MOL_PROPERTY
Grad RMS
SciTegic.value.DoubleValue
0.000000

@<SCITEGIC>MOL_PROPERTY
U
SciTegic.value.DoubleValue
8.869

@<SCITEGIC>MOL_PROPERTY
W
SciTegic.value.DoubleValue
-62.964

@<SCITEGIC>MOL_PROPERTY
W(PB)
SciTegic.value.DoubleValue
-65.046

@<SCITEGIC>MOL_PROPERTY
W(SA)
SciTegic.value.DoubleValue
2.082

@<SCITEGIC>MOL_PROPERTY
Valence
SciTegic.value.DoubleValue
7.469

@<SCITEGIC>MOL_PROPERTY
Coulomb
SciTegic.value.DoubleValue
0.762

@<SCITEGIC>MOL_PROPERTY
VdW
SciTegic.value.DoubleValue
0.639

@<SCITEGIC>MOL_PROPERTY
VdW6
SciTegic.value.DoubleValue
-6.782

@<SCITEGIC>MOL_PROPERTY
VdW12
SciTegic.value.DoubleValue
7.421

@<SCITEGIC>MOL_PROPERTY
Bond
SciTegic.value.DoubleValue
0.141

@<SCITEGIC>MOL_PROPERTY
Angle
SciTegic.value.DoubleValue
2.667

@<SCITEGIC>MOL_PROPERTY
Pdih
SciTegic.value.DoubleValue
4.660

@<SCITEGIC>MOL_PROPERTY
Idih
SciTegic.value.DoubleValue
0.001

@<SCITEGIC>MOL_PROPERTY
Tether
SciTegic.value.DoubleValue
0.000

@<TRIPOS>MOLECULE
guest-7_confgen4.mol2 : confsearch ligand conformer 390
          19          18           1
SMALL
USER_CHARGES
 
@<TRIPOS>ATOM
       1    C1      18.194540   21.137310   23.027115 C.2        1 MOL1         0.6115
       2    O1      17.156409   21.491953   22.504685 O.co2      1 MOL1        -0.6776
       3    O2      18.486100   21.386557   24.180020 O.co2      1 MOL1        -0.6776
       4    C2      19.176002   20.318884   22.195772 C.3        1 MOL1        -0.2013
       5    H1      20.188347   20.567453   22.534198 H          1 MOL1         0.0727
       6    H2      19.092113   20.643373   21.151730 H          1 MOL1         0.0727
       7    C3      18.926801   18.792132   22.303086 C.3        1 MOL1        -0.1910
       8    H3      19.050917   18.472167   23.346156 H          1 MOL1         0.0729
       9    H4      17.878574   18.587191   22.045371 H          1 MOL1         0.0729
      10    C4      19.836511   17.949350   21.374175 C.3        1 MOL1        -0.1909
      11    H5      19.621558   18.214267   20.329949 H          1 MOL1         0.0729
      12    H6      19.564287   16.890392   21.480404 H          1 MOL1         0.0729
      13    C5      21.357090   18.102405   21.623805 C.3        1 MOL1        -0.1884
      14    H7      21.894939   17.473702   20.900941 H          1 MOL1         0.0729
      15    H8      21.672713   19.134427   21.421518 H          1 MOL1         0.0729
      16    C6      21.786423   17.696794   23.050181 C.3        1 MOL1        -0.2899
      17    H9      21.460660   16.674649   23.282835 H          1 MOL1         0.0741
      18    H10     22.879055   17.734597   23.147870 H          1 MOL1         0.0741
      19    H11     21.361748   18.373964   23.802085 H          1 MOL1         0.0741
@<TRIPOS>BOND
    1     1     2    1
    2     1     3    2
    3     1     4    1
    4     4     5    1
    5     4     6    1
    6     4     7    1
    7     7     8    1
    8     7     9    1
    9     7    10    1
   10    10    11    1
   11    10    12    1
   12    10    13    1
   13    13    14    1
   14    13    15    1
   15    13    16    1
   16    16    17    1
   17    16    18    1
   18    16    19    1
@<TRIPOS>SUBSTRUCTURE
       1 MOL1            1 RESIDUE      1      MOL     
@<SCITEGIC>MOL_PROPERTY
VConf Rank
SciTegic.value.IntegerValue
390

@<SCITEGIC>MOL_PROPERTY
Conf_Id
SciTegic.value.IntegerValue
67

@<SCITEGIC>MOL_PROPERTY
Delta U+W
SciTegic.value.DoubleValue
0.308

@<SCITEGIC>MOL_PROPERTY
U+W
SciTegic.value.DoubleValue
-54.583

@<SCITEGIC>MOL_PROPERTY
Grad RMS
SciTegic.value.DoubleValue
0.000000

@<SCITEGIC>MOL_PROPERTY
U
SciTegic.value.DoubleValue
8.219

@<SCITEGIC>MOL_PROPERTY
W
SciTegic.value.DoubleValue
-62.802

@<SCITEGIC>MOL_PROPERTY
W(PB)
SciTegic.value.DoubleValue
-64.859

@<SCITEGIC>MOL_PROPERTY
W(SA)
SciTegic.value.DoubleValue
2.057

@<SCITEGIC>MOL_PROPERTY
Valence
SciTegic.value.DoubleValue
7.609

@<SCITEGIC>MOL_PROPERTY
Coulomb
SciTegic.value.DoubleValue
-0.089

@<SCITEGIC>MOL_PROPERTY
VdW
SciTegic.value.DoubleValue
0.699

@<SCITEGIC>MOL_PROPERTY
VdW6
SciTegic.value.DoubleValue
-6.924

@<SCITEGIC>MOL_PROPERTY
VdW12
SciTegic.value.DoubleValue
7.623

@<SCITEGIC>MOL_PROPERTY
Bond
SciTegic.value.DoubleValue
0.163

@<SCITEGIC>MOL_PROPERTY
Angle
SciTegic.value.DoubleValue
2.870

@<SCITEGIC>MOL_PROPERTY
Pdih
SciTegic.value.DoubleValue
4.576

@<SCITEGIC>MOL_PROPERTY
Idih
SciTegic.value.DoubleValue
0.001

@<SCITEGIC>MOL_PROPERTY
Tether
SciTegic.value.DoubleValue
0.000

@<TRIPOS>MOLECULE
guest-7_confgen4.mol2 : confsearch ligand conformer 391
          19          18           1
SMALL
USER_CHARGES
 
@<TRIPOS>ATOM
       1    C1      20.801657   16.405889   21.052456 C.2        1 MOL1         0.6115
       2    O1      20.537652   15.265249   21.377515 O.co2      1 MOL1        -0.6776
       3    O2      21.770355   16.706996   20.383665 O.co2      1 MOL1        -0.6776
       4    C2      19.877323   17.521816   21.526300 C.3        1 MOL1        -0.2013
       5    H1      18.859194   17.119096   21.586176 H          1 MOL1         0.0727
       6    H2      19.874602   18.302233   20.756818 H          1 MOL1         0.0727
       7    C3      20.300822   18.111358   22.896583 C.3        1 MOL1        -0.1910
       8    H3      20.382656   17.291093   23.622990 H          1 MOL1         0.0729
       9    H4      21.306095   18.545527   22.814714 H          1 MOL1         0.0729
      10    C4      19.308202   19.163785   23.451403 C.3        1 MOL1        -0.1909
      11    H5      19.659675   19.493857   24.438468 H          1 MOL1         0.0729
      12    H6      18.336217   18.681021   23.621630 H          1 MOL1         0.0729
      13    C5      19.095872   20.407953   22.554261 C.3        1 MOL1        -0.1884
      14    H7      18.645811   20.113086   21.597125 H          1 MOL1         0.0729
      15    H8      18.366344   21.069561   23.041234 H          1 MOL1         0.0729
      16    C6      20.393058   21.204265   22.296201 C.3        1 MOL1        -0.2899
      17    H9      21.110523   20.617921   21.708228 H          1 MOL1         0.0741
      18    H10     20.175140   22.122354   21.735453 H          1 MOL1         0.0741
      19    H11     20.873066   21.490288   23.241089 H          1 MOL1         0.0741
@<TRIPOS>BOND
    1     1     2    1
    2     1     3    2
    3     1     4    1
    4     4     5    1
    5     4     6    1
    6     4     7    1
    7     7     8    1
    8     7     9    1
    9     7    10    1
   10    10    11    1
   11    10    12    1
   12    10    13    1
   13    13    14    1
   14    13    15    1
   15    13    16    1
   16    16    17    1
   17    16    18    1
   18    16    19    1
@<TRIPOS>SUBSTRUCTURE
       1 MOL1            1 RESIDUE      1      MOL     
@<SCITEGIC>MOL_PROPERTY
VConf Rank
SciTegic.value.IntegerValue
391

@<SCITEGIC>MOL_PROPERTY
Conf_Id
SciTegic.value.IntegerValue
21

@<SCITEGIC>MOL_PROPERTY
Delta U+W
SciTegic.value.DoubleValue
0.319

@<SCITEGIC>MOL_PROPERTY
U+W
SciTegic.value.DoubleValue
-54.572

@<SCITEGIC>MOL_PROPERTY
Grad RMS
SciTegic.value.DoubleValue
0.000000

@<SCITEGIC>MOL_PROPERTY
U
SciTegic.value.DoubleValue
8.220

@<SCITEGIC>MOL_PROPERTY
W
SciTegic.value.DoubleValue
-62.792

@<SCITEGIC>MOL_PROPERTY
W(PB)
SciTegic.value.DoubleValue
-64.830

@<SCITEGIC>MOL_PROPERTY
W(SA)
SciTegic.value.DoubleValue
2.038

@<SCITEGIC>MOL_PROPERTY
Valence
SciTegic.value.DoubleValue
7.609

@<SCITEGIC>MOL_PROPERTY
Coulomb
SciTegic.value.DoubleValue
-0.088

@<SCITEGIC>MOL_PROPERTY
VdW
SciTegic.value.DoubleValue
0.699

@<SCITEGIC>MOL_PROPERTY
VdW6
SciTegic.value.DoubleValue
-6.924

@<SCITEGIC>MOL_PROPERTY
VdW12
SciTegic.value.DoubleValue
7.623

@<SCITEGIC>MOL_PROPERTY
Bond
SciTegic.value.DoubleValue
0.163

@<SCITEGIC>MOL_PROPERTY
Angle
SciTegic.value.DoubleValue
2.870

@<SCITEGIC>MOL_PROPERTY
Pdih
SciTegic.value.DoubleValue
4.576

@<SCITEGIC>MOL_PROPERTY
Idih
SciTegic.value.DoubleValue
0.000

@<SCITEGIC>MOL_PROPERTY
Tether
SciTegic.value.DoubleValue
0.000

@<TRIPOS>MOLECULE
guest-7_confgen4.mol2 : confsearch ligand conformer 392
          19          18           1
SMALL
USER_CHARGES
 
@<TRIPOS>ATOM
       1    C1      17.173351   18.338101   21.959709 C.2        1 MOL1         0.6115
       2    O1      16.580111   17.878567   21.004025 O.co2      1 MOL1        -0.6776
       3    O2      16.753540   18.288439   23.098808 O.co2      1 MOL1        -0.6776
       4    C2      18.526925   18.996555   21.718137 C.3        1 MOL1        -0.2013
       5    H1      18.646547   19.797891   22.453919 H          1 MOL1         0.0727
       6    H2      18.500302   19.471799   20.730302 H          1 MOL1         0.0727
       7    C3      19.706022   17.990632   21.791908 C.3        1 MOL1        -0.1910
       8    H3      19.699702   17.470562   22.759777 H          1 MOL1         0.0729
       9    H4      19.538893   17.218044   21.028645 H          1 MOL1         0.0729
      10    C4      21.089668   18.642660   21.542250 C.3        1 MOL1        -0.1909
      11    H5      20.987639   19.508886   20.874312 H          1 MOL1         0.0729
      12    H6      21.714770   17.919815   21.000295 H          1 MOL1         0.0729
      13    C5      21.854428   19.048000   22.826287 C.3        1 MOL1        -0.1884
      14    H7      22.030048   18.158284   23.446626 H          1 MOL1         0.0729
      15    H8      22.846486   19.421583   22.537407 H          1 MOL1         0.0729
      16    C6      21.146712   20.128154   23.670147 C.3        1 MOL1        -0.2899
      17    H9      21.797297   20.462717   24.488451 H          1 MOL1         0.0741
      18    H10     20.894057   21.003919   23.058446 H          1 MOL1         0.0741
      19    H11     20.225376   19.737673   24.120104 H          1 MOL1         0.0741
@<TRIPOS>BOND
    1     1     2    1
    2     1     3    2
    3     1     4    1
    4     4     5    1
    5     4     6    1
    6     4     7    1
    7     7     8    1
    8     7     9    1
    9     7    10    1
   10    10    11    1
   11    10    12    1
   12    10    13    1
   13    13    14    1
   14    13    15    1
   15    13    16    1
   16    16    17    1
   17    16    18    1
   18    16    19    1
@<TRIPOS>SUBSTRUCTURE
       1 MOL1            1 RESIDUE      1      MOL     
@<SCITEGIC>MOL_PROPERTY
VConf Rank
SciTegic.value.IntegerValue
392

@<SCITEGIC>MOL_PROPERTY
Conf_Id
SciTegic.value.IntegerValue
24

@<SCITEGIC>MOL_PROPERTY
Delta U+W
SciTegic.value.DoubleValue
2.477

@<SCITEGIC>MOL_PROPERTY
U+W
SciTegic.value.DoubleValue
-52.414

@<SCITEGIC>MOL_PROPERTY
Grad RMS
SciTegic.value.DoubleValue
0.000000

@<SCITEGIC>MOL_PROPERTY
U
SciTegic.value.DoubleValue
10.422

@<SCITEGIC>MOL_PROPERTY
W
SciTegic.value.DoubleValue
-62.836

@<SCITEGIC>MOL_PROPERTY
W(PB)
SciTegic.value.DoubleValue
-64.906

@<SCITEGIC>MOL_PROPERTY
W(SA)
SciTegic.value.DoubleValue
2.070

@<SCITEGIC>MOL_PROPERTY
Valence
SciTegic.value.DoubleValue
9.628

@<SCITEGIC>MOL_PROPERTY
Coulomb
SciTegic.value.DoubleValue
0.101

@<SCITEGIC>MOL_PROPERTY
VdW
SciTegic.value.DoubleValue
0.693

@<SCITEGIC>MOL_PROPERTY
VdW6
SciTegic.value.DoubleValue
-6.927

@<SCITEGIC>MOL_PROPERTY
VdW12
SciTegic.value.DoubleValue
7.620

@<SCITEGIC>MOL_PROPERTY
Bond
SciTegic.value.DoubleValue
0.173

@<SCITEGIC>MOL_PROPERTY
Angle
SciTegic.value.DoubleValue
2.989

@<SCITEGIC>MOL_PROPERTY
Pdih
SciTegic.value.DoubleValue
6.465

@<SCITEGIC>MOL_PROPERTY
Idih
SciTegic.value.DoubleValue
0.001

@<SCITEGIC>MOL_PROPERTY
Tether
SciTegic.value.DoubleValue
0.000

@<TRIPOS>MOLECULE
guest-7_confgen4.mol2 : confsearch ligand conformer 393
          19          18           1
SMALL
USER_CHARGES
 
@<TRIPOS>ATOM
       1    C1      20.572461   21.018954   20.852884 C.2        1 MOL1         0.6115
       2    O1      19.562591   21.020804   20.176977 O.co2      1 MOL1        -0.6776
       3    O2      21.226174   22.016942   21.084731 O.co2      1 MOL1        -0.6776
       4    C2      21.064837   19.689184   21.418135 C.3        1 MOL1        -0.2013
       5    H1      22.133539   19.614617   21.185602 H          1 MOL1         0.0727
       6    H2      20.568753   18.878363   20.875270 H          1 MOL1         0.0727
       7    C3      20.861557   19.540988   22.951645 C.3        1 MOL1        -0.1910
       8    H3      21.415499   18.666040   23.317493 H          1 MOL1         0.0729
       9    H4      21.317747   20.413039   23.440473 H          1 MOL1         0.0729
      10    C4      19.377169   19.442284   23.390198 C.3        1 MOL1        -0.1909
      11    H5      18.732514   19.996811   22.694694 H          1 MOL1         0.0729
      12    H6      19.273987   19.948985   24.359419 H          1 MOL1         0.0729
      13    C5      18.849405   17.996691   23.562341 C.3        1 MOL1        -0.1884
      14    H7      19.443287   17.475343   24.325691 H          1 MOL1         0.0729
      15    H8      17.823129   18.045112   23.951658 H          1 MOL1         0.0729
      16    C6      18.844994   17.167326   22.261691 C.3        1 MOL1        -0.2899
      17    H9      19.867073   16.949630   21.928046 H          1 MOL1         0.0741
      18    H10     18.337547   16.207064   22.420346 H          1 MOL1         0.0741
      19    H11     18.320540   17.699685   21.457311 H          1 MOL1         0.0741
@<TRIPOS>BOND
    1     1     2    1
    2     1     3    2
    3     1     4    1
    4     4     5    1
    5     4     6    1
    6     4     7    1
    7     7     8    1
    8     7     9    1
    9     7    10    1
   10    10    11    1
   11    10    12    1
   12    10    13    1
   13    13    14    1
   14    13    15    1
   15    13    16    1
   16    16    17    1
   17    16    18    1
   18    16    19    1
@<TRIPOS>SUBSTRUCTURE
       1 MOL1            1 RESIDUE      1      MOL     
@<SCITEGIC>MOL_PROPERTY
VConf Rank
SciTegic.value.IntegerValue
393

@<SCITEGIC>MOL_PROPERTY
Conf_Id
SciTegic.value.IntegerValue
4

@<SCITEGIC>MOL_PROPERTY
Delta U+W
SciTegic.value.DoubleValue
3.753

@<SCITEGIC>MOL_PROPERTY
U+W
SciTegic.value.DoubleValue
-51.138

@<SCITEGIC>MOL_PROPERTY
Grad RMS
SciTegic.value.DoubleValue
0.000000

@<SCITEGIC>MOL_PROPERTY
U
SciTegic.value.DoubleValue
12.334

@<SCITEGIC>MOL_PROPERTY
W
SciTegic.value.DoubleValue
-63.472

@<SCITEGIC>MOL_PROPERTY
W(PB)
SciTegic.value.DoubleValue
-65.500

@<SCITEGIC>MOL_PROPERTY
W(SA)
SciTegic.value.DoubleValue
2.028

@<SCITEGIC>MOL_PROPERTY
Valence
SciTegic.value.DoubleValue
9.984

@<SCITEGIC>MOL_PROPERTY
Coulomb
SciTegic.value.DoubleValue
1.767

@<SCITEGIC>MOL_PROPERTY
VdW
SciTegic.value.DoubleValue
0.583

@<SCITEGIC>MOL_PROPERTY
VdW6
SciTegic.value.DoubleValue
-7.767

@<SCITEGIC>MOL_PROPERTY
VdW12
SciTegic.value.DoubleValue
8.349

@<SCITEGIC>MOL_PROPERTY
Bond
SciTegic.value.DoubleValue
0.203

@<SCITEGIC>MOL_PROPERTY
Angle
SciTegic.value.DoubleValue
3.191

@<SCITEGIC>MOL_PROPERTY
Pdih
SciTegic.value.DoubleValue
6.589

@<SCITEGIC>MOL_PROPERTY
Idih
SciTegic.value.DoubleValue
0.001

@<SCITEGIC>MOL_PROPERTY
Tether
SciTegic.value.DoubleValue
0.000

@<TRIPOS>MOLECULE
guest-7_confgen4.mol2 : confsearch ligand conformer 394
          19          18           1
SMALL
USER_CHARGES
 
@<TRIPOS>ATOM
       1    C1      19.452350   18.660703   24.969024 C.2        1 MOL1         0.6115
       2    O1      18.642450   17.980456   25.567688 O.co2      1 MOL1        -0.6776
       3    O2      20.603902   18.804902   25.329340 O.co2      1 MOL1        -0.6776
       4    C2      18.987310   19.395074   23.714166 C.3        1 MOL1        -0.2013
       5    H1      19.712149   20.183179   23.486731 H          1 MOL1         0.0727
       6    H2      18.045455   19.897500   23.963630 H          1 MOL1         0.0727
       7    C3      18.765494   18.468828   22.486240 C.3        1 MOL1        -0.1910
       8    H3      18.086238   17.659967   22.789373 H          1 MOL1         0.0729
       9    H4      18.242576   19.020698   21.693630 H          1 MOL1         0.0729
      10    C4      20.065809   17.842588   21.918369 C.3        1 MOL1        -0.1909
      11    H5      19.827755   16.833083   21.556412 H          1 MOL1         0.0729
      12    H6      20.807498   17.704877   22.716955 H          1 MOL1         0.0729
      13    C5      20.696910   18.622946   20.739108 C.3        1 MOL1        -0.1884
      14    H7      21.557193   18.051341   20.364498 H          1 MOL1         0.0729
      15    H8      19.980244   18.679416   19.908203 H          1 MOL1         0.0729
      16    C6      21.170755   20.044693   21.104712 C.3        1 MOL1        -0.2899
      17    H9      21.831527   20.025988   21.981363 H          1 MOL1         0.0741
      18    H10     21.726783   20.490621   20.269992 H          1 MOL1         0.0741
      19    H11     20.319530   20.701354   21.322811 H          1 MOL1         0.0741
@<TRIPOS>BOND
    1     1     2    1
    2     1     3    2
    3     1     4    1
    4     4     5    1
    5     4     6    1
    6     4     7    1
    7     7     8    1
    8     7     9    1
    9     7    10    1
   10    10    11    1
   11    10    12    1
   12    10    13    1
   13    13    14    1
   14    13    15    1
   15    13    16    1
   16    16    17    1
   17    16    18    1
   18    16    19    1
@<TRIPOS>SUBSTRUCTURE
       1 MOL1            1 RESIDUE      1      MOL     
@<SCITEGIC>MOL_PROPERTY
VConf Rank
SciTegic.value.IntegerValue
394

@<SCITEGIC>MOL_PROPERTY
Conf_Id
SciTegic.value.IntegerValue
73

@<SCITEGIC>MOL_PROPERTY
Delta U+W
SciTegic.value.DoubleValue
3.707

@<SCITEGIC>MOL_PROPERTY
U+W
SciTegic.value.DoubleValue
-51.184

@<SCITEGIC>MOL_PROPERTY
Grad RMS
SciTegic.value.DoubleValue
0.000000

@<SCITEGIC>MOL_PROPERTY
U
SciTegic.value.DoubleValue
12.334

@<SCITEGIC>MOL_PROPERTY
W
SciTegic.value.DoubleValue
-63.519

@<SCITEGIC>MOL_PROPERTY
W(PB)
SciTegic.value.DoubleValue
-65.541

@<SCITEGIC>MOL_PROPERTY
W(SA)
SciTegic.value.DoubleValue
2.022

@<SCITEGIC>MOL_PROPERTY
Valence
SciTegic.value.DoubleValue
9.984

@<SCITEGIC>MOL_PROPERTY
Coulomb
SciTegic.value.DoubleValue
1.768

@<SCITEGIC>MOL_PROPERTY
VdW
SciTegic.value.DoubleValue
0.583

@<SCITEGIC>MOL_PROPERTY
VdW6
SciTegic.value.DoubleValue
-7.767

@<SCITEGIC>MOL_PROPERTY
VdW12
SciTegic.value.DoubleValue
8.350

@<SCITEGIC>MOL_PROPERTY
Bond
SciTegic.value.DoubleValue
0.203

@<SCITEGIC>MOL_PROPERTY
Angle
SciTegic.value.DoubleValue
3.192

@<SCITEGIC>MOL_PROPERTY
Pdih
SciTegic.value.DoubleValue
6.589

@<SCITEGIC>MOL_PROPERTY
Idih
SciTegic.value.DoubleValue
0.001

@<SCITEGIC>MOL_PROPERTY
Tether
SciTegic.value.DoubleValue
0.000

@<TRIPOS>MOLECULE
guest-7_confgen4.mol2 : confsearch ligand conformer 395
          19          18           1
SMALL
USER_CHARGES
 
@<TRIPOS>ATOM
       1    C1      20.615390   16.727842   23.314277 C.2        1 MOL1         0.6115
       2    O1      19.505655   16.274845   23.514265 O.co2      1 MOL1        -0.6776
       3    O2      21.563687   16.051571   22.967073 O.co2      1 MOL1        -0.6776
       4    C2      20.841064   18.220071   23.541538 C.3        1 MOL1        -0.2013
       5    H1      21.721635   18.322547   24.186335 H          1 MOL1         0.0727
       6    H2      19.993194   18.621858   24.108088 H          1 MOL1         0.0727
       7    C3      21.061586   19.034800   22.237752 C.3        1 MOL1        -0.1910
       8    H3      21.288603   20.077054   22.496664 H          1 MOL1         0.0729
       9    H4      21.955758   18.649005   21.729099 H          1 MOL1         0.0729
      10    C4      19.870212   18.991781   21.246354 C.3        1 MOL1        -0.1909
      11    H5      19.729508   17.958668   20.899998 H          1 MOL1         0.0729
      12    H6      20.133082   19.575898   20.353998 H          1 MOL1         0.0729
      13    C5      18.525442   19.514144   21.808448 C.3        1 MOL1        -0.1884
      14    H7      17.759437   19.418852   21.026749 H          1 MOL1         0.0729
      15    H8      18.190959   18.877701   22.638813 H          1 MOL1         0.0729
      16    C6      18.584993   20.986596   22.268896 C.3        1 MOL1        -0.2899
      17    H9      19.256695   21.108951   23.127824 H          1 MOL1         0.0741
      18    H10     18.938409   21.637470   21.458666 H          1 MOL1         0.0741
      19    H11     17.589321   21.334392   22.572983 H          1 MOL1         0.0741
@<TRIPOS>BOND
    1     1     2    1
    2     1     3    2
    3     1     4    1
    4     4     5    1
    5     4     6    1
    6     4     7    1
    7     7     8    1
    8     7     9    1
    9     7    10    1
   10    10    11    1
   11    10    12    1
   12    10    13    1
   13    13    14    1
   14    13    15    1
   15    13    16    1
   16    16    17    1
   17    16    18    1
   18    16    19    1
@<TRIPOS>SUBSTRUCTURE
       1 MOL1            1 RESIDUE      1      MOL     
@<SCITEGIC>MOL_PROPERTY
VConf Rank
SciTegic.value.IntegerValue
395

@<SCITEGIC>MOL_PROPERTY
Conf_Id
SciTegic.value.IntegerValue
56

@<SCITEGIC>MOL_PROPERTY
Delta U+W
SciTegic.value.DoubleValue
1.735

@<SCITEGIC>MOL_PROPERTY
U+W
SciTegic.value.DoubleValue
-53.156

@<SCITEGIC>MOL_PROPERTY
Grad RMS
SciTegic.value.DoubleValue
0.000000

@<SCITEGIC>MOL_PROPERTY
U
SciTegic.value.DoubleValue
10.214

@<SCITEGIC>MOL_PROPERTY
W
SciTegic.value.DoubleValue
-63.370

@<SCITEGIC>MOL_PROPERTY
W(PB)
SciTegic.value.DoubleValue
-65.388

@<SCITEGIC>MOL_PROPERTY
W(SA)
SciTegic.value.DoubleValue
2.018

@<SCITEGIC>MOL_PROPERTY
Valence
SciTegic.value.DoubleValue
7.868

@<SCITEGIC>MOL_PROPERTY
Coulomb
SciTegic.value.DoubleValue
1.968

@<SCITEGIC>MOL_PROPERTY
VdW
SciTegic.value.DoubleValue
0.378

@<SCITEGIC>MOL_PROPERTY
VdW6
SciTegic.value.DoubleValue
-8.067

@<SCITEGIC>MOL_PROPERTY
VdW12
SciTegic.value.DoubleValue
8.445

@<SCITEGIC>MOL_PROPERTY
Bond
SciTegic.value.DoubleValue
0.191

@<SCITEGIC>MOL_PROPERTY
Angle
SciTegic.value.DoubleValue
3.117

@<SCITEGIC>MOL_PROPERTY
Pdih
SciTegic.value.DoubleValue
4.559

@<SCITEGIC>MOL_PROPERTY
Idih
SciTegic.value.DoubleValue
0.001

@<SCITEGIC>MOL_PROPERTY
Tether
SciTegic.value.DoubleValue
0.000

@<TRIPOS>MOLECULE
guest-7_confgen4.mol2 : confsearch ligand conformer 396
          19          18           1
SMALL
USER_CHARGES
 
@<TRIPOS>ATOM
       1    C1      22.011415   17.273125   23.539860 C.2        1 MOL1         0.6115
       2    O1      21.832810   16.672913   24.581114 O.co2      1 MOL1        -0.6776
       3    O2      23.101442   17.407409   23.020067 O.co2      1 MOL1        -0.6776
       4    C2      20.805017   17.910737   22.859940 C.3        1 MOL1        -0.2013
       5    H1      19.924515   17.295082   23.079178 H          1 MOL1         0.0727
       6    H2      20.974990   17.871077   21.778253 H          1 MOL1         0.0727
       7    C3      20.563169   19.372679   23.312940 C.3        1 MOL1        -0.1910
       8    H3      20.538893   19.400865   24.411128 H          1 MOL1         0.0729
       9    H4      21.418354   19.991694   23.008517 H          1 MOL1         0.0729
      10    C4      19.251161   19.998860   22.777190 C.3        1 MOL1        -0.1909
      11    H5      19.167032   21.006617   23.206515 H          1 MOL1         0.0729
      12    H6      18.384252   19.440076   23.155646 H          1 MOL1         0.0729
      13    C5      19.176701   20.124480   21.235184 C.3        1 MOL1        -0.1884
      14    H7      18.642862   21.051560   20.984425 H          1 MOL1         0.0729
      15    H8      20.185296   20.229001   20.811960 H          1 MOL1         0.0729
      16    C6      18.432250   18.949656   20.562646 C.3        1 MOL1        -0.2899
      17    H9      18.391323   19.093903   19.475267 H          1 MOL1         0.0741
      18    H10     18.925006   17.989861   20.753968 H          1 MOL1         0.0741
      19    H11     17.400335   18.879902   20.930636 H          1 MOL1         0.0741
@<TRIPOS>BOND
    1     1     2    1
    2     1     3    2
    3     1     4    1
    4     4     5    1
    5     4     6    1
    6     4     7    1
    7     7     8    1
    8     7     9    1
    9     7    10    1
   10    10    11    1
   11    10    12    1
   12    10    13    1
   13    13    14    1
   14    13    15    1
   15    13    16    1
   16    16    17    1
   17    16    18    1
   18    16    19    1
@<TRIPOS>SUBSTRUCTURE
       1 MOL1            1 RESIDUE      1      MOL     
@<SCITEGIC>MOL_PROPERTY
VConf Rank
SciTegic.value.IntegerValue
396

@<SCITEGIC>MOL_PROPERTY
Conf_Id
SciTegic.value.IntegerValue
53

@<SCITEGIC>MOL_PROPERTY
Delta U+W
SciTegic.value.DoubleValue
2.279

@<SCITEGIC>MOL_PROPERTY
U+W
SciTegic.value.DoubleValue
-52.612

@<SCITEGIC>MOL_PROPERTY
Grad RMS
SciTegic.value.DoubleValue
0.000000

@<SCITEGIC>MOL_PROPERTY
U
SciTegic.value.DoubleValue
10.231

@<SCITEGIC>MOL_PROPERTY
W
SciTegic.value.DoubleValue
-62.843

@<SCITEGIC>MOL_PROPERTY
W(PB)
SciTegic.value.DoubleValue
-64.893

@<SCITEGIC>MOL_PROPERTY
W(SA)
SciTegic.value.DoubleValue
2.050

@<SCITEGIC>MOL_PROPERTY
Valence
SciTegic.value.DoubleValue
9.644

@<SCITEGIC>MOL_PROPERTY
Coulomb
SciTegic.value.DoubleValue
-0.164

@<SCITEGIC>MOL_PROPERTY
VdW
SciTegic.value.DoubleValue
0.751

@<SCITEGIC>MOL_PROPERTY
VdW6
SciTegic.value.DoubleValue
-6.881

@<SCITEGIC>MOL_PROPERTY
VdW12
SciTegic.value.DoubleValue
7.631

@<SCITEGIC>MOL_PROPERTY
Bond
SciTegic.value.DoubleValue
0.163

@<SCITEGIC>MOL_PROPERTY
Angle
SciTegic.value.DoubleValue
2.998

@<SCITEGIC>MOL_PROPERTY
Pdih
SciTegic.value.DoubleValue
6.482

@<SCITEGIC>MOL_PROPERTY
Idih
SciTegic.value.DoubleValue
0.001

@<SCITEGIC>MOL_PROPERTY
Tether
SciTegic.value.DoubleValue
0.000

@<TRIPOS>MOLECULE
guest-7_confgen4.mol2 : confsearch ligand conformer 397
          19          18           1
SMALL
USER_CHARGES
 
@<TRIPOS>ATOM
       1    C1      19.172543   17.001186   23.613344 C.2        1 MOL1         0.6115
       2    O1      19.030096   16.194139   22.715994 O.co2      1 MOL1        -0.6776
       3    O2      18.258441   17.395448   24.310640 O.co2      1 MOL1        -0.6776
       4    C2      20.585777   17.490589   23.924368 C.3        1 MOL1        -0.2013
       5    H1      21.291503   16.998898   23.243844 H          1 MOL1         0.0727
       6    H2      20.821324   17.131667   24.932989 H          1 MOL1         0.0727
       7    C3      20.779676   19.032484   23.878672 C.3        1 MOL1        -0.1910
       8    H3      19.946062   19.530331   24.393239 H          1 MOL1         0.0729
       9    H4      21.680894   19.277813   24.456631 H          1 MOL1         0.0729
      10    C4      20.955703   19.623260   22.457872 C.3        1 MOL1        -0.1909
      11    H5      21.794801   19.126391   21.952035 H          1 MOL1         0.0729
      12    H6      21.238801   20.679926   22.559478 H          1 MOL1         0.0729
      13    C5      19.690648   19.531908   21.576473 C.3        1 MOL1        -0.1884
      14    H7      19.463911   18.482170   21.350540 H          1 MOL1         0.0729
      15    H8      18.826949   19.937494   22.121377 H          1 MOL1         0.0729
      16    C6      19.868620   20.298895   20.250617 C.3        1 MOL1        -0.2899
      17    H9      20.711242   19.895159   19.674125 H          1 MOL1         0.0741
      18    H10     18.964941   20.217008   19.632794 H          1 MOL1         0.0741
      19    H11     20.057664   21.364591   20.434657 H          1 MOL1         0.0741
@<TRIPOS>BOND
    1     1     2    1
    2     1     3    2
    3     1     4    1
    4     4     5    1
    5     4     6    1
    6     4     7    1
    7     7     8    1
    8     7     9    1
    9     7    10    1
   10    10    11    1
   11    10    12    1
   12    10    13    1
   13    13    14    1
   14    13    15    1
   15    13    16    1
   16    16    17    1
   17    16    18    1
   18    16    19    1
@<TRIPOS>SUBSTRUCTURE
       1 MOL1            1 RESIDUE      1      MOL     
@<SCITEGIC>MOL_PROPERTY
VConf Rank
SciTegic.value.IntegerValue
397

@<SCITEGIC>MOL_PROPERTY
Conf_Id
SciTegic.value.IntegerValue
25

@<SCITEGIC>MOL_PROPERTY
Delta U+W
SciTegic.value.DoubleValue
2.065

@<SCITEGIC>MOL_PROPERTY
U+W
SciTegic.value.DoubleValue
-52.826

@<SCITEGIC>MOL_PROPERTY
Grad RMS
SciTegic.value.DoubleValue
0.000000

@<SCITEGIC>MOL_PROPERTY
U
SciTegic.value.DoubleValue
10.967

@<SCITEGIC>MOL_PROPERTY
W
SciTegic.value.DoubleValue
-63.794

@<SCITEGIC>MOL_PROPERTY
W(PB)
SciTegic.value.DoubleValue
-65.830

@<SCITEGIC>MOL_PROPERTY
W(SA)
SciTegic.value.DoubleValue
2.036

@<SCITEGIC>MOL_PROPERTY
Valence
SciTegic.value.DoubleValue
8.609

@<SCITEGIC>MOL_PROPERTY
Coulomb
SciTegic.value.DoubleValue
1.892

@<SCITEGIC>MOL_PROPERTY
VdW
SciTegic.value.DoubleValue
0.467

@<SCITEGIC>MOL_PROPERTY
VdW6
SciTegic.value.DoubleValue
-7.569

@<SCITEGIC>MOL_PROPERTY
VdW12
SciTegic.value.DoubleValue
8.036

@<SCITEGIC>MOL_PROPERTY
Bond
SciTegic.value.DoubleValue
0.170

@<SCITEGIC>MOL_PROPERTY
Angle
SciTegic.value.DoubleValue
3.195

@<SCITEGIC>MOL_PROPERTY
Pdih
SciTegic.value.DoubleValue
5.237

@<SCITEGIC>MOL_PROPERTY
Idih
SciTegic.value.DoubleValue
0.007

@<SCITEGIC>MOL_PROPERTY
Tether
SciTegic.value.DoubleValue
0.000

@<TRIPOS>MOLECULE
guest-7_confgen4.mol2 : confsearch ligand conformer 398
          19          18           1
SMALL
USER_CHARGES
 
@<TRIPOS>ATOM
       1    C1      20.860970   20.887461   21.437304 C.2        1 MOL1         0.6115
       2    O1      20.844670   21.781650   22.260353 O.co2      1 MOL1        -0.6776
       3    O2      20.219422   20.915440   20.405565 O.co2      1 MOL1        -0.6776
       4    C2      21.788868   19.697827   21.676596 C.3        1 MOL1        -0.2013
       5    H1      22.809069   20.098806   21.682071 H          1 MOL1         0.0727
       6    H2      21.724259   19.016818   20.819288 H          1 MOL1         0.0727
       7    C3      21.544325   18.920714   23.000765 C.3        1 MOL1        -0.1910
       8    H3      22.457491   18.357810   23.236741 H          1 MOL1         0.0729
       9    H4      21.402909   19.628123   23.829690 H          1 MOL1         0.0729
      10    C4      20.368504   17.913707   22.955364 C.3        1 MOL1        -0.1909
      11    H5      20.391106   17.319629   23.879253 H          1 MOL1         0.0729
      12    H6      20.519830   17.205382   22.129402 H          1 MOL1         0.0729
      13    C5      18.978321   18.573965   22.824881 C.3        1 MOL1        -0.1884
      14    H7      18.863755   19.355107   23.589137 H          1 MOL1         0.0729
      15    H8      18.884416   19.064396   21.847605 H          1 MOL1         0.0729
      16    C6      17.844685   17.539211   22.973165 C.3        1 MOL1        -0.2899
      17    H9      16.864575   18.022613   22.869472 H          1 MOL1         0.0741
      18    H10     17.921682   16.760194   22.203385 H          1 MOL1         0.0741
      19    H11     17.880686   17.054197   23.957433 H          1 MOL1         0.0741
@<TRIPOS>BOND
    1     1     2    1
    2     1     3    2
    3     1     4    1
    4     4     5    1
    5     4     6    1
    6     4     7    1
    7     7     8    1
    8     7     9    1
    9     7    10    1
   10    10    11    1
   11    10    12    1
   12    10    13    1
   13    13    14    1
   14    13    15    1
   15    13    16    1
   16    16    17    1
   17    16    18    1
   18    16    19    1
@<TRIPOS>SUBSTRUCTURE
       1 MOL1            1 RESIDUE      1      MOL     
@<SCITEGIC>MOL_PROPERTY
VConf Rank
SciTegic.value.IntegerValue
398

@<SCITEGIC>MOL_PROPERTY
Conf_Id
SciTegic.value.IntegerValue
52

@<SCITEGIC>MOL_PROPERTY
Delta U+W
SciTegic.value.DoubleValue
2.070

@<SCITEGIC>MOL_PROPERTY
U+W
SciTegic.value.DoubleValue
-52.822

@<SCITEGIC>MOL_PROPERTY
Grad RMS
SciTegic.value.DoubleValue
0.000000

@<SCITEGIC>MOL_PROPERTY
U
SciTegic.value.DoubleValue
10.967

@<SCITEGIC>MOL_PROPERTY
W
SciTegic.value.DoubleValue
-63.789

@<SCITEGIC>MOL_PROPERTY
W(PB)
SciTegic.value.DoubleValue
-65.837

@<SCITEGIC>MOL_PROPERTY
W(SA)
SciTegic.value.DoubleValue
2.048

@<SCITEGIC>MOL_PROPERTY
Valence
SciTegic.value.DoubleValue
8.609

@<SCITEGIC>MOL_PROPERTY
Coulomb
SciTegic.value.DoubleValue
1.892

@<SCITEGIC>MOL_PROPERTY
VdW
SciTegic.value.DoubleValue
0.467

@<SCITEGIC>MOL_PROPERTY
VdW6
SciTegic.value.DoubleValue
-7.569

@<SCITEGIC>MOL_PROPERTY
VdW12
SciTegic.value.DoubleValue
8.035

@<SCITEGIC>MOL_PROPERTY
Bond
SciTegic.value.DoubleValue
0.170

@<SCITEGIC>MOL_PROPERTY
Angle
SciTegic.value.DoubleValue
3.196

@<SCITEGIC>MOL_PROPERTY
Pdih
SciTegic.value.DoubleValue
5.237

@<SCITEGIC>MOL_PROPERTY
Idih
SciTegic.value.DoubleValue
0.007

@<SCITEGIC>MOL_PROPERTY
Tether
SciTegic.value.DoubleValue
0.000

@<TRIPOS>MOLECULE
guest-7_confgen4.mol2 : confsearch ligand conformer 399
          19          18           1
SMALL
USER_CHARGES
 
@<TRIPOS>ATOM
       1    C1      21.685541   19.896279   22.187995 C.2        1 MOL1         0.6115
       2    O1      22.372060   19.157096   21.509457 O.co2      1 MOL1        -0.6776
       3    O2      21.441261   21.046100   21.879875 O.co2      1 MOL1        -0.6776
       4    C2      21.207861   19.405077   23.555447 C.3        1 MOL1        -0.2013
       5    H1      20.486008   20.123934   23.961293 H          1 MOL1         0.0727
       6    H2      22.084657   19.438665   24.212239 H          1 MOL1         0.0727
       7    C3      20.611570   17.968835   23.587323 C.3        1 MOL1        -0.1910
       8    H3      21.207626   17.300524   22.950645 H          1 MOL1         0.0729
       9    H4      20.720695   17.581122   24.609148 H          1 MOL1         0.0729
      10    C4      19.112587   17.862533   23.206628 C.3        1 MOL1        -0.1909
      11    H5      18.504903   18.452075   23.906769 H          1 MOL1         0.0729
      12    H6      18.807665   16.817954   23.357772 H          1 MOL1         0.0729
      13    C5      18.779342   18.251558   21.745945 C.3        1 MOL1        -0.1884
      14    H7      19.671489   18.160544   21.111007 H          1 MOL1         0.0729
      15    H8      18.047684   17.535844   21.346472 H          1 MOL1         0.0729
      16    C6      18.178483   19.668608   21.627372 C.3        1 MOL1        -0.2899
      17    H9      17.232093   19.739807   22.178927 H          1 MOL1         0.0741
      18    H10     18.860451   20.428869   22.025683 H          1 MOL1         0.0741
      19    H11     17.976754   19.914803   20.576985 H          1 MOL1         0.0741
@<TRIPOS>BOND
    1     1     2    1
    2     1     3    2
    3     1     4    1
    4     4     5    1
    5     4     6    1
    6     4     7    1
    7     7     8    1
    8     7     9    1
    9     7    10    1
   10    10    11    1
   11    10    12    1
   12    10    13    1
   13    13    14    1
   14    13    15    1
   15    13    16    1
   16    16    17    1
   17    16    18    1
   18    16    19    1
@<TRIPOS>SUBSTRUCTURE
       1 MOL1            1 RESIDUE      1      MOL     
@<SCITEGIC>MOL_PROPERTY
VConf Rank
SciTegic.value.IntegerValue
399

@<SCITEGIC>MOL_PROPERTY
Conf_Id
SciTegic.value.IntegerValue
66

@<SCITEGIC>MOL_PROPERTY
Delta U+W
SciTegic.value.DoubleValue
5.819

@<SCITEGIC>MOL_PROPERTY
U+W
SciTegic.value.DoubleValue
-49.072

@<SCITEGIC>MOL_PROPERTY
Grad RMS
SciTegic.value.DoubleValue
0.000000

@<SCITEGIC>MOL_PROPERTY
U
SciTegic.value.DoubleValue
15.324

@<SCITEGIC>MOL_PROPERTY
W
SciTegic.value.DoubleValue
-64.396

@<SCITEGIC>MOL_PROPERTY
W(PB)
SciTegic.value.DoubleValue
-66.382

@<SCITEGIC>MOL_PROPERTY
W(SA)
SciTegic.value.DoubleValue
1.986

@<SCITEGIC>MOL_PROPERTY
Valence
SciTegic.value.DoubleValue
11.748

@<SCITEGIC>MOL_PROPERTY
Coulomb
SciTegic.value.DoubleValue
3.201

@<SCITEGIC>MOL_PROPERTY
VdW
SciTegic.value.DoubleValue
0.375

@<SCITEGIC>MOL_PROPERTY
VdW6
SciTegic.value.DoubleValue
-8.854

@<SCITEGIC>MOL_PROPERTY
VdW12
SciTegic.value.DoubleValue
9.229

@<SCITEGIC>MOL_PROPERTY
Bond
SciTegic.value.DoubleValue
0.216

@<SCITEGIC>MOL_PROPERTY
Angle
SciTegic.value.DoubleValue
3.812

@<SCITEGIC>MOL_PROPERTY
Pdih
SciTegic.value.DoubleValue
7.699

@<SCITEGIC>MOL_PROPERTY
Idih
SciTegic.value.DoubleValue
0.022

@<SCITEGIC>MOL_PROPERTY
Tether
SciTegic.value.DoubleValue
0.000

@<TRIPOS>MOLECULE
guest-7_confgen4.mol2 : confsearch ligand conformer 400
          19          18           1
SMALL
USER_CHARGES
 
@<TRIPOS>ATOM
       1    C1      19.398556   19.320397   25.474750 C.2        1 MOL1         0.6115
       2    O1      18.516326   19.220579   26.303826 O.co2      1 MOL1        -0.6776
       3    O2      20.528374   19.676891   25.747825 O.co2      1 MOL1        -0.6776
       4    C2      19.039943   18.974683   24.028529 C.3        1 MOL1        -0.2013
       5    H1      18.205314   19.622084   23.734733 H          1 MOL1         0.0727
       6    H2      18.664663   17.944552   24.021842 H          1 MOL1         0.0727
       7    C3      20.198619   19.116935   23.005950 C.3        1 MOL1        -0.1910
       8    H3      20.573890   20.149596   23.021762 H          1 MOL1         0.0729
       9    H4      21.033739   18.470345   23.309206 H          1 MOL1         0.0729
      10    C4      19.749898   18.749119   21.574998 C.3        1 MOL1        -0.1909
      11    H5      18.914861   19.396594   21.273936 H          1 MOL1         0.0729
      12    H6      19.375002   17.716442   21.561509 H          1 MOL1         0.0729
      13    C5      20.903174   18.891247   20.560035 C.3        1 MOL1        -0.1884
      14    H7      21.279759   19.923522   20.569165 H          1 MOL1         0.0729
      15    H8      21.739793   18.243487   20.856631 H          1 MOL1         0.0729
      16    C6      20.451611   18.523349   19.132544 C.3        1 MOL1        -0.2899
      17    H9      19.635596   19.177239   18.797927 H          1 MOL1         0.0741
      18    H10     21.283467   18.629915   18.424188 H          1 MOL1         0.0741
      19    H11     20.099071   17.484545   19.087558 H          1 MOL1         0.0741
@<TRIPOS>BOND
    1     1     2    1
    2     1     3    2
    3     1     4    1
    4     4     5    1
    5     4     6    1
    6     4     7    1
    7     7     8    1
    8     7     9    1
    9     7    10    1
   10    10    11    1
   11    10    12    1
   12    10    13    1
   13    13    14    1
   14    13    15    1
   15    13    16    1
   16    16    17    1
   17    16    18    1
   18    16    19    1
@<TRIPOS>SUBSTRUCTURE
       1 MOL1            1 RESIDUE      1      MOL     
@<SCITEGIC>MOL_PROPERTY
VConf Rank
SciTegic.value.IntegerValue
400

@<SCITEGIC>MOL_PROPERTY
Conf_Id
SciTegic.value.IntegerValue
0

@<SCITEGIC>MOL_PROPERTY
Delta U+W
SciTegic.value.DoubleValue
0.000

@<SCITEGIC>MOL_PROPERTY
U+W
SciTegic.value.DoubleValue
-54.891

@<SCITEGIC>MOL_PROPERTY
Grad RMS
SciTegic.value.DoubleValue
0.000000

@<SCITEGIC>MOL_PROPERTY
U
SciTegic.value.DoubleValue
6.966

@<SCITEGIC>MOL_PROPERTY
W
SciTegic.value.DoubleValue
-61.857

@<SCITEGIC>MOL_PROPERTY
W(PB)
SciTegic.value.DoubleValue
-63.965

@<SCITEGIC>MOL_PROPERTY
W(SA)
SciTegic.value.DoubleValue
2.108

@<SCITEGIC>MOL_PROPERTY
Valence
SciTegic.value.DoubleValue
7.175

@<SCITEGIC>MOL_PROPERTY
Coulomb
SciTegic.value.DoubleValue
-1.360

@<SCITEGIC>MOL_PROPERTY
VdW
SciTegic.value.DoubleValue
1.151

@<SCITEGIC>MOL_PROPERTY
VdW6
SciTegic.value.DoubleValue
-5.641

@<SCITEGIC>MOL_PROPERTY
VdW12
SciTegic.value.DoubleValue
6.792

@<SCITEGIC>MOL_PROPERTY
Bond
SciTegic.value.DoubleValue
0.119

@<SCITEGIC>MOL_PROPERTY
Angle
SciTegic.value.DoubleValue
2.715

@<SCITEGIC>MOL_PROPERTY
Pdih
SciTegic.value.DoubleValue
4.340

@<SCITEGIC>MOL_PROPERTY
Idih
SciTegic.value.DoubleValue
0.000

@<SCITEGIC>MOL_PROPERTY
Tether
SciTegic.value.DoubleValue
0.000

@<TRIPOS>MOLECULE
guest-7_confgen4.mol2 : confsearch ligand conformer 401
          19          18           1
SMALL
USER_CHARGES
 
@<TRIPOS>ATOM
       1    C1      20.021613   17.183222   25.045035 C.2        1 MOL1         0.6115
       2    O1      19.156054   17.472121   25.847235 O.co2      1 MOL1        -0.6776
       3    O2      20.519775   16.078192   24.961813 O.co2      1 MOL1        -0.6776
       4    C2      20.494083   18.261094   24.075841 C.3        1 MOL1        -0.2013
       5    H1      21.553324   18.081183   23.855882 H          1 MOL1         0.0727
       6    H2      20.428957   19.230026   24.585422 H          1 MOL1         0.0727
       7    C3      19.673593   18.291859   22.762843 C.3        1 MOL1        -0.1910
       8    H3      19.738570   17.311168   22.271344 H          1 MOL1         0.0729
       9    H4      18.614063   18.459926   23.000959 H          1 MOL1         0.0729
      10    C4      20.171463   19.390968   21.799664 C.3        1 MOL1        -0.1909
      11    H5      21.231207   19.220963   21.564648 H          1 MOL1         0.0729
      12    H6      20.106440   20.369884   22.294322 H          1 MOL1         0.0729
      13    C5      19.352349   19.419238   20.492519 C.3        1 MOL1        -0.1884
      14    H7      19.416465   18.442206   19.993730 H          1 MOL1         0.0729
      15    H8      18.291835   19.591098   20.723314 H          1 MOL1         0.0729
      16    C6      19.852206   20.517755   19.533165 C.3        1 MOL1        -0.2899
      17    H9      19.259116   20.523762   18.609414 H          1 MOL1         0.0741
      18    H10     19.769735   21.510214   19.995386 H          1 MOL1         0.0741
      19    H11     20.902811   20.352722   19.260371 H          1 MOL1         0.0741
@<TRIPOS>BOND
    1     1     2    1
    2     1     3    2
    3     1     4    1
    4     4     5    1
    5     4     6    1
    6     4     7    1
    7     7     8    1
    8     7     9    1
    9     7    10    1
   10    10    11    1
   11    10    12    1
   12    10    13    1
   13    13    14    1
   14    13    15    1
   15    13    16    1
   16    16    17    1
   17    16    18    1
   18    16    19    1
@<TRIPOS>SUBSTRUCTURE
       1 MOL1            1 RESIDUE      1      MOL     
@<SCITEGIC>MOL_PROPERTY
VConf Rank
SciTegic.value.IntegerValue
401

@<SCITEGIC>MOL_PROPERTY
Conf_Id
SciTegic.value.IntegerValue
18

@<SCITEGIC>MOL_PROPERTY
Delta U+W
SciTegic.value.DoubleValue
-1.199

@<SCITEGIC>MOL_PROPERTY
U+W
SciTegic.value.DoubleValue
-56.090

@<SCITEGIC>MOL_PROPERTY
Grad RMS
SciTegic.value.DoubleValue
0.000000

@<SCITEGIC>MOL_PROPERTY
U
SciTegic.value.DoubleValue
5.975

@<SCITEGIC>MOL_PROPERTY
W
SciTegic.value.DoubleValue
-62.066

@<SCITEGIC>MOL_PROPERTY
W(PB)
SciTegic.value.DoubleValue
-64.219

@<SCITEGIC>MOL_PROPERTY
W(SA)
SciTegic.value.DoubleValue
2.153

@<SCITEGIC>MOL_PROPERTY
Valence
SciTegic.value.DoubleValue
6.673

@<SCITEGIC>MOL_PROPERTY
Coulomb
SciTegic.value.DoubleValue
-1.307

@<SCITEGIC>MOL_PROPERTY
VdW
SciTegic.value.DoubleValue
0.610

@<SCITEGIC>MOL_PROPERTY
VdW6
SciTegic.value.DoubleValue
-5.351

@<SCITEGIC>MOL_PROPERTY
VdW12
SciTegic.value.DoubleValue
5.961

@<SCITEGIC>MOL_PROPERTY
Bond
SciTegic.value.DoubleValue
0.086

@<SCITEGIC>MOL_PROPERTY
Angle
SciTegic.value.DoubleValue
2.253

@<SCITEGIC>MOL_PROPERTY
Pdih
SciTegic.value.DoubleValue
4.333

@<SCITEGIC>MOL_PROPERTY
Idih
SciTegic.value.DoubleValue
0.001

@<SCITEGIC>MOL_PROPERTY
Tether
SciTegic.value.DoubleValue
0.000

@<TRIPOS>MOLECULE
guest-7_confgen4.mol2 : confsearch ligand conformer 402
          19          18           1
SMALL
USER_CHARGES
 
@<TRIPOS>ATOM
       1    C1      22.665381   19.356754   23.902382 C.2        1 MOL1         0.6115
       2    O1      22.778963   19.029644   25.067022 O.co2      1 MOL1        -0.6776
       3    O2      23.610009   19.581281   23.171953 O.co2      1 MOL1        -0.6776
       4    C2      21.261032   19.470938   23.320035 C.3        1 MOL1        -0.2013
       5    H1      21.276467   20.265996   22.566054 H          1 MOL1         0.0727
       6    H2      20.585755   19.794804   24.121047 H          1 MOL1         0.0727
       7    C3      20.757727   18.140761   22.701574 C.3        1 MOL1        -0.1910
       8    H3      21.416374   17.849543   21.871703 H          1 MOL1         0.0729
       9    H4      20.841242   17.347119   23.456942 H          1 MOL1         0.0729
      10    C4      19.292499   18.203840   22.208965 C.3        1 MOL1        -0.1909
      11    H5      18.635634   18.486908   23.042876 H          1 MOL1         0.0729
      12    H6      18.984992   17.195485   21.899654 H          1 MOL1         0.0729
      13    C5      19.082947   19.177138   21.027318 C.3        1 MOL1        -0.1884
      14    H7      19.312533   20.204857   21.337872 H          1 MOL1         0.0729
      15    H8      19.775778   18.925567   20.212477 H          1 MOL1         0.0729
      16    C6      17.634316   19.124243   20.502016 C.3        1 MOL1        -0.2899
      17    H9      17.500543   19.822532   19.665603 H          1 MOL1         0.0741
      18    H10     17.381615   18.116903   20.145937 H          1 MOL1         0.0741
      19    H11     16.920841   19.398550   21.290124 H          1 MOL1         0.0741
@<TRIPOS>BOND
    1     1     2    1
    2     1     3    2
    3     1     4    1
    4     4     5    1
    5     4     6    1
    6     4     7    1
    7     7     8    1
    8     7     9    1
    9     7    10    1
   10    10    11    1
   11    10    12    1
   12    10    13    1
   13    13    14    1
   14    13    15    1
   15    13    16    1
   16    16    17    1
   17    16    18    1
   18    16    19    1
@<TRIPOS>SUBSTRUCTURE
       1 MOL1            1 RESIDUE      1      MOL     
@<SCITEGIC>MOL_PROPERTY
VConf Rank
SciTegic.value.IntegerValue
402

@<SCITEGIC>MOL_PROPERTY
Conf_Id
SciTegic.value.IntegerValue
34

@<SCITEGIC>MOL_PROPERTY
Delta U+W
SciTegic.value.DoubleValue
-0.563

@<SCITEGIC>MOL_PROPERTY
U+W
SciTegic.value.DoubleValue
-55.455

@<SCITEGIC>MOL_PROPERTY
Grad RMS
SciTegic.value.DoubleValue
0.000000

@<SCITEGIC>MOL_PROPERTY
U
SciTegic.value.DoubleValue
6.914

@<SCITEGIC>MOL_PROPERTY
W
SciTegic.value.DoubleValue
-62.369

@<SCITEGIC>MOL_PROPERTY
W(PB)
SciTegic.value.DoubleValue
-64.446

@<SCITEGIC>MOL_PROPERTY
W(SA)
SciTegic.value.DoubleValue
2.077

@<SCITEGIC>MOL_PROPERTY
Valence
SciTegic.value.DoubleValue
7.196

@<SCITEGIC>MOL_PROPERTY
Coulomb
SciTegic.value.DoubleValue
-1.020

@<SCITEGIC>MOL_PROPERTY
VdW
SciTegic.value.DoubleValue
0.738

@<SCITEGIC>MOL_PROPERTY
VdW6
SciTegic.value.DoubleValue
-6.010

@<SCITEGIC>MOL_PROPERTY
VdW12
SciTegic.value.DoubleValue
6.748

@<SCITEGIC>MOL_PROPERTY
Bond
SciTegic.value.DoubleValue
0.126

@<SCITEGIC>MOL_PROPERTY
Angle
SciTegic.value.DoubleValue
2.499

@<SCITEGIC>MOL_PROPERTY
Pdih
SciTegic.value.DoubleValue
4.570

@<SCITEGIC>MOL_PROPERTY
Idih
SciTegic.value.DoubleValue
0.001

@<SCITEGIC>MOL_PROPERTY
Tether
SciTegic.value.DoubleValue
0.000

@<TRIPOS>MOLECULE
guest-7_confgen4.mol2 : confsearch ligand conformer 403
          19          18           1
SMALL
USER_CHARGES
 
@<TRIPOS>ATOM
       1    C1      19.162143   18.650925   19.087832 C.2        1 MOL1         0.6115
       2    O1      18.215452   19.225451   18.587845 O.co2      1 MOL1        -0.6776
       3    O2      19.705211   17.686998   18.585653 O.co2      1 MOL1        -0.6776
       4    C2      19.683007   19.153720   20.429568 C.3        1 MOL1        -0.2013
       5    H1      19.527168   20.238417   20.470284 H          1 MOL1         0.0727
       6    H2      20.764576   18.979184   20.453854 H          1 MOL1         0.0727
       7    C3      18.991474   18.468503   21.636813 C.3        1 MOL1        -0.1910
       8    H3      17.903816   18.584881   21.532514 H          1 MOL1         0.0729
       9    H4      19.191753   17.388469   21.609927 H          1 MOL1         0.0729
      10    C4      19.422709   19.046445   23.005587 C.3        1 MOL1        -0.1909
      11    H5      18.801454   18.589714   23.788181 H          1 MOL1         0.0729
      12    H6      19.213335   20.124616   23.032397 H          1 MOL1         0.0729
      13    C5      20.911156   18.796512   23.336600 C.3        1 MOL1        -0.1884
      14    H7      21.132796   17.723074   23.259945 H          1 MOL1         0.0729
      15    H8      21.552488   19.309387   22.607891 H          1 MOL1         0.0729
      16    C6      21.265890   19.292464   24.752743 C.3        1 MOL1        -0.2899
      17    H9      21.079544   20.370130   24.849268 H          1 MOL1         0.0741
      18    H10     20.668948   18.771650   25.512875 H          1 MOL1         0.0741
      19    H11     22.326128   19.110801   24.971795 H          1 MOL1         0.0741
@<TRIPOS>BOND
    1     1     2    1
    2     1     3    2
    3     1     4    1
    4     4     5    1
    5     4     6    1
    6     4     7    1
    7     7     8    1
    8     7     9    1
    9     7    10    1
   10    10    11    1
   11    10    12    1
   12    10    13    1
   13    13    14    1
   14    13    15    1
   15    13    16    1
   16    16    17    1
   17    16    18    1
   18    16    19    1
@<TRIPOS>SUBSTRUCTURE
       1 MOL1            1 RESIDUE      1      MOL     
@<SCITEGIC>MOL_PROPERTY
VConf Rank
SciTegic.value.IntegerValue
403

@<SCITEGIC>MOL_PROPERTY
Conf_Id
SciTegic.value.IntegerValue
33

@<SCITEGIC>MOL_PROPERTY
Delta U+W
SciTegic.value.DoubleValue
-0.526

@<SCITEGIC>MOL_PROPERTY
U+W
SciTegic.value.DoubleValue
-55.418

@<SCITEGIC>MOL_PROPERTY
Grad RMS
SciTegic.value.DoubleValue
0.000000

@<SCITEGIC>MOL_PROPERTY
U
SciTegic.value.DoubleValue
6.914

@<SCITEGIC>MOL_PROPERTY
W
SciTegic.value.DoubleValue
-62.332

@<SCITEGIC>MOL_PROPERTY
W(PB)
SciTegic.value.DoubleValue
-64.421

@<SCITEGIC>MOL_PROPERTY
W(SA)
SciTegic.value.DoubleValue
2.090

@<SCITEGIC>MOL_PROPERTY
Valence
SciTegic.value.DoubleValue
7.196

@<SCITEGIC>MOL_PROPERTY
Coulomb
SciTegic.value.DoubleValue
-1.020

@<SCITEGIC>MOL_PROPERTY
VdW
SciTegic.value.DoubleValue
0.738

@<SCITEGIC>MOL_PROPERTY
VdW6
SciTegic.value.DoubleValue
-6.010

@<SCITEGIC>MOL_PROPERTY
VdW12
SciTegic.value.DoubleValue
6.748

@<SCITEGIC>MOL_PROPERTY
Bond
SciTegic.value.DoubleValue
0.126

@<SCITEGIC>MOL_PROPERTY
Angle
SciTegic.value.DoubleValue
2.499

@<SCITEGIC>MOL_PROPERTY
Pdih
SciTegic.value.DoubleValue
4.570

@<SCITEGIC>MOL_PROPERTY
Idih
SciTegic.value.DoubleValue
0.001

@<SCITEGIC>MOL_PROPERTY
Tether
SciTegic.value.DoubleValue
0.000

@<TRIPOS>MOLECULE
guest-7_confgen4.mol2 : confsearch ligand conformer 404
          19          18           1
SMALL
USER_CHARGES
 
@<TRIPOS>ATOM
       1    C1      22.399393   17.018013   21.972377 C.2        1 MOL1         0.6115
       2    O1      23.286863   17.572074   21.354613 O.co2      1 MOL1        -0.6776
       3    O2      22.598969   16.242146   22.885856 O.co2      1 MOL1        -0.6776
       4    C2      20.955594   17.326676   21.592018 C.3        1 MOL1        -0.2013
       5    H1      20.356184   16.426002   21.771382 H          1 MOL1         0.0727
       6    H2      20.922511   17.528931   20.514648 H          1 MOL1         0.0727
       7    C3      20.368778   18.525081   22.378093 C.3        1 MOL1        -0.1910
       8    H3      20.417600   18.311500   23.454773 H          1 MOL1         0.0729
       9    H4      20.994921   19.408923   22.198129 H          1 MOL1         0.0729
      10    C4      18.906339   18.817495   21.970139 C.3        1 MOL1        -0.1909
      11    H5      18.311809   17.901402   22.089723 H          1 MOL1         0.0729
      12    H6      18.864342   19.079028   20.903910 H          1 MOL1         0.0729
      13    C5      18.249361   19.941383   22.804313 C.3        1 MOL1        -0.1884
      14    H7      17.185970   20.004533   22.535140 H          1 MOL1         0.0729
      15    H8      18.284443   19.680798   23.871173 H          1 MOL1         0.0729
      16    C6      18.900065   21.324377   22.585765 C.3        1 MOL1        -0.2899
      17    H9      18.902834   21.593558   21.521485 H          1 MOL1         0.0741
      18    H10     18.344654   22.099846   23.129003 H          1 MOL1         0.0741
      19    H11     19.935361   21.342049   22.948522 H          1 MOL1         0.0741
@<TRIPOS>BOND
    1     1     2    1
    2     1     3    2
    3     1     4    1
    4     4     5    1
    5     4     6    1
    6     4     7    1
    7     7     8    1
    8     7     9    1
    9     7    10    1
   10    10    11    1
   11    10    12    1
   12    10    13    1
   13    13    14    1
   14    13    15    1
   15    13    16    1
   16    16    17    1
   17    16    18    1
   18    16    19    1
@<TRIPOS>SUBSTRUCTURE
       1 MOL1            1 RESIDUE      1      MOL     
@<SCITEGIC>MOL_PROPERTY
VConf Rank
SciTegic.value.IntegerValue
404

@<SCITEGIC>MOL_PROPERTY
Conf_Id
SciTegic.value.IntegerValue
42

@<SCITEGIC>MOL_PROPERTY
Delta U+W
SciTegic.value.DoubleValue
-0.344

@<SCITEGIC>MOL_PROPERTY
U+W
SciTegic.value.DoubleValue
-55.236

@<SCITEGIC>MOL_PROPERTY
Grad RMS
SciTegic.value.DoubleValue
0.000000

@<SCITEGIC>MOL_PROPERTY
U
SciTegic.value.DoubleValue
7.244

@<SCITEGIC>MOL_PROPERTY
W
SciTegic.value.DoubleValue
-62.479

@<SCITEGIC>MOL_PROPERTY
W(PB)
SciTegic.value.DoubleValue
-64.610

@<SCITEGIC>MOL_PROPERTY
W(SA)
SciTegic.value.DoubleValue
2.130

@<SCITEGIC>MOL_PROPERTY
Valence
SciTegic.value.DoubleValue
7.174

@<SCITEGIC>MOL_PROPERTY
Coulomb
SciTegic.value.DoubleValue
-0.669

@<SCITEGIC>MOL_PROPERTY
VdW
SciTegic.value.DoubleValue
0.739

@<SCITEGIC>MOL_PROPERTY
VdW6
SciTegic.value.DoubleValue
-5.969

@<SCITEGIC>MOL_PROPERTY
VdW12
SciTegic.value.DoubleValue
6.708

@<SCITEGIC>MOL_PROPERTY
Bond
SciTegic.value.DoubleValue
0.116

@<SCITEGIC>MOL_PROPERTY
Angle
SciTegic.value.DoubleValue
2.481

@<SCITEGIC>MOL_PROPERTY
Pdih
SciTegic.value.DoubleValue
4.576

@<SCITEGIC>MOL_PROPERTY
Idih
SciTegic.value.DoubleValue
0.000

@<SCITEGIC>MOL_PROPERTY
Tether
SciTegic.value.DoubleValue
0.000

@<TRIPOS>MOLECULE
guest-7_confgen4.mol2 : confsearch ligand conformer 405
          19          18           1
SMALL
USER_CHARGES
 
@<TRIPOS>ATOM
       1    C1      19.300579   18.338785   19.218163 C.2        1 MOL1         0.6115
       2    O1      20.303067   18.348678   18.531766 O.co2      1 MOL1        -0.6776
       3    O2      18.216445   18.727129   18.830754 O.co2      1 MOL1        -0.6776
       4    C2      19.413006   17.827947   20.650262 C.3        1 MOL1        -0.2013
       5    H1      20.183975   17.048373   20.674750 H          1 MOL1         0.0727
       6    H2      18.461929   17.351884   20.917648 H          1 MOL1         0.0727
       7    C3      19.754282   18.947843   21.664070 C.3        1 MOL1        -0.1910
       8    H3      20.698947   19.421394   21.365777 H          1 MOL1         0.0729
       9    H4      18.978600   19.724824   21.620987 H          1 MOL1         0.0729
      10    C4      19.865588   18.401340   23.106153 C.3        1 MOL1        -0.1909
      11    H5      20.674403   17.659767   23.159941 H          1 MOL1         0.0729
      12    H6      18.938211   17.869597   23.359558 H          1 MOL1         0.0729
      13    C5      20.103909   19.503783   24.163704 C.3        1 MOL1        -0.1884
      14    H7      19.293787   20.244612   24.116775 H          1 MOL1         0.0729
      15    H8      20.052331   19.050496   25.163261 H          1 MOL1         0.0729
      16    C6      21.466390   20.213594   24.009865 C.3        1 MOL1        -0.2899
      17    H9      21.520338   20.778338   23.070770 H          1 MOL1         0.0741
      18    H10     21.624873   20.922280   24.833023 H          1 MOL1         0.0741
      19    H11     22.290857   19.488888   24.024411 H          1 MOL1         0.0741
@<TRIPOS>BOND
    1     1     2    1
    2     1     3    2
    3     1     4    1
    4     4     5    1
    5     4     6    1
    6     4     7    1
    7     7     8    1
    8     7     9    1
    9     7    10    1
   10    10    11    1
   11    10    12    1
   12    10    13    1
   13    13    14    1
   14    13    15    1
   15    13    16    1
   16    16    17    1
   17    16    18    1
   18    16    19    1
@<TRIPOS>SUBSTRUCTURE
       1 MOL1            1 RESIDUE      1      MOL     
@<SCITEGIC>MOL_PROPERTY
VConf Rank
SciTegic.value.IntegerValue
405

@<SCITEGIC>MOL_PROPERTY
Conf_Id
SciTegic.value.IntegerValue
41

@<SCITEGIC>MOL_PROPERTY
Delta U+W
SciTegic.value.DoubleValue
-0.361

@<SCITEGIC>MOL_PROPERTY
U+W
SciTegic.value.DoubleValue
-55.252

@<SCITEGIC>MOL_PROPERTY
Grad RMS
SciTegic.value.DoubleValue
0.000000

@<SCITEGIC>MOL_PROPERTY
U
SciTegic.value.DoubleValue
7.244

@<SCITEGIC>MOL_PROPERTY
W
SciTegic.value.DoubleValue
-62.496

@<SCITEGIC>MOL_PROPERTY
W(PB)
SciTegic.value.DoubleValue
-64.596

@<SCITEGIC>MOL_PROPERTY
W(SA)
SciTegic.value.DoubleValue
2.099

@<SCITEGIC>MOL_PROPERTY
Valence
SciTegic.value.DoubleValue
7.174

@<SCITEGIC>MOL_PROPERTY
Coulomb
SciTegic.value.DoubleValue
-0.669

@<SCITEGIC>MOL_PROPERTY
VdW
SciTegic.value.DoubleValue
0.739

@<SCITEGIC>MOL_PROPERTY
VdW6
SciTegic.value.DoubleValue
-5.969

@<SCITEGIC>MOL_PROPERTY
VdW12
SciTegic.value.DoubleValue
6.708

@<SCITEGIC>MOL_PROPERTY
Bond
SciTegic.value.DoubleValue
0.116

@<SCITEGIC>MOL_PROPERTY
Angle
SciTegic.value.DoubleValue
2.481

@<SCITEGIC>MOL_PROPERTY
Pdih
SciTegic.value.DoubleValue
4.576

@<SCITEGIC>MOL_PROPERTY
Idih
SciTegic.value.DoubleValue
0.000

@<SCITEGIC>MOL_PROPERTY
Tether
SciTegic.value.DoubleValue
0.000

@<TRIPOS>MOLECULE
guest-7_confgen4.mol2 : confsearch ligand conformer 406
          19          18           1
SMALL
USER_CHARGES
 
@<TRIPOS>ATOM
       1    C1      17.528632   17.852646   21.061557 C.2        1 MOL1         0.6115
       2    O1      17.633828   18.356632   19.960884 O.co2      1 MOL1        -0.6776
       3    O2      17.378418   16.660510   21.243013 O.co2      1 MOL1        -0.6776
       4    C2      17.564694   18.767196   22.282886 C.3        1 MOL1        -0.2013
       5    H1      16.736128   18.472604   22.937718 H          1 MOL1         0.0727
       6    H2      17.361941   19.794762   21.957331 H          1 MOL1         0.0727
       7    C3      18.896398   18.709876   23.075584 C.3        1 MOL1        -0.1910
       8    H3      18.783217   19.285335   24.004331 H          1 MOL1         0.0729
       9    H4      19.100223   17.670924   23.369971 H          1 MOL1         0.0729
      10    C4      20.091078   19.270112   22.271725 C.3        1 MOL1        -0.1909
      11    H5      19.877056   20.304221   21.968669 H          1 MOL1         0.0729
      12    H6      20.221619   18.688506   21.348624 H          1 MOL1         0.0729
      13    C5      21.398342   19.232468   23.090412 C.3        1 MOL1        -0.1884
      14    H7      21.275073   19.816205   24.013172 H          1 MOL1         0.0729
      15    H8      21.616112   18.198741   23.392834 H          1 MOL1         0.0729
      16    C6      22.588376   19.792149   22.285706 C.3        1 MOL1        -0.2899
      17    H9      22.410605   20.836306   21.996673 H          1 MOL1         0.0741
      18    H10     23.509276   19.757537   22.882223 H          1 MOL1         0.0741
      19    H11     22.754203   19.206879   21.371702 H          1 MOL1         0.0741
@<TRIPOS>BOND
    1     1     2    1
    2     1     3    2
    3     1     4    1
    4     4     5    1
    5     4     6    1
    6     4     7    1
    7     7     8    1
    8     7     9    1
    9     7    10    1
   10    10    11    1
   11    10    12    1
   12    10    13    1
   13    13    14    1
   14    13    15    1
   15    13    16    1
   16    16    17    1
   17    16    18    1
   18    16    19    1
@<TRIPOS>SUBSTRUCTURE
       1 MOL1            1 RESIDUE      1      MOL     
@<SCITEGIC>MOL_PROPERTY
VConf Rank
SciTegic.value.IntegerValue
406

@<SCITEGIC>MOL_PROPERTY
Conf_Id
SciTegic.value.IntegerValue
36

@<SCITEGIC>MOL_PROPERTY
Delta U+W
SciTegic.value.DoubleValue
-0.079

@<SCITEGIC>MOL_PROPERTY
U+W
SciTegic.value.DoubleValue
-54.971

@<SCITEGIC>MOL_PROPERTY
Grad RMS
SciTegic.value.DoubleValue
0.000000

@<SCITEGIC>MOL_PROPERTY
U
SciTegic.value.DoubleValue
8.266

@<SCITEGIC>MOL_PROPERTY
W
SciTegic.value.DoubleValue
-63.237

@<SCITEGIC>MOL_PROPERTY
W(PB)
SciTegic.value.DoubleValue
-65.340

@<SCITEGIC>MOL_PROPERTY
W(SA)
SciTegic.value.DoubleValue
2.103

@<SCITEGIC>MOL_PROPERTY
Valence
SciTegic.value.DoubleValue
6.935

@<SCITEGIC>MOL_PROPERTY
Coulomb
SciTegic.value.DoubleValue
0.874

@<SCITEGIC>MOL_PROPERTY
VdW
SciTegic.value.DoubleValue
0.457

@<SCITEGIC>MOL_PROPERTY
VdW6
SciTegic.value.DoubleValue
-6.205

@<SCITEGIC>MOL_PROPERTY
VdW12
SciTegic.value.DoubleValue
6.662

@<SCITEGIC>MOL_PROPERTY
Bond
SciTegic.value.DoubleValue
0.107

@<SCITEGIC>MOL_PROPERTY
Angle
SciTegic.value.DoubleValue
2.420

@<SCITEGIC>MOL_PROPERTY
Pdih
SciTegic.value.DoubleValue
4.407

@<SCITEGIC>MOL_PROPERTY
Idih
SciTegic.value.DoubleValue
0.001

@<SCITEGIC>MOL_PROPERTY
Tether
SciTegic.value.DoubleValue
0.000

@<TRIPOS>MOLECULE
guest-7_confgen4.mol2 : confsearch ligand conformer 407
          19          18           1
SMALL
USER_CHARGES
 
@<TRIPOS>ATOM
       1    C1      22.847658   19.418931   23.155948 C.2        1 MOL1         0.6115
       2    O1      23.428193   18.687996   22.377960 O.co2      1 MOL1        -0.6776
       3    O2      23.028885   19.400915   24.357411 O.co2      1 MOL1        -0.6776
       4    C2      21.852183   20.430027   22.593755 C.3        1 MOL1        -0.2013
       5    H1      22.049373   20.557421   21.522366 H          1 MOL1         0.0727
       6    H2      22.059689   21.394866   23.071392 H          1 MOL1         0.0727
       7    C3      20.366683   20.048020   22.822785 C.3        1 MOL1        -0.1910
       8    H3      20.191501   19.895951   23.896944 H          1 MOL1         0.0729
       9    H4      19.730945   20.889101   22.514637 H          1 MOL1         0.0729
      10    C4      19.951168   18.782159   22.040319 C.3        1 MOL1        -0.1909
      11    H5      20.571584   17.931742   22.355431 H          1 MOL1         0.0729
      12    H6      20.140341   18.934261   20.968821 H          1 MOL1         0.0729
      13    C5      18.462682   18.439076   22.257823 C.3        1 MOL1        -0.1884
      14    H7      18.271155   18.284063   23.328693 H          1 MOL1         0.0729
      15    H8      17.836880   19.284655   21.940335 H          1 MOL1         0.0729
      16    C6      18.051237   17.175670   21.475841 C.3        1 MOL1        -0.2899
      17    H9      18.640668   16.306470   21.796005 H          1 MOL1         0.0741
      18    H10     16.990717   16.945998   21.642076 H          1 MOL1         0.0741
      19    H11     18.203144   17.314495   20.397389 H          1 MOL1         0.0741
@<TRIPOS>BOND
    1     1     2    1
    2     1     3    2
    3     1     4    1
    4     4     5    1
    5     4     6    1
    6     4     7    1
    7     7     8    1
    8     7     9    1
    9     7    10    1
   10    10    11    1
   11    10    12    1
   12    10    13    1
   13    13    14    1
   14    13    15    1
   15    13    16    1
   16    16    17    1
   17    16    18    1
   18    16    19    1
@<TRIPOS>SUBSTRUCTURE
       1 MOL1            1 RESIDUE      1      MOL     
@<SCITEGIC>MOL_PROPERTY
VConf Rank
SciTegic.value.IntegerValue
407

@<SCITEGIC>MOL_PROPERTY
Conf_Id
SciTegic.value.IntegerValue
35

@<SCITEGIC>MOL_PROPERTY
Delta U+W
SciTegic.value.DoubleValue
-0.030

@<SCITEGIC>MOL_PROPERTY
U+W
SciTegic.value.DoubleValue
-54.921

@<SCITEGIC>MOL_PROPERTY
Grad RMS
SciTegic.value.DoubleValue
0.000000

@<SCITEGIC>MOL_PROPERTY
U
SciTegic.value.DoubleValue
8.267

@<SCITEGIC>MOL_PROPERTY
W
SciTegic.value.DoubleValue
-63.188

@<SCITEGIC>MOL_PROPERTY
W(PB)
SciTegic.value.DoubleValue
-65.294

@<SCITEGIC>MOL_PROPERTY
W(SA)
SciTegic.value.DoubleValue
2.106

@<SCITEGIC>MOL_PROPERTY
Valence
SciTegic.value.DoubleValue
6.935

@<SCITEGIC>MOL_PROPERTY
Coulomb
SciTegic.value.DoubleValue
0.875

@<SCITEGIC>MOL_PROPERTY
VdW
SciTegic.value.DoubleValue
0.457

@<SCITEGIC>MOL_PROPERTY
VdW6
SciTegic.value.DoubleValue
-6.205

@<SCITEGIC>MOL_PROPERTY
VdW12
SciTegic.value.DoubleValue
6.662

@<SCITEGIC>MOL_PROPERTY
Bond
SciTegic.value.DoubleValue
0.107

@<SCITEGIC>MOL_PROPERTY
Angle
SciTegic.value.DoubleValue
2.420

@<SCITEGIC>MOL_PROPERTY
Pdih
SciTegic.value.DoubleValue
4.407

@<SCITEGIC>MOL_PROPERTY
Idih
SciTegic.value.DoubleValue
0.001

@<SCITEGIC>MOL_PROPERTY
Tether
SciTegic.value.DoubleValue
0.000

@<TRIPOS>MOLECULE
guest-7_confgen4.mol2 : confsearch ligand conformer 408
          19          18           1
SMALL
USER_CHARGES
 
@<TRIPOS>ATOM
       1    C1      20.260587   19.531871   25.156227 C.2        1 MOL1         0.6115
       2    O1      19.405112   20.311915   25.525552 O.co2      1 MOL1        -0.6776
       3    O2      21.439718   19.651782   25.424401 O.co2      1 MOL1        -0.6776
       4    C2      19.825370   18.325190   24.329192 C.3        1 MOL1        -0.2013
       5    H1      18.945881   17.892119   24.820154 H          1 MOL1         0.0727
       6    H2      20.617182   17.567387   24.370754 H          1 MOL1         0.0727
       7    C3      19.481763   18.659345   22.854066 C.3        1 MOL1        -0.1910
       8    H3      19.037159   17.769742   22.390079 H          1 MOL1         0.0729
       9    H4      18.716314   19.447220   22.828220 H          1 MOL1         0.0729
      10    C4      20.721229   19.105151   22.041868 C.3        1 MOL1        -0.1909
      11    H5      21.469597   18.300952   22.036822 H          1 MOL1         0.0729
      12    H6      21.191593   19.962555   22.542509 H          1 MOL1         0.0729
      13    C5      20.388749   19.512247   20.587715 C.3        1 MOL1        -0.1884
      14    H7      19.641839   20.318121   20.589601 H          1 MOL1         0.0729
      15    H8      21.293223   19.928749   20.123308 H          1 MOL1         0.0729
      16    C6      19.883349   18.336959   19.723258 C.3        1 MOL1        -0.2899
      17    H9      18.916486   17.962236   20.081561 H          1 MOL1         0.0741
      18    H10     19.749829   18.656718   18.681690 H          1 MOL1         0.0741
      19    H11     20.600448   17.505793   19.732220 H          1 MOL1         0.0741
@<TRIPOS>BOND
    1     1     2    1
    2     1     3    2
    3     1     4    1
    4     4     5    1
    5     4     6    1
    6     4     7    1
    7     7     8    1
    8     7     9    1
    9     7    10    1
   10    10    11    1
   11    10    12    1
   12    10    13    1
   13    13    14    1
   14    13    15    1
   15    13    16    1
   16    16    17    1
   17    16    18    1
   18    16    19    1
@<TRIPOS>SUBSTRUCTURE
       1 MOL1            1 RESIDUE      1      MOL     
@<SCITEGIC>MOL_PROPERTY
VConf Rank
SciTegic.value.IntegerValue
408

@<SCITEGIC>MOL_PROPERTY
Conf_Id
SciTegic.value.IntegerValue
74

@<SCITEGIC>MOL_PROPERTY
Delta U+W
SciTegic.value.DoubleValue
0.797

@<SCITEGIC>MOL_PROPERTY
U+W
SciTegic.value.DoubleValue
-54.095

@<SCITEGIC>MOL_PROPERTY
Grad RMS
SciTegic.value.DoubleValue
0.000000

@<SCITEGIC>MOL_PROPERTY
U
SciTegic.value.DoubleValue
8.869

@<SCITEGIC>MOL_PROPERTY
W
SciTegic.value.DoubleValue
-62.964

@<SCITEGIC>MOL_PROPERTY
W(PB)
SciTegic.value.DoubleValue
-65.046

@<SCITEGIC>MOL_PROPERTY
W(SA)
SciTegic.value.DoubleValue
2.082

@<SCITEGIC>MOL_PROPERTY
Valence
SciTegic.value.DoubleValue
7.469

@<SCITEGIC>MOL_PROPERTY
Coulomb
SciTegic.value.DoubleValue
0.762

@<SCITEGIC>MOL_PROPERTY
VdW
SciTegic.value.DoubleValue
0.639

@<SCITEGIC>MOL_PROPERTY
VdW6
SciTegic.value.DoubleValue
-6.782

@<SCITEGIC>MOL_PROPERTY
VdW12
SciTegic.value.DoubleValue
7.421

@<SCITEGIC>MOL_PROPERTY
Bond
SciTegic.value.DoubleValue
0.141

@<SCITEGIC>MOL_PROPERTY
Angle
SciTegic.value.DoubleValue
2.667

@<SCITEGIC>MOL_PROPERTY
Pdih
SciTegic.value.DoubleValue
4.660

@<SCITEGIC>MOL_PROPERTY
Idih
SciTegic.value.DoubleValue
0.001

@<SCITEGIC>MOL_PROPERTY
Tether
SciTegic.value.DoubleValue
0.000

@<TRIPOS>MOLECULE
guest-7_confgen4.mol2 : confsearch ligand conformer 409
          19          18           1
SMALL
USER_CHARGES
 
@<TRIPOS>ATOM
       1    C1      17.951811   19.129313   20.192431 C.2        1 MOL1         0.6115
       2    O1      17.819078   18.460961   19.186395 O.co2      1 MOL1        -0.6776
       3    O2      17.045540   19.750843   20.710790 O.co2      1 MOL1        -0.6776
       4    C2      19.326337   19.174973   20.850315 C.3        1 MOL1        -0.2013
       5    H1      19.442792   20.162173   21.311871 H          1 MOL1         0.0727
       6    H2      20.084506   19.091618   20.062541 H          1 MOL1         0.0727
       7    C3      19.525116   18.055396   21.904651 C.3        1 MOL1        -0.1910
       8    H3      18.785191   18.171539   22.707645 H          1 MOL1         0.0729
       9    H4      19.312215   17.085880   21.433577 H          1 MOL1         0.0729
      10    C4      20.955411   18.011111   22.498809 C.3        1 MOL1        -0.1909
      11    H5      21.668864   17.792146   21.692686 H          1 MOL1         0.0729
      12    H6      21.020388   17.166858   23.198663 H          1 MOL1         0.0729
      13    C5      21.407563   19.300624   23.227242 C.3        1 MOL1        -0.1884
      14    H7      22.434672   19.155615   23.589320 H          1 MOL1         0.0729
      15    H8      21.451065   20.139993   22.520717 H          1 MOL1         0.0729
      16    C6      20.507435   19.674113   24.424603 C.3        1 MOL1        -0.2899
      17    H9      20.430936   18.839826   25.133930 H          1 MOL1         0.0741
      18    H10     20.920567   20.538038   24.961047 H          1 MOL1         0.0741
      19    H11     19.495299   19.940546   24.094663 H          1 MOL1         0.0741
@<TRIPOS>BOND
    1     1     2    1
    2     1     3    2
    3     1     4    1
    4     4     5    1
    5     4     6    1
    6     4     7    1
    7     7     8    1
    8     7     9    1
    9     7    10    1
   10    10    11    1
   11    10    12    1
   12    10    13    1
   13    13    14    1
   14    13    15    1
   15    13    16    1
   16    16    17    1
   17    16    18    1
   18    16    19    1
@<TRIPOS>SUBSTRUCTURE
       1 MOL1            1 RESIDUE      1      MOL     
@<SCITEGIC>MOL_PROPERTY
VConf Rank
SciTegic.value.IntegerValue
409

@<SCITEGIC>MOL_PROPERTY
Conf_Id
SciTegic.value.IntegerValue
67

@<SCITEGIC>MOL_PROPERTY
Delta U+W
SciTegic.value.DoubleValue
0.308

@<SCITEGIC>MOL_PROPERTY
U+W
SciTegic.value.DoubleValue
-54.583

@<SCITEGIC>MOL_PROPERTY
Grad RMS
SciTegic.value.DoubleValue
0.000000

@<SCITEGIC>MOL_PROPERTY
U
SciTegic.value.DoubleValue
8.219

@<SCITEGIC>MOL_PROPERTY
W
SciTegic.value.DoubleValue
-62.802

@<SCITEGIC>MOL_PROPERTY
W(PB)
SciTegic.value.DoubleValue
-64.859

@<SCITEGIC>MOL_PROPERTY
W(SA)
SciTegic.value.DoubleValue
2.057

@<SCITEGIC>MOL_PROPERTY
Valence
SciTegic.value.DoubleValue
7.609

@<SCITEGIC>MOL_PROPERTY
Coulomb
SciTegic.value.DoubleValue
-0.089

@<SCITEGIC>MOL_PROPERTY
VdW
SciTegic.value.DoubleValue
0.699

@<SCITEGIC>MOL_PROPERTY
VdW6
SciTegic.value.DoubleValue
-6.924

@<SCITEGIC>MOL_PROPERTY
VdW12
SciTegic.value.DoubleValue
7.623

@<SCITEGIC>MOL_PROPERTY
Bond
SciTegic.value.DoubleValue
0.163

@<SCITEGIC>MOL_PROPERTY
Angle
SciTegic.value.DoubleValue
2.870

@<SCITEGIC>MOL_PROPERTY
Pdih
SciTegic.value.DoubleValue
4.576

@<SCITEGIC>MOL_PROPERTY
Idih
SciTegic.value.DoubleValue
0.001

@<SCITEGIC>MOL_PROPERTY
Tether
SciTegic.value.DoubleValue
0.000

@<TRIPOS>MOLECULE
guest-7_confgen4.mol2 : confsearch ligand conformer 410
          19          18           1
SMALL
USER_CHARGES
 
@<TRIPOS>ATOM
       1    C1      18.667243   18.942298   24.918798 C.2        1 MOL1         0.6115
       2    O1      19.147551   18.774297   26.022203 O.co2      1 MOL1        -0.6776
       3    O2      17.493783   18.759946   24.661770 O.co2      1 MOL1        -0.6776
       4    C2      19.591795   19.387416   23.791283 C.3        1 MOL1        -0.2013
       5    H1      20.376905   20.019337   24.223293 H          1 MOL1         0.0727
       6    H2      19.007370   20.014504   23.108371 H          1 MOL1         0.0727
       7    C3      20.224441   18.195476   23.027329 C.3        1 MOL1        -0.1910
       8    H3      20.724811   17.538249   23.751815 H          1 MOL1         0.0729
       9    H4      19.431148   17.591515   22.567225 H          1 MOL1         0.0729
      10    C4      21.257943   18.625076   21.955862 C.3        1 MOL1        -0.1909
      11    H5      21.686186   17.723193   21.497612 H          1 MOL1         0.0729
      12    H6      22.092701   19.138319   22.452406 H          1 MOL1         0.0729
      13    C5      20.705590   19.541031   20.836115 C.3        1 MOL1        -0.1884
      14    H7      20.366177   20.495480   21.259714 H          1 MOL1         0.0729
      15    H8      21.527305   19.788903   20.150241 H          1 MOL1         0.0729
      16    C6      19.561186   18.894590   20.026267 C.3        1 MOL1        -0.2899
      17    H9      18.672578   18.734266   20.649917 H          1 MOL1         0.0741
      18    H10     19.268265   19.542865   19.190353 H          1 MOL1         0.0741
      19    H11     19.871286   17.926588   19.611733 H          1 MOL1         0.0741
@<TRIPOS>BOND
    1     1     2    1
    2     1     3    2
    3     1     4    1
    4     4     5    1
    5     4     6    1
    6     4     7    1
    7     7     8    1
    8     7     9    1
    9     7    10    1
   10    10    11    1
   11    10    12    1
   12    10    13    1
   13    13    14    1
   14    13    15    1
   15    13    16    1
   16    16    17    1
   17    16    18    1
   18    16    19    1
@<TRIPOS>SUBSTRUCTURE
       1 MOL1            1 RESIDUE      1      MOL     
@<SCITEGIC>MOL_PROPERTY
VConf Rank
SciTegic.value.IntegerValue
410

@<SCITEGIC>MOL_PROPERTY
Conf_Id
SciTegic.value.IntegerValue
21

@<SCITEGIC>MOL_PROPERTY
Delta U+W
SciTegic.value.DoubleValue
0.319

@<SCITEGIC>MOL_PROPERTY
U+W
SciTegic.value.DoubleValue
-54.572

@<SCITEGIC>MOL_PROPERTY
Grad RMS
SciTegic.value.DoubleValue
0.000000

@<SCITEGIC>MOL_PROPERTY
U
SciTegic.value.DoubleValue
8.220

@<SCITEGIC>MOL_PROPERTY
W
SciTegic.value.DoubleValue
-62.792

@<SCITEGIC>MOL_PROPERTY
W(PB)
SciTegic.value.DoubleValue
-64.830

@<SCITEGIC>MOL_PROPERTY
W(SA)
SciTegic.value.DoubleValue
2.038

@<SCITEGIC>MOL_PROPERTY
Valence
SciTegic.value.DoubleValue
7.609

@<SCITEGIC>MOL_PROPERTY
Coulomb
SciTegic.value.DoubleValue
-0.088

@<SCITEGIC>MOL_PROPERTY
VdW
SciTegic.value.DoubleValue
0.699

@<SCITEGIC>MOL_PROPERTY
VdW6
SciTegic.value.DoubleValue
-6.924

@<SCITEGIC>MOL_PROPERTY
VdW12
SciTegic.value.DoubleValue
7.623

@<SCITEGIC>MOL_PROPERTY
Bond
SciTegic.value.DoubleValue
0.163

@<SCITEGIC>MOL_PROPERTY
Angle
SciTegic.value.DoubleValue
2.870

@<SCITEGIC>MOL_PROPERTY
Pdih
SciTegic.value.DoubleValue
4.576

@<SCITEGIC>MOL_PROPERTY
Idih
SciTegic.value.DoubleValue
0.000

@<SCITEGIC>MOL_PROPERTY
Tether
SciTegic.value.DoubleValue
0.000

@<TRIPOS>MOLECULE
guest-7_confgen4.mol2 : confsearch ligand conformer 411
          19          18           1
SMALL
USER_CHARGES
 
@<TRIPOS>ATOM
       1    C1      22.441736   17.963563   21.128760 C.2        1 MOL1         0.6115
       2    O1      23.383120   18.575675   20.664484 O.co2      1 MOL1        -0.6776
       3    O2      22.516689   16.819907   21.532103 O.co2      1 MOL1        -0.6776
       4    C2      21.097706   18.676280   21.227243 C.3        1 MOL1        -0.2013
       5    H1      20.310192   17.926548   21.102549 H          1 MOL1         0.0727
       6    H2      21.018110   19.366699   20.379086 H          1 MOL1         0.0727
       7    C3      20.924742   19.450840   22.560560 C.3        1 MOL1        -0.1910
       8    H3      21.062184   18.771666   23.413270 H          1 MOL1         0.0729
       9    H4      21.732624   20.192642   22.627281 H          1 MOL1         0.0729
      10    C4      19.565609   20.186848   22.674547 C.3        1 MOL1        -0.1909
      11    H5      19.204961   20.477303   21.678321 H          1 MOL1         0.0729
      12    H6      19.731261   21.127209   23.217920 H          1 MOL1         0.0729
      13    C5      18.466104   19.400685   23.430157 C.3        1 MOL1        -0.1884
      14    H7      18.801231   19.192261   24.455587 H          1 MOL1         0.0729
      15    H8      17.579308   20.042900   23.521514 H          1 MOL1         0.0729
      16    C6      18.051141   18.080034   22.749437 C.3        1 MOL1        -0.2899
      17    H9      17.183980   17.641527   23.259885 H          1 MOL1         0.0741
      18    H10     17.777843   18.246336   21.699375 H          1 MOL1         0.0741
      19    H11     18.863334   17.343357   22.787480 H          1 MOL1         0.0741
@<TRIPOS>BOND
    1     1     2    1
    2     1     3    2
    3     1     4    1
    4     4     5    1
    5     4     6    1
    6     4     7    1
    7     7     8    1
    8     7     9    1
    9     7    10    1
   10    10    11    1
   11    10    12    1
   12    10    13    1
   13    13    14    1
   14    13    15    1
   15    13    16    1
   16    16    17    1
   17    16    18    1
   18    16    19    1
@<TRIPOS>SUBSTRUCTURE
       1 MOL1            1 RESIDUE      1      MOL     
@<SCITEGIC>MOL_PROPERTY
VConf Rank
SciTegic.value.IntegerValue
411

@<SCITEGIC>MOL_PROPERTY
Conf_Id
SciTegic.value.IntegerValue
24

@<SCITEGIC>MOL_PROPERTY
Delta U+W
SciTegic.value.DoubleValue
2.477

@<SCITEGIC>MOL_PROPERTY
U+W
SciTegic.value.DoubleValue
-52.414

@<SCITEGIC>MOL_PROPERTY
Grad RMS
SciTegic.value.DoubleValue
0.000000

@<SCITEGIC>MOL_PROPERTY
U
SciTegic.value.DoubleValue
10.422

@<SCITEGIC>MOL_PROPERTY
W
SciTegic.value.DoubleValue
-62.836

@<SCITEGIC>MOL_PROPERTY
W(PB)
SciTegic.value.DoubleValue
-64.906

@<SCITEGIC>MOL_PROPERTY
W(SA)
SciTegic.value.DoubleValue
2.070

@<SCITEGIC>MOL_PROPERTY
Valence
SciTegic.value.DoubleValue
9.628

@<SCITEGIC>MOL_PROPERTY
Coulomb
SciTegic.value.DoubleValue
0.101

@<SCITEGIC>MOL_PROPERTY
VdW
SciTegic.value.DoubleValue
0.693

@<SCITEGIC>MOL_PROPERTY
VdW6
SciTegic.value.DoubleValue
-6.927

@<SCITEGIC>MOL_PROPERTY
VdW12
SciTegic.value.DoubleValue
7.620

@<SCITEGIC>MOL_PROPERTY
Bond
SciTegic.value.DoubleValue
0.173

@<SCITEGIC>MOL_PROPERTY
Angle
SciTegic.value.DoubleValue
2.989

@<SCITEGIC>MOL_PROPERTY
Pdih
SciTegic.value.DoubleValue
6.465

@<SCITEGIC>MOL_PROPERTY
Idih
SciTegic.value.DoubleValue
0.001

@<SCITEGIC>MOL_PROPERTY
Tether
SciTegic.value.DoubleValue
0.000

@<TRIPOS>MOLECULE
guest-7_confgen4.mol2 : confsearch ligand conformer 412
          19          18           1
SMALL
USER_CHARGES
 
@<TRIPOS>ATOM
       1    C1      19.203188   17.543843   24.430141 C.2        1 MOL1         0.6115
       2    O1      18.034825   17.417461   24.120876 O.co2      1 MOL1        -0.6776
       3    O2      19.832253   16.697777   25.034726 O.co2      1 MOL1        -0.6776
       4    C2      19.913236   18.845426   24.066896 C.3        1 MOL1        -0.2013
       5    H1      20.425448   19.197492   24.969916 H          1 MOL1         0.0727
       6    H2      19.154746   19.596374   23.823992 H          1 MOL1         0.0727
       7    C3      20.945602   18.701074   22.914368 C.3        1 MOL1        -0.1910
       8    H3      21.556985   19.610927   22.846467 H          1 MOL1         0.0729
       9    H4      21.638914   17.890653   23.179075 H          1 MOL1         0.0729
      10    C4      20.316244   18.388319   21.531773 C.3        1 MOL1        -0.1909
      11    H5      19.385574   17.817315   21.652662 H          1 MOL1         0.0729
      12    H6      21.002794   17.725971   20.987046 H          1 MOL1         0.0729
      13    C5      20.063259   19.629921   20.641644 C.3        1 MOL1        -0.1884
      14    H7      21.013739   20.146819   20.450314 H          1 MOL1         0.0729
      15    H8      19.697174   19.288091   19.663744 H          1 MOL1         0.0729
      16    C6      19.045081   20.629698   21.227576 C.3        1 MOL1        -0.2899
      17    H9      19.445874   21.124500   22.120824 H          1 MOL1         0.0741
      18    H10     18.809274   21.411701   20.494334 H          1 MOL1         0.0741
      19    H11     18.108595   20.124501   21.498231 H          1 MOL1         0.0741
@<TRIPOS>BOND
    1     1     2    1
    2     1     3    2
    3     1     4    1
    4     4     5    1
    5     4     6    1
    6     4     7    1
    7     7     8    1
    8     7     9    1
    9     7    10    1
   10    10    11    1
   11    10    12    1
   12    10    13    1
   13    13    14    1
   14    13    15    1
   15    13    16    1
   16    16    17    1
   17    16    18    1
   18    16    19    1
@<TRIPOS>SUBSTRUCTURE
       1 MOL1            1 RESIDUE      1      MOL     
@<SCITEGIC>MOL_PROPERTY
VConf Rank
SciTegic.value.IntegerValue
412

@<SCITEGIC>MOL_PROPERTY
Conf_Id
SciTegic.value.IntegerValue
4

@<SCITEGIC>MOL_PROPERTY
Delta U+W
SciTegic.value.DoubleValue
3.753

@<SCITEGIC>MOL_PROPERTY
U+W
SciTegic.value.DoubleValue
-51.138

@<SCITEGIC>MOL_PROPERTY
Grad RMS
SciTegic.value.DoubleValue
0.000000

@<SCITEGIC>MOL_PROPERTY
U
SciTegic.value.DoubleValue
12.334

@<SCITEGIC>MOL_PROPERTY
W
SciTegic.value.DoubleValue
-63.472

@<SCITEGIC>MOL_PROPERTY
W(PB)
SciTegic.value.DoubleValue
-65.500

@<SCITEGIC>MOL_PROPERTY
W(SA)
SciTegic.value.DoubleValue
2.028

@<SCITEGIC>MOL_PROPERTY
Valence
SciTegic.value.DoubleValue
9.984

@<SCITEGIC>MOL_PROPERTY
Coulomb
SciTegic.value.DoubleValue
1.767

@<SCITEGIC>MOL_PROPERTY
VdW
SciTegic.value.DoubleValue
0.583

@<SCITEGIC>MOL_PROPERTY
VdW6
SciTegic.value.DoubleValue
-7.767

@<SCITEGIC>MOL_PROPERTY
VdW12
SciTegic.value.DoubleValue
8.349

@<SCITEGIC>MOL_PROPERTY
Bond
SciTegic.value.DoubleValue
0.203

@<SCITEGIC>MOL_PROPERTY
Angle
SciTegic.value.DoubleValue
3.191

@<SCITEGIC>MOL_PROPERTY
Pdih
SciTegic.value.DoubleValue
6.589

@<SCITEGIC>MOL_PROPERTY
Idih
SciTegic.value.DoubleValue
0.001

@<SCITEGIC>MOL_PROPERTY
Tether
SciTegic.value.DoubleValue
0.000

@<TRIPOS>MOLECULE
guest-7_confgen4.mol2 : confsearch ligand conformer 413
          19          18           1
SMALL
USER_CHARGES
 
@<TRIPOS>ATOM
       1    C1      19.442321   16.455077   21.639455 C.2        1 MOL1         0.6115
       2    O1      19.641924   15.906406   20.573532 O.co2      1 MOL1        -0.6776
       3    O2      19.657270   15.930536   22.714326 O.co2      1 MOL1        -0.6776
       4    C2      18.863398   17.867466   21.624129 C.3        1 MOL1        -0.2013
       5    H1      18.458602   18.085508   22.617521 H          1 MOL1         0.0727
       6    H2      18.012431   17.860875   20.933067 H          1 MOL1         0.0727
       7    C3      19.875866   18.960064   21.181327 C.3        1 MOL1        -0.1910
       8    H3      20.300592   18.657420   20.214089 H          1 MOL1         0.0729
       9    H4      19.346692   19.904476   20.996142 H          1 MOL1         0.0729
      10    C4      21.035361   19.196987   22.183781 C.3        1 MOL1        -0.1909
      11    H5      21.939740   19.436510   21.608013 H          1 MOL1         0.0729
      12    H6      21.266924   18.272506   22.730150 H          1 MOL1         0.0729
      13    C5      20.798835   20.356557   23.182457 C.3        1 MOL1        -0.1884
      14    H7      21.708583   20.488350   23.784241 H          1 MOL1         0.0729
      15    H8      20.656818   21.295915   22.630517 H          1 MOL1         0.0729
      16    C6      19.605270   20.136051   24.134475 C.3        1 MOL1        -0.2899
      17    H9      19.683215   19.167381   24.645445 H          1 MOL1         0.0741
      18    H10     19.574377   20.922097   24.899951 H          1 MOL1         0.0741
      19    H11     18.653707   20.168033   23.589626 H          1 MOL1         0.0741
@<TRIPOS>BOND
    1     1     2    1
    2     1     3    2
    3     1     4    1
    4     4     5    1
    5     4     6    1
    6     4     7    1
    7     7     8    1
    8     7     9    1
    9     7    10    1
   10    10    11    1
   11    10    12    1
   12    10    13    1
   13    13    14    1
   14    13    15    1
   15    13    16    1
   16    16    17    1
   17    16    18    1
   18    16    19    1
@<TRIPOS>SUBSTRUCTURE
       1 MOL1            1 RESIDUE      1      MOL     
@<SCITEGIC>MOL_PROPERTY
VConf Rank
SciTegic.value.IntegerValue
413

@<SCITEGIC>MOL_PROPERTY
Conf_Id
SciTegic.value.IntegerValue
73

@<SCITEGIC>MOL_PROPERTY
Delta U+W
SciTegic.value.DoubleValue
3.707

@<SCITEGIC>MOL_PROPERTY
U+W
SciTegic.value.DoubleValue
-51.184

@<SCITEGIC>MOL_PROPERTY
Grad RMS
SciTegic.value.DoubleValue
0.000000

@<SCITEGIC>MOL_PROPERTY
U
SciTegic.value.DoubleValue
12.334

@<SCITEGIC>MOL_PROPERTY
W
SciTegic.value.DoubleValue
-63.519

@<SCITEGIC>MOL_PROPERTY
W(PB)
SciTegic.value.DoubleValue
-65.541

@<SCITEGIC>MOL_PROPERTY
W(SA)
SciTegic.value.DoubleValue
2.022

@<SCITEGIC>MOL_PROPERTY
Valence
SciTegic.value.DoubleValue
9.984

@<SCITEGIC>MOL_PROPERTY
Coulomb
SciTegic.value.DoubleValue
1.768

@<SCITEGIC>MOL_PROPERTY
VdW
SciTegic.value.DoubleValue
0.583

@<SCITEGIC>MOL_PROPERTY
VdW6
SciTegic.value.DoubleValue
-7.767

@<SCITEGIC>MOL_PROPERTY
VdW12
SciTegic.value.DoubleValue
8.350

@<SCITEGIC>MOL_PROPERTY
Bond
SciTegic.value.DoubleValue
0.203

@<SCITEGIC>MOL_PROPERTY
Angle
SciTegic.value.DoubleValue
3.192

@<SCITEGIC>MOL_PROPERTY
Pdih
SciTegic.value.DoubleValue
6.589

@<SCITEGIC>MOL_PROPERTY
Idih
SciTegic.value.DoubleValue
0.001

@<SCITEGIC>MOL_PROPERTY
Tether
SciTegic.value.DoubleValue
0.000

@<TRIPOS>MOLECULE
guest-7_confgen4.mol2 : confsearch ligand conformer 414
          19          18           1
SMALL
USER_CHARGES
 
@<TRIPOS>ATOM
       1    C1      18.465912   17.080012   23.400711 C.2        1 MOL1         0.6115
       2    O1      18.511263   17.455125   24.555677 O.co2      1 MOL1        -0.6776
       3    O2      17.510957   16.502067   22.919880 O.co2      1 MOL1        -0.6776
       4    C2      19.684489   17.317412   22.512997 C.3        1 MOL1        -0.2013
       5    H1      19.934453   16.361024   22.039172 H          1 MOL1         0.0727
       6    H2      20.537274   17.580758   23.149160 H          1 MOL1         0.0727
       7    C3      19.469852   18.394219   21.414504 C.3        1 MOL1        -0.1910
       8    H3      20.364119   18.446958   20.780177 H          1 MOL1         0.0729
       9    H4      18.652680   18.067475   20.756797 H          1 MOL1         0.0729
      10    C4      19.133179   19.806407   21.958995 C.3        1 MOL1        -0.1909
      11    H5      18.172389   19.765811   22.490331 H          1 MOL1         0.0729
      12    H6      18.979158   20.484457   21.108631 H          1 MOL1         0.0729
      13    C5      20.196398   20.420084   22.902490 C.3        1 MOL1        -0.1884
      14    H7      19.841871   21.405502   23.234391 H          1 MOL1         0.0729
      15    H8      20.290832   19.810755   23.811470 H          1 MOL1         0.0729
      16    C6      21.580254   20.587579   22.238741 C.3        1 MOL1        -0.2899
      17    H9      22.024722   19.615102   21.992474 H          1 MOL1         0.0741
      18    H10     21.504275   21.176312   21.315360 H          1 MOL1         0.0741
      19    H11     22.270554   21.106989   22.915863 H          1 MOL1         0.0741
@<TRIPOS>BOND
    1     1     2    1
    2     1     3    2
    3     1     4    1
    4     4     5    1
    5     4     6    1
    6     4     7    1
    7     7     8    1
    8     7     9    1
    9     7    10    1
   10    10    11    1
   11    10    12    1
   12    10    13    1
   13    13    14    1
   14    13    15    1
   15    13    16    1
   16    16    17    1
   17    16    18    1
   18    16    19    1
@<TRIPOS>SUBSTRUCTURE
       1 MOL1            1 RESIDUE      1      MOL     
@<SCITEGIC>MOL_PROPERTY
VConf Rank
SciTegic.value.IntegerValue
414

@<SCITEGIC>MOL_PROPERTY
Conf_Id
SciTegic.value.IntegerValue
56

@<SCITEGIC>MOL_PROPERTY
Delta U+W
SciTegic.value.DoubleValue
1.735

@<SCITEGIC>MOL_PROPERTY
U+W
SciTegic.value.DoubleValue
-53.156

@<SCITEGIC>MOL_PROPERTY
Grad RMS
SciTegic.value.DoubleValue
0.000000

@<SCITEGIC>MOL_PROPERTY
U
SciTegic.value.DoubleValue
10.214

@<SCITEGIC>MOL_PROPERTY
W
SciTegic.value.DoubleValue
-63.370

@<SCITEGIC>MOL_PROPERTY
W(PB)
SciTegic.value.DoubleValue
-65.388

@<SCITEGIC>MOL_PROPERTY
W(SA)
SciTegic.value.DoubleValue
2.018

@<SCITEGIC>MOL_PROPERTY
Valence
SciTegic.value.DoubleValue
7.868

@<SCITEGIC>MOL_PROPERTY
Coulomb
SciTegic.value.DoubleValue
1.968

@<SCITEGIC>MOL_PROPERTY
VdW
SciTegic.value.DoubleValue
0.378

@<SCITEGIC>MOL_PROPERTY
VdW6
SciTegic.value.DoubleValue
-8.067

@<SCITEGIC>MOL_PROPERTY
VdW12
SciTegic.value.DoubleValue
8.445

@<SCITEGIC>MOL_PROPERTY
Bond
SciTegic.value.DoubleValue
0.191

@<SCITEGIC>MOL_PROPERTY
Angle
SciTegic.value.DoubleValue
3.117

@<SCITEGIC>MOL_PROPERTY
Pdih
SciTegic.value.DoubleValue
4.559

@<SCITEGIC>MOL_PROPERTY
Idih
SciTegic.value.DoubleValue
0.001

@<SCITEGIC>MOL_PROPERTY
Tether
SciTegic.value.DoubleValue
0.000

@<TRIPOS>MOLECULE
guest-7_confgen4.mol2 : confsearch ligand conformer 415
          19          18           1
SMALL
USER_CHARGES
 
@<TRIPOS>ATOM
       1    C1      19.954485   17.290672   19.868599 C.2        1 MOL1         0.6115
       2    O1      20.942061   16.708966   19.465269 O.co2      1 MOL1        -0.6776
       3    O2      18.934898   17.413614   19.219213 O.co2      1 MOL1        -0.6776
       4    C2      20.005274   17.918978   21.256723 C.3        1 MOL1        -0.2013
       5    H1      20.666633   17.309088   21.883634 H          1 MOL1         0.0727
       6    H2      18.998076   17.860228   21.684053 H          1 MOL1         0.0727
       7    C3      20.494445   19.389058   21.233245 C.3        1 MOL1        -0.1910
       8    H3      21.438791   19.436312   20.673443 H          1 MOL1         0.0729
       9    H4      19.774127   20.000886   20.672884 H          1 MOL1         0.0729
      10    C4      20.723603   20.008656   22.634700 C.3        1 MOL1        -0.1909
      11    H5      21.116477   21.023875   22.486532 H          1 MOL1         0.0729
      12    H6      21.511993   19.458357   23.166313 H          1 MOL1         0.0729
      13    C5      19.452393   20.107709   23.514085 C.3        1 MOL1        -0.1884
      14    H7      19.507185   21.031440   24.106588 H          1 MOL1         0.0729
      15    H8      18.558284   20.202738   22.882542 H          1 MOL1         0.0729
      16    C6      19.293875   18.922999   24.492892 C.3        1 MOL1        -0.2899
      17    H9      18.390449   19.048479   25.103590 H          1 MOL1         0.0741
      18    H10     19.210883   17.965616   23.966444 H          1 MOL1         0.0741
      19    H11     20.152891   18.861825   25.173686 H          1 MOL1         0.0741
@<TRIPOS>BOND
    1     1     2    1
    2     1     3    2
    3     1     4    1
    4     4     5    1
    5     4     6    1
    6     4     7    1
    7     7     8    1
    8     7     9    1
    9     7    10    1
   10    10    11    1
   11    10    12    1
   12    10    13    1
   13    13    14    1
   14    13    15    1
   15    13    16    1
   16    16    17    1
   17    16    18    1
   18    16    19    1
@<TRIPOS>SUBSTRUCTURE
       1 MOL1            1 RESIDUE      1      MOL     
@<SCITEGIC>MOL_PROPERTY
VConf Rank
SciTegic.value.IntegerValue
415

@<SCITEGIC>MOL_PROPERTY
Conf_Id
SciTegic.value.IntegerValue
53

@<SCITEGIC>MOL_PROPERTY
Delta U+W
SciTegic.value.DoubleValue
2.279

@<SCITEGIC>MOL_PROPERTY
U+W
SciTegic.value.DoubleValue
-52.612

@<SCITEGIC>MOL_PROPERTY
Grad RMS
SciTegic.value.DoubleValue
0.000000

@<SCITEGIC>MOL_PROPERTY
U
SciTegic.value.DoubleValue
10.231

@<SCITEGIC>MOL_PROPERTY
W
SciTegic.value.DoubleValue
-62.843

@<SCITEGIC>MOL_PROPERTY
W(PB)
SciTegic.value.DoubleValue
-64.893

@<SCITEGIC>MOL_PROPERTY
W(SA)
SciTegic.value.DoubleValue
2.050

@<SCITEGIC>MOL_PROPERTY
Valence
SciTegic.value.DoubleValue
9.644

@<SCITEGIC>MOL_PROPERTY
Coulomb
SciTegic.value.DoubleValue
-0.164

@<SCITEGIC>MOL_PROPERTY
VdW
SciTegic.value.DoubleValue
0.751

@<SCITEGIC>MOL_PROPERTY
VdW6
SciTegic.value.DoubleValue
-6.881

@<SCITEGIC>MOL_PROPERTY
VdW12
SciTegic.value.DoubleValue
7.631

@<SCITEGIC>MOL_PROPERTY
Bond
SciTegic.value.DoubleValue
0.163

@<SCITEGIC>MOL_PROPERTY
Angle
SciTegic.value.DoubleValue
2.998

@<SCITEGIC>MOL_PROPERTY
Pdih
SciTegic.value.DoubleValue
6.482

@<SCITEGIC>MOL_PROPERTY
Idih
SciTegic.value.DoubleValue
0.001

@<SCITEGIC>MOL_PROPERTY
Tether
SciTegic.value.DoubleValue
0.000

@<TRIPOS>MOLECULE
guest-7_confgen4.mol2 : confsearch ligand conformer 416
          19          18           1
SMALL
USER_CHARGES
 
@<TRIPOS>ATOM
       1    C1      19.258415   21.026209   21.766745 C.2        1 MOL1         0.6115
       2    O1      18.333857   21.215180   22.532470 O.co2      1 MOL1        -0.6776
       3    O2      19.131342   20.994910   20.558391 O.co2      1 MOL1        -0.6776
       4    C2      20.662764   20.891314   22.352483 C.3        1 MOL1        -0.2013
       5    H1      20.606354   20.997222   23.442677 H          1 MOL1         0.0727
       6    H2      21.234602   21.750596   21.983349 H          1 MOL1         0.0727
       7    C3      21.416125   19.584163   21.977078 C.3        1 MOL1        -0.1910
       8    H3      21.291434   19.374402   20.905633 H          1 MOL1         0.0729
       9    H4      22.490272   19.757072   22.127834 H          1 MOL1         0.0729
      10    C4      21.017122   18.341908   22.811510 C.3        1 MOL1        -0.1909
      11    H5      21.150968   18.555939   23.880673 H          1 MOL1         0.0729
      12    H6      21.715434   17.528896   22.569890 H          1 MOL1         0.0729
      13    C5      19.575680   17.848758   22.557302 C.3        1 MOL1        -0.1884
      14    H7      18.853926   18.593970   22.915263 H          1 MOL1         0.0729
      15    H8      19.407383   17.730501   21.477909 H          1 MOL1         0.0729
      16    C6      19.302384   16.509025   23.270226 C.3        1 MOL1        -0.2899
      17    H9      19.438877   16.607200   24.355164 H          1 MOL1         0.0741
      18    H10     18.272247   16.177047   23.086778 H          1 MOL1         0.0741
      19    H11     19.980412   15.725047   22.908322 H          1 MOL1         0.0741
@<TRIPOS>BOND
    1     1     2    1
    2     1     3    2
    3     1     4    1
    4     4     5    1
    5     4     6    1
    6     4     7    1
    7     7     8    1
    8     7     9    1
    9     7    10    1
   10    10    11    1
   11    10    12    1
   12    10    13    1
   13    13    14    1
   14    13    15    1
   15    13    16    1
   16    16    17    1
   17    16    18    1
   18    16    19    1
@<TRIPOS>SUBSTRUCTURE
       1 MOL1            1 RESIDUE      1      MOL     
@<SCITEGIC>MOL_PROPERTY
VConf Rank
SciTegic.value.IntegerValue
416

@<SCITEGIC>MOL_PROPERTY
Conf_Id
SciTegic.value.IntegerValue
25

@<SCITEGIC>MOL_PROPERTY
Delta U+W
SciTegic.value.DoubleValue
2.065

@<SCITEGIC>MOL_PROPERTY
U+W
SciTegic.value.DoubleValue
-52.826

@<SCITEGIC>MOL_PROPERTY
Grad RMS
SciTegic.value.DoubleValue
0.000000

@<SCITEGIC>MOL_PROPERTY
U
SciTegic.value.DoubleValue
10.967

@<SCITEGIC>MOL_PROPERTY
W
SciTegic.value.DoubleValue
-63.794

@<SCITEGIC>MOL_PROPERTY
W(PB)
SciTegic.value.DoubleValue
-65.830

@<SCITEGIC>MOL_PROPERTY
W(SA)
SciTegic.value.DoubleValue
2.036

@<SCITEGIC>MOL_PROPERTY
Valence
SciTegic.value.DoubleValue
8.609

@<SCITEGIC>MOL_PROPERTY
Coulomb
SciTegic.value.DoubleValue
1.892

@<SCITEGIC>MOL_PROPERTY
VdW
SciTegic.value.DoubleValue
0.467

@<SCITEGIC>MOL_PROPERTY
VdW6
SciTegic.value.DoubleValue
-7.569

@<SCITEGIC>MOL_PROPERTY
VdW12
SciTegic.value.DoubleValue
8.036

@<SCITEGIC>MOL_PROPERTY
Bond
SciTegic.value.DoubleValue
0.170

@<SCITEGIC>MOL_PROPERTY
Angle
SciTegic.value.DoubleValue
3.195

@<SCITEGIC>MOL_PROPERTY
Pdih
SciTegic.value.DoubleValue
5.237

@<SCITEGIC>MOL_PROPERTY
Idih
SciTegic.value.DoubleValue
0.007

@<SCITEGIC>MOL_PROPERTY
Tether
SciTegic.value.DoubleValue
0.000

@<TRIPOS>MOLECULE
guest-7_confgen4.mol2 : confsearch ligand conformer 417
          19          18           1
SMALL
USER_CHARGES
 
@<TRIPOS>ATOM
       1    C1      18.880046   20.464109   23.815618 C.2        1 MOL1         0.6115
       2    O1      19.384753   21.557970   23.654413 O.co2      1 MOL1        -0.6776
       3    O2      18.779570   19.926530   24.900867 O.co2      1 MOL1        -0.6776
       4    C2      18.277119   19.757336   22.603003 C.3        1 MOL1        -0.2013
       5    H1      17.461856   20.397698   22.246764 H          1 MOL1         0.0727
       6    H2      17.817080   18.817038   22.930306 H          1 MOL1         0.0727
       7    C3      19.262649   19.494418   21.429660 C.3        1 MOL1        -0.1910
       8    H3      18.670047   19.337331   20.518307 H          1 MOL1         0.0729
       9    H4      19.871137   20.390328   21.243568 H          1 MOL1         0.0729
      10    C4      20.178537   18.259306   21.614933 C.3        1 MOL1        -0.1909
      11    H5      20.711028   18.083568   20.670170 H          1 MOL1         0.0729
      12    H6      19.563861   17.366440   21.793261 H          1 MOL1         0.0729
      13    C5      21.217003   18.409465   22.748343 C.3        1 MOL1        -0.1884
      14    H7      21.765423   19.354039   22.628305 H          1 MOL1         0.0729
      15    H8      20.709816   18.453738   23.720561 H          1 MOL1         0.0729
      16    C6      22.214542   17.233625   22.760748 C.3        1 MOL1        -0.2899
      17    H9      22.939718   17.350989   23.576463 H          1 MOL1         0.0741
      18    H10     21.692981   16.278445   22.905535 H          1 MOL1         0.0741
      19    H11     22.772378   17.180678   21.816644 H          1 MOL1         0.0741
@<TRIPOS>BOND
    1     1     2    1
    2     1     3    2
    3     1     4    1
    4     4     5    1
    5     4     6    1
    6     4     7    1
    7     7     8    1
    8     7     9    1
    9     7    10    1
   10    10    11    1
   11    10    12    1
   12    10    13    1
   13    13    14    1
   14    13    15    1
   15    13    16    1
   16    16    17    1
   17    16    18    1
   18    16    19    1
@<TRIPOS>SUBSTRUCTURE
       1 MOL1            1 RESIDUE      1      MOL     
@<SCITEGIC>MOL_PROPERTY
VConf Rank
SciTegic.value.IntegerValue
417

@<SCITEGIC>MOL_PROPERTY
Conf_Id
SciTegic.value.IntegerValue
52

@<SCITEGIC>MOL_PROPERTY
Delta U+W
SciTegic.value.DoubleValue
2.070

@<SCITEGIC>MOL_PROPERTY
U+W
SciTegic.value.DoubleValue
-52.822

@<SCITEGIC>MOL_PROPERTY
Grad RMS
SciTegic.value.DoubleValue
0.000000

@<SCITEGIC>MOL_PROPERTY
U
SciTegic.value.DoubleValue
10.967

@<SCITEGIC>MOL_PROPERTY
W
SciTegic.value.DoubleValue
-63.789

@<SCITEGIC>MOL_PROPERTY
W(PB)
SciTegic.value.DoubleValue
-65.837

@<SCITEGIC>MOL_PROPERTY
W(SA)
SciTegic.value.DoubleValue
2.048

@<SCITEGIC>MOL_PROPERTY
Valence
SciTegic.value.DoubleValue
8.609

@<SCITEGIC>MOL_PROPERTY
Coulomb
SciTegic.value.DoubleValue
1.892

@<SCITEGIC>MOL_PROPERTY
VdW
SciTegic.value.DoubleValue
0.467

@<SCITEGIC>MOL_PROPERTY
VdW6
SciTegic.value.DoubleValue
-7.569

@<SCITEGIC>MOL_PROPERTY
VdW12
SciTegic.value.DoubleValue
8.035

@<SCITEGIC>MOL_PROPERTY
Bond
SciTegic.value.DoubleValue
0.170

@<SCITEGIC>MOL_PROPERTY
Angle
SciTegic.value.DoubleValue
3.196

@<SCITEGIC>MOL_PROPERTY
Pdih
SciTegic.value.DoubleValue
5.237

@<SCITEGIC>MOL_PROPERTY
Idih
SciTegic.value.DoubleValue
0.007

@<SCITEGIC>MOL_PROPERTY
Tether
SciTegic.value.DoubleValue
0.000

@<TRIPOS>MOLECULE
guest-7_confgen4.mol2 : confsearch ligand conformer 418
          19          18           1
SMALL
USER_CHARGES
 
@<TRIPOS>ATOM
       1    C1      21.540700   18.204796   21.484497 C.2        1 MOL1         0.6115
       2    O1      21.315862   18.410226   20.307483 O.co2      1 MOL1        -0.6776
       3    O2      22.554572   18.575491   22.042481 O.co2      1 MOL1        -0.6776
       4    C2      20.566808   17.330896   22.276465 C.3        1 MOL1        -0.2013
       5    H1      20.831978   17.373347   23.339678 H          1 MOL1         0.0727
       6    H2      20.750350   16.300860   21.949946 H          1 MOL1         0.0727
       7    C3      19.057856   17.656563   22.085744 C.3        1 MOL1        -0.1910
       8    H3      18.851502   17.875193   21.028909 H          1 MOL1         0.0729
       9    H4      18.485015   16.748845   22.318676 H          1 MOL1         0.0729
      10    C4      18.505760   18.797402   22.978413 C.3        1 MOL1        -0.1909
      11    H5      18.620996   18.533460   24.038645 H          1 MOL1         0.0729
      12    H6      17.422591   18.856721   22.804650 H          1 MOL1         0.0729
      13    C5      19.111618   20.194969   22.703219 C.3        1 MOL1        -0.1884
      14    H7      19.528943   20.239646   21.687739 H          1 MOL1         0.0729
      15    H8      18.307123   20.942609   22.734368 H          1 MOL1         0.0729
      16    C6      20.181106   20.597371   23.741192 C.3        1 MOL1        -0.2899
      17    H9      19.747853   20.652510   24.748261 H          1 MOL1         0.0741
      18    H10     21.007096   19.877091   23.767001 H          1 MOL1         0.0741
      19    H11     20.601000   21.582231   23.499614 H          1 MOL1         0.0741
@<TRIPOS>BOND
    1     1     2    1
    2     1     3    2
    3     1     4    1
    4     4     5    1
    5     4     6    1
    6     4     7    1
    7     7     8    1
    8     7     9    1
    9     7    10    1
   10    10    11    1
   11    10    12    1
   12    10    13    1
   13    13    14    1
   14    13    15    1
   15    13    16    1
   16    16    17    1
   17    16    18    1
   18    16    19    1
@<TRIPOS>SUBSTRUCTURE
       1 MOL1            1 RESIDUE      1      MOL     
@<SCITEGIC>MOL_PROPERTY
VConf Rank
SciTegic.value.IntegerValue
418

@<SCITEGIC>MOL_PROPERTY
Conf_Id
SciTegic.value.IntegerValue
66

@<SCITEGIC>MOL_PROPERTY
Delta U+W
SciTegic.value.DoubleValue
5.819

@<SCITEGIC>MOL_PROPERTY
U+W
SciTegic.value.DoubleValue
-49.072

@<SCITEGIC>MOL_PROPERTY
Grad RMS
SciTegic.value.DoubleValue
0.000000

@<SCITEGIC>MOL_PROPERTY
U
SciTegic.value.DoubleValue
15.324

@<SCITEGIC>MOL_PROPERTY
W
SciTegic.value.DoubleValue
-64.396

@<SCITEGIC>MOL_PROPERTY
W(PB)
SciTegic.value.DoubleValue
-66.382

@<SCITEGIC>MOL_PROPERTY
W(SA)
SciTegic.value.DoubleValue
1.986

@<SCITEGIC>MOL_PROPERTY
Valence
SciTegic.value.DoubleValue
11.748

@<SCITEGIC>MOL_PROPERTY
Coulomb
SciTegic.value.DoubleValue
3.201

@<SCITEGIC>MOL_PROPERTY
VdW
SciTegic.value.DoubleValue
0.375

@<SCITEGIC>MOL_PROPERTY
VdW6
SciTegic.value.DoubleValue
-8.854

@<SCITEGIC>MOL_PROPERTY
VdW12
SciTegic.value.DoubleValue
9.229

@<SCITEGIC>MOL_PROPERTY
Bond
SciTegic.value.DoubleValue
0.216

@<SCITEGIC>MOL_PROPERTY
Angle
SciTegic.value.DoubleValue
3.812

@<SCITEGIC>MOL_PROPERTY
Pdih
SciTegic.value.DoubleValue
7.699

@<SCITEGIC>MOL_PROPERTY
Idih
SciTegic.value.DoubleValue
0.022

@<SCITEGIC>MOL_PROPERTY
Tether
SciTegic.value.DoubleValue
0.000

@<TRIPOS>MOLECULE
guest-7_confgen4.mol2 : confsearch ligand conformer 419
          19          18           1
SMALL
USER_CHARGES
 
@<TRIPOS>ATOM
       1    C1      22.705834   17.116089   21.109465 C.2        1 MOL1         0.6115
       2    O1      23.257287   16.719653   20.102290 O.co2      1 MOL1        -0.6776
       3    O2      23.127389   16.893829   22.227963 O.co2      1 MOL1        -0.6776
       4    C2      21.423262   17.929802   20.929036 C.3        1 MOL1        -0.2013
       5    H1      20.718992   17.309094   20.362667 H          1 MOL1         0.0727
       6    H2      21.669152   18.792556   20.298763 H          1 MOL1         0.0727
       7    C3      20.755086   18.414392   22.243246 C.3        1 MOL1        -0.1910
       8    H3      20.516575   17.545775   22.872599 H          1 MOL1         0.0729
       9    H4      21.467752   19.030746   22.808650 H          1 MOL1         0.0729
      10    C4      19.470199   19.225586   21.968854 C.3        1 MOL1        -0.1909
      11    H5      18.759235   18.607587   21.403383 H          1 MOL1         0.0729
      12    H6      19.710913   20.093374   21.339448 H          1 MOL1         0.0729
      13    C5      18.807529   19.706313   23.276586 C.3        1 MOL1        -0.1884
      14    H7      18.563458   18.840906   23.908245 H          1 MOL1         0.0729
      15    H8      19.514971   20.326609   23.844258 H          1 MOL1         0.0729
      16    C6      17.525050   20.515705   22.998875 C.3        1 MOL1        -0.2899
      17    H9      16.786586   19.908564   22.458994 H          1 MOL1         0.0741
      18    H10     17.067126   20.849486   23.939090 H          1 MOL1         0.0741
      19    H11     17.745261   21.405457   22.394501 H          1 MOL1         0.0741
@<TRIPOS>BOND
    1     1     2    1
    2     1     3    2
    3     1     4    1
    4     4     5    1
    5     4     6    1
    6     4     7    1
    7     7     8    1
    8     7     9    1
    9     7    10    1
   10    10    11    1
   11    10    12    1
   12    10    13    1
   13    13    14    1
   14    13    15    1
   15    13    16    1
   16    16    17    1
   17    16    18    1
   18    16    19    1
@<TRIPOS>SUBSTRUCTURE
       1 MOL1            1 RESIDUE      1      MOL     
@<SCITEGIC>MOL_PROPERTY
VConf Rank
SciTegic.value.IntegerValue
419

@<SCITEGIC>MOL_PROPERTY
Conf_Id
SciTegic.value.IntegerValue
0

@<SCITEGIC>MOL_PROPERTY
Delta U+W
SciTegic.value.DoubleValue
0.000

@<SCITEGIC>MOL_PROPERTY
U+W
SciTegic.value.DoubleValue
-54.891

@<SCITEGIC>MOL_PROPERTY
Grad RMS
SciTegic.value.DoubleValue
0.000000

@<SCITEGIC>MOL_PROPERTY
U
SciTegic.value.DoubleValue
6.966

@<SCITEGIC>MOL_PROPERTY
W
SciTegic.value.DoubleValue
-61.857

@<SCITEGIC>MOL_PROPERTY
W(PB)
SciTegic.value.DoubleValue
-63.965

@<SCITEGIC>MOL_PROPERTY
W(SA)
SciTegic.value.DoubleValue
2.108

@<SCITEGIC>MOL_PROPERTY
Valence
SciTegic.value.DoubleValue
7.175

@<SCITEGIC>MOL_PROPERTY
Coulomb
SciTegic.value.DoubleValue
-1.360

@<SCITEGIC>MOL_PROPERTY
VdW
SciTegic.value.DoubleValue
1.151

@<SCITEGIC>MOL_PROPERTY
VdW6
SciTegic.value.DoubleValue
-5.641

@<SCITEGIC>MOL_PROPERTY
VdW12
SciTegic.value.DoubleValue
6.792

@<SCITEGIC>MOL_PROPERTY
Bond
SciTegic.value.DoubleValue
0.119

@<SCITEGIC>MOL_PROPERTY
Angle
SciTegic.value.DoubleValue
2.715

@<SCITEGIC>MOL_PROPERTY
Pdih
SciTegic.value.DoubleValue
4.340

@<SCITEGIC>MOL_PROPERTY
Idih
SciTegic.value.DoubleValue
0.000

@<SCITEGIC>MOL_PROPERTY
Tether
SciTegic.value.DoubleValue
0.000

@<TRIPOS>MOLECULE
guest-7_confgen4.mol2 : confsearch ligand conformer 420
          19          18           1
SMALL
USER_CHARGES
 
@<TRIPOS>ATOM
       1    C1      16.843744   18.958016   20.721142 C.2        1 MOL1         0.6115
       2    O1      16.251576   17.897853   20.760794 O.co2      1 MOL1        -0.6776
       3    O2      16.288708   20.038810   20.719951 O.co2      1 MOL1        -0.6776
       4    C2      18.367815   18.931019   20.691975 C.3        1 MOL1        -0.2013
       5    H1      18.713101   19.796812   20.114116 H          1 MOL1         0.0727
       6    H2      18.682502   18.032111   20.148212 H          1 MOL1         0.0727
       7    C3      18.997548   18.947436   22.106642 C.3        1 MOL1        -0.1910
       8    H3      18.662850   19.846622   22.642359 H          1 MOL1         0.0729
       9    H4      18.632101   18.081859   22.676531 H          1 MOL1         0.0729
      10    C4      20.540132   18.919448   22.049394 C.3        1 MOL1        -0.1909
      11    H5      20.902276   19.785169   21.477929 H          1 MOL1         0.0729
      12    H6      20.871520   18.020112   21.512207 H          1 MOL1         0.0729
      13    C5      21.164730   18.935958   23.460060 C.3        1 MOL1        -0.1884
      14    H7      20.837071   19.835186   23.999988 H          1 MOL1         0.0729
      15    H8      20.806395   18.070271   24.034232 H          1 MOL1         0.0729
      16    C6      22.705010   18.908009   23.399121 C.3        1 MOL1        -0.2899
      17    H9      23.132398   18.920224   24.410209 H          1 MOL1         0.0741
      18    H10     23.061642   18.002279   22.891293 H          1 MOL1         0.0741
      19    H11     23.092536   19.780409   22.856754 H          1 MOL1         0.0741
@<TRIPOS>BOND
    1     1     2    1
    2     1     3    2
    3     1     4    1
    4     4     5    1
    5     4     6    1
    6     4     7    1
    7     7     8    1
    8     7     9    1
    9     7    10    1
   10    10    11    1
   11    10    12    1
   12    10    13    1
   13    13    14    1
   14    13    15    1
   15    13    16    1
   16    16    17    1
   17    16    18    1
   18    16    19    1
@<TRIPOS>SUBSTRUCTURE
       1 MOL1            1 RESIDUE      1      MOL     
@<SCITEGIC>MOL_PROPERTY
VConf Rank
SciTegic.value.IntegerValue
420

@<SCITEGIC>MOL_PROPERTY
Conf_Id
SciTegic.value.IntegerValue
18

@<SCITEGIC>MOL_PROPERTY
Delta U+W
SciTegic.value.DoubleValue
-1.199

@<SCITEGIC>MOL_PROPERTY
U+W
SciTegic.value.DoubleValue
-56.090

@<SCITEGIC>MOL_PROPERTY
Grad RMS
SciTegic.value.DoubleValue
0.000000

@<SCITEGIC>MOL_PROPERTY
U
SciTegic.value.DoubleValue
5.975

@<SCITEGIC>MOL_PROPERTY
W
SciTegic.value.DoubleValue
-62.066

@<SCITEGIC>MOL_PROPERTY
W(PB)
SciTegic.value.DoubleValue
-64.219

@<SCITEGIC>MOL_PROPERTY
W(SA)
SciTegic.value.DoubleValue
2.153

@<SCITEGIC>MOL_PROPERTY
Valence
SciTegic.value.DoubleValue
6.673

@<SCITEGIC>MOL_PROPERTY
Coulomb
SciTegic.value.DoubleValue
-1.307

@<SCITEGIC>MOL_PROPERTY
VdW
SciTegic.value.DoubleValue
0.610

@<SCITEGIC>MOL_PROPERTY
VdW6
SciTegic.value.DoubleValue
-5.351

@<SCITEGIC>MOL_PROPERTY
VdW12
SciTegic.value.DoubleValue
5.961

@<SCITEGIC>MOL_PROPERTY
Bond
SciTegic.value.DoubleValue
0.086

@<SCITEGIC>MOL_PROPERTY
Angle
SciTegic.value.DoubleValue
2.253

@<SCITEGIC>MOL_PROPERTY
Pdih
SciTegic.value.DoubleValue
4.333

@<SCITEGIC>MOL_PROPERTY
Idih
SciTegic.value.DoubleValue
0.001

@<SCITEGIC>MOL_PROPERTY
Tether
SciTegic.value.DoubleValue
0.000

@<TRIPOS>MOLECULE
guest-7_confgen4.mol2 : confsearch ligand conformer 421
          19          18           1
SMALL
USER_CHARGES
 
@<TRIPOS>ATOM
       1    C1      18.126253   18.646133   19.578196 C.2        1 MOL1         0.6115
       2    O1      18.408323   19.123926   18.497253 O.co2      1 MOL1        -0.6776
       3    O2      17.304298   17.764238   19.729571 O.co2      1 MOL1        -0.6776
       4    C2      18.859346   19.167027   20.809295 C.3        1 MOL1        -0.2013
       5    H1      18.166567   19.114744   21.656742 H          1 MOL1         0.0727
       6    H2      19.092395   20.225741   20.644005 H          1 MOL1         0.0727
       7    C3      20.157373   18.375173   21.114703 C.3        1 MOL1        -0.1910
       8    H3      19.906756   17.325675   21.322203 H          1 MOL1         0.0729
       9    H4      20.787805   18.371347   20.214723 H          1 MOL1         0.0729
      10    C4      20.975582   18.959776   22.290419 C.3        1 MOL1        -0.1909
      11    H5      21.231789   20.006405   22.076103 H          1 MOL1         0.0729
      12    H6      21.926993   18.414572   22.358128 H          1 MOL1         0.0729
      13    C5      20.247537   18.869724   23.650327 C.3        1 MOL1        -0.1884
      14    H7      19.329444   19.471397   23.628980 H          1 MOL1         0.0729
      15    H8      19.946051   17.830544   23.841325 H          1 MOL1         0.0729
      16    C6      21.143188   19.363089   24.804307 C.3        1 MOL1        -0.2899
      17    H9      20.611529   19.295810   25.762379 H          1 MOL1         0.0741
      18    H10     22.055914   18.757653   24.880236 H          1 MOL1         0.0741
      19    H11     21.437505   20.409886   24.652657 H          1 MOL1         0.0741
@<TRIPOS>BOND
    1     1     2    1
    2     1     3    2
    3     1     4    1
    4     4     5    1
    5     4     6    1
    6     4     7    1
    7     7     8    1
    8     7     9    1
    9     7    10    1
   10    10    11    1
   11    10    12    1
   12    10    13    1
   13    13    14    1
   14    13    15    1
   15    13    16    1
   16    16    17    1
   17    16    18    1
   18    16    19    1
@<TRIPOS>SUBSTRUCTURE
       1 MOL1            1 RESIDUE      1      MOL     
@<SCITEGIC>MOL_PROPERTY
VConf Rank
SciTegic.value.IntegerValue
421

@<SCITEGIC>MOL_PROPERTY
Conf_Id
SciTegic.value.IntegerValue
34

@<SCITEGIC>MOL_PROPERTY
Delta U+W
SciTegic.value.DoubleValue
-0.563

@<SCITEGIC>MOL_PROPERTY
U+W
SciTegic.value.DoubleValue
-55.455

@<SCITEGIC>MOL_PROPERTY
Grad RMS
SciTegic.value.DoubleValue
0.000000

@<SCITEGIC>MOL_PROPERTY
U
SciTegic.value.DoubleValue
6.914

@<SCITEGIC>MOL_PROPERTY
W
SciTegic.value.DoubleValue
-62.369

@<SCITEGIC>MOL_PROPERTY
W(PB)
SciTegic.value.DoubleValue
-64.446

@<SCITEGIC>MOL_PROPERTY
W(SA)
SciTegic.value.DoubleValue
2.077

@<SCITEGIC>MOL_PROPERTY
Valence
SciTegic.value.DoubleValue
7.196

@<SCITEGIC>MOL_PROPERTY
Coulomb
SciTegic.value.DoubleValue
-1.020

@<SCITEGIC>MOL_PROPERTY
VdW
SciTegic.value.DoubleValue
0.738

@<SCITEGIC>MOL_PROPERTY
VdW6
SciTegic.value.DoubleValue
-6.010

@<SCITEGIC>MOL_PROPERTY
VdW12
SciTegic.value.DoubleValue
6.748

@<SCITEGIC>MOL_PROPERTY
Bond
SciTegic.value.DoubleValue
0.126

@<SCITEGIC>MOL_PROPERTY
Angle
SciTegic.value.DoubleValue
2.499

@<SCITEGIC>MOL_PROPERTY
Pdih
SciTegic.value.DoubleValue
4.570

@<SCITEGIC>MOL_PROPERTY
Idih
SciTegic.value.DoubleValue
0.001

@<SCITEGIC>MOL_PROPERTY
Tether
SciTegic.value.DoubleValue
0.000

@<TRIPOS>MOLECULE
guest-7_confgen4.mol2 : confsearch ligand conformer 422
          19          18           1
SMALL
USER_CHARGES
 
@<TRIPOS>ATOM
       1    C1      21.628116   16.417697   23.334275 C.2        1 MOL1         0.6115
       2    O1      22.659370   16.525902   23.967597 O.co2      1 MOL1        -0.6776
       3    O2      21.275858   15.387983   22.794030 O.co2      1 MOL1        -0.6776
       4    C2      20.738332   17.647414   23.191304 C.3        1 MOL1        -0.2013
       5    H1      20.844373   18.251730   24.100188 H          1 MOL1         0.0727
       6    H2      19.698747   17.303490   23.148611 H          1 MOL1         0.0727
       7    C3      21.084859   18.496920   21.940928 C.3        1 MOL1        -0.1910
       8    H3      22.154375   18.747302   21.970377 H          1 MOL1         0.0729
       9    H4      20.932165   17.894951   21.034491 H          1 MOL1         0.0729
      10    C4      20.271308   19.809011   21.840554 C.3        1 MOL1        -0.1909
      11    H5      20.662311   20.398166   20.999706 H          1 MOL1         0.0729
      12    H6      20.432806   20.412350   22.744385 H          1 MOL1         0.0729
      13    C5      18.757749   19.578965   21.631438 C.3        1 MOL1        -0.1884
      14    H7      18.598272   18.933235   20.756870 H          1 MOL1         0.0729
      15    H8      18.330753   19.056986   22.497796 H          1 MOL1         0.0729
      16    C6      18.006805   20.910181   21.428432 C.3        1 MOL1        -0.2899
      17    H9      18.126732   21.565438   22.301165 H          1 MOL1         0.0741
      18    H10     18.382652   21.443024   20.545140 H          1 MOL1         0.0741
      19    H11     16.933464   20.730596   21.284286 H          1 MOL1         0.0741
@<TRIPOS>BOND
    1     1     2    1
    2     1     3    2
    3     1     4    1
    4     4     5    1
    5     4     6    1
    6     4     7    1
    7     7     8    1
    8     7     9    1
    9     7    10    1
   10    10    11    1
   11    10    12    1
   12    10    13    1
   13    13    14    1
   14    13    15    1
   15    13    16    1
   16    16    17    1
   17    16    18    1
   18    16    19    1
@<TRIPOS>SUBSTRUCTURE
       1 MOL1            1 RESIDUE      1      MOL     
@<SCITEGIC>MOL_PROPERTY
VConf Rank
SciTegic.value.IntegerValue
422

@<SCITEGIC>MOL_PROPERTY
Conf_Id
SciTegic.value.IntegerValue
33

@<SCITEGIC>MOL_PROPERTY
Delta U+W
SciTegic.value.DoubleValue
-0.526

@<SCITEGIC>MOL_PROPERTY
U+W
SciTegic.value.DoubleValue
-55.418

@<SCITEGIC>MOL_PROPERTY
Grad RMS
SciTegic.value.DoubleValue
0.000000

@<SCITEGIC>MOL_PROPERTY
U
SciTegic.value.DoubleValue
6.914

@<SCITEGIC>MOL_PROPERTY
W
SciTegic.value.DoubleValue
-62.332

@<SCITEGIC>MOL_PROPERTY
W(PB)
SciTegic.value.DoubleValue
-64.421

@<SCITEGIC>MOL_PROPERTY
W(SA)
SciTegic.value.DoubleValue
2.090

@<SCITEGIC>MOL_PROPERTY
Valence
SciTegic.value.DoubleValue
7.196

@<SCITEGIC>MOL_PROPERTY
Coulomb
SciTegic.value.DoubleValue
-1.020

@<SCITEGIC>MOL_PROPERTY
VdW
SciTegic.value.DoubleValue
0.738

@<SCITEGIC>MOL_PROPERTY
VdW6
SciTegic.value.DoubleValue
-6.010

@<SCITEGIC>MOL_PROPERTY
VdW12
SciTegic.value.DoubleValue
6.748

@<SCITEGIC>MOL_PROPERTY
Bond
SciTegic.value.DoubleValue
0.126

@<SCITEGIC>MOL_PROPERTY
Angle
SciTegic.value.DoubleValue
2.499

@<SCITEGIC>MOL_PROPERTY
Pdih
SciTegic.value.DoubleValue
4.570

@<SCITEGIC>MOL_PROPERTY
Idih
SciTegic.value.DoubleValue
0.001

@<SCITEGIC>MOL_PROPERTY
Tether
SciTegic.value.DoubleValue
0.000

@<TRIPOS>MOLECULE
guest-7_confgen4.mol2 : confsearch ligand conformer 423
          19          18           1
SMALL
USER_CHARGES
 
@<TRIPOS>ATOM
       1    C1      22.538877   17.632979   23.401209 C.2        1 MOL1         0.6115
       2    O1      23.431757   18.456272   23.435453 O.co2      1 MOL1        -0.6776
       3    O2      22.400032   16.756591   24.231215 O.co2      1 MOL1        -0.6776
       4    C2      21.526752   17.714741   22.263923 C.3        1 MOL1        -0.2013
       5    H1      21.196425   16.695936   22.028128 H          1 MOL1         0.0727
       6    H2      22.041509   18.102252   21.376463 H          1 MOL1         0.0727
       7    C3      20.307708   18.606716   22.605613 C.3        1 MOL1        -0.1910
       8    H3      19.808793   18.211546   23.501248 H          1 MOL1         0.0729
       9    H4      20.663981   19.614721   22.855846 H          1 MOL1         0.0729
      10    C4      19.300478   18.674255   21.434465 C.3        1 MOL1        -0.1909
      11    H5      19.011165   17.652636   21.152353 H          1 MOL1         0.0729
      12    H6      19.786133   19.115001   20.553052 H          1 MOL1         0.0729
      13    C5      18.019500   19.471715   21.771717 C.3        1 MOL1        -0.1884
      14    H7      17.312061   19.371858   20.936970 H          1 MOL1         0.0729
      15    H8      17.527783   19.030396   22.649658 H          1 MOL1         0.0729
      16    C6      18.282472   20.972200   22.023193 C.3        1 MOL1        -0.2899
      17    H9      18.800325   21.428807   21.169673 H          1 MOL1         0.0741
      18    H10     17.335896   21.508214   22.170249 H          1 MOL1         0.0741
      19    H11     18.894344   21.126978   22.920634 H          1 MOL1         0.0741
@<TRIPOS>BOND
    1     1     2    1
    2     1     3    2
    3     1     4    1
    4     4     5    1
    5     4     6    1
    6     4     7    1
    7     7     8    1
    8     7     9    1
    9     7    10    1
   10    10    11    1
   11    10    12    1
   12    10    13    1
   13    13    14    1
   14    13    15    1
   15    13    16    1
   16    16    17    1
   17    16    18    1
   18    16    19    1
@<TRIPOS>SUBSTRUCTURE
       1 MOL1            1 RESIDUE      1      MOL     
@<SCITEGIC>MOL_PROPERTY
VConf Rank
SciTegic.value.IntegerValue
423

@<SCITEGIC>MOL_PROPERTY
Conf_Id
SciTegic.value.IntegerValue
42

@<SCITEGIC>MOL_PROPERTY
Delta U+W
SciTegic.value.DoubleValue
-0.344

@<SCITEGIC>MOL_PROPERTY
U+W
SciTegic.value.DoubleValue
-55.236

@<SCITEGIC>MOL_PROPERTY
Grad RMS
SciTegic.value.DoubleValue
0.000000

@<SCITEGIC>MOL_PROPERTY
U
SciTegic.value.DoubleValue
7.244

@<SCITEGIC>MOL_PROPERTY
W
SciTegic.value.DoubleValue
-62.479

@<SCITEGIC>MOL_PROPERTY
W(PB)
SciTegic.value.DoubleValue
-64.610

@<SCITEGIC>MOL_PROPERTY
W(SA)
SciTegic.value.DoubleValue
2.130

@<SCITEGIC>MOL_PROPERTY
Valence
SciTegic.value.DoubleValue
7.174

@<SCITEGIC>MOL_PROPERTY
Coulomb
SciTegic.value.DoubleValue
-0.669

@<SCITEGIC>MOL_PROPERTY
VdW
SciTegic.value.DoubleValue
0.739

@<SCITEGIC>MOL_PROPERTY
VdW6
SciTegic.value.DoubleValue
-5.969

@<SCITEGIC>MOL_PROPERTY
VdW12
SciTegic.value.DoubleValue
6.708

@<SCITEGIC>MOL_PROPERTY
Bond
SciTegic.value.DoubleValue
0.116

@<SCITEGIC>MOL_PROPERTY
Angle
SciTegic.value.DoubleValue
2.481

@<SCITEGIC>MOL_PROPERTY
Pdih
SciTegic.value.DoubleValue
4.576

@<SCITEGIC>MOL_PROPERTY
Idih
SciTegic.value.DoubleValue
0.000

@<SCITEGIC>MOL_PROPERTY
Tether
SciTegic.value.DoubleValue
0.000

@<TRIPOS>MOLECULE
guest-7_confgen4.mol2 : confsearch ligand conformer 424
          19          18           1
SMALL
USER_CHARGES
 
@<TRIPOS>ATOM
       1    C1      19.427585   21.734347   20.879454 C.2        1 MOL1         0.6115
       2    O1      20.104531   22.603284   21.392205 O.co2      1 MOL1        -0.6776
       3    O2      18.294388   21.913024   20.479224 O.co2      1 MOL1        -0.6776
       4    C2      20.026315   20.338423   20.747475 C.3        1 MOL1        -0.2013
       5    H1      21.107982   20.443767   20.600420 H          1 MOL1         0.0727
       6    H2      19.619015   19.877643   19.839473 H          1 MOL1         0.0727
       7    C3      19.739909   19.441578   21.977144 C.3        1 MOL1        -0.1910
       8    H3      20.139541   19.931337   22.874948 H          1 MOL1         0.0729
       9    H4      18.653631   19.353473   22.116699 H          1 MOL1         0.0729
      10    C4      20.361124   18.034676   21.817835 C.3        1 MOL1        -0.1909
      11    H5      21.452739   18.119718   21.727558 H          1 MOL1         0.0729
      12    H6      20.004600   17.590720   20.878269 H          1 MOL1         0.0729
      13    C5      20.011653   17.074372   22.978126 C.3        1 MOL1        -0.1884
      14    H7      18.920426   16.982330   23.068003 H          1 MOL1         0.0729
      15    H8      20.388336   16.072041   22.731776 H          1 MOL1         0.0729
      16    C6      20.609471   17.510512   24.333208 C.3        1 MOL1        -0.2899
      17    H9      20.174232   18.457058   24.677246 H          1 MOL1         0.0741
      18    H10     20.408603   16.753710   25.102523 H          1 MOL1         0.0741
      19    H11     21.697436   17.637540   24.260054 H          1 MOL1         0.0741
@<TRIPOS>BOND
    1     1     2    1
    2     1     3    2
    3     1     4    1
    4     4     5    1
    5     4     6    1
    6     4     7    1
    7     7     8    1
    8     7     9    1
    9     7    10    1
   10    10    11    1
   11    10    12    1
   12    10    13    1
   13    13    14    1
   14    13    15    1
   15    13    16    1
   16    16    17    1
   17    16    18    1
   18    16    19    1
@<TRIPOS>SUBSTRUCTURE
       1 MOL1            1 RESIDUE      1      MOL     
@<SCITEGIC>MOL_PROPERTY
VConf Rank
SciTegic.value.IntegerValue
424

@<SCITEGIC>MOL_PROPERTY
Conf_Id
SciTegic.value.IntegerValue
41

@<SCITEGIC>MOL_PROPERTY
Delta U+W
SciTegic.value.DoubleValue
-0.361

@<SCITEGIC>MOL_PROPERTY
U+W
SciTegic.value.DoubleValue
-55.252

@<SCITEGIC>MOL_PROPERTY
Grad RMS
SciTegic.value.DoubleValue
0.000000

@<SCITEGIC>MOL_PROPERTY
U
SciTegic.value.DoubleValue
7.244

@<SCITEGIC>MOL_PROPERTY
W
SciTegic.value.DoubleValue
-62.496

@<SCITEGIC>MOL_PROPERTY
W(PB)
SciTegic.value.DoubleValue
-64.596

@<SCITEGIC>MOL_PROPERTY
W(SA)
SciTegic.value.DoubleValue
2.099

@<SCITEGIC>MOL_PROPERTY
Valence
SciTegic.value.DoubleValue
7.174

@<SCITEGIC>MOL_PROPERTY
Coulomb
SciTegic.value.DoubleValue
-0.669

@<SCITEGIC>MOL_PROPERTY
VdW
SciTegic.value.DoubleValue
0.739

@<SCITEGIC>MOL_PROPERTY
VdW6
SciTegic.value.DoubleValue
-5.969

@<SCITEGIC>MOL_PROPERTY
VdW12
SciTegic.value.DoubleValue
6.708

@<SCITEGIC>MOL_PROPERTY
Bond
SciTegic.value.DoubleValue
0.116

@<SCITEGIC>MOL_PROPERTY
Angle
SciTegic.value.DoubleValue
2.481

@<SCITEGIC>MOL_PROPERTY
Pdih
SciTegic.value.DoubleValue
4.576

@<SCITEGIC>MOL_PROPERTY
Idih
SciTegic.value.DoubleValue
0.000

@<SCITEGIC>MOL_PROPERTY
Tether
SciTegic.value.DoubleValue
0.000

@<TRIPOS>MOLECULE
guest-7_confgen4.mol2 : confsearch ligand conformer 425
          19          18           1
SMALL
USER_CHARGES
 
@<TRIPOS>ATOM
       1    C1      20.742196   20.253618   24.741487 C.2        1 MOL1         0.6115
       2    O1      19.988244   21.206007   24.774062 O.co2      1 MOL1        -0.6776
       3    O2      20.917528   19.503128   25.681010 O.co2      1 MOL1        -0.6776
       4    C2      21.529364   19.997086   23.459339 C.3        1 MOL1        -0.2013
       5    H1      22.570424   19.807226   23.746145 H          1 MOL1         0.0727
       6    H2      21.528143   20.914306   22.857930 H          1 MOL1         0.0727
       7    C3      20.998344   18.806059   22.619957 C.3        1 MOL1        -0.1910
       8    H3      21.700059   18.608338   21.798352 H          1 MOL1         0.0729
       9    H4      20.978493   17.901508   23.243676 H          1 MOL1         0.0729
      10    C4      19.592336   19.070404   22.036369 C.3        1 MOL1        -0.1909
      11    H5      19.614363   19.982602   21.424455 H          1 MOL1         0.0729
      12    H6      18.880482   19.252393   22.853416 H          1 MOL1         0.0729
      13    C5      19.097567   17.886341   21.179746 C.3        1 MOL1        -0.1884
      14    H7      19.803681   17.702287   20.358188 H          1 MOL1         0.0729
      15    H8      19.072258   16.972947   21.790110 H          1 MOL1         0.0729
      16    C6      17.694589   18.153165   20.598856 C.3        1 MOL1        -0.2899
      17    H9      17.697923   19.044668   19.958062 H          1 MOL1         0.0741
      18    H10     17.358191   17.301579   19.993277 H          1 MOL1         0.0741
      19    H11     16.961034   18.309945   21.400579 H          1 MOL1         0.0741
@<TRIPOS>BOND
    1     1     2    1
    2     1     3    2
    3     1     4    1
    4     4     5    1
    5     4     6    1
    6     4     7    1
    7     7     8    1
    8     7     9    1
    9     7    10    1
   10    10    11    1
   11    10    12    1
   12    10    13    1
   13    13    14    1
   14    13    15    1
   15    13    16    1
   16    16    17    1
   17    16    18    1
   18    16    19    1
@<TRIPOS>SUBSTRUCTURE
       1 MOL1            1 RESIDUE      1      MOL     
@<SCITEGIC>MOL_PROPERTY
VConf Rank
SciTegic.value.IntegerValue
425

@<SCITEGIC>MOL_PROPERTY
Conf_Id
SciTegic.value.IntegerValue
36

@<SCITEGIC>MOL_PROPERTY
Delta U+W
SciTegic.value.DoubleValue
-0.079

@<SCITEGIC>MOL_PROPERTY
U+W
SciTegic.value.DoubleValue
-54.971

@<SCITEGIC>MOL_PROPERTY
Grad RMS
SciTegic.value.DoubleValue
0.000000

@<SCITEGIC>MOL_PROPERTY
U
SciTegic.value.DoubleValue
8.266

@<SCITEGIC>MOL_PROPERTY
W
SciTegic.value.DoubleValue
-63.237

@<SCITEGIC>MOL_PROPERTY
W(PB)
SciTegic.value.DoubleValue
-65.340

@<SCITEGIC>MOL_PROPERTY
W(SA)
SciTegic.value.DoubleValue
2.103

@<SCITEGIC>MOL_PROPERTY
Valence
SciTegic.value.DoubleValue
6.935

@<SCITEGIC>MOL_PROPERTY
Coulomb
SciTegic.value.DoubleValue
0.874

@<SCITEGIC>MOL_PROPERTY
VdW
SciTegic.value.DoubleValue
0.457

@<SCITEGIC>MOL_PROPERTY
VdW6
SciTegic.value.DoubleValue
-6.205

@<SCITEGIC>MOL_PROPERTY
VdW12
SciTegic.value.DoubleValue
6.662

@<SCITEGIC>MOL_PROPERTY
Bond
SciTegic.value.DoubleValue
0.107

@<SCITEGIC>MOL_PROPERTY
Angle
SciTegic.value.DoubleValue
2.420

@<SCITEGIC>MOL_PROPERTY
Pdih
SciTegic.value.DoubleValue
4.407

@<SCITEGIC>MOL_PROPERTY
Idih
SciTegic.value.DoubleValue
0.001

@<SCITEGIC>MOL_PROPERTY
Tether
SciTegic.value.DoubleValue
0.000

@<TRIPOS>MOLECULE
guest-7_confgen4.mol2 : confsearch ligand conformer 426
          19          18           1
SMALL
USER_CHARGES
 
@<TRIPOS>ATOM
       1    C1      19.426772   16.207583   21.951571 C.2        1 MOL1         0.6115
       2    O1      20.075669   15.962979   20.953747 O.co2      1 MOL1        -0.6776
       3    O2      18.239586   15.970111   22.055870 O.co2      1 MOL1        -0.6776
       4    C2      20.144230   16.826968   23.147800 C.3        1 MOL1        -0.2013
       5    H1      21.222735   16.664257   23.032300 H          1 MOL1         0.0727
       6    H2      19.833393   16.271220   24.040344 H          1 MOL1         0.0727
       7    C3      19.849214   18.336132   23.349000 C.3        1 MOL1        -0.1910
       8    H3      18.763990   18.486542   23.434426 H          1 MOL1         0.0729
       9    H4      20.289493   18.661342   24.301328 H          1 MOL1         0.0729
      10    C4      20.410116   19.209082   22.204160 C.3        1 MOL1        -0.1909
      11    H5      19.961364   18.901011   21.249626 H          1 MOL1         0.0729
      12    H6      21.492778   19.045388   22.114283 H          1 MOL1         0.0729
      13    C5      20.132885   20.708361   22.440613 C.3        1 MOL1        -0.1884
      14    H7      19.050353   20.875300   22.528526 H          1 MOL1         0.0729
      15    H8      20.583159   21.023288   23.392193 H          1 MOL1         0.0729
      16    C6      20.693733   21.576622   21.296694 C.3        1 MOL1        -0.2899
      17    H9      20.236770   21.303734   20.336403 H          1 MOL1         0.0741
      18    H10     20.487538   22.639058   21.480542 H          1 MOL1         0.0741
      19    H11     21.780908   21.452840   21.206502 H          1 MOL1         0.0741
@<TRIPOS>BOND
    1     1     2    1
    2     1     3    2
    3     1     4    1
    4     4     5    1
    5     4     6    1
    6     4     7    1
    7     7     8    1
    8     7     9    1
    9     7    10    1
   10    10    11    1
   11    10    12    1
   12    10    13    1
   13    13    14    1
   14    13    15    1
   15    13    16    1
   16    16    17    1
   17    16    18    1
   18    16    19    1
@<TRIPOS>SUBSTRUCTURE
       1 MOL1            1 RESIDUE      1      MOL     
@<SCITEGIC>MOL_PROPERTY
VConf Rank
SciTegic.value.IntegerValue
426

@<SCITEGIC>MOL_PROPERTY
Conf_Id
SciTegic.value.IntegerValue
35

@<SCITEGIC>MOL_PROPERTY
Delta U+W
SciTegic.value.DoubleValue
-0.030

@<SCITEGIC>MOL_PROPERTY
U+W
SciTegic.value.DoubleValue
-54.921

@<SCITEGIC>MOL_PROPERTY
Grad RMS
SciTegic.value.DoubleValue
0.000000

@<SCITEGIC>MOL_PROPERTY
U
SciTegic.value.DoubleValue
8.267

@<SCITEGIC>MOL_PROPERTY
W
SciTegic.value.DoubleValue
-63.188

@<SCITEGIC>MOL_PROPERTY
W(PB)
SciTegic.value.DoubleValue
-65.294

@<SCITEGIC>MOL_PROPERTY
W(SA)
SciTegic.value.DoubleValue
2.106

@<SCITEGIC>MOL_PROPERTY
Valence
SciTegic.value.DoubleValue
6.935

@<SCITEGIC>MOL_PROPERTY
Coulomb
SciTegic.value.DoubleValue
0.875

@<SCITEGIC>MOL_PROPERTY
VdW
SciTegic.value.DoubleValue
0.457

@<SCITEGIC>MOL_PROPERTY
VdW6
SciTegic.value.DoubleValue
-6.205

@<SCITEGIC>MOL_PROPERTY
VdW12
SciTegic.value.DoubleValue
6.662

@<SCITEGIC>MOL_PROPERTY
Bond
SciTegic.value.DoubleValue
0.107

@<SCITEGIC>MOL_PROPERTY
Angle
SciTegic.value.DoubleValue
2.420

@<SCITEGIC>MOL_PROPERTY
Pdih
SciTegic.value.DoubleValue
4.407

@<SCITEGIC>MOL_PROPERTY
Idih
SciTegic.value.DoubleValue
0.001

@<SCITEGIC>MOL_PROPERTY
Tether
SciTegic.value.DoubleValue
0.000

@<TRIPOS>MOLECULE
guest-7_confgen4.mol2 : confsearch ligand conformer 427
          19          18           1
SMALL
USER_CHARGES
 
@<TRIPOS>ATOM
       1    C1      17.516563   17.571716   22.823751 C.2        1 MOL1         0.6115
       2    O1      16.690700   17.772802   21.955291 O.co2      1 MOL1        -0.6776
       3    O2      17.285409   17.690446   24.010813 O.co2      1 MOL1        -0.6776
       4    C2      18.912872   17.124901   22.399301 C.3        1 MOL1        -0.2013
       5    H1      18.789618   16.336192   21.647742 H          1 MOL1         0.0727
       6    H2      19.411695   16.666168   23.261680 H          1 MOL1         0.0727
       7    C3      19.791471   18.262157   21.815833 C.3        1 MOL1        -0.1910
       8    H3      20.705794   17.818228   21.401961 H          1 MOL1         0.0729
       9    H4      19.262194   18.737810   20.978606 H          1 MOL1         0.0729
      10    C4      20.163720   19.327706   22.874474 C.3        1 MOL1        -0.1909
      11    H5      20.726271   18.856734   23.692118 H          1 MOL1         0.0729
      12    H6      19.243957   19.728431   23.322224 H          1 MOL1         0.0729
      13    C5      20.979155   20.507988   22.297561 C.3        1 MOL1        -0.1884
      14    H7      20.417950   20.982488   21.480731 H          1 MOL1         0.0729
      15    H8      21.094303   21.271533   23.079202 H          1 MOL1         0.0729
      16    C6      22.380142   20.096697   21.795473 C.3        1 MOL1        -0.2899
      17    H9      22.314970   19.421811   20.932974 H          1 MOL1         0.0741
      18    H10     22.950151   20.981007   21.482389 H          1 MOL1         0.0741
      19    H11     22.948493   19.591238   22.587075 H          1 MOL1         0.0741
@<TRIPOS>BOND
    1     1     2    1
    2     1     3    2
    3     1     4    1
    4     4     5    1
    5     4     6    1
    6     4     7    1
    7     7     8    1
    8     7     9    1
    9     7    10    1
   10    10    11    1
   11    10    12    1
   12    10    13    1
   13    13    14    1
   14    13    15    1
   15    13    16    1
   16    16    17    1
   17    16    18    1
   18    16    19    1
@<TRIPOS>SUBSTRUCTURE
       1 MOL1            1 RESIDUE      1      MOL     
@<SCITEGIC>MOL_PROPERTY
VConf Rank
SciTegic.value.IntegerValue
427

@<SCITEGIC>MOL_PROPERTY
Conf_Id
SciTegic.value.IntegerValue
74

@<SCITEGIC>MOL_PROPERTY
Delta U+W
SciTegic.value.DoubleValue
0.797

@<SCITEGIC>MOL_PROPERTY
U+W
SciTegic.value.DoubleValue
-54.095

@<SCITEGIC>MOL_PROPERTY
Grad RMS
SciTegic.value.DoubleValue
0.000000

@<SCITEGIC>MOL_PROPERTY
U
SciTegic.value.DoubleValue
8.869

@<SCITEGIC>MOL_PROPERTY
W
SciTegic.value.DoubleValue
-62.964

@<SCITEGIC>MOL_PROPERTY
W(PB)
SciTegic.value.DoubleValue
-65.046

@<SCITEGIC>MOL_PROPERTY
W(SA)
SciTegic.value.DoubleValue
2.082

@<SCITEGIC>MOL_PROPERTY
Valence
SciTegic.value.DoubleValue
7.469

@<SCITEGIC>MOL_PROPERTY
Coulomb
SciTegic.value.DoubleValue
0.762

@<SCITEGIC>MOL_PROPERTY
VdW
SciTegic.value.DoubleValue
0.639

@<SCITEGIC>MOL_PROPERTY
VdW6
SciTegic.value.DoubleValue
-6.782

@<SCITEGIC>MOL_PROPERTY
VdW12
SciTegic.value.DoubleValue
7.421

@<SCITEGIC>MOL_PROPERTY
Bond
SciTegic.value.DoubleValue
0.141

@<SCITEGIC>MOL_PROPERTY
Angle
SciTegic.value.DoubleValue
2.667

@<SCITEGIC>MOL_PROPERTY
Pdih
SciTegic.value.DoubleValue
4.660

@<SCITEGIC>MOL_PROPERTY
Idih
SciTegic.value.DoubleValue
0.001

@<SCITEGIC>MOL_PROPERTY
Tether
SciTegic.value.DoubleValue
0.000

@<TRIPOS>MOLECULE
guest-7_confgen4.mol2 : confsearch ligand conformer 428
          19          18           1
SMALL
USER_CHARGES
 
@<TRIPOS>ATOM
       1    C1      19.134214   16.415266   21.051082 C.2        1 MOL1         0.6115
       2    O1      18.274633   16.222519   20.214189 O.co2      1 MOL1        -0.6776
       3    O2      20.068024   15.661518   21.241302 O.co2      1 MOL1        -0.6776
       4    C2      19.045987   17.681610   21.895362 C.3        1 MOL1        -0.2013
       5    H1      19.460538   17.453230   22.883871 H          1 MOL1         0.0727
       6    H2      17.986068   17.925677   22.034494 H          1 MOL1         0.0727
       7    C3      19.792059   18.882034   21.257437 C.3        1 MOL1        -0.1910
       8    H3      20.858694   18.640769   21.158138 H          1 MOL1         0.0729
       9    H4      19.417109   19.026883   20.234877 H          1 MOL1         0.0729
      10    C4      19.615028   20.207745   22.039664 C.3        1 MOL1        -0.1909
      11    H5      18.551365   20.482358   22.038157 H          1 MOL1         0.0729
      12    H6      20.135682   21.009001   21.497733 H          1 MOL1         0.0729
      13    C5      20.120816   20.183047   23.503040 C.3        1 MOL1        -0.1884
      14    H7      19.929511   21.165754   23.955554 H          1 MOL1         0.0729
      15    H8      19.541501   19.460146   24.092462 H          1 MOL1         0.0729
      16    C6      21.626807   19.865695   23.624179 C.3        1 MOL1        -0.2899
      17    H9      22.224889   20.563217   23.023519 H          1 MOL1         0.0741
      18    H10     21.954564   19.950679   24.668290 H          1 MOL1         0.0741
      19    H11     21.847299   18.844421   23.288547 H          1 MOL1         0.0741
@<TRIPOS>BOND
    1     1     2    1
    2     1     3    2
    3     1     4    1
    4     4     5    1
    5     4     6    1
    6     4     7    1
    7     7     8    1
    8     7     9    1
    9     7    10    1
   10    10    11    1
   11    10    12    1
   12    10    13    1
   13    13    14    1
   14    13    15    1
   15    13    16    1
   16    16    17    1
   17    16    18    1
   18    16    19    1
@<TRIPOS>SUBSTRUCTURE
       1 MOL1            1 RESIDUE      1      MOL     
@<SCITEGIC>MOL_PROPERTY
VConf Rank
SciTegic.value.IntegerValue
428

@<SCITEGIC>MOL_PROPERTY
Conf_Id
SciTegic.value.IntegerValue
67

@<SCITEGIC>MOL_PROPERTY
Delta U+W
SciTegic.value.DoubleValue
0.308

@<SCITEGIC>MOL_PROPERTY
U+W
SciTegic.value.DoubleValue
-54.583

@<SCITEGIC>MOL_PROPERTY
Grad RMS
SciTegic.value.DoubleValue
0.000000

@<SCITEGIC>MOL_PROPERTY
U
SciTegic.value.DoubleValue
8.219

@<SCITEGIC>MOL_PROPERTY
W
SciTegic.value.DoubleValue
-62.802

@<SCITEGIC>MOL_PROPERTY
W(PB)
SciTegic.value.DoubleValue
-64.859

@<SCITEGIC>MOL_PROPERTY
W(SA)
SciTegic.value.DoubleValue
2.057

@<SCITEGIC>MOL_PROPERTY
Valence
SciTegic.value.DoubleValue
7.609

@<SCITEGIC>MOL_PROPERTY
Coulomb
SciTegic.value.DoubleValue
-0.089

@<SCITEGIC>MOL_PROPERTY
VdW
SciTegic.value.DoubleValue
0.699

@<SCITEGIC>MOL_PROPERTY
VdW6
SciTegic.value.DoubleValue
-6.924

@<SCITEGIC>MOL_PROPERTY
VdW12
SciTegic.value.DoubleValue
7.623

@<SCITEGIC>MOL_PROPERTY
Bond
SciTegic.value.DoubleValue
0.163

@<SCITEGIC>MOL_PROPERTY
Angle
SciTegic.value.DoubleValue
2.870

@<SCITEGIC>MOL_PROPERTY
Pdih
SciTegic.value.DoubleValue
4.576

@<SCITEGIC>MOL_PROPERTY
Idih
SciTegic.value.DoubleValue
0.001

@<SCITEGIC>MOL_PROPERTY
Tether
SciTegic.value.DoubleValue
0.000

@<TRIPOS>MOLECULE
guest-7_confgen4.mol2 : confsearch ligand conformer 429
          19          18           1
SMALL
USER_CHARGES
 
@<TRIPOS>ATOM
       1    C1      20.074604   16.230256   23.441122 C.2        1 MOL1         0.6115
       2    O1      20.540409   15.211283   22.970862 O.co2      1 MOL1        -0.6776
       3    O2      19.215125   16.242428   24.299882 O.co2      1 MOL1        -0.6776
       4    C2      20.582782   17.566027   22.910379 C.3        1 MOL1        -0.2013
       5    H1      21.635577   17.443230   22.629491 H          1 MOL1         0.0727
       6    H2      20.547139   18.287854   23.734305 H          1 MOL1         0.0727
       7    C3      19.762883   18.082468   21.699742 C.3        1 MOL1        -0.1910
       8    H3      19.741860   17.299927   20.928777 H          1 MOL1         0.0729
       9    H4      18.718944   18.238025   22.002682 H          1 MOL1         0.0729
      10    C4      20.335283   19.377991   21.071490 C.3        1 MOL1        -0.1909
      11    H5      19.723892   19.646706   20.199267 H          1 MOL1         0.0729
      12    H6      21.341957   19.170604   20.683686 H          1 MOL1         0.0729
      13    C5      20.410019   20.596275   22.024433 C.3        1 MOL1        -0.1884
      14    H7      21.100312   20.388284   22.852590 H          1 MOL1         0.0729
      15    H8      20.842389   21.443753   21.474962 H          1 MOL1         0.0729
      16    C6      19.035351   21.018480   22.586064 C.3        1 MOL1        -0.2899
      17    H9      18.616082   20.242554   23.239072 H          1 MOL1         0.0741
      18    H10     19.128390   21.937526   23.178951 H          1 MOL1         0.0741
      19    H11     18.321265   21.209680   21.774551 H          1 MOL1         0.0741
@<TRIPOS>BOND
    1     1     2    1
    2     1     3    2
    3     1     4    1
    4     4     5    1
    5     4     6    1
    6     4     7    1
    7     7     8    1
    8     7     9    1
    9     7    10    1
   10    10    11    1
   11    10    12    1
   12    10    13    1
   13    13    14    1
   14    13    15    1
   15    13    16    1
   16    16    17    1
   17    16    18    1
   18    16    19    1
@<TRIPOS>SUBSTRUCTURE
       1 MOL1            1 RESIDUE      1      MOL     
@<SCITEGIC>MOL_PROPERTY
VConf Rank
SciTegic.value.IntegerValue
429

@<SCITEGIC>MOL_PROPERTY
Conf_Id
SciTegic.value.IntegerValue
21

@<SCITEGIC>MOL_PROPERTY
Delta U+W
SciTegic.value.DoubleValue
0.319

@<SCITEGIC>MOL_PROPERTY
U+W
SciTegic.value.DoubleValue
-54.572

@<SCITEGIC>MOL_PROPERTY
Grad RMS
SciTegic.value.DoubleValue
0.000000

@<SCITEGIC>MOL_PROPERTY
U
SciTegic.value.DoubleValue
8.220

@<SCITEGIC>MOL_PROPERTY
W
SciTegic.value.DoubleValue
-62.792

@<SCITEGIC>MOL_PROPERTY
W(PB)
SciTegic.value.DoubleValue
-64.830

@<SCITEGIC>MOL_PROPERTY
W(SA)
SciTegic.value.DoubleValue
2.038

@<SCITEGIC>MOL_PROPERTY
Valence
SciTegic.value.DoubleValue
7.609

@<SCITEGIC>MOL_PROPERTY
Coulomb
SciTegic.value.DoubleValue
-0.088

@<SCITEGIC>MOL_PROPERTY
VdW
SciTegic.value.DoubleValue
0.699

@<SCITEGIC>MOL_PROPERTY
VdW6
SciTegic.value.DoubleValue
-6.924

@<SCITEGIC>MOL_PROPERTY
VdW12
SciTegic.value.DoubleValue
7.623

@<SCITEGIC>MOL_PROPERTY
Bond
SciTegic.value.DoubleValue
0.163

@<SCITEGIC>MOL_PROPERTY
Angle
SciTegic.value.DoubleValue
2.870

@<SCITEGIC>MOL_PROPERTY
Pdih
SciTegic.value.DoubleValue
4.576

@<SCITEGIC>MOL_PROPERTY
Idih
SciTegic.value.DoubleValue
0.000

@<SCITEGIC>MOL_PROPERTY
Tether
SciTegic.value.DoubleValue
0.000

@<TRIPOS>MOLECULE
guest-7_confgen4.mol2 : confsearch ligand conformer 430
          19          18           1
SMALL
USER_CHARGES
 
@<TRIPOS>ATOM
       1    C1      18.168513   18.565964   24.546341 C.2        1 MOL1         0.6115
       2    O1      17.772640   17.552428   25.087144 O.co2      1 MOL1        -0.6776
       3    O2      18.175021   19.655821   25.083390 O.co2      1 MOL1        -0.6776
       4    C2      18.703241   18.460458   23.122607 C.3        1 MOL1        -0.2013
       5    H1      18.479913   19.401049   22.609540 H          1 MOL1         0.0727
       6    H2      18.139269   17.674047   22.606974 H          1 MOL1         0.0727
       7    C3      20.221581   18.144582   23.073023 C.3        1 MOL1        -0.1910
       8    H3      20.783906   18.900062   23.638993 H          1 MOL1         0.0729
       9    H4      20.384869   17.189803   23.591800 H          1 MOL1         0.0729
      10    C4      20.780577   18.027578   21.632267 C.3        1 MOL1        -0.1909
      11    H5      19.998506   17.671146   20.948002 H          1 MOL1         0.0729
      12    H6      21.556725   17.250044   21.629443 H          1 MOL1         0.0729
      13    C5      21.420192   19.325055   21.079677 C.3        1 MOL1        -0.1884
      14    H7      22.259464   19.624556   21.722467 H          1 MOL1         0.0729
      15    H8      21.851601   19.107661   20.092853 H          1 MOL1         0.0729
      16    C6      20.436968   20.505430   20.939394 C.3        1 MOL1        -0.2899
      17    H9      20.918366   21.346207   20.423483 H          1 MOL1         0.0741
      18    H10     19.551367   20.214436   20.359730 H          1 MOL1         0.0741
      19    H11     20.109155   20.865955   21.922428 H          1 MOL1         0.0741
@<TRIPOS>BOND
    1     1     2    1
    2     1     3    2
    3     1     4    1
    4     4     5    1
    5     4     6    1
    6     4     7    1
    7     7     8    1
    8     7     9    1
    9     7    10    1
   10    10    11    1
   11    10    12    1
   12    10    13    1
   13    13    14    1
   14    13    15    1
   15    13    16    1
   16    16    17    1
   17    16    18    1
   18    16    19    1
@<TRIPOS>SUBSTRUCTURE
       1 MOL1            1 RESIDUE      1      MOL     
@<SCITEGIC>MOL_PROPERTY
VConf Rank
SciTegic.value.IntegerValue
430

@<SCITEGIC>MOL_PROPERTY
Conf_Id
SciTegic.value.IntegerValue
24

@<SCITEGIC>MOL_PROPERTY
Delta U+W
SciTegic.value.DoubleValue
2.477

@<SCITEGIC>MOL_PROPERTY
U+W
SciTegic.value.DoubleValue
-52.414

@<SCITEGIC>MOL_PROPERTY
Grad RMS
SciTegic.value.DoubleValue
0.000000

@<SCITEGIC>MOL_PROPERTY
U
SciTegic.value.DoubleValue
10.422

@<SCITEGIC>MOL_PROPERTY
W
SciTegic.value.DoubleValue
-62.836

@<SCITEGIC>MOL_PROPERTY
W(PB)
SciTegic.value.DoubleValue
-64.906

@<SCITEGIC>MOL_PROPERTY
W(SA)
SciTegic.value.DoubleValue
2.070

@<SCITEGIC>MOL_PROPERTY
Valence
SciTegic.value.DoubleValue
9.628

@<SCITEGIC>MOL_PROPERTY
Coulomb
SciTegic.value.DoubleValue
0.101

@<SCITEGIC>MOL_PROPERTY
VdW
SciTegic.value.DoubleValue
0.693

@<SCITEGIC>MOL_PROPERTY
VdW6
SciTegic.value.DoubleValue
-6.927

@<SCITEGIC>MOL_PROPERTY
VdW12
SciTegic.value.DoubleValue
7.620

@<SCITEGIC>MOL_PROPERTY
Bond
SciTegic.value.DoubleValue
0.173

@<SCITEGIC>MOL_PROPERTY
Angle
SciTegic.value.DoubleValue
2.989

@<SCITEGIC>MOL_PROPERTY
Pdih
SciTegic.value.DoubleValue
6.465

@<SCITEGIC>MOL_PROPERTY
Idih
SciTegic.value.DoubleValue
0.001

@<SCITEGIC>MOL_PROPERTY
Tether
SciTegic.value.DoubleValue
0.000

@<TRIPOS>MOLECULE
guest-7_confgen4.mol2 : confsearch ligand conformer 431
          19          18           1
SMALL
USER_CHARGES
 
@<TRIPOS>ATOM
       1    C1      21.977511   17.529879   22.701486 C.2        1 MOL1         0.6115
       2    O1      21.370669   16.496173   22.901191 O.co2      1 MOL1        -0.6776
       3    O2      23.069408   17.574581   22.169660 O.co2      1 MOL1        -0.6776
       4    C2      21.350694   18.841078   23.168488 C.3        1 MOL1        -0.2013
       5    H1      22.121206   19.388229   23.724089 H          1 MOL1         0.0727
       6    H2      20.554983   18.608126   23.883197 H          1 MOL1         0.0727
       7    C3      20.819672   19.733914   22.012721 C.3        1 MOL1        -0.1910
       8    H3      20.575483   20.733432   22.396869 H          1 MOL1         0.0729
       9    H4      21.636942   19.878741   21.292561 H          1 MOL1         0.0729
      10    C4      19.594184   19.145827   21.265854 C.3        1 MOL1        -0.1909
      11    H5      19.621879   18.047803   21.285437 H          1 MOL1         0.0729
      12    H6      19.673993   19.426396   20.206753 H          1 MOL1         0.0729
      13    C5      18.222625   19.649621   21.778617 C.3        1 MOL1        -0.1884
      14    H7      18.167357   20.741815   21.672505 H          1 MOL1         0.0729
      15    H8      17.436482   19.237854   21.130867 H          1 MOL1         0.0729
      16    C6      17.912903   19.260258   23.238763 C.3        1 MOL1        -0.2899
      17    H9      18.573690   19.788059   23.937435 H          1 MOL1         0.0741
      18    H10     16.879588   19.526311   23.496164 H          1 MOL1         0.0741
      19    H11     18.033536   18.179764   23.391947 H          1 MOL1         0.0741
@<TRIPOS>BOND
    1     1     2    1
    2     1     3    2
    3     1     4    1
    4     4     5    1
    5     4     6    1
    6     4     7    1
    7     7     8    1
    8     7     9    1
    9     7    10    1
   10    10    11    1
   11    10    12    1
   12    10    13    1
   13    13    14    1
   14    13    15    1
   15    13    16    1
   16    16    17    1
   17    16    18    1
   18    16    19    1
@<TRIPOS>SUBSTRUCTURE
       1 MOL1            1 RESIDUE      1      MOL     
@<SCITEGIC>MOL_PROPERTY
VConf Rank
SciTegic.value.IntegerValue
431

@<SCITEGIC>MOL_PROPERTY
Conf_Id
SciTegic.value.IntegerValue
4

@<SCITEGIC>MOL_PROPERTY
Delta U+W
SciTegic.value.DoubleValue
3.753

@<SCITEGIC>MOL_PROPERTY
U+W
SciTegic.value.DoubleValue
-51.138

@<SCITEGIC>MOL_PROPERTY
Grad RMS
SciTegic.value.DoubleValue
0.000000

@<SCITEGIC>MOL_PROPERTY
U
SciTegic.value.DoubleValue
12.334

@<SCITEGIC>MOL_PROPERTY
W
SciTegic.value.DoubleValue
-63.472

@<SCITEGIC>MOL_PROPERTY
W(PB)
SciTegic.value.DoubleValue
-65.500

@<SCITEGIC>MOL_PROPERTY
W(SA)
SciTegic.value.DoubleValue
2.028

@<SCITEGIC>MOL_PROPERTY
Valence
SciTegic.value.DoubleValue
9.984

@<SCITEGIC>MOL_PROPERTY
Coulomb
SciTegic.value.DoubleValue
1.767

@<SCITEGIC>MOL_PROPERTY
VdW
SciTegic.value.DoubleValue
0.583

@<SCITEGIC>MOL_PROPERTY
VdW6
SciTegic.value.DoubleValue
-7.767

@<SCITEGIC>MOL_PROPERTY
VdW12
SciTegic.value.DoubleValue
8.349

@<SCITEGIC>MOL_PROPERTY
Bond
SciTegic.value.DoubleValue
0.203

@<SCITEGIC>MOL_PROPERTY
Angle
SciTegic.value.DoubleValue
3.191

@<SCITEGIC>MOL_PROPERTY
Pdih
SciTegic.value.DoubleValue
6.589

@<SCITEGIC>MOL_PROPERTY
Idih
SciTegic.value.DoubleValue
0.001

@<SCITEGIC>MOL_PROPERTY
Tether
SciTegic.value.DoubleValue
0.000

@<TRIPOS>MOLECULE
guest-7_confgen4.mol2 : confsearch ligand conformer 432
          19          18           1
SMALL
USER_CHARGES
 
@<TRIPOS>ATOM
       1    C1      18.638986   17.122738   23.829646 C.2        1 MOL1         0.6115
       2    O1      17.631972   16.488209   23.583946 O.co2      1 MOL1        -0.6776
       3    O2      19.620512   16.643326   24.362061 O.co2      1 MOL1        -0.6776
       4    C2      18.657780   18.607559   23.475834 C.3        1 MOL1        -0.2013
       5    H1      19.472879   19.084180   24.029615 H          1 MOL1         0.0727
       6    H2      17.725200   19.042172   23.854202 H          1 MOL1         0.0727
       7    C3      18.775940   18.892236   21.952701 C.3        1 MOL1        -0.1910
       8    H3      17.977977   18.336805   21.440562 H          1 MOL1         0.0729
       9    H4      18.577923   19.954529   21.756343 H          1 MOL1         0.0729
      10    C4      20.140327   18.490524   21.334196 C.3        1 MOL1        -0.1909
      11    H5      19.958265   18.130522   20.312416 H          1 MOL1         0.0729
      12    H6      20.573238   17.639009   21.876706 H          1 MOL1         0.0729
      13    C5      21.172820   19.641142   21.245104 C.3        1 MOL1        -0.1884
      14    H7      22.063630   19.269281   20.720384 H          1 MOL1         0.0729
      15    H8      20.767989   20.453249   20.625591 H          1 MOL1         0.0729
      16    C6      21.606450   20.207372   22.612915 C.3        1 MOL1        -0.2899
      17    H9      21.946558   19.405174   23.280965 H          1 MOL1         0.0741
      18    H10     22.432676   20.919302   22.489287 H          1 MOL1         0.0741
      19    H11     20.780805   20.740888   23.099771 H          1 MOL1         0.0741
@<TRIPOS>BOND
    1     1     2    1
    2     1     3    2
    3     1     4    1
    4     4     5    1
    5     4     6    1
    6     4     7    1
    7     7     8    1
    8     7     9    1
    9     7    10    1
   10    10    11    1
   11    10    12    1
   12    10    13    1
   13    13    14    1
   14    13    15    1
   15    13    16    1
   16    16    17    1
   17    16    18    1
   18    16    19    1
@<TRIPOS>SUBSTRUCTURE
       1 MOL1            1 RESIDUE      1      MOL     
@<SCITEGIC>MOL_PROPERTY
VConf Rank
SciTegic.value.IntegerValue
432

@<SCITEGIC>MOL_PROPERTY
Conf_Id
SciTegic.value.IntegerValue
73

@<SCITEGIC>MOL_PROPERTY
Delta U+W
SciTegic.value.DoubleValue
3.707

@<SCITEGIC>MOL_PROPERTY
U+W
SciTegic.value.DoubleValue
-51.184

@<SCITEGIC>MOL_PROPERTY
Grad RMS
SciTegic.value.DoubleValue
0.000000

@<SCITEGIC>MOL_PROPERTY
U
SciTegic.value.DoubleValue
12.334

@<SCITEGIC>MOL_PROPERTY
W
SciTegic.value.DoubleValue
-63.519

@<SCITEGIC>MOL_PROPERTY
W(PB)
SciTegic.value.DoubleValue
-65.541

@<SCITEGIC>MOL_PROPERTY
W(SA)
SciTegic.value.DoubleValue
2.022

@<SCITEGIC>MOL_PROPERTY
Valence
SciTegic.value.DoubleValue
9.984

@<SCITEGIC>MOL_PROPERTY
Coulomb
SciTegic.value.DoubleValue
1.768

@<SCITEGIC>MOL_PROPERTY
VdW
SciTegic.value.DoubleValue
0.583

@<SCITEGIC>MOL_PROPERTY
VdW6
SciTegic.value.DoubleValue
-7.767

@<SCITEGIC>MOL_PROPERTY
VdW12
SciTegic.value.DoubleValue
8.350

@<SCITEGIC>MOL_PROPERTY
Bond
SciTegic.value.DoubleValue
0.203

@<SCITEGIC>MOL_PROPERTY
Angle
SciTegic.value.DoubleValue
3.192

@<SCITEGIC>MOL_PROPERTY
Pdih
SciTegic.value.DoubleValue
6.589

@<SCITEGIC>MOL_PROPERTY
Idih
SciTegic.value.DoubleValue
0.001

@<SCITEGIC>MOL_PROPERTY
Tether
SciTegic.value.DoubleValue
0.000

@<TRIPOS>MOLECULE
guest-7_confgen4.mol2 : confsearch ligand conformer 433
          19          18           1
SMALL
USER_CHARGES
 
@<TRIPOS>ATOM
       1    C1      18.585282   20.961184   21.243495 C.2        1 MOL1         0.6115
       2    O1      19.265771   20.998829   20.237398 O.co2      1 MOL1        -0.6776
       3    O2      17.394293   21.203070   21.257507 O.co2      1 MOL1        -0.6776
       4    C2      19.266220   20.623810   22.567061 C.3        1 MOL1        -0.2013
       5    H1      18.976560   21.395924   23.289283 H          1 MOL1         0.0727
       6    H2      20.350964   20.711790   22.437116 H          1 MOL1         0.0727
       7    C3      18.895915   19.225860   23.133524 C.3        1 MOL1        -0.1910
       8    H3      19.367891   19.097241   24.116154 H          1 MOL1         0.0729
       9    H4      17.812466   19.195081   23.313249 H          1 MOL1         0.0729
      10    C4      19.279245   18.039295   22.211996 C.3        1 MOL1        -0.1909
      11    H5      18.707637   18.112958   21.276624 H          1 MOL1         0.0729
      12    H6      18.957123   17.103953   22.689454 H          1 MOL1         0.0729
      13    C5      20.784686   17.932405   21.866395 C.3        1 MOL1        -0.1884
      14    H7      20.929860   17.071218   21.199928 H          1 MOL1         0.0729
      15    H8      21.104087   18.814328   21.294871 H          1 MOL1         0.0729
      16    C6      21.686791   17.758105   23.107160 C.3        1 MOL1        -0.2899
      17    H9      21.660218   18.648524   23.747754 H          1 MOL1         0.0741
      18    H10     21.370165   16.893322   23.704580 H          1 MOL1         0.0741
      19    H11     22.729455   17.597152   22.804273 H          1 MOL1         0.0741
@<TRIPOS>BOND
    1     1     2    1
    2     1     3    2
    3     1     4    1
    4     4     5    1
    5     4     6    1
    6     4     7    1
    7     7     8    1
    8     7     9    1
    9     7    10    1
   10    10    11    1
   11    10    12    1
   12    10    13    1
   13    13    14    1
   14    13    15    1
   15    13    16    1
   16    16    17    1
   17    16    18    1
   18    16    19    1
@<TRIPOS>SUBSTRUCTURE
       1 MOL1            1 RESIDUE      1      MOL     
@<SCITEGIC>MOL_PROPERTY
VConf Rank
SciTegic.value.IntegerValue
433

@<SCITEGIC>MOL_PROPERTY
Conf_Id
SciTegic.value.IntegerValue
56

@<SCITEGIC>MOL_PROPERTY
Delta U+W
SciTegic.value.DoubleValue
1.735

@<SCITEGIC>MOL_PROPERTY
U+W
SciTegic.value.DoubleValue
-53.156

@<SCITEGIC>MOL_PROPERTY
Grad RMS
SciTegic.value.DoubleValue
0.000000

@<SCITEGIC>MOL_PROPERTY
U
SciTegic.value.DoubleValue
10.214

@<SCITEGIC>MOL_PROPERTY
W
SciTegic.value.DoubleValue
-63.370

@<SCITEGIC>MOL_PROPERTY
W(PB)
SciTegic.value.DoubleValue
-65.388

@<SCITEGIC>MOL_PROPERTY
W(SA)
SciTegic.value.DoubleValue
2.018

@<SCITEGIC>MOL_PROPERTY
Valence
SciTegic.value.DoubleValue
7.868

@<SCITEGIC>MOL_PROPERTY
Coulomb
SciTegic.value.DoubleValue
1.968

@<SCITEGIC>MOL_PROPERTY
VdW
SciTegic.value.DoubleValue
0.378

@<SCITEGIC>MOL_PROPERTY
VdW6
SciTegic.value.DoubleValue
-8.067

@<SCITEGIC>MOL_PROPERTY
VdW12
SciTegic.value.DoubleValue
8.445

@<SCITEGIC>MOL_PROPERTY
Bond
SciTegic.value.DoubleValue
0.191

@<SCITEGIC>MOL_PROPERTY
Angle
SciTegic.value.DoubleValue
3.117

@<SCITEGIC>MOL_PROPERTY
Pdih
SciTegic.value.DoubleValue
4.559

@<SCITEGIC>MOL_PROPERTY
Idih
SciTegic.value.DoubleValue
0.001

@<SCITEGIC>MOL_PROPERTY
Tether
SciTegic.value.DoubleValue
0.000

@<TRIPOS>MOLECULE
guest-7_confgen4.mol2 : confsearch ligand conformer 434
          19          18           1
SMALL
USER_CHARGES
 
@<TRIPOS>ATOM
       1    C1      21.830576   19.088565   24.536394 C.2        1 MOL1         0.6115
       2    O1      21.807557   18.308822   25.467971 O.co2      1 MOL1        -0.6776
       3    O2      22.485918   20.111740   24.532507 O.co2      1 MOL1        -0.6776
       4    C2      20.973653   18.776655   23.314661 C.3        1 MOL1        -0.2013
       5    H1      20.909951   17.686855   23.211434 H          1 MOL1         0.0727
       6    H2      21.499555   19.161860   22.434006 H          1 MOL1         0.0727
       7    C3      19.553751   19.390528   23.404174 C.3        1 MOL1        -0.1910
       8    H3      19.105669   19.101110   24.364829 H          1 MOL1         0.0729
       9    H4      19.633903   20.486208   23.420202 H          1 MOL1         0.0729
      10    C4      18.596766   18.955774   22.265903 C.3        1 MOL1        -0.1909
      11    H5      17.616505   19.408926   22.467681 H          1 MOL1         0.0729
      12    H6      18.436339   17.869513   22.301964 H          1 MOL1         0.0729
      13    C5      19.042848   19.385194   20.846144 C.3        1 MOL1        -0.1884
      14    H7      18.148776   19.635960   20.258699 H          1 MOL1         0.0729
      15    H8      19.642649   20.304433   20.896615 H          1 MOL1         0.0729
      16    C6      19.815502   18.281820   20.089640 C.3        1 MOL1        -0.2899
      17    H9      20.093237   18.627856   19.085649 H          1 MOL1         0.0741
      18    H10     20.735926   17.996059   20.610965 H          1 MOL1         0.0741
      19    H11     19.197741   17.381620   19.974996 H          1 MOL1         0.0741
@<TRIPOS>BOND
    1     1     2    1
    2     1     3    2
    3     1     4    1
    4     4     5    1
    5     4     6    1
    6     4     7    1
    7     7     8    1
    8     7     9    1
    9     7    10    1
   10    10    11    1
   11    10    12    1
   12    10    13    1
   13    13    14    1
   14    13    15    1
   15    13    16    1
   16    16    17    1
   17    16    18    1
   18    16    19    1
@<TRIPOS>SUBSTRUCTURE
       1 MOL1            1 RESIDUE      1      MOL     
@<SCITEGIC>MOL_PROPERTY
VConf Rank
SciTegic.value.IntegerValue
434

@<SCITEGIC>MOL_PROPERTY
Conf_Id
SciTegic.value.IntegerValue
53

@<SCITEGIC>MOL_PROPERTY
Delta U+W
SciTegic.value.DoubleValue
2.279

@<SCITEGIC>MOL_PROPERTY
U+W
SciTegic.value.DoubleValue
-52.612

@<SCITEGIC>MOL_PROPERTY
Grad RMS
SciTegic.value.DoubleValue
0.000000

@<SCITEGIC>MOL_PROPERTY
U
SciTegic.value.DoubleValue
10.231

@<SCITEGIC>MOL_PROPERTY
W
SciTegic.value.DoubleValue
-62.843

@<SCITEGIC>MOL_PROPERTY
W(PB)
SciTegic.value.DoubleValue
-64.893

@<SCITEGIC>MOL_PROPERTY
W(SA)
SciTegic.value.DoubleValue
2.050

@<SCITEGIC>MOL_PROPERTY
Valence
SciTegic.value.DoubleValue
9.644

@<SCITEGIC>MOL_PROPERTY
Coulomb
SciTegic.value.DoubleValue
-0.164

@<SCITEGIC>MOL_PROPERTY
VdW
SciTegic.value.DoubleValue
0.751

@<SCITEGIC>MOL_PROPERTY
VdW6
SciTegic.value.DoubleValue
-6.881

@<SCITEGIC>MOL_PROPERTY
VdW12
SciTegic.value.DoubleValue
7.631

@<SCITEGIC>MOL_PROPERTY
Bond
SciTegic.value.DoubleValue
0.163

@<SCITEGIC>MOL_PROPERTY
Angle
SciTegic.value.DoubleValue
2.998

@<SCITEGIC>MOL_PROPERTY
Pdih
SciTegic.value.DoubleValue
6.482

@<SCITEGIC>MOL_PROPERTY
Idih
SciTegic.value.DoubleValue
0.001

@<SCITEGIC>MOL_PROPERTY
Tether
SciTegic.value.DoubleValue
0.000

@<TRIPOS>MOLECULE
guest-7_confgen4.mol2 : confsearch ligand conformer 435
          19          18           1
SMALL
USER_CHARGES
 
@<TRIPOS>ATOM
       1    C1      19.955497   21.143253   23.395795 C.2        1 MOL1         0.6115
       2    O1      20.603910   21.818028   22.620494 O.co2      1 MOL1        -0.6776
       3    O2      20.172721   21.101820   24.590929 O.co2      1 MOL1        -0.6776
       4    C2      18.762460   20.362489   22.847568 C.3        1 MOL1        -0.2013
       5    H1      18.676052   20.552463   21.770830 H          1 MOL1         0.0727
       6    H2      17.870051   20.794970   23.314676 H          1 MOL1         0.0727
       7    C3      18.786338   18.832716   23.123883 C.3        1 MOL1        -0.1910
       8    H3      19.079487   18.644789   24.166135 H          1 MOL1         0.0729
       9    H4      17.759659   18.454814   23.026228 H          1 MOL1         0.0729
      10    C4      19.683505   18.013077   22.163697 C.3        1 MOL1        -0.1909
      11    H5      19.380492   18.199969   21.124424 H          1 MOL1         0.0729
      12    H6      19.500147   16.946228   22.351374 H          1 MOL1         0.0729
      13    C5      21.194504   18.291332   22.321906 C.3        1 MOL1        -0.1884
      14    H7      21.422893   19.318844   22.011320 H          1 MOL1         0.0729
      15    H8      21.480677   18.203720   23.379179 H          1 MOL1         0.0729
      16    C6      22.040381   17.316825   21.477711 C.3        1 MOL1        -0.2899
      17    H9      21.791256   17.403349   20.411968 H          1 MOL1         0.0741
      18    H10     23.110232   17.533235   21.594462 H          1 MOL1         0.0741
      19    H11     21.869333   16.277436   21.787115 H          1 MOL1         0.0741
@<TRIPOS>BOND
    1     1     2    1
    2     1     3    2
    3     1     4    1
    4     4     5    1
    5     4     6    1
    6     4     7    1
    7     7     8    1
    8     7     9    1
    9     7    10    1
   10    10    11    1
   11    10    12    1
   12    10    13    1
   13    13    14    1
   14    13    15    1
   15    13    16    1
   16    16    17    1
   17    16    18    1
   18    16    19    1
@<TRIPOS>SUBSTRUCTURE
       1 MOL1            1 RESIDUE      1      MOL     
@<SCITEGIC>MOL_PROPERTY
VConf Rank
SciTegic.value.IntegerValue
435

@<SCITEGIC>MOL_PROPERTY
Conf_Id
SciTegic.value.IntegerValue
25

@<SCITEGIC>MOL_PROPERTY
Delta U+W
SciTegic.value.DoubleValue
2.065

@<SCITEGIC>MOL_PROPERTY
U+W
SciTegic.value.DoubleValue
-52.826

@<SCITEGIC>MOL_PROPERTY
Grad RMS
SciTegic.value.DoubleValue
0.000000

@<SCITEGIC>MOL_PROPERTY
U
SciTegic.value.DoubleValue
10.967

@<SCITEGIC>MOL_PROPERTY
W
SciTegic.value.DoubleValue
-63.794

@<SCITEGIC>MOL_PROPERTY
W(PB)
SciTegic.value.DoubleValue
-65.830

@<SCITEGIC>MOL_PROPERTY
W(SA)
SciTegic.value.DoubleValue
2.036

@<SCITEGIC>MOL_PROPERTY
Valence
SciTegic.value.DoubleValue
8.609

@<SCITEGIC>MOL_PROPERTY
Coulomb
SciTegic.value.DoubleValue
1.892

@<SCITEGIC>MOL_PROPERTY
VdW
SciTegic.value.DoubleValue
0.467

@<SCITEGIC>MOL_PROPERTY
VdW6
SciTegic.value.DoubleValue
-7.569

@<SCITEGIC>MOL_PROPERTY
VdW12
SciTegic.value.DoubleValue
8.036

@<SCITEGIC>MOL_PROPERTY
Bond
SciTegic.value.DoubleValue
0.170

@<SCITEGIC>MOL_PROPERTY
Angle
SciTegic.value.DoubleValue
3.195

@<SCITEGIC>MOL_PROPERTY
Pdih
SciTegic.value.DoubleValue
5.237

@<SCITEGIC>MOL_PROPERTY
Idih
SciTegic.value.DoubleValue
0.007

@<SCITEGIC>MOL_PROPERTY
Tether
SciTegic.value.DoubleValue
0.000

@<TRIPOS>MOLECULE
guest-7_confgen4.mol2 : confsearch ligand conformer 436
          19          18           1
SMALL
USER_CHARGES
 
@<TRIPOS>ATOM
       1    C1      20.207033   17.563108   24.552286 C.2        1 MOL1         0.6115
       2    O1      20.821820   18.203897   25.382149 O.co2      1 MOL1        -0.6776
       3    O2      20.544262   16.458173   24.175127 O.co2      1 MOL1        -0.6776
       4    C2      18.904683   18.144650   24.005315 C.3        1 MOL1        -0.2013
       5    H1      18.223473   18.232437   24.859640 H          1 MOL1         0.0727
       6    H2      18.452207   17.420847   23.316622 H          1 MOL1         0.0727
       7    C3      19.034455   19.533058   23.317849 C.3        1 MOL1        -0.1910
       8    H3      18.039799   19.998787   23.304667 H          1 MOL1         0.0729
       9    H4      19.669255   20.193686   23.924596 H          1 MOL1         0.0729
      10    C4      19.553898   19.489811   21.859430 C.3        1 MOL1        -0.1909
      11    H5      19.454864   20.496649   21.431085 H          1 MOL1         0.0729
      12    H6      18.910842   18.833714   21.257057 H          1 MOL1         0.0729
      13    C5      21.024991   19.037992   21.727810 C.3        1 MOL1        -0.1884
      14    H7      21.657606   19.626748   22.406455 H          1 MOL1         0.0729
      15    H8      21.124425   17.986770   22.026898 H          1 MOL1         0.0729
      16    C6      21.537367   19.194390   20.281834 C.3        1 MOL1        -0.2899
      17    H9      22.580429   18.861312   20.203575 H          1 MOL1         0.0741
      18    H10     20.936654   18.594248   19.585896 H          1 MOL1         0.0741
      19    H11     21.491481   20.242772   19.959177 H          1 MOL1         0.0741
@<TRIPOS>BOND
    1     1     2    1
    2     1     3    2
    3     1     4    1
    4     4     5    1
    5     4     6    1
    6     4     7    1
    7     7     8    1
    8     7     9    1
    9     7    10    1
   10    10    11    1
   11    10    12    1
   12    10    13    1
   13    13    14    1
   14    13    15    1
   15    13    16    1
   16    16    17    1
   17    16    18    1
   18    16    19    1
@<TRIPOS>SUBSTRUCTURE
       1 MOL1            1 RESIDUE      1      MOL     
@<SCITEGIC>MOL_PROPERTY
VConf Rank
SciTegic.value.IntegerValue
436

@<SCITEGIC>MOL_PROPERTY
Conf_Id
SciTegic.value.IntegerValue
52

@<SCITEGIC>MOL_PROPERTY
Delta U+W
SciTegic.value.DoubleValue
2.070

@<SCITEGIC>MOL_PROPERTY
U+W
SciTegic.value.DoubleValue
-52.822

@<SCITEGIC>MOL_PROPERTY
Grad RMS
SciTegic.value.DoubleValue
0.000000

@<SCITEGIC>MOL_PROPERTY
U
SciTegic.value.DoubleValue
10.967

@<SCITEGIC>MOL_PROPERTY
W
SciTegic.value.DoubleValue
-63.789

@<SCITEGIC>MOL_PROPERTY
W(PB)
SciTegic.value.DoubleValue
-65.837

@<SCITEGIC>MOL_PROPERTY
W(SA)
SciTegic.value.DoubleValue
2.048

@<SCITEGIC>MOL_PROPERTY
Valence
SciTegic.value.DoubleValue
8.609

@<SCITEGIC>MOL_PROPERTY
Coulomb
SciTegic.value.DoubleValue
1.892

@<SCITEGIC>MOL_PROPERTY
VdW
SciTegic.value.DoubleValue
0.467

@<SCITEGIC>MOL_PROPERTY
VdW6
SciTegic.value.DoubleValue
-7.569

@<SCITEGIC>MOL_PROPERTY
VdW12
SciTegic.value.DoubleValue
8.035

@<SCITEGIC>MOL_PROPERTY
Bond
SciTegic.value.DoubleValue
0.170

@<SCITEGIC>MOL_PROPERTY
Angle
SciTegic.value.DoubleValue
3.196

@<SCITEGIC>MOL_PROPERTY
Pdih
SciTegic.value.DoubleValue
5.237

@<SCITEGIC>MOL_PROPERTY
Idih
SciTegic.value.DoubleValue
0.007

@<SCITEGIC>MOL_PROPERTY
Tether
SciTegic.value.DoubleValue
0.000

@<TRIPOS>MOLECULE
guest-7_confgen4.mol2 : confsearch ligand conformer 437
          19          18           1
SMALL
USER_CHARGES
 
@<TRIPOS>ATOM
       1    C1      19.235149   20.548933   23.814714 C.2        1 MOL1         0.6115
       2    O1      18.104825   20.333594   24.207285 O.co2      1 MOL1        -0.6776
       3    O2      20.149768   20.852470   24.555010 O.co2      1 MOL1        -0.6776
       4    C2      19.498681   20.564785   22.308168 C.3        1 MOL1        -0.2013
       5    H1      20.580097   20.620524   22.135048 H          1 MOL1         0.0727
       6    H2      19.074313   21.504543   21.936627 H          1 MOL1         0.0727
       7    C3      18.885795   19.384003   21.502257 C.3        1 MOL1        -0.1910
       8    H3      17.875430   19.161260   21.872162 H          1 MOL1         0.0729
       9    H4      18.755298   19.716552   20.463633 H          1 MOL1         0.0729
      10    C4      19.734951   18.087376   21.472758 C.3        1 MOL1        -0.1909
      11    H5      20.710730   18.288323   21.009601 H          1 MOL1         0.0729
      12    H6      19.230100   17.378227   20.802534 H          1 MOL1         0.0729
      13    C5      19.923132   17.397164   22.845414 C.3        1 MOL1        -0.1884
      14    H7      19.124367   17.695788   23.538346 H          1 MOL1         0.0729
      15    H8      19.820661   16.311256   22.713313 H          1 MOL1         0.0729
      16    C6      21.307219   17.676129   23.469595 C.3        1 MOL1        -0.2899
      17    H9      22.110521   17.290482   22.828565 H          1 MOL1         0.0741
      18    H10     21.474416   18.750043   23.612715 H          1 MOL1         0.0741
      19    H11     21.393276   17.188774   24.449237 H          1 MOL1         0.0741
@<TRIPOS>BOND
    1     1     2    1
    2     1     3    2
    3     1     4    1
    4     4     5    1
    5     4     6    1
    6     4     7    1
    7     7     8    1
    8     7     9    1
    9     7    10    1
   10    10    11    1
   11    10    12    1
   12    10    13    1
   13    13    14    1
   14    13    15    1
   15    13    16    1
   16    16    17    1
   17    16    18    1
   18    16    19    1
@<TRIPOS>SUBSTRUCTURE
       1 MOL1            1 RESIDUE      1      MOL     
@<SCITEGIC>MOL_PROPERTY
VConf Rank
SciTegic.value.IntegerValue
437

@<SCITEGIC>MOL_PROPERTY
Conf_Id
SciTegic.value.IntegerValue
66

@<SCITEGIC>MOL_PROPERTY
Delta U+W
SciTegic.value.DoubleValue
5.819

@<SCITEGIC>MOL_PROPERTY
U+W
SciTegic.value.DoubleValue
-49.072

@<SCITEGIC>MOL_PROPERTY
Grad RMS
SciTegic.value.DoubleValue
0.000000

@<SCITEGIC>MOL_PROPERTY
U
SciTegic.value.DoubleValue
15.324

@<SCITEGIC>MOL_PROPERTY
W
SciTegic.value.DoubleValue
-64.396

@<SCITEGIC>MOL_PROPERTY
W(PB)
SciTegic.value.DoubleValue
-66.382

@<SCITEGIC>MOL_PROPERTY
W(SA)
SciTegic.value.DoubleValue
1.986

@<SCITEGIC>MOL_PROPERTY
Valence
SciTegic.value.DoubleValue
11.748

@<SCITEGIC>MOL_PROPERTY
Coulomb
SciTegic.value.DoubleValue
3.201

@<SCITEGIC>MOL_PROPERTY
VdW
SciTegic.value.DoubleValue
0.375

@<SCITEGIC>MOL_PROPERTY
VdW6
SciTegic.value.DoubleValue
-8.854

@<SCITEGIC>MOL_PROPERTY
VdW12
SciTegic.value.DoubleValue
9.229

@<SCITEGIC>MOL_PROPERTY
Bond
SciTegic.value.DoubleValue
0.216

@<SCITEGIC>MOL_PROPERTY
Angle
SciTegic.value.DoubleValue
3.812

@<SCITEGIC>MOL_PROPERTY
Pdih
SciTegic.value.DoubleValue
7.699

@<SCITEGIC>MOL_PROPERTY
Idih
SciTegic.value.DoubleValue
0.022

@<SCITEGIC>MOL_PROPERTY
Tether
SciTegic.value.DoubleValue
0.000

@<TRIPOS>MOLECULE
guest-7_confgen4.mol2 : confsearch ligand conformer 438
          19          18           1
SMALL
USER_CHARGES
 
@<TRIPOS>ATOM
       1    C1      17.176581   20.801955   22.627635 C.2        1 MOL1         0.6115
       2    O1      16.813196   21.841292   23.140851 O.co2      1 MOL1        -0.6776
       3    O2      16.419507   20.048770   22.046517 O.co2      1 MOL1        -0.6776
       4    C2      18.661819   20.452294   22.734782 C.3        1 MOL1        -0.2013
       5    H1      18.915729   20.426485   23.801044 H          1 MOL1         0.0727
       6    H2      19.225849   21.280953   22.290660 H          1 MOL1         0.0727
       7    C3      19.078448   19.116094   22.064391 C.3        1 MOL1        -0.1910
       8    H3      18.505658   18.290825   22.509711 H          1 MOL1         0.0729
       9    H4      18.816052   19.146171   20.997756 H          1 MOL1         0.0729
      10    C4      20.590144   18.842549   22.219987 C.3        1 MOL1        -0.1909
      11    H5      20.850289   18.813073   23.287041 H          1 MOL1         0.0729
      12    H6      21.160856   19.668837   21.774244 H          1 MOL1         0.0729
      13    C5      21.002199   17.513781   21.552918 C.3        1 MOL1        -0.1884
      14    H7      20.434772   16.684372   21.997438 H          1 MOL1         0.0729
      15    H8      20.745415   17.540076   20.484806 H          1 MOL1         0.0729
      16    C6      22.511958   17.243865   21.710284 C.3        1 MOL1        -0.2899
      17    H9      22.791375   17.181125   22.770195 H          1 MOL1         0.0741
      18    H10     22.787443   16.295711   21.230471 H          1 MOL1         0.0741
      19    H11     23.104368   18.043292   21.246184 H          1 MOL1         0.0741
@<TRIPOS>BOND
    1     1     2    1
    2     1     3    2
    3     1     4    1
    4     4     5    1
    5     4     6    1
    6     4     7    1
    7     7     8    1
    8     7     9    1
    9     7    10    1
   10    10    11    1
   11    10    12    1
   12    10    13    1
   13    13    14    1
   14    13    15    1
   15    13    16    1
   16    16    17    1
   17    16    18    1
   18    16    19    1
@<TRIPOS>SUBSTRUCTURE
       1 MOL1            1 RESIDUE      1      MOL     
@<SCITEGIC>MOL_PROPERTY
VConf Rank
SciTegic.value.IntegerValue
438

@<SCITEGIC>MOL_PROPERTY
Conf_Id
SciTegic.value.IntegerValue
0

@<SCITEGIC>MOL_PROPERTY
Delta U+W
SciTegic.value.DoubleValue
0.000

@<SCITEGIC>MOL_PROPERTY
U+W
SciTegic.value.DoubleValue
-54.891

@<SCITEGIC>MOL_PROPERTY
Grad RMS
SciTegic.value.DoubleValue
0.000000

@<SCITEGIC>MOL_PROPERTY
U
SciTegic.value.DoubleValue
6.966

@<SCITEGIC>MOL_PROPERTY
W
SciTegic.value.DoubleValue
-61.857

@<SCITEGIC>MOL_PROPERTY
W(PB)
SciTegic.value.DoubleValue
-63.965

@<SCITEGIC>MOL_PROPERTY
W(SA)
SciTegic.value.DoubleValue
2.108

@<SCITEGIC>MOL_PROPERTY
Valence
SciTegic.value.DoubleValue
7.175

@<SCITEGIC>MOL_PROPERTY
Coulomb
SciTegic.value.DoubleValue
-1.360

@<SCITEGIC>MOL_PROPERTY
VdW
SciTegic.value.DoubleValue
1.151

@<SCITEGIC>MOL_PROPERTY
VdW6
SciTegic.value.DoubleValue
-5.641

@<SCITEGIC>MOL_PROPERTY
VdW12
SciTegic.value.DoubleValue
6.792

@<SCITEGIC>MOL_PROPERTY
Bond
SciTegic.value.DoubleValue
0.119

@<SCITEGIC>MOL_PROPERTY
Angle
SciTegic.value.DoubleValue
2.715

@<SCITEGIC>MOL_PROPERTY
Pdih
SciTegic.value.DoubleValue
4.340

@<SCITEGIC>MOL_PROPERTY
Idih
SciTegic.value.DoubleValue
0.000

@<SCITEGIC>MOL_PROPERTY
Tether
SciTegic.value.DoubleValue
0.000

@<TRIPOS>MOLECULE
guest-7_confgen4.mol2 : confsearch ligand conformer 439
          19          18           1
SMALL
USER_CHARGES
 
@<TRIPOS>ATOM
       1    C1      18.096682   20.325227   24.635314 C.2        1 MOL1         0.6115
       2    O1      16.952600   20.606059   24.338010 O.co2      1 MOL1        -0.6776
       3    O2      18.443662   20.017846   25.758392 O.co2      1 MOL1        -0.6776
       4    C2      19.151127   20.339409   23.534262 C.3        1 MOL1        -0.2013
       5    H1      20.107925   20.633549   23.982325 H          1 MOL1         0.0727
       6    H2      18.878816   21.117977   22.811474 H          1 MOL1         0.0727
       7    C3      19.293656   18.973130   22.819363 C.3        1 MOL1        -0.1910
       8    H3      19.553913   18.202458   23.558201 H          1 MOL1         0.0729
       9    H4      18.324640   18.686832   22.387401 H          1 MOL1         0.0729
      10    C4      20.366520   19.014188   21.709901 C.3        1 MOL1        -0.1909
      11    H5      21.333667   19.301997   22.144627 H          1 MOL1         0.0729
      12    H6      20.104167   19.786356   20.973613 H          1 MOL1         0.0729
      13    C5      20.506394   17.651779   20.999514 C.3        1 MOL1        -0.1884
      14    H7      20.770683   16.876969   21.732530 H          1 MOL1         0.0729
      15    H8      19.541343   17.361317   20.561561 H          1 MOL1         0.0729
      16    C6      21.578478   17.696387   19.892445 C.3        1 MOL1        -0.2899
      17    H9      21.664795   16.720063   19.398027 H          1 MOL1         0.0741
      18    H10     21.323022   18.442000   19.128098 H          1 MOL1         0.0741
      19    H11     22.561568   17.954061   20.307850 H          1 MOL1         0.0741
@<TRIPOS>BOND
    1     1     2    1
    2     1     3    2
    3     1     4    1
    4     4     5    1
    5     4     6    1
    6     4     7    1
    7     7     8    1
    8     7     9    1
    9     7    10    1
   10    10    11    1
   11    10    12    1
   12    10    13    1
   13    13    14    1
   14    13    15    1
   15    13    16    1
   16    16    17    1
   17    16    18    1
   18    16    19    1
@<TRIPOS>SUBSTRUCTURE
       1 MOL1            1 RESIDUE      1      MOL     
@<SCITEGIC>MOL_PROPERTY
VConf Rank
SciTegic.value.IntegerValue
439

@<SCITEGIC>MOL_PROPERTY
Conf_Id
SciTegic.value.IntegerValue
18

@<SCITEGIC>MOL_PROPERTY
Delta U+W
SciTegic.value.DoubleValue
-1.199

@<SCITEGIC>MOL_PROPERTY
U+W
SciTegic.value.DoubleValue
-56.090

@<SCITEGIC>MOL_PROPERTY
Grad RMS
SciTegic.value.DoubleValue
0.000000

@<SCITEGIC>MOL_PROPERTY
U
SciTegic.value.DoubleValue
5.975

@<SCITEGIC>MOL_PROPERTY
W
SciTegic.value.DoubleValue
-62.066

@<SCITEGIC>MOL_PROPERTY
W(PB)
SciTegic.value.DoubleValue
-64.219

@<SCITEGIC>MOL_PROPERTY
W(SA)
SciTegic.value.DoubleValue
2.153

@<SCITEGIC>MOL_PROPERTY
Valence
SciTegic.value.DoubleValue
6.673

@<SCITEGIC>MOL_PROPERTY
Coulomb
SciTegic.value.DoubleValue
-1.307

@<SCITEGIC>MOL_PROPERTY
VdW
SciTegic.value.DoubleValue
0.610

@<SCITEGIC>MOL_PROPERTY
VdW6
SciTegic.value.DoubleValue
-5.351

@<SCITEGIC>MOL_PROPERTY
VdW12
SciTegic.value.DoubleValue
5.961

@<SCITEGIC>MOL_PROPERTY
Bond
SciTegic.value.DoubleValue
0.086

@<SCITEGIC>MOL_PROPERTY
Angle
SciTegic.value.DoubleValue
2.253

@<SCITEGIC>MOL_PROPERTY
Pdih
SciTegic.value.DoubleValue
4.333

@<SCITEGIC>MOL_PROPERTY
Idih
SciTegic.value.DoubleValue
0.001

@<SCITEGIC>MOL_PROPERTY
Tether
SciTegic.value.DoubleValue
0.000

@<TRIPOS>MOLECULE
guest-7_confgen4.mol2 : confsearch ligand conformer 440
          19          18           1
SMALL
USER_CHARGES
 
@<TRIPOS>ATOM
       1    C1      22.906678   19.217038   23.488884 C.2        1 MOL1         0.6115
       2    O1      23.218502   18.732180   24.558448 O.co2      1 MOL1        -0.6776
       3    O2      23.712259   19.581959   22.655737 O.co2      1 MOL1        -0.6776
       4    C2      21.423124   19.355365   23.165941 C.3        1 MOL1        -0.2013
       5    H1      21.299135   20.249744   22.545010 H          1 MOL1         0.0727
       6    H2      20.885622   19.533758   24.104972 H          1 MOL1         0.0727
       7    C3      20.846145   18.107423   22.448364 C.3        1 MOL1        -0.1910
       8    H3      21.361887   17.964749   21.488695 H          1 MOL1         0.0729
       9    H4      21.067889   17.218306   23.054766 H          1 MOL1         0.0729
      10    C4      19.318409   18.179921   22.215340 C.3        1 MOL1        -0.1909
      11    H5      18.805235   18.314032   23.177460 H          1 MOL1         0.0729
      12    H6      18.980623   17.214201   21.814965 H          1 MOL1         0.0729
      13    C5      18.898254   19.302305   21.240027 C.3        1 MOL1        -0.1884
      14    H7      19.159103   20.283800   21.657142 H          1 MOL1         0.0729
      15    H8      19.449537   19.198099   20.295307 H          1 MOL1         0.0729
      16    C6      17.383378   19.265454   20.955317 C.3        1 MOL1        -0.2899
      17    H9      17.100169   20.069764   20.263965 H          1 MOL1         0.0741
      18    H10     17.091800   18.309652   20.500550 H          1 MOL1         0.0741
      19    H11     16.806900   19.395108   21.880665 H          1 MOL1         0.0741
@<TRIPOS>BOND
    1     1     2    1
    2     1     3    2
    3     1     4    1
    4     4     5    1
    5     4     6    1
    6     4     7    1
    7     7     8    1
    8     7     9    1
    9     7    10    1
   10    10    11    1
   11    10    12    1
   12    10    13    1
   13    13    14    1
   14    13    15    1
   15    13    16    1
   16    16    17    1
   17    16    18    1
   18    16    19    1
@<TRIPOS>SUBSTRUCTURE
       1 MOL1            1 RESIDUE      1      MOL     
@<SCITEGIC>MOL_PROPERTY
VConf Rank
SciTegic.value.IntegerValue
440

@<SCITEGIC>MOL_PROPERTY
Conf_Id
SciTegic.value.IntegerValue
34

@<SCITEGIC>MOL_PROPERTY
Delta U+W
SciTegic.value.DoubleValue
-0.563

@<SCITEGIC>MOL_PROPERTY
U+W
SciTegic.value.DoubleValue
-55.455

@<SCITEGIC>MOL_PROPERTY
Grad RMS
SciTegic.value.DoubleValue
0.000000

@<SCITEGIC>MOL_PROPERTY
U
SciTegic.value.DoubleValue
6.914

@<SCITEGIC>MOL_PROPERTY
W
SciTegic.value.DoubleValue
-62.369

@<SCITEGIC>MOL_PROPERTY
W(PB)
SciTegic.value.DoubleValue
-64.446

@<SCITEGIC>MOL_PROPERTY
W(SA)
SciTegic.value.DoubleValue
2.077

@<SCITEGIC>MOL_PROPERTY
Valence
SciTegic.value.DoubleValue
7.196

@<SCITEGIC>MOL_PROPERTY
Coulomb
SciTegic.value.DoubleValue
-1.020

@<SCITEGIC>MOL_PROPERTY
VdW
SciTegic.value.DoubleValue
0.738

@<SCITEGIC>MOL_PROPERTY
VdW6
SciTegic.value.DoubleValue
-6.010

@<SCITEGIC>MOL_PROPERTY
VdW12
SciTegic.value.DoubleValue
6.748

@<SCITEGIC>MOL_PROPERTY
Bond
SciTegic.value.DoubleValue
0.126

@<SCITEGIC>MOL_PROPERTY
Angle
SciTegic.value.DoubleValue
2.499

@<SCITEGIC>MOL_PROPERTY
Pdih
SciTegic.value.DoubleValue
4.570

@<SCITEGIC>MOL_PROPERTY
Idih
SciTegic.value.DoubleValue
0.001

@<SCITEGIC>MOL_PROPERTY
Tether
SciTegic.value.DoubleValue
0.000

@<TRIPOS>MOLECULE
guest-7_confgen4.mol2 : confsearch ligand conformer 441
          19          18           1
SMALL
USER_CHARGES
 
@<TRIPOS>ATOM
       1    C1      23.036283   19.078779   23.147519 C.2        1 MOL1         0.6115
       2    O1      23.739775   18.102478   23.315523 O.co2      1 MOL1        -0.6776
       3    O2      23.282352   20.173122   23.614558 O.co2      1 MOL1        -0.6776
       4    C2      21.763677   18.916358   22.323836 C.3        1 MOL1        -0.2013
       5    H1      21.946738   18.148674   21.562480 H          1 MOL1         0.0727
       6    H2      21.584568   19.860621   21.797404 H          1 MOL1         0.0727
       7    C3      20.534799   18.530435   23.187608 C.3        1 MOL1        -0.1910
       8    H3      20.781644   17.631961   23.770047 H          1 MOL1         0.0729
       9    H4      20.334101   19.327336   23.916977 H          1 MOL1         0.0729
      10    C4      19.260176   18.248158   22.357440 C.3        1 MOL1        -0.1909
      11    H5      18.480764   17.869949   23.033078 H          1 MOL1         0.0729
      12    H6      19.461626   17.445249   21.635109 H          1 MOL1         0.0729
      13    C5      18.721573   19.492434   21.616362 C.3        1 MOL1        -0.1884
      14    H7      18.568250   20.312371   22.331529 H          1 MOL1         0.0729
      15    H8      19.456771   19.842339   20.879874 H          1 MOL1         0.0729
      16    C6      17.393899   19.188747   20.893645 C.3        1 MOL1        -0.2899
      17    H9      17.524646   18.389886   20.151936 H          1 MOL1         0.0741
      18    H10     16.621525   18.871823   21.606656 H          1 MOL1         0.0741
      19    H11     17.025879   20.080620   20.369989 H          1 MOL1         0.0741
@<TRIPOS>BOND
    1     1     2    1
    2     1     3    2
    3     1     4    1
    4     4     5    1
    5     4     6    1
    6     4     7    1
    7     7     8    1
    8     7     9    1
    9     7    10    1
   10    10    11    1
   11    10    12    1
   12    10    13    1
   13    13    14    1
   14    13    15    1
   15    13    16    1
   16    16    17    1
   17    16    18    1
   18    16    19    1
@<TRIPOS>SUBSTRUCTURE
       1 MOL1            1 RESIDUE      1      MOL     
@<SCITEGIC>MOL_PROPERTY
VConf Rank
SciTegic.value.IntegerValue
441

@<SCITEGIC>MOL_PROPERTY
Conf_Id
SciTegic.value.IntegerValue
33

@<SCITEGIC>MOL_PROPERTY
Delta U+W
SciTegic.value.DoubleValue
-0.526

@<SCITEGIC>MOL_PROPERTY
U+W
SciTegic.value.DoubleValue
-55.418

@<SCITEGIC>MOL_PROPERTY
Grad RMS
SciTegic.value.DoubleValue
0.000000

@<SCITEGIC>MOL_PROPERTY
U
SciTegic.value.DoubleValue
6.914

@<SCITEGIC>MOL_PROPERTY
W
SciTegic.value.DoubleValue
-62.332

@<SCITEGIC>MOL_PROPERTY
W(PB)
SciTegic.value.DoubleValue
-64.421

@<SCITEGIC>MOL_PROPERTY
W(SA)
SciTegic.value.DoubleValue
2.090

@<SCITEGIC>MOL_PROPERTY
Valence
SciTegic.value.DoubleValue
7.196

@<SCITEGIC>MOL_PROPERTY
Coulomb
SciTegic.value.DoubleValue
-1.020

@<SCITEGIC>MOL_PROPERTY
VdW
SciTegic.value.DoubleValue
0.738

@<SCITEGIC>MOL_PROPERTY
VdW6
SciTegic.value.DoubleValue
-6.010

@<SCITEGIC>MOL_PROPERTY
VdW12
SciTegic.value.DoubleValue
6.748

@<SCITEGIC>MOL_PROPERTY
Bond
SciTegic.value.DoubleValue
0.126

@<SCITEGIC>MOL_PROPERTY
Angle
SciTegic.value.DoubleValue
2.499

@<SCITEGIC>MOL_PROPERTY
Pdih
SciTegic.value.DoubleValue
4.570

@<SCITEGIC>MOL_PROPERTY
Idih
SciTegic.value.DoubleValue
0.001

@<SCITEGIC>MOL_PROPERTY
Tether
SciTegic.value.DoubleValue
0.000

@<TRIPOS>MOLECULE
guest-7_confgen4.mol2 : confsearch ligand conformer 442
          19          18           1
SMALL
USER_CHARGES
 
@<TRIPOS>ATOM
       1    C1      22.013727   21.296036   21.895285 C.2        1 MOL1         0.6115
       2    O1      21.782144   21.913075   20.874573 O.co2      1 MOL1        -0.6776
       3    O2      22.441131   21.810338   22.909713 O.co2      1 MOL1        -0.6776
       4    C2      21.736214   19.796942   21.909596 C.3        1 MOL1        -0.2013
       5    H1      22.466868   19.321694   22.575150 H          1 MOL1         0.0727
       6    H2      21.915486   19.407257   20.900272 H          1 MOL1         0.0727
       7    C3      20.296042   19.455423   22.365347 C.3        1 MOL1        -0.1910
       8    H3      20.128906   19.860162   23.373062 H          1 MOL1         0.0729
       9    H4      19.583554   19.956339   21.696717 H          1 MOL1         0.0729
      10    C4      20.041681   17.930314   22.367003 C.3        1 MOL1        -0.1909
      11    H5      20.807753   17.440751   22.983814 H          1 MOL1         0.0729
      12    H6      20.160943   17.533695   21.349419 H          1 MOL1         0.0729
      13    C5      18.648794   17.540883   22.913624 C.3        1 MOL1        -0.1884
      14    H7      18.594153   16.446277   22.991702 H          1 MOL1         0.0729
      15    H8      18.527853   17.931141   23.933624 H          1 MOL1         0.0729
      16    C6      17.484878   18.034378   22.027276 C.3        1 MOL1        -0.2899
      17    H9      17.600034   17.680409   20.994512 H          1 MOL1         0.0741
      18    H10     16.526459   17.658680   22.408362 H          1 MOL1         0.0741
      19    H11     17.429368   19.130019   22.012012 H          1 MOL1         0.0741
@<TRIPOS>BOND
    1     1     2    1
    2     1     3    2
    3     1     4    1
    4     4     5    1
    5     4     6    1
    6     4     7    1
    7     7     8    1
    8     7     9    1
    9     7    10    1
   10    10    11    1
   11    10    12    1
   12    10    13    1
   13    13    14    1
   14    13    15    1
   15    13    16    1
   16    16    17    1
   17    16    18    1
   18    16    19    1
@<TRIPOS>SUBSTRUCTURE
       1 MOL1            1 RESIDUE      1      MOL     
@<SCITEGIC>MOL_PROPERTY
VConf Rank
SciTegic.value.IntegerValue
442

@<SCITEGIC>MOL_PROPERTY
Conf_Id
SciTegic.value.IntegerValue
42

@<SCITEGIC>MOL_PROPERTY
Delta U+W
SciTegic.value.DoubleValue
-0.344

@<SCITEGIC>MOL_PROPERTY
U+W
SciTegic.value.DoubleValue
-55.236

@<SCITEGIC>MOL_PROPERTY
Grad RMS
SciTegic.value.DoubleValue
0.000000

@<SCITEGIC>MOL_PROPERTY
U
SciTegic.value.DoubleValue
7.244

@<SCITEGIC>MOL_PROPERTY
W
SciTegic.value.DoubleValue
-62.479

@<SCITEGIC>MOL_PROPERTY
W(PB)
SciTegic.value.DoubleValue
-64.610

@<SCITEGIC>MOL_PROPERTY
W(SA)
SciTegic.value.DoubleValue
2.130

@<SCITEGIC>MOL_PROPERTY
Valence
SciTegic.value.DoubleValue
7.174

@<SCITEGIC>MOL_PROPERTY
Coulomb
SciTegic.value.DoubleValue
-0.669

@<SCITEGIC>MOL_PROPERTY
VdW
SciTegic.value.DoubleValue
0.739

@<SCITEGIC>MOL_PROPERTY
VdW6
SciTegic.value.DoubleValue
-5.969

@<SCITEGIC>MOL_PROPERTY
VdW12
SciTegic.value.DoubleValue
6.708

@<SCITEGIC>MOL_PROPERTY
Bond
SciTegic.value.DoubleValue
0.116

@<SCITEGIC>MOL_PROPERTY
Angle
SciTegic.value.DoubleValue
2.481

@<SCITEGIC>MOL_PROPERTY
Pdih
SciTegic.value.DoubleValue
4.576

@<SCITEGIC>MOL_PROPERTY
Idih
SciTegic.value.DoubleValue
0.000

@<SCITEGIC>MOL_PROPERTY
Tether
SciTegic.value.DoubleValue
0.000

@<TRIPOS>MOLECULE
guest-7_confgen4.mol2 : confsearch ligand conformer 443
          19          18           1
SMALL
USER_CHARGES
 
@<TRIPOS>ATOM
       1    C1      18.299024   20.297435   19.976913 C.2        1 MOL1         0.6115
       2    O1      18.707765   19.965856   18.881831 O.co2      1 MOL1        -0.6776
       3    O2      17.836378   21.394716   20.218114 O.co2      1 MOL1        -0.6776
       4    C2      18.388271   19.287309   21.115412 C.3        1 MOL1        -0.2013
       5    H1      18.267375   18.283374   20.690881 H          1 MOL1         0.0727
       6    H2      17.540513   19.458435   21.789728 H          1 MOL1         0.0727
       7    C3      19.721392   19.378522   21.898300 C.3        1 MOL1        -0.1910
       8    H3      20.554672   19.222828   21.200428 H          1 MOL1         0.0729
       9    H4      19.832256   20.391569   22.309010 H          1 MOL1         0.0729
      10    C4      19.785982   18.341522   23.043340 C.3        1 MOL1        -0.1909
      11    H5      19.724494   17.326381   22.627751 H          1 MOL1         0.0729
      12    H6      18.906470   18.467242   23.689594 H          1 MOL1         0.0729
      13    C5      21.057167   18.467327   23.914461 C.3        1 MOL1        -0.1884
      14    H7      21.119266   19.479901   24.336557 H          1 MOL1         0.0729
      15    H8      20.969357   17.780417   24.767508 H          1 MOL1         0.0729
      16    C6      22.357639   18.143543   23.147787 C.3        1 MOL1        -0.2899
      17    H9      22.547857   18.876412   22.353769 H          1 MOL1         0.0741
      18    H10     23.218635   18.160540   23.828477 H          1 MOL1         0.0741
      19    H11     22.307004   17.146224   22.691775 H          1 MOL1         0.0741
@<TRIPOS>BOND
    1     1     2    1
    2     1     3    2
    3     1     4    1
    4     4     5    1
    5     4     6    1
    6     4     7    1
    7     7     8    1
    8     7     9    1
    9     7    10    1
   10    10    11    1
   11    10    12    1
   12    10    13    1
   13    13    14    1
   14    13    15    1
   15    13    16    1
   16    16    17    1
   17    16    18    1
   18    16    19    1
@<TRIPOS>SUBSTRUCTURE
       1 MOL1            1 RESIDUE      1      MOL     
@<SCITEGIC>MOL_PROPERTY
VConf Rank
SciTegic.value.IntegerValue
443

@<SCITEGIC>MOL_PROPERTY
Conf_Id
SciTegic.value.IntegerValue
41

@<SCITEGIC>MOL_PROPERTY
Delta U+W
SciTegic.value.DoubleValue
-0.361

@<SCITEGIC>MOL_PROPERTY
U+W
SciTegic.value.DoubleValue
-55.252

@<SCITEGIC>MOL_PROPERTY
Grad RMS
SciTegic.value.DoubleValue
0.000000

@<SCITEGIC>MOL_PROPERTY
U
SciTegic.value.DoubleValue
7.244

@<SCITEGIC>MOL_PROPERTY
W
SciTegic.value.DoubleValue
-62.496

@<SCITEGIC>MOL_PROPERTY
W(PB)
SciTegic.value.DoubleValue
-64.596

@<SCITEGIC>MOL_PROPERTY
W(SA)
SciTegic.value.DoubleValue
2.099

@<SCITEGIC>MOL_PROPERTY
Valence
SciTegic.value.DoubleValue
7.174

@<SCITEGIC>MOL_PROPERTY
Coulomb
SciTegic.value.DoubleValue
-0.669

@<SCITEGIC>MOL_PROPERTY
VdW
SciTegic.value.DoubleValue
0.739

@<SCITEGIC>MOL_PROPERTY
VdW6
SciTegic.value.DoubleValue
-5.969

@<SCITEGIC>MOL_PROPERTY
VdW12
SciTegic.value.DoubleValue
6.708

@<SCITEGIC>MOL_PROPERTY
Bond
SciTegic.value.DoubleValue
0.116

@<SCITEGIC>MOL_PROPERTY
Angle
SciTegic.value.DoubleValue
2.481

@<SCITEGIC>MOL_PROPERTY
Pdih
SciTegic.value.DoubleValue
4.576

@<SCITEGIC>MOL_PROPERTY
Idih
SciTegic.value.DoubleValue
0.000

@<SCITEGIC>MOL_PROPERTY
Tether
SciTegic.value.DoubleValue
0.000

@<TRIPOS>MOLECULE
guest-7_confgen4.mol2 : confsearch ligand conformer 444
          19          18           1
SMALL
USER_CHARGES
 
@<TRIPOS>ATOM
       1    C1      16.995979   19.408781   22.412263 C.2        1 MOL1         0.6115
       2    O1      16.857366   19.702631   23.583155 O.co2      1 MOL1        -0.6776
       3    O2      16.558239   20.075983   21.495799 O.co2      1 MOL1        -0.6776
       4    C2      17.740848   18.120730   22.072498 C.3        1 MOL1        -0.2013
       5    H1      17.148322   17.588242   21.319184 H          1 MOL1         0.0727
       6    H2      17.765138   17.484049   22.965266 H          1 MOL1         0.0727
       7    C3      19.178527   18.345391   21.536125 C.3        1 MOL1        -0.1910
       8    H3      19.583617   17.385006   21.189577 H          1 MOL1         0.0729
       9    H4      19.140687   19.007488   20.659868 H          1 MOL1         0.0729
      10    C4      20.124196   18.941965   22.602484 C.3        1 MOL1        -0.1909
      11    H5      20.148478   18.283262   23.481432 H          1 MOL1         0.0729
      12    H6      19.734526   19.911612   22.942139 H          1 MOL1         0.0729
      13    C5      21.555525   19.127418   22.057041 C.3        1 MOL1        -0.1884
      14    H7      21.952159   18.159826   21.719587 H          1 MOL1         0.0729
      15    H8      21.534450   19.787931   21.179116 H          1 MOL1         0.0729
      16    C6      22.496621   19.722695   23.123325 C.3        1 MOL1        -0.2899
      17    H9      22.560971   19.066082   24.000892 H          1 MOL1         0.0741
      18    H10     23.509383   19.848248   22.718804 H          1 MOL1         0.0741
      19    H11     22.140189   20.706270   23.456461 H          1 MOL1         0.0741
@<TRIPOS>BOND
    1     1     2    1
    2     1     3    2
    3     1     4    1
    4     4     5    1
    5     4     6    1
    6     4     7    1
    7     7     8    1
    8     7     9    1
    9     7    10    1
   10    10    11    1
   11    10    12    1
   12    10    13    1
   13    13    14    1
   14    13    15    1
   15    13    16    1
   16    16    17    1
   17    16    18    1
   18    16    19    1
@<TRIPOS>SUBSTRUCTURE
       1 MOL1            1 RESIDUE      1      MOL     
@<SCITEGIC>MOL_PROPERTY
VConf Rank
SciTegic.value.IntegerValue
444

@<SCITEGIC>MOL_PROPERTY
Conf_Id
SciTegic.value.IntegerValue
36

@<SCITEGIC>MOL_PROPERTY
Delta U+W
SciTegic.value.DoubleValue
-0.079

@<SCITEGIC>MOL_PROPERTY
U+W
SciTegic.value.DoubleValue
-54.971

@<SCITEGIC>MOL_PROPERTY
Grad RMS
SciTegic.value.DoubleValue
0.000000

@<SCITEGIC>MOL_PROPERTY
U
SciTegic.value.DoubleValue
8.266

@<SCITEGIC>MOL_PROPERTY
W
SciTegic.value.DoubleValue
-63.237

@<SCITEGIC>MOL_PROPERTY
W(PB)
SciTegic.value.DoubleValue
-65.340

@<SCITEGIC>MOL_PROPERTY
W(SA)
SciTegic.value.DoubleValue
2.103

@<SCITEGIC>MOL_PROPERTY
Valence
SciTegic.value.DoubleValue
6.935

@<SCITEGIC>MOL_PROPERTY
Coulomb
SciTegic.value.DoubleValue
0.874

@<SCITEGIC>MOL_PROPERTY
VdW
SciTegic.value.DoubleValue
0.457

@<SCITEGIC>MOL_PROPERTY
VdW6
SciTegic.value.DoubleValue
-6.205

@<SCITEGIC>MOL_PROPERTY
VdW12
SciTegic.value.DoubleValue
6.662

@<SCITEGIC>MOL_PROPERTY
Bond
SciTegic.value.DoubleValue
0.107

@<SCITEGIC>MOL_PROPERTY
Angle
SciTegic.value.DoubleValue
2.420

@<SCITEGIC>MOL_PROPERTY
Pdih
SciTegic.value.DoubleValue
4.407

@<SCITEGIC>MOL_PROPERTY
Idih
SciTegic.value.DoubleValue
0.001

@<SCITEGIC>MOL_PROPERTY
Tether
SciTegic.value.DoubleValue
0.000

@<TRIPOS>MOLECULE
guest-7_confgen4.mol2 : confsearch ligand conformer 445
          19          18           1
SMALL
USER_CHARGES
 
@<TRIPOS>ATOM
       1    C1      18.440877   19.839049   20.214278 C.2        1 MOL1         0.6115
       2    O1      17.372833   19.857503   20.793497 O.co2      1 MOL1        -0.6776
       3    O2      18.619500   19.276258   19.152185 O.co2      1 MOL1        -0.6776
       4    C2      19.617842   20.580409   20.842358 C.3        1 MOL1        -0.2013
       5    H1      19.229577   21.293618   21.579631 H          1 MOL1         0.0727
       6    H2      20.093981   21.170496   20.050400 H          1 MOL1         0.0727
       7    C3      20.671162   19.651217   21.499786 C.3        1 MOL1        -0.1910
       8    H3      21.029497   18.924696   20.757226 H          1 MOL1         0.0729
       9    H4      21.540200   20.253000   21.798391 H          1 MOL1         0.0729
      10    C4      20.118148   18.906953   22.735730 C.3        1 MOL1        -0.1909
      11    H5      19.258399   18.288986   22.441840 H          1 MOL1         0.0729
      12    H6      19.749344   19.636961   23.469284 H          1 MOL1         0.0729
      13    C5      21.191238   18.013315   23.391850 C.3        1 MOL1        -0.1884
      14    H7      21.560217   17.280519   22.660865 H          1 MOL1         0.0729
      15    H8      22.052091   18.626818   23.691816 H          1 MOL1         0.0729
      16    C6      20.636391   17.272144   24.624647 C.3        1 MOL1        -0.2899
      17    H9      19.792972   16.626120   24.347624 H          1 MOL1         0.0741
      18    H10     21.411884   16.641371   25.078323 H          1 MOL1         0.0741
      19    H11     20.288534   17.982383   25.386199 H          1 MOL1         0.0741
@<TRIPOS>BOND
    1     1     2    1
    2     1     3    2
    3     1     4    1
    4     4     5    1
    5     4     6    1
    6     4     7    1
    7     7     8    1
    8     7     9    1
    9     7    10    1
   10    10    11    1
   11    10    12    1
   12    10    13    1
   13    13    14    1
   14    13    15    1
   15    13    16    1
   16    16    17    1
   17    16    18    1
   18    16    19    1
@<TRIPOS>SUBSTRUCTURE
       1 MOL1            1 RESIDUE      1      MOL     
@<SCITEGIC>MOL_PROPERTY
VConf Rank
SciTegic.value.IntegerValue
445

@<SCITEGIC>MOL_PROPERTY
Conf_Id
SciTegic.value.IntegerValue
35

@<SCITEGIC>MOL_PROPERTY
Delta U+W
SciTegic.value.DoubleValue
-0.030

@<SCITEGIC>MOL_PROPERTY
U+W
SciTegic.value.DoubleValue
-54.921

@<SCITEGIC>MOL_PROPERTY
Grad RMS
SciTegic.value.DoubleValue
0.000000

@<SCITEGIC>MOL_PROPERTY
U
SciTegic.value.DoubleValue
8.267

@<SCITEGIC>MOL_PROPERTY
W
SciTegic.value.DoubleValue
-63.188

@<SCITEGIC>MOL_PROPERTY
W(PB)
SciTegic.value.DoubleValue
-65.294

@<SCITEGIC>MOL_PROPERTY
W(SA)
SciTegic.value.DoubleValue
2.106

@<SCITEGIC>MOL_PROPERTY
Valence
SciTegic.value.DoubleValue
6.935

@<SCITEGIC>MOL_PROPERTY
Coulomb
SciTegic.value.DoubleValue
0.875

@<SCITEGIC>MOL_PROPERTY
VdW
SciTegic.value.DoubleValue
0.457

@<SCITEGIC>MOL_PROPERTY
VdW6
SciTegic.value.DoubleValue
-6.205

@<SCITEGIC>MOL_PROPERTY
VdW12
SciTegic.value.DoubleValue
6.662

@<SCITEGIC>MOL_PROPERTY
Bond
SciTegic.value.DoubleValue
0.107

@<SCITEGIC>MOL_PROPERTY
Angle
SciTegic.value.DoubleValue
2.420

@<SCITEGIC>MOL_PROPERTY
Pdih
SciTegic.value.DoubleValue
4.407

@<SCITEGIC>MOL_PROPERTY
Idih
SciTegic.value.DoubleValue
0.001

@<SCITEGIC>MOL_PROPERTY
Tether
SciTegic.value.DoubleValue
0.000

@<TRIPOS>MOLECULE
guest-7_confgen4.mol2 : confsearch ligand conformer 446
          19          18           1
SMALL
USER_CHARGES
 
@<TRIPOS>ATOM
       1    C1      21.759658   20.844761   23.687967 C.2        1 MOL1         0.6115
       2    O1      21.175780   21.437640   24.573568 O.co2      1 MOL1        -0.6776
       3    O2      22.436096   21.396816   22.842798 O.co2      1 MOL1        -0.6776
       4    C2      21.653962   19.322637   23.649950 C.3        1 MOL1        -0.2013
       5    H1      21.812884   18.958051   24.671672 H          1 MOL1         0.0727
       6    H2      22.476882   18.928928   23.041053 H          1 MOL1         0.0727
       7    C3      20.295581   18.795399   23.118403 C.3        1 MOL1        -0.1910
       8    H3      20.258840   17.709605   23.273494 H          1 MOL1         0.0729
       9    H4      19.479297   19.228931   23.712591 H          1 MOL1         0.0729
      10    C4      20.080176   19.114307   21.619543 C.3        1 MOL1        -0.1909
      11    H5      20.876224   18.647618   21.023449 H          1 MOL1         0.0729
      12    H6      20.172051   20.198032   21.464226 H          1 MOL1         0.0729
      13    C5      18.701104   18.660928   21.087154 C.3        1 MOL1        -0.1884
      14    H7      17.902657   19.127887   21.680233 H          1 MOL1         0.0729
      15    H8      18.581384   19.031372   20.059701 H          1 MOL1         0.0729
      16    C6      18.519136   17.127662   21.086148 C.3        1 MOL1        -0.2899
      17    H9      18.513476   16.723741   22.106167 H          1 MOL1         0.0741
      18    H10     17.565371   16.855019   20.616111 H          1 MOL1         0.0741
      19    H11     19.324869   16.636720   20.524972 H          1 MOL1         0.0741
@<TRIPOS>BOND
    1     1     2    1
    2     1     3    2
    3     1     4    1
    4     4     5    1
    5     4     6    1
    6     4     7    1
    7     7     8    1
    8     7     9    1
    9     7    10    1
   10    10    11    1
   11    10    12    1
   12    10    13    1
   13    13    14    1
   14    13    15    1
   15    13    16    1
   16    16    17    1
   17    16    18    1
   18    16    19    1
@<TRIPOS>SUBSTRUCTURE
       1 MOL1            1 RESIDUE      1      MOL     
@<SCITEGIC>MOL_PROPERTY
VConf Rank
SciTegic.value.IntegerValue
446

@<SCITEGIC>MOL_PROPERTY
Conf_Id
SciTegic.value.IntegerValue
74

@<SCITEGIC>MOL_PROPERTY
Delta U+W
SciTegic.value.DoubleValue
0.797

@<SCITEGIC>MOL_PROPERTY
U+W
SciTegic.value.DoubleValue
-54.095

@<SCITEGIC>MOL_PROPERTY
Grad RMS
SciTegic.value.DoubleValue
0.000000

@<SCITEGIC>MOL_PROPERTY
U
SciTegic.value.DoubleValue
8.869

@<SCITEGIC>MOL_PROPERTY
W
SciTegic.value.DoubleValue
-62.964

@<SCITEGIC>MOL_PROPERTY
W(PB)
SciTegic.value.DoubleValue
-65.046

@<SCITEGIC>MOL_PROPERTY
W(SA)
SciTegic.value.DoubleValue
2.082

@<SCITEGIC>MOL_PROPERTY
Valence
SciTegic.value.DoubleValue
7.469

@<SCITEGIC>MOL_PROPERTY
Coulomb
SciTegic.value.DoubleValue
0.762

@<SCITEGIC>MOL_PROPERTY
VdW
SciTegic.value.DoubleValue
0.639

@<SCITEGIC>MOL_PROPERTY
VdW6
SciTegic.value.DoubleValue
-6.782

@<SCITEGIC>MOL_PROPERTY
VdW12
SciTegic.value.DoubleValue
7.421

@<SCITEGIC>MOL_PROPERTY
Bond
SciTegic.value.DoubleValue
0.141

@<SCITEGIC>MOL_PROPERTY
Angle
SciTegic.value.DoubleValue
2.667

@<SCITEGIC>MOL_PROPERTY
Pdih
SciTegic.value.DoubleValue
4.660

@<SCITEGIC>MOL_PROPERTY
Idih
SciTegic.value.DoubleValue
0.001

@<SCITEGIC>MOL_PROPERTY
Tether
SciTegic.value.DoubleValue
0.000

@<TRIPOS>MOLECULE
guest-7_confgen4.mol2 : confsearch ligand conformer 447
          19          18           1
SMALL
USER_CHARGES
 
@<TRIPOS>ATOM
       1    C1      21.228240   20.675710   20.306821 C.2        1 MOL1         0.6115
       2    O1      20.827311   21.725187   19.843920 O.co2      1 MOL1        -0.6776
       3    O2      22.398990   20.350936   20.320571 O.co2      1 MOL1        -0.6776
       4    C2      20.208319   19.723241   20.920647 C.3        1 MOL1        -0.2013
       5    H1      20.564787   18.700264   20.754493 H          1 MOL1         0.0727
       6    H2      19.265369   19.833347   20.371942 H          1 MOL1         0.0727
       7    C3      19.980453   19.980321   22.432790 C.3        1 MOL1        -0.1910
       8    H3      20.922325   19.830000   22.976904 H          1 MOL1         0.0729
       9    H4      19.713358   21.036647   22.574334 H          1 MOL1         0.0729
      10    C4      18.862059   19.102421   23.048593 C.3        1 MOL1        -0.1909
      11    H5      17.909389   19.343968   22.557809 H          1 MOL1         0.0729
      12    H6      18.737808   19.379200   24.104403 H          1 MOL1         0.0729
      13    C5      19.096385   17.574525   22.956253 C.3        1 MOL1        -0.1884
      14    H7      18.236911   17.061167   23.408853 H          1 MOL1         0.0729
      15    H8      19.119807   17.257185   21.905369 H          1 MOL1         0.0729
      16    C6      20.384136   17.109231   23.669411 C.3        1 MOL1        -0.2899
      17    H9      20.392792   17.435805   24.717411 H          1 MOL1         0.0741
      18    H10     20.456857   16.014093   23.655254 H          1 MOL1         0.0741
      19    H11     21.279490   17.508319   23.176119 H          1 MOL1         0.0741
@<TRIPOS>BOND
    1     1     2    1
    2     1     3    2
    3     1     4    1
    4     4     5    1
    5     4     6    1
    6     4     7    1
    7     7     8    1
    8     7     9    1
    9     7    10    1
   10    10    11    1
   11    10    12    1
   12    10    13    1
   13    13    14    1
   14    13    15    1
   15    13    16    1
   16    16    17    1
   17    16    18    1
   18    16    19    1
@<TRIPOS>SUBSTRUCTURE
       1 MOL1            1 RESIDUE      1      MOL     
@<SCITEGIC>MOL_PROPERTY
VConf Rank
SciTegic.value.IntegerValue
447

@<SCITEGIC>MOL_PROPERTY
Conf_Id
SciTegic.value.IntegerValue
67

@<SCITEGIC>MOL_PROPERTY
Delta U+W
SciTegic.value.DoubleValue
0.308

@<SCITEGIC>MOL_PROPERTY
U+W
SciTegic.value.DoubleValue
-54.583

@<SCITEGIC>MOL_PROPERTY
Grad RMS
SciTegic.value.DoubleValue
0.000000

@<SCITEGIC>MOL_PROPERTY
U
SciTegic.value.DoubleValue
8.219

@<SCITEGIC>MOL_PROPERTY
W
SciTegic.value.DoubleValue
-62.802

@<SCITEGIC>MOL_PROPERTY
W(PB)
SciTegic.value.DoubleValue
-64.859

@<SCITEGIC>MOL_PROPERTY
W(SA)
SciTegic.value.DoubleValue
2.057

@<SCITEGIC>MOL_PROPERTY
Valence
SciTegic.value.DoubleValue
7.609

@<SCITEGIC>MOL_PROPERTY
Coulomb
SciTegic.value.DoubleValue
-0.089

@<SCITEGIC>MOL_PROPERTY
VdW
SciTegic.value.DoubleValue
0.699

@<SCITEGIC>MOL_PROPERTY
VdW6
SciTegic.value.DoubleValue
-6.924

@<SCITEGIC>MOL_PROPERTY
VdW12
SciTegic.value.DoubleValue
7.623

@<SCITEGIC>MOL_PROPERTY
Bond
SciTegic.value.DoubleValue
0.163

@<SCITEGIC>MOL_PROPERTY
Angle
SciTegic.value.DoubleValue
2.870

@<SCITEGIC>MOL_PROPERTY
Pdih
SciTegic.value.DoubleValue
4.576

@<SCITEGIC>MOL_PROPERTY
Idih
SciTegic.value.DoubleValue
0.001

@<SCITEGIC>MOL_PROPERTY
Tether
SciTegic.value.DoubleValue
0.000

@<TRIPOS>MOLECULE
guest-7_confgen4.mol2 : confsearch ligand conformer 448
          19          18           1
SMALL
USER_CHARGES
 
@<TRIPOS>ATOM
       1    C1      20.018171   17.350955   19.830311 C.2        1 MOL1         0.6115
       2    O1      19.928961   16.148007   19.684092 O.co2      1 MOL1        -0.6776
       3    O2      20.529161   18.091177   19.013437 O.co2      1 MOL1        -0.6776
       4    C2      19.476699   17.961832   21.117888 C.3        1 MOL1        -0.2013
       5    H1      18.616718   17.364543   21.443516 H          1 MOL1         0.0727
       6    H2      19.105685   18.965484   20.880844 H          1 MOL1         0.0727
       7    C3      20.539755   18.027680   22.244903 C.3        1 MOL1        -0.1910
       8    H3      20.956973   17.022391   22.394972 H          1 MOL1         0.0729
       9    H4      21.378248   18.659121   21.922428 H          1 MOL1         0.0729
      10    C4      19.978311   18.535124   23.596941 C.3        1 MOL1        -0.1909
      11    H5      20.782365   18.507962   24.344964 H          1 MOL1         0.0729
      12    H6      19.211805   17.831951   23.950225 H          1 MOL1         0.0729
      13    C5      19.371309   19.959386   23.566524 C.3        1 MOL1        -0.1884
      14    H7      18.497525   19.985215   22.902111 H          1 MOL1         0.0729
      15    H8      18.995989   20.200834   24.570476 H          1 MOL1         0.0729
      16    C6      20.381899   21.045766   23.140045 C.3        1 MOL1        -0.2899
      17    H9      20.697836   20.909362   22.098006 H          1 MOL1         0.0741
      18    H10     19.931526   22.043299   23.223154 H          1 MOL1         0.0741
      19    H11     21.275326   21.023258   23.777472 H          1 MOL1         0.0741
@<TRIPOS>BOND
    1     1     2    1
    2     1     3    2
    3     1     4    1
    4     4     5    1
    5     4     6    1
    6     4     7    1
    7     7     8    1
    8     7     9    1
    9     7    10    1
   10    10    11    1
   11    10    12    1
   12    10    13    1
   13    13    14    1
   14    13    15    1
   15    13    16    1
   16    16    17    1
   17    16    18    1
   18    16    19    1
@<TRIPOS>SUBSTRUCTURE
       1 MOL1            1 RESIDUE      1      MOL     
@<SCITEGIC>MOL_PROPERTY
VConf Rank
SciTegic.value.IntegerValue
448

@<SCITEGIC>MOL_PROPERTY
Conf_Id
SciTegic.value.IntegerValue
21

@<SCITEGIC>MOL_PROPERTY
Delta U+W
SciTegic.value.DoubleValue
0.319

@<SCITEGIC>MOL_PROPERTY
U+W
SciTegic.value.DoubleValue
-54.572

@<SCITEGIC>MOL_PROPERTY
Grad RMS
SciTegic.value.DoubleValue
0.000000

@<SCITEGIC>MOL_PROPERTY
U
SciTegic.value.DoubleValue
8.220

@<SCITEGIC>MOL_PROPERTY
W
SciTegic.value.DoubleValue
-62.792

@<SCITEGIC>MOL_PROPERTY
W(PB)
SciTegic.value.DoubleValue
-64.830

@<SCITEGIC>MOL_PROPERTY
W(SA)
SciTegic.value.DoubleValue
2.038

@<SCITEGIC>MOL_PROPERTY
Valence
SciTegic.value.DoubleValue
7.609

@<SCITEGIC>MOL_PROPERTY
Coulomb
SciTegic.value.DoubleValue
-0.088

@<SCITEGIC>MOL_PROPERTY
VdW
SciTegic.value.DoubleValue
0.699

@<SCITEGIC>MOL_PROPERTY
VdW6
SciTegic.value.DoubleValue
-6.924

@<SCITEGIC>MOL_PROPERTY
VdW12
SciTegic.value.DoubleValue
7.623

@<SCITEGIC>MOL_PROPERTY
Bond
SciTegic.value.DoubleValue
0.163

@<SCITEGIC>MOL_PROPERTY
Angle
SciTegic.value.DoubleValue
2.870

@<SCITEGIC>MOL_PROPERTY
Pdih
SciTegic.value.DoubleValue
4.576

@<SCITEGIC>MOL_PROPERTY
Idih
SciTegic.value.DoubleValue
0.000

@<SCITEGIC>MOL_PROPERTY
Tether
SciTegic.value.DoubleValue
0.000

@<TRIPOS>MOLECULE
guest-7_confgen4.mol2 : confsearch ligand conformer 449
          19          18           1
SMALL
USER_CHARGES
 
@<TRIPOS>ATOM
       1    C1      18.292625   19.520826   24.590851 C.2        1 MOL1         0.6115
       2    O1      17.140959   19.905687   24.635404 O.co2      1 MOL1        -0.6776
       3    O2      18.844052   18.942762   25.506287 O.co2      1 MOL1        -0.6776
       4    C2      19.082608   19.760361   23.309198 C.3        1 MOL1        -0.2013
       5    H1      20.132572   19.902241   23.583550 H          1 MOL1         0.0727
       6    H2      18.737173   20.704039   22.870415 H          1 MOL1         0.0727
       7    C3      18.924998   18.608029   22.282124 C.3        1 MOL1        -0.1910
       8    H3      19.215506   17.651803   22.738764 H          1 MOL1         0.0729
       9    H4      17.857672   18.517958   22.036977 H          1 MOL1         0.0729
      10    C4      19.717004   18.838539   20.970051 C.3        1 MOL1        -0.1909
      11    H5      19.807127   19.913743   20.763382 H          1 MOL1         0.0729
      12    H6      19.129896   18.423124   20.139564 H          1 MOL1         0.0729
      13    C5      21.113498   18.170504   20.932067 C.3        1 MOL1        -0.1884
      14    H7      21.005081   17.083562   21.050641 H          1 MOL1         0.0729
      15    H8      21.548214   18.328803   19.935494 H          1 MOL1         0.0729
      16    C6      22.099657   18.704589   21.991283 C.3        1 MOL1        -0.2899
      17    H9      23.101861   18.288364   21.826491 H          1 MOL1         0.0741
      18    H10     22.175136   19.798679   21.943896 H          1 MOL1         0.0741
      19    H11     21.786237   18.418667   23.003119 H          1 MOL1         0.0741
@<TRIPOS>BOND
    1     1     2    1
    2     1     3    2
    3     1     4    1
    4     4     5    1
    5     4     6    1
    6     4     7    1
    7     7     8    1
    8     7     9    1
    9     7    10    1
   10    10    11    1
   11    10    12    1
   12    10    13    1
   13    13    14    1
   14    13    15    1
   15    13    16    1
   16    16    17    1
   17    16    18    1
   18    16    19    1
@<TRIPOS>SUBSTRUCTURE
       1 MOL1            1 RESIDUE      1      MOL     
@<SCITEGIC>MOL_PROPERTY
VConf Rank
SciTegic.value.IntegerValue
449

@<SCITEGIC>MOL_PROPERTY
Conf_Id
SciTegic.value.IntegerValue
24

@<SCITEGIC>MOL_PROPERTY
Delta U+W
SciTegic.value.DoubleValue
2.477

@<SCITEGIC>MOL_PROPERTY
U+W
SciTegic.value.DoubleValue
-52.414

@<SCITEGIC>MOL_PROPERTY
Grad RMS
SciTegic.value.DoubleValue
0.000000

@<SCITEGIC>MOL_PROPERTY
U
SciTegic.value.DoubleValue
10.422

@<SCITEGIC>MOL_PROPERTY
W
SciTegic.value.DoubleValue
-62.836

@<SCITEGIC>MOL_PROPERTY
W(PB)
SciTegic.value.DoubleValue
-64.906

@<SCITEGIC>MOL_PROPERTY
W(SA)
SciTegic.value.DoubleValue
2.070

@<SCITEGIC>MOL_PROPERTY
Valence
SciTegic.value.DoubleValue
9.628

@<SCITEGIC>MOL_PROPERTY
Coulomb
SciTegic.value.DoubleValue
0.101

@<SCITEGIC>MOL_PROPERTY
VdW
SciTegic.value.DoubleValue
0.693

@<SCITEGIC>MOL_PROPERTY
VdW6
SciTegic.value.DoubleValue
-6.927

@<SCITEGIC>MOL_PROPERTY
VdW12
SciTegic.value.DoubleValue
7.620

@<SCITEGIC>MOL_PROPERTY
Bond
SciTegic.value.DoubleValue
0.173

@<SCITEGIC>MOL_PROPERTY
Angle
SciTegic.value.DoubleValue
2.989

@<SCITEGIC>MOL_PROPERTY
Pdih
SciTegic.value.DoubleValue
6.465

@<SCITEGIC>MOL_PROPERTY
Idih
SciTegic.value.DoubleValue
0.001

@<SCITEGIC>MOL_PROPERTY
Tether
SciTegic.value.DoubleValue
0.000

@<TRIPOS>MOLECULE
guest-7_confgen4.mol2 : confsearch ligand conformer 450
          19          18           1
SMALL
USER_CHARGES
 
@<TRIPOS>ATOM
       1    C1      17.703486   18.779602   23.825919 C.2        1 MOL1         0.6115
       2    O1      18.030720   19.547752   24.708843 O.co2      1 MOL1        -0.6776
       3    O2      16.550092   18.597038   23.489129 O.co2      1 MOL1        -0.6776
       4    C2      18.794331   17.978273   23.120112 C.3        1 MOL1        -0.2013
       5    H1      18.469467   16.931352   23.106839 H          1 MOL1         0.0727
       6    H2      19.701556   18.017086   23.731397 H          1 MOL1         0.0727
       7    C3      19.080192   18.445571   21.665858 C.3        1 MOL1        -0.1910
       8    H3      19.715214   17.708455   21.156309 H          1 MOL1         0.0729
       9    H4      18.127545   18.453129   21.118190 H          1 MOL1         0.0729
      10    C4      19.725634   19.852217   21.564727 C.3        1 MOL1        -0.1909
      11    H5      19.405761   20.483911   22.404638 H          1 MOL1         0.0729
      12    H6      19.337527   20.340804   20.660604 H          1 MOL1         0.0729
      13    C5      21.270900   19.848004   21.464514 C.3        1 MOL1        -0.1884
      14    H7      21.581350   19.289178   20.570906 H          1 MOL1         0.0729
      15    H8      21.612584   20.881425   21.314693 H          1 MOL1         0.0729
      16    C6      21.982210   19.268105   22.704398 C.3        1 MOL1        -0.2899
      17    H9      21.802560   18.189747   22.795088 H          1 MOL1         0.0741
      18    H10     23.067068   19.417269   22.629489 H          1 MOL1         0.0741
      19    H11     21.634609   19.758942   23.622951 H          1 MOL1         0.0741
@<TRIPOS>BOND
    1     1     2    1
    2     1     3    2
    3     1     4    1
    4     4     5    1
    5     4     6    1
    6     4     7    1
    7     7     8    1
    8     7     9    1
    9     7    10    1
   10    10    11    1
   11    10    12    1
   12    10    13    1
   13    13    14    1
   14    13    15    1
   15    13    16    1
   16    16    17    1
   17    16    18    1
   18    16    19    1
@<TRIPOS>SUBSTRUCTURE
       1 MOL1            1 RESIDUE      1      MOL     
@<SCITEGIC>MOL_PROPERTY
VConf Rank
SciTegic.value.IntegerValue
450

@<SCITEGIC>MOL_PROPERTY
Conf_Id
SciTegic.value.IntegerValue
4

@<SCITEGIC>MOL_PROPERTY
Delta U+W
SciTegic.value.DoubleValue
3.753

@<SCITEGIC>MOL_PROPERTY
U+W
SciTegic.value.DoubleValue
-51.138

@<SCITEGIC>MOL_PROPERTY
Grad RMS
SciTegic.value.DoubleValue
0.000000

@<SCITEGIC>MOL_PROPERTY
U
SciTegic.value.DoubleValue
12.334

@<SCITEGIC>MOL_PROPERTY
W
SciTegic.value.DoubleValue
-63.472

@<SCITEGIC>MOL_PROPERTY
W(PB)
SciTegic.value.DoubleValue
-65.500

@<SCITEGIC>MOL_PROPERTY
W(SA)
SciTegic.value.DoubleValue
2.028

@<SCITEGIC>MOL_PROPERTY
Valence
SciTegic.value.DoubleValue
9.984

@<SCITEGIC>MOL_PROPERTY
Coulomb
SciTegic.value.DoubleValue
1.767

@<SCITEGIC>MOL_PROPERTY
VdW
SciTegic.value.DoubleValue
0.583

@<SCITEGIC>MOL_PROPERTY
VdW6
SciTegic.value.DoubleValue
-7.767

@<SCITEGIC>MOL_PROPERTY
VdW12
SciTegic.value.DoubleValue
8.349

@<SCITEGIC>MOL_PROPERTY
Bond
SciTegic.value.DoubleValue
0.203

@<SCITEGIC>MOL_PROPERTY
Angle
SciTegic.value.DoubleValue
3.191

@<SCITEGIC>MOL_PROPERTY
Pdih
SciTegic.value.DoubleValue
6.589

@<SCITEGIC>MOL_PROPERTY
Idih
SciTegic.value.DoubleValue
0.001

@<SCITEGIC>MOL_PROPERTY
Tether
SciTegic.value.DoubleValue
0.000

@<TRIPOS>MOLECULE
guest-7_confgen4.mol2 : confsearch ligand conformer 451
          19          18           1
SMALL
USER_CHARGES
 
@<TRIPOS>ATOM
       1    C1      17.344767   19.132112   22.093673 C.2        1 MOL1         0.6115
       2    O1      16.534520   19.838344   22.660955 O.co2      1 MOL1        -0.6776
       3    O2      17.343004   18.939852   20.893787 O.co2      1 MOL1        -0.6776
       4    C2      18.401847   18.427358   22.939920 C.3        1 MOL1        -0.2013
       5    H1      18.832006   17.613480   22.347641 H          1 MOL1         0.0727
       6    H2      17.881666   17.960045   23.784187 H          1 MOL1         0.0727
       7    C3      19.511271   19.372136   23.479838 C.3        1 MOL1        -0.1910
       8    H3      19.022482   20.204316   24.005286 H          1 MOL1         0.0729
       9    H4      20.110450   18.848013   24.236484 H          1 MOL1         0.0729
      10    C4      20.442534   19.951881   22.383426 C.3        1 MOL1        -0.1909
      11    H5      20.720685   20.973015   22.677876 H          1 MOL1         0.0729
      12    H6      19.901345   20.053564   21.432857 H          1 MOL1         0.0729
      13    C5      21.753511   19.157625   22.163427 C.3        1 MOL1        -0.1884
      14    H7      22.369126   19.698334   21.431440 H          1 MOL1         0.0729
      15    H8      22.333279   19.136418   23.096498 H          1 MOL1         0.0729
      16    C6      21.540645   17.715322   21.659436 C.3        1 MOL1        -0.2899
      17    H9      20.900440   17.700587   20.767580 H          1 MOL1         0.0741
      18    H10     22.501495   17.255192   21.395191 H          1 MOL1         0.0741
      19    H11     21.076853   17.090620   22.432742 H          1 MOL1         0.0741
@<TRIPOS>BOND
    1     1     2    1
    2     1     3    2
    3     1     4    1
    4     4     5    1
    5     4     6    1
    6     4     7    1
    7     7     8    1
    8     7     9    1
    9     7    10    1
   10    10    11    1
   11    10    12    1
   12    10    13    1
   13    13    14    1
   14    13    15    1
   15    13    16    1
   16    16    17    1
   17    16    18    1
   18    16    19    1
@<TRIPOS>SUBSTRUCTURE
       1 MOL1            1 RESIDUE      1      MOL     
@<SCITEGIC>MOL_PROPERTY
VConf Rank
SciTegic.value.IntegerValue
451

@<SCITEGIC>MOL_PROPERTY
Conf_Id
SciTegic.value.IntegerValue
73

@<SCITEGIC>MOL_PROPERTY
Delta U+W
SciTegic.value.DoubleValue
3.707

@<SCITEGIC>MOL_PROPERTY
U+W
SciTegic.value.DoubleValue
-51.184

@<SCITEGIC>MOL_PROPERTY
Grad RMS
SciTegic.value.DoubleValue
0.000000

@<SCITEGIC>MOL_PROPERTY
U
SciTegic.value.DoubleValue
12.334

@<SCITEGIC>MOL_PROPERTY
W
SciTegic.value.DoubleValue
-63.519

@<SCITEGIC>MOL_PROPERTY
W(PB)
SciTegic.value.DoubleValue
-65.541

@<SCITEGIC>MOL_PROPERTY
W(SA)
SciTegic.value.DoubleValue
2.022

@<SCITEGIC>MOL_PROPERTY
Valence
SciTegic.value.DoubleValue
9.984

@<SCITEGIC>MOL_PROPERTY
Coulomb
SciTegic.value.DoubleValue
1.768

@<SCITEGIC>MOL_PROPERTY
VdW
SciTegic.value.DoubleValue
0.583

@<SCITEGIC>MOL_PROPERTY
VdW6
SciTegic.value.DoubleValue
-7.767

@<SCITEGIC>MOL_PROPERTY
VdW12
SciTegic.value.DoubleValue
8.350

@<SCITEGIC>MOL_PROPERTY
Bond
SciTegic.value.DoubleValue
0.203

@<SCITEGIC>MOL_PROPERTY
Angle
SciTegic.value.DoubleValue
3.192

@<SCITEGIC>MOL_PROPERTY
Pdih
SciTegic.value.DoubleValue
6.589

@<SCITEGIC>MOL_PROPERTY
Idih
SciTegic.value.DoubleValue
0.001

@<SCITEGIC>MOL_PROPERTY
Tether
SciTegic.value.DoubleValue
0.000

@<TRIPOS>MOLECULE
guest-7_confgen4.mol2 : confsearch ligand conformer 452
          19          18           1
SMALL
USER_CHARGES
 
@<TRIPOS>ATOM
       1    C1      21.087938   17.090042   21.199951 C.2        1 MOL1         0.6115
       2    O1      21.252460   17.659727   20.139242 O.co2      1 MOL1        -0.6776
       3    O2      21.882420   16.297171   21.666119 O.co2      1 MOL1        -0.6776
       4    C2      19.800763   17.358273   21.974908 C.3        1 MOL1        -0.2013
       5    H1      19.363435   16.385483   22.228073 H          1 MOL1         0.0727
       6    H2      19.086361   17.855783   21.309017 H          1 MOL1         0.0727
       7    C3      20.002374   18.184590   23.274455 C.3        1 MOL1        -0.1910
       8    H3      19.044052   18.266176   23.803442 H          1 MOL1         0.0729
       9    H4      20.670456   17.627240   23.945379 H          1 MOL1         0.0729
      10    C4      20.594893   19.599475   23.048373 C.3        1 MOL1        -0.1909
      11    H5      21.605905   19.501747   22.629583 H          1 MOL1         0.0729
      12    H6      20.718468   20.089710   24.023561 H          1 MOL1         0.0729
      13    C5      19.762721   20.523110   22.125547 C.3        1 MOL1        -0.1884
      14    H7      20.286940   21.483618   22.028003 H          1 MOL1         0.0729
      15    H8      19.714819   20.100518   21.112845 H          1 MOL1         0.0729
      16    C6      18.334972   20.787325   22.650331 C.3        1 MOL1        -0.2899
      17    H9      17.736003   19.868028   22.656749 H          1 MOL1         0.0741
      18    H10     18.360048   21.190280   23.671120 H          1 MOL1         0.0741
      19    H11     17.819602   21.515750   22.011124 H          1 MOL1         0.0741
@<TRIPOS>BOND
    1     1     2    1
    2     1     3    2
    3     1     4    1
    4     4     5    1
    5     4     6    1
    6     4     7    1
    7     7     8    1
    8     7     9    1
    9     7    10    1
   10    10    11    1
   11    10    12    1
   12    10    13    1
   13    13    14    1
   14    13    15    1
   15    13    16    1
   16    16    17    1
   17    16    18    1
   18    16    19    1
@<TRIPOS>SUBSTRUCTURE
       1 MOL1            1 RESIDUE      1      MOL     
@<SCITEGIC>MOL_PROPERTY
VConf Rank
SciTegic.value.IntegerValue
452

@<SCITEGIC>MOL_PROPERTY
Conf_Id
SciTegic.value.IntegerValue
56

@<SCITEGIC>MOL_PROPERTY
Delta U+W
SciTegic.value.DoubleValue
1.735

@<SCITEGIC>MOL_PROPERTY
U+W
SciTegic.value.DoubleValue
-53.156

@<SCITEGIC>MOL_PROPERTY
Grad RMS
SciTegic.value.DoubleValue
0.000000

@<SCITEGIC>MOL_PROPERTY
U
SciTegic.value.DoubleValue
10.214

@<SCITEGIC>MOL_PROPERTY
W
SciTegic.value.DoubleValue
-63.370

@<SCITEGIC>MOL_PROPERTY
W(PB)
SciTegic.value.DoubleValue
-65.388

@<SCITEGIC>MOL_PROPERTY
W(SA)
SciTegic.value.DoubleValue
2.018

@<SCITEGIC>MOL_PROPERTY
Valence
SciTegic.value.DoubleValue
7.868

@<SCITEGIC>MOL_PROPERTY
Coulomb
SciTegic.value.DoubleValue
1.968

@<SCITEGIC>MOL_PROPERTY
VdW
SciTegic.value.DoubleValue
0.378

@<SCITEGIC>MOL_PROPERTY
VdW6
SciTegic.value.DoubleValue
-8.067

@<SCITEGIC>MOL_PROPERTY
VdW12
SciTegic.value.DoubleValue
8.445

@<SCITEGIC>MOL_PROPERTY
Bond
SciTegic.value.DoubleValue
0.191

@<SCITEGIC>MOL_PROPERTY
Angle
SciTegic.value.DoubleValue
3.117

@<SCITEGIC>MOL_PROPERTY
Pdih
SciTegic.value.DoubleValue
4.559

@<SCITEGIC>MOL_PROPERTY
Idih
SciTegic.value.DoubleValue
0.001

@<SCITEGIC>MOL_PROPERTY
Tether
SciTegic.value.DoubleValue
0.000

@<TRIPOS>MOLECULE
guest-7_confgen4.mol2 : confsearch ligand conformer 453
          19          18           1
SMALL
USER_CHARGES
 
@<TRIPOS>ATOM
       1    C1      19.650941   21.756953   23.061074 C.2        1 MOL1         0.6115
       2    O1      19.470438   22.111731   24.209079 O.co2      1 MOL1        -0.6776
       3    O2      19.525692   22.493179   22.102607 O.co2      1 MOL1        -0.6776
       4    C2      20.034507   20.303269   22.808259 C.3        1 MOL1        -0.2013
       5    H1      20.617590   19.949642   23.666944 H          1 MOL1         0.0727
       6    H2      20.691137   20.281547   21.931404 H          1 MOL1         0.0727
       7    C3      18.804789   19.388106   22.581883 C.3        1 MOL1        -0.1910
       8    H3      18.097546   19.538744   23.409238 H          1 MOL1         0.0729
       9    H4      18.281681   19.704655   21.669003 H          1 MOL1         0.0729
      10    C4      19.139968   17.878114   22.492032 C.3        1 MOL1        -0.1909
      11    H5      18.190835   17.335045   22.386232 H          1 MOL1         0.0729
      12    H6      19.577926   17.531785   23.438208 H          1 MOL1         0.0729
      13    C5      20.053361   17.487680   21.303595 C.3        1 MOL1        -0.1884
      14    H7      19.740150   16.503149   20.929514 H          1 MOL1         0.0729
      15    H8      19.914704   18.189380   20.469509 H          1 MOL1         0.0729
      16    C6      21.547468   17.398298   21.686195 C.3        1 MOL1        -0.2899
      17    H9      22.148793   17.102319   20.816896 H          1 MOL1         0.0741
      18    H10     21.934800   18.356700   22.049592 H          1 MOL1         0.0741
      19    H11     21.704497   16.649203   22.473170 H          1 MOL1         0.0741
@<TRIPOS>BOND
    1     1     2    1
    2     1     3    2
    3     1     4    1
    4     4     5    1
    5     4     6    1
    6     4     7    1
    7     7     8    1
    8     7     9    1
    9     7    10    1
   10    10    11    1
   11    10    12    1
   12    10    13    1
   13    13    14    1
   14    13    15    1
   15    13    16    1
   16    16    17    1
   17    16    18    1
   18    16    19    1
@<TRIPOS>SUBSTRUCTURE
       1 MOL1            1 RESIDUE      1      MOL     
@<SCITEGIC>MOL_PROPERTY
VConf Rank
SciTegic.value.IntegerValue
453

@<SCITEGIC>MOL_PROPERTY
Conf_Id
SciTegic.value.IntegerValue
53

@<SCITEGIC>MOL_PROPERTY
Delta U+W
SciTegic.value.DoubleValue
2.279

@<SCITEGIC>MOL_PROPERTY
U+W
SciTegic.value.DoubleValue
-52.612

@<SCITEGIC>MOL_PROPERTY
Grad RMS
SciTegic.value.DoubleValue
0.000000

@<SCITEGIC>MOL_PROPERTY
U
SciTegic.value.DoubleValue
10.231

@<SCITEGIC>MOL_PROPERTY
W
SciTegic.value.DoubleValue
-62.843

@<SCITEGIC>MOL_PROPERTY
W(PB)
SciTegic.value.DoubleValue
-64.893

@<SCITEGIC>MOL_PROPERTY
W(SA)
SciTegic.value.DoubleValue
2.050

@<SCITEGIC>MOL_PROPERTY
Valence
SciTegic.value.DoubleValue
9.644

@<SCITEGIC>MOL_PROPERTY
Coulomb
SciTegic.value.DoubleValue
-0.164

@<SCITEGIC>MOL_PROPERTY
VdW
SciTegic.value.DoubleValue
0.751

@<SCITEGIC>MOL_PROPERTY
VdW6
SciTegic.value.DoubleValue
-6.881

@<SCITEGIC>MOL_PROPERTY
VdW12
SciTegic.value.DoubleValue
7.631

@<SCITEGIC>MOL_PROPERTY
Bond
SciTegic.value.DoubleValue
0.163

@<SCITEGIC>MOL_PROPERTY
Angle
SciTegic.value.DoubleValue
2.998

@<SCITEGIC>MOL_PROPERTY
Pdih
SciTegic.value.DoubleValue
6.482

@<SCITEGIC>MOL_PROPERTY
Idih
SciTegic.value.DoubleValue
0.001

@<SCITEGIC>MOL_PROPERTY
Tether
SciTegic.value.DoubleValue
0.000

@<TRIPOS>MOLECULE
guest-7_confgen4.mol2 : confsearch ligand conformer 454
          19          18           1
SMALL
USER_CHARGES
 
@<TRIPOS>ATOM
       1    C1      20.610057   17.104685   20.945536 C.2        1 MOL1         0.6115
       2    O1      21.417621   17.589642   20.177740 O.co2      1 MOL1        -0.6776
       3    O2      19.548763   16.630984   20.589854 O.co2      1 MOL1        -0.6776
       4    C2      20.981170   17.024204   22.425157 C.3        1 MOL1        -0.2013
       5    H1      21.985534   17.442293   22.564366 H          1 MOL1         0.0727
       6    H2      21.049317   15.957504   22.668322 H          1 MOL1         0.0727
       7    C3      19.976601   17.701354   23.399546 C.3        1 MOL1        -0.1910
       8    H3      18.947315   17.436902   23.119947 H          1 MOL1         0.0729
       9    H4      20.136305   17.276629   24.399806 H          1 MOL1         0.0729
      10    C4      20.117785   19.239517   23.512676 C.3        1 MOL1        -0.1909
      11    H5      21.146691   19.496422   23.799357 H          1 MOL1         0.0729
      12    H6      19.473901   19.582591   24.334092 H          1 MOL1         0.0729
      13    C5      19.730766   20.003850   22.227536 C.3        1 MOL1        -0.1884
      14    H7      20.444118   19.776962   21.425004 H          1 MOL1         0.0729
      15    H8      18.741509   19.673713   21.881448 H          1 MOL1         0.0729
      16    C6      19.711946   21.528112   22.460140 C.3        1 MOL1        -0.2899
      17    H9      20.697887   21.887775   22.782505 H          1 MOL1         0.0741
      18    H10     19.443799   22.056505   21.536049 H          1 MOL1         0.0741
      19    H11     18.978512   21.799713   23.230611 H          1 MOL1         0.0741
@<TRIPOS>BOND
    1     1     2    1
    2     1     3    2
    3     1     4    1
    4     4     5    1
    5     4     6    1
    6     4     7    1
    7     7     8    1
    8     7     9    1
    9     7    10    1
   10    10    11    1
   11    10    12    1
   12    10    13    1
   13    13    14    1
   14    13    15    1
   15    13    16    1
   16    16    17    1
   17    16    18    1
   18    16    19    1
@<TRIPOS>SUBSTRUCTURE
       1 MOL1            1 RESIDUE      1      MOL     
@<SCITEGIC>MOL_PROPERTY
VConf Rank
SciTegic.value.IntegerValue
454

@<SCITEGIC>MOL_PROPERTY
Conf_Id
SciTegic.value.IntegerValue
25

@<SCITEGIC>MOL_PROPERTY
Delta U+W
SciTegic.value.DoubleValue
2.065

@<SCITEGIC>MOL_PROPERTY
U+W
SciTegic.value.DoubleValue
-52.826

@<SCITEGIC>MOL_PROPERTY
Grad RMS
SciTegic.value.DoubleValue
0.000000

@<SCITEGIC>MOL_PROPERTY
U
SciTegic.value.DoubleValue
10.967

@<SCITEGIC>MOL_PROPERTY
W
SciTegic.value.DoubleValue
-63.794

@<SCITEGIC>MOL_PROPERTY
W(PB)
SciTegic.value.DoubleValue
-65.830

@<SCITEGIC>MOL_PROPERTY
W(SA)
SciTegic.value.DoubleValue
2.036

@<SCITEGIC>MOL_PROPERTY
Valence
SciTegic.value.DoubleValue
8.609

@<SCITEGIC>MOL_PROPERTY
Coulomb
SciTegic.value.DoubleValue
1.892

@<SCITEGIC>MOL_PROPERTY
VdW
SciTegic.value.DoubleValue
0.467

@<SCITEGIC>MOL_PROPERTY
VdW6
SciTegic.value.DoubleValue
-7.569

@<SCITEGIC>MOL_PROPERTY
VdW12
SciTegic.value.DoubleValue
8.036

@<SCITEGIC>MOL_PROPERTY
Bond
SciTegic.value.DoubleValue
0.170

@<SCITEGIC>MOL_PROPERTY
Angle
SciTegic.value.DoubleValue
3.195

@<SCITEGIC>MOL_PROPERTY
Pdih
SciTegic.value.DoubleValue
5.237

@<SCITEGIC>MOL_PROPERTY
Idih
SciTegic.value.DoubleValue
0.007

@<SCITEGIC>MOL_PROPERTY
Tether
SciTegic.value.DoubleValue
0.000

@<TRIPOS>MOLECULE
guest-7_confgen4.mol2 : confsearch ligand conformer 455
          19          18           1
SMALL
USER_CHARGES
 
@<TRIPOS>ATOM
       1    C1      18.268124   18.925888   20.941750 C.2        1 MOL1         0.6115
       2    O1      17.229651   18.836381   21.566899 O.co2      1 MOL1        -0.6776
       3    O2      18.599053   18.138608   20.077153 O.co2      1 MOL1        -0.6776
       4    C2      19.172620   20.128271   21.205658 C.3        1 MOL1        -0.2013
       5    H1      18.594168   21.016444   20.926073 H          1 MOL1         0.0727
       6    H2      20.030779   20.085647   20.523991 H          1 MOL1         0.0727
       7    C3      19.659035   20.283743   22.674111 C.3        1 MOL1        -0.1910
       8    H3      19.968691   21.327462   22.819648 H          1 MOL1         0.0729
       9    H4      18.821392   20.117975   23.365789 H          1 MOL1         0.0729
      10    C4      20.854876   19.379023   23.061567 C.3        1 MOL1        -0.1909
      11    H5      21.206978   19.684916   24.056286 H          1 MOL1         0.0729
      12    H6      21.690830   19.554989   22.370876 H          1 MOL1         0.0729
      13    C5      20.519066   17.871851   23.096808 C.3        1 MOL1        -0.1884
      14    H7      19.620665   17.704581   23.706965 H          1 MOL1         0.0729
      15    H8      20.291693   17.512784   22.084988 H          1 MOL1         0.0729
      16    C6      21.689169   17.044970   23.666862 C.3        1 MOL1        -0.2899
      17    H9      21.437989   15.976396   23.677093 H          1 MOL1         0.0741
      18    H10     22.593959   17.174802   23.058703 H          1 MOL1         0.0741
      19    H11     21.920805   17.348322   24.696250 H          1 MOL1         0.0741
@<TRIPOS>BOND
    1     1     2    1
    2     1     3    2
    3     1     4    1
    4     4     5    1
    5     4     6    1
    6     4     7    1
    7     7     8    1
    8     7     9    1
    9     7    10    1
   10    10    11    1
   11    10    12    1
   12    10    13    1
   13    13    14    1
   14    13    15    1
   15    13    16    1
   16    16    17    1
   17    16    18    1
   18    16    19    1
@<TRIPOS>SUBSTRUCTURE
       1 MOL1            1 RESIDUE      1      MOL     
@<SCITEGIC>MOL_PROPERTY
VConf Rank
SciTegic.value.IntegerValue
455

@<SCITEGIC>MOL_PROPERTY
Conf_Id
SciTegic.value.IntegerValue
52

@<SCITEGIC>MOL_PROPERTY
Delta U+W
SciTegic.value.DoubleValue
2.070

@<SCITEGIC>MOL_PROPERTY
U+W
SciTegic.value.DoubleValue
-52.822

@<SCITEGIC>MOL_PROPERTY
Grad RMS
SciTegic.value.DoubleValue
0.000000

@<SCITEGIC>MOL_PROPERTY
U
SciTegic.value.DoubleValue
10.967

@<SCITEGIC>MOL_PROPERTY
W
SciTegic.value.DoubleValue
-63.789

@<SCITEGIC>MOL_PROPERTY
W(PB)
SciTegic.value.DoubleValue
-65.837

@<SCITEGIC>MOL_PROPERTY
W(SA)
SciTegic.value.DoubleValue
2.048

@<SCITEGIC>MOL_PROPERTY
Valence
SciTegic.value.DoubleValue
8.609

@<SCITEGIC>MOL_PROPERTY
Coulomb
SciTegic.value.DoubleValue
1.892

@<SCITEGIC>MOL_PROPERTY
VdW
SciTegic.value.DoubleValue
0.467

@<SCITEGIC>MOL_PROPERTY
VdW6
SciTegic.value.DoubleValue
-7.569

@<SCITEGIC>MOL_PROPERTY
VdW12
SciTegic.value.DoubleValue
8.035

@<SCITEGIC>MOL_PROPERTY
Bond
SciTegic.value.DoubleValue
0.170

@<SCITEGIC>MOL_PROPERTY
Angle
SciTegic.value.DoubleValue
3.196

@<SCITEGIC>MOL_PROPERTY
Pdih
SciTegic.value.DoubleValue
5.237

@<SCITEGIC>MOL_PROPERTY
Idih
SciTegic.value.DoubleValue
0.007

@<SCITEGIC>MOL_PROPERTY
Tether
SciTegic.value.DoubleValue
0.000

@<TRIPOS>MOLECULE
guest-7_confgen4.mol2 : confsearch ligand conformer 456
          19          18           1
SMALL
USER_CHARGES
 
@<TRIPOS>ATOM
       1    C1      17.974384   17.830769   22.483190 C.2        1 MOL1         0.6115
       2    O1      17.200038   18.519956   21.847953 O.co2      1 MOL1        -0.6776
       3    O2      18.195196   16.664741   22.221813 O.co2      1 MOL1        -0.6776
       4    C2      18.608415   18.413094   23.747422 C.3        1 MOL1        -0.2013
       5    H1      19.384287   17.726582   24.106954 H          1 MOL1         0.0727
       6    H2      17.818823   18.417298   24.507555 H          1 MOL1         0.0727
       7    C3      19.184149   19.851858   23.613783 C.3        1 MOL1        -0.1910
       8    H3      18.505671   20.473596   23.013457 H          1 MOL1         0.0729
       9    H4      19.195095   20.304855   24.614298 H          1 MOL1         0.0729
      10    C4      20.623888   19.941939   23.046143 C.3        1 MOL1        -0.1909
      11    H5      21.320553   19.403016   23.702845 H          1 MOL1         0.0729
      12    H6      20.930440   20.995950   23.091464 H          1 MOL1         0.0729
      13    C5      20.781860   19.460285   21.583596 C.3        1 MOL1        -0.1884
      14    H7      19.817756   19.504329   21.058316 H          1 MOL1         0.0729
      15    H8      21.449327   20.152691   21.052363 H          1 MOL1         0.0729
      16    C6      21.383381   18.042101   21.483359 C.3        1 MOL1        -0.2899
      17    H9      22.390873   18.012703   21.918137 H          1 MOL1         0.0741
      18    H10     20.765704   17.305463   22.010206 H          1 MOL1         0.0741
      19    H11     21.458891   17.728999   20.434129 H          1 MOL1         0.0741
@<TRIPOS>BOND
    1     1     2    1
    2     1     3    2
    3     1     4    1
    4     4     5    1
    5     4     6    1
    6     4     7    1
    7     7     8    1
    8     7     9    1
    9     7    10    1
   10    10    11    1
   11    10    12    1
   12    10    13    1
   13    13    14    1
   14    13    15    1
   15    13    16    1
   16    16    17    1
   17    16    18    1
   18    16    19    1
@<TRIPOS>SUBSTRUCTURE
       1 MOL1            1 RESIDUE      1      MOL     
@<SCITEGIC>MOL_PROPERTY
VConf Rank
SciTegic.value.IntegerValue
456

@<SCITEGIC>MOL_PROPERTY
Conf_Id
SciTegic.value.IntegerValue
66

@<SCITEGIC>MOL_PROPERTY
Delta U+W
SciTegic.value.DoubleValue
5.819

@<SCITEGIC>MOL_PROPERTY
U+W
SciTegic.value.DoubleValue
-49.072

@<SCITEGIC>MOL_PROPERTY
Grad RMS
SciTegic.value.DoubleValue
0.000000

@<SCITEGIC>MOL_PROPERTY
U
SciTegic.value.DoubleValue
15.324

@<SCITEGIC>MOL_PROPERTY
W
SciTegic.value.DoubleValue
-64.396

@<SCITEGIC>MOL_PROPERTY
W(PB)
SciTegic.value.DoubleValue
-66.382

@<SCITEGIC>MOL_PROPERTY
W(SA)
SciTegic.value.DoubleValue
1.986

@<SCITEGIC>MOL_PROPERTY
Valence
SciTegic.value.DoubleValue
11.748

@<SCITEGIC>MOL_PROPERTY
Coulomb
SciTegic.value.DoubleValue
3.201

@<SCITEGIC>MOL_PROPERTY
VdW
SciTegic.value.DoubleValue
0.375

@<SCITEGIC>MOL_PROPERTY
VdW6
SciTegic.value.DoubleValue
-8.854

@<SCITEGIC>MOL_PROPERTY
VdW12
SciTegic.value.DoubleValue
9.229

@<SCITEGIC>MOL_PROPERTY
Bond
SciTegic.value.DoubleValue
0.216

@<SCITEGIC>MOL_PROPERTY
Angle
SciTegic.value.DoubleValue
3.812

@<SCITEGIC>MOL_PROPERTY
Pdih
SciTegic.value.DoubleValue
7.699

@<SCITEGIC>MOL_PROPERTY
Idih
SciTegic.value.DoubleValue
0.022

@<SCITEGIC>MOL_PROPERTY
Tether
SciTegic.value.DoubleValue
0.000

@<TRIPOS>MOLECULE
guest-7_confgen4.mol2 : confsearch ligand conformer 457
          19          18           1
SMALL
USER_CHARGES
 
@<TRIPOS>ATOM
       1    C1      20.262297   17.144160   19.215271 C.2        1 MOL1         0.6115
       2    O1      19.968670   16.073731   18.721685 O.co2      1 MOL1        -0.6776
       3    O2      20.865894   18.009854   18.611624 O.co2      1 MOL1        -0.6776
       4    C2      19.839255   17.383804   20.665541 C.3        1 MOL1        -0.2013
       5    H1      20.280210   16.583496   21.271442 H          1 MOL1         0.0727
       6    H2      18.750945   17.260009   20.713565 H          1 MOL1         0.0727
       7    C3      20.235994   18.764607   21.252408 C.3        1 MOL1        -0.1910
       8    H3      21.326799   18.884736   21.196017 H          1 MOL1         0.0729
       9    H4      19.795975   19.561956   20.637521 H          1 MOL1         0.0729
      10    C4      19.771113   18.921193   22.716522 C.3        1 MOL1        -0.1909
      11    H5      20.212022   18.122982   23.329391 H          1 MOL1         0.0729
      12    H6      18.680386   18.800615   22.770604 H          1 MOL1         0.0729
      13    C5      20.166539   20.294471   23.298019 C.3        1 MOL1        -0.1884
      14    H7      21.257241   20.418173   23.247438 H          1 MOL1         0.0729
      15    H8      19.725694   21.095719   22.688797 H          1 MOL1         0.0729
      16    C6      19.700948   20.447288   24.759820 C.3        1 MOL1        -0.2899
      17    H9      20.152284   19.676623   25.398407 H          1 MOL1         0.0741
      18    H10     19.990199   21.428852   25.157278 H          1 MOL1         0.0741
      19    H11     18.609191   20.359252   24.835566 H          1 MOL1         0.0741
@<TRIPOS>BOND
    1     1     2    1
    2     1     3    2
    3     1     4    1
    4     4     5    1
    5     4     6    1
    6     4     7    1
    7     7     8    1
    8     7     9    1
    9     7    10    1
   10    10    11    1
   11    10    12    1
   12    10    13    1
   13    13    14    1
   14    13    15    1
   15    13    16    1
   16    16    17    1
   17    16    18    1
   18    16    19    1
@<TRIPOS>SUBSTRUCTURE
       1 MOL1            1 RESIDUE      1      MOL     
@<SCITEGIC>MOL_PROPERTY
VConf Rank
SciTegic.value.IntegerValue
457

@<SCITEGIC>MOL_PROPERTY
Conf_Id
SciTegic.value.IntegerValue
0

@<SCITEGIC>MOL_PROPERTY
Delta U+W
SciTegic.value.DoubleValue
0.000

@<SCITEGIC>MOL_PROPERTY
U+W
SciTegic.value.DoubleValue
-54.891

@<SCITEGIC>MOL_PROPERTY
Grad RMS
SciTegic.value.DoubleValue
0.000000

@<SCITEGIC>MOL_PROPERTY
U
SciTegic.value.DoubleValue
6.966

@<SCITEGIC>MOL_PROPERTY
W
SciTegic.value.DoubleValue
-61.857

@<SCITEGIC>MOL_PROPERTY
W(PB)
SciTegic.value.DoubleValue
-63.965

@<SCITEGIC>MOL_PROPERTY
W(SA)
SciTegic.value.DoubleValue
2.108

@<SCITEGIC>MOL_PROPERTY
Valence
SciTegic.value.DoubleValue
7.175

@<SCITEGIC>MOL_PROPERTY
Coulomb
SciTegic.value.DoubleValue
-1.360

@<SCITEGIC>MOL_PROPERTY
VdW
SciTegic.value.DoubleValue
1.151

@<SCITEGIC>MOL_PROPERTY
VdW6
SciTegic.value.DoubleValue
-5.641

@<SCITEGIC>MOL_PROPERTY
VdW12
SciTegic.value.DoubleValue
6.792

@<SCITEGIC>MOL_PROPERTY
Bond
SciTegic.value.DoubleValue
0.119

@<SCITEGIC>MOL_PROPERTY
Angle
SciTegic.value.DoubleValue
2.715

@<SCITEGIC>MOL_PROPERTY
Pdih
SciTegic.value.DoubleValue
4.340

@<SCITEGIC>MOL_PROPERTY
Idih
SciTegic.value.DoubleValue
0.000

@<SCITEGIC>MOL_PROPERTY
Tether
SciTegic.value.DoubleValue
0.000

@<TRIPOS>MOLECULE
guest-7_confgen4.mol2 : confsearch ligand conformer 458
          19          18           1
SMALL
USER_CHARGES
 
@<TRIPOS>ATOM
       1    C1      19.912692   16.557790   19.718679 C.2        1 MOL1         0.6115
       2    O1      19.259614   15.565967   19.975499 O.co2      1 MOL1        -0.6776
       3    O2      20.087189   16.974801   18.590923 O.co2      1 MOL1        -0.6776
       4    C2      20.530142   17.333394   20.876939 C.3        1 MOL1        -0.2013
       5    H1      21.468881   17.779271   20.526648 H          1 MOL1         0.0727
       6    H2      20.786386   16.618262   21.667931 H          1 MOL1         0.0727
       7    C3      19.591907   18.432355   21.433817 C.3        1 MOL1        -0.1910
       8    H3      19.334638   19.132760   20.627099 H          1 MOL1         0.0729
       9    H4      18.651996   17.971672   21.768314 H          1 MOL1         0.0729
      10    C4      20.240003   19.202166   22.604709 C.3        1 MOL1        -0.1909
      11    H5      21.179989   19.660351   22.267535 H          1 MOL1         0.0729
      12    H6      20.497148   18.499122   23.408946 H          1 MOL1         0.0729
      13    C5      19.303146   20.296331   23.157407 C.3        1 MOL1        -0.1884
      14    H7      19.045123   21.002744   22.356222 H          1 MOL1         0.0729
      15    H8      18.362395   19.841633   23.497598 H          1 MOL1         0.0729
      16    C6      19.953458   21.062978   24.326296 C.3        1 MOL1        -0.2899
      17    H9      19.274086   21.836698   24.706979 H          1 MOL1         0.0741
      18    H10     20.193498   20.384764   25.155651 H          1 MOL1         0.0741
      19    H11     20.881367   21.554544   24.005717 H          1 MOL1         0.0741
@<TRIPOS>BOND
    1     1     2    1
    2     1     3    2
    3     1     4    1
    4     4     5    1
    5     4     6    1
    6     4     7    1
    7     7     8    1
    8     7     9    1
    9     7    10    1
   10    10    11    1
   11    10    12    1
   12    10    13    1
   13    13    14    1
   14    13    15    1
   15    13    16    1
   16    16    17    1
   17    16    18    1
   18    16    19    1
@<TRIPOS>SUBSTRUCTURE
       1 MOL1            1 RESIDUE      1      MOL     
@<SCITEGIC>MOL_PROPERTY
VConf Rank
SciTegic.value.IntegerValue
458

@<SCITEGIC>MOL_PROPERTY
Conf_Id
SciTegic.value.IntegerValue
18

@<SCITEGIC>MOL_PROPERTY
Delta U+W
SciTegic.value.DoubleValue
-1.199

@<SCITEGIC>MOL_PROPERTY
U+W
SciTegic.value.DoubleValue
-56.090

@<SCITEGIC>MOL_PROPERTY
Grad RMS
SciTegic.value.DoubleValue
0.000000

@<SCITEGIC>MOL_PROPERTY
U
SciTegic.value.DoubleValue
5.975

@<SCITEGIC>MOL_PROPERTY
W
SciTegic.value.DoubleValue
-62.066

@<SCITEGIC>MOL_PROPERTY
W(PB)
SciTegic.value.DoubleValue
-64.219

@<SCITEGIC>MOL_PROPERTY
W(SA)
SciTegic.value.DoubleValue
2.153

@<SCITEGIC>MOL_PROPERTY
Valence
SciTegic.value.DoubleValue
6.673

@<SCITEGIC>MOL_PROPERTY
Coulomb
SciTegic.value.DoubleValue
-1.307

@<SCITEGIC>MOL_PROPERTY
VdW
SciTegic.value.DoubleValue
0.610

@<SCITEGIC>MOL_PROPERTY
VdW6
SciTegic.value.DoubleValue
-5.351

@<SCITEGIC>MOL_PROPERTY
VdW12
SciTegic.value.DoubleValue
5.961

@<SCITEGIC>MOL_PROPERTY
Bond
SciTegic.value.DoubleValue
0.086

@<SCITEGIC>MOL_PROPERTY
Angle
SciTegic.value.DoubleValue
2.253

@<SCITEGIC>MOL_PROPERTY
Pdih
SciTegic.value.DoubleValue
4.333

@<SCITEGIC>MOL_PROPERTY
Idih
SciTegic.value.DoubleValue
0.001

@<SCITEGIC>MOL_PROPERTY
Tether
SciTegic.value.DoubleValue
0.000

@<TRIPOS>MOLECULE
guest-7_confgen4.mol2 : confsearch ligand conformer 459
          19          18           1
SMALL
USER_CHARGES
 
@<TRIPOS>ATOM
       1    C1      20.283883   15.877954   21.196273 C.2        1 MOL1         0.6115
       2    O1      20.169544   15.532784   20.036932 O.co2      1 MOL1        -0.6776
       3    O2      20.825258   15.202203   22.048644 O.co2      1 MOL1        -0.6776
       4    C2      19.736923   17.242987   21.598618 C.3        1 MOL1        -0.2013
       5    H1      19.388264   17.170113   22.634942 H          1 MOL1         0.0727
       6    H2      18.860809   17.455993   20.974468 H          1 MOL1         0.0727
       7    C3      20.785426   18.376403   21.453044 C.3        1 MOL1        -0.1910
       8    H3      21.638203   18.174776   22.115938 H          1 MOL1         0.0729
       9    H4      21.179698   18.362106   20.427486 H          1 MOL1         0.0729
      10    C4      20.217061   19.785215   21.745861 C.3        1 MOL1        -0.1909
      11    H5      19.370145   19.987066   21.075790 H          1 MOL1         0.0729
      12    H6      20.988420   20.529389   21.504567 H          1 MOL1         0.0729
      13    C5      19.776512   19.976947   23.214421 C.3        1 MOL1        -0.1884
      14    H7      18.952040   19.292995   23.454872 H          1 MOL1         0.0729
      15    H8      20.608453   19.725905   23.886821 H          1 MOL1         0.0729
      16    C6      19.320615   21.425167   23.482907 C.3        1 MOL1        -0.2899
      17    H9      19.008271   21.544693   24.528491 H          1 MOL1         0.0741
      18    H10     20.134583   22.136033   23.289226 H          1 MOL1         0.0741
      19    H11     18.470541   21.694131   22.842252 H          1 MOL1         0.0741
@<TRIPOS>BOND
    1     1     2    1
    2     1     3    2
    3     1     4    1
    4     4     5    1
    5     4     6    1
    6     4     7    1
    7     7     8    1
    8     7     9    1
    9     7    10    1
   10    10    11    1
   11    10    12    1
   12    10    13    1
   13    13    14    1
   14    13    15    1
   15    13    16    1
   16    16    17    1
   17    16    18    1
   18    16    19    1
@<TRIPOS>SUBSTRUCTURE
       1 MOL1            1 RESIDUE      1      MOL     
@<SCITEGIC>MOL_PROPERTY
VConf Rank
SciTegic.value.IntegerValue
459

@<SCITEGIC>MOL_PROPERTY
Conf_Id
SciTegic.value.IntegerValue
34

@<SCITEGIC>MOL_PROPERTY
Delta U+W
SciTegic.value.DoubleValue
-0.563

@<SCITEGIC>MOL_PROPERTY
U+W
SciTegic.value.DoubleValue
-55.455

@<SCITEGIC>MOL_PROPERTY
Grad RMS
SciTegic.value.DoubleValue
0.000000

@<SCITEGIC>MOL_PROPERTY
U
SciTegic.value.DoubleValue
6.914

@<SCITEGIC>MOL_PROPERTY
W
SciTegic.value.DoubleValue
-62.369

@<SCITEGIC>MOL_PROPERTY
W(PB)
SciTegic.value.DoubleValue
-64.446

@<SCITEGIC>MOL_PROPERTY
W(SA)
SciTegic.value.DoubleValue
2.077

@<SCITEGIC>MOL_PROPERTY
Valence
SciTegic.value.DoubleValue
7.196

@<SCITEGIC>MOL_PROPERTY
Coulomb
SciTegic.value.DoubleValue
-1.020

@<SCITEGIC>MOL_PROPERTY
VdW
SciTegic.value.DoubleValue
0.738

@<SCITEGIC>MOL_PROPERTY
VdW6
SciTegic.value.DoubleValue
-6.010

@<SCITEGIC>MOL_PROPERTY
VdW12
SciTegic.value.DoubleValue
6.748

@<SCITEGIC>MOL_PROPERTY
Bond
SciTegic.value.DoubleValue
0.126

@<SCITEGIC>MOL_PROPERTY
Angle
SciTegic.value.DoubleValue
2.499

@<SCITEGIC>MOL_PROPERTY
Pdih
SciTegic.value.DoubleValue
4.570

@<SCITEGIC>MOL_PROPERTY
Idih
SciTegic.value.DoubleValue
0.001

@<SCITEGIC>MOL_PROPERTY
Tether
SciTegic.value.DoubleValue
0.000

@<TRIPOS>MOLECULE
guest-7_confgen4.mol2 : confsearch ligand conformer 460
          19          18           1
SMALL
USER_CHARGES
 
@<TRIPOS>ATOM
       1    C1      23.177773   19.173083   22.141557 C.2        1 MOL1         0.6115
       2    O1      23.769497   20.173065   21.786330 O.co2      1 MOL1        -0.6776
       3    O2      23.694128   18.075460   22.211292 O.co2      1 MOL1        -0.6776
       4    C2      21.700814   19.298644   22.498188 C.3        1 MOL1        -0.2013
       5    H1      21.536682   20.296660   22.921907 H          1 MOL1         0.0727
       6    H2      21.485561   18.570279   23.288121 H          1 MOL1         0.0727
       7    C3      20.767984   19.075117   21.279564 C.3        1 MOL1        -0.1910
       8    H3      21.070358   19.758821   20.474244 H          1 MOL1         0.0729
       9    H4      20.909135   18.056976   20.891268 H          1 MOL1         0.0729
      10    C4      19.271988   19.311815   21.594990 C.3        1 MOL1        -0.1909
      11    H5      18.703759   19.249221   20.656794 H          1 MOL1         0.0729
      12    H6      19.133002   20.333269   21.974888 H          1 MOL1         0.0729
      13    C5      18.688763   18.297055   22.603763 C.3        1 MOL1        -0.1884
      14    H7      18.872915   17.273706   22.248640 H          1 MOL1         0.0729
      15    H8      19.192678   18.395466   23.574200 H          1 MOL1         0.0729
      16    C6      17.173981   18.505015   22.802399 C.3        1 MOL1        -0.2899
      17    H9      16.962891   19.512699   23.183737 H          1 MOL1         0.0741
      18    H10     16.631857   18.375630   21.856487 H          1 MOL1         0.0741
      19    H11     16.775280   17.779361   23.523199 H          1 MOL1         0.0741
@<TRIPOS>BOND
    1     1     2    1
    2     1     3    2
    3     1     4    1
    4     4     5    1
    5     4     6    1
    6     4     7    1
    7     7     8    1
    8     7     9    1
    9     7    10    1
   10    10    11    1
   11    10    12    1
   12    10    13    1
   13    13    14    1
   14    13    15    1
   15    13    16    1
   16    16    17    1
   17    16    18    1
   18    16    19    1
@<TRIPOS>SUBSTRUCTURE
       1 MOL1            1 RESIDUE      1      MOL     
@<SCITEGIC>MOL_PROPERTY
VConf Rank
SciTegic.value.IntegerValue
460

@<SCITEGIC>MOL_PROPERTY
Conf_Id
SciTegic.value.IntegerValue
33

@<SCITEGIC>MOL_PROPERTY
Delta U+W
SciTegic.value.DoubleValue
-0.526

@<SCITEGIC>MOL_PROPERTY
U+W
SciTegic.value.DoubleValue
-55.418

@<SCITEGIC>MOL_PROPERTY
Grad RMS
SciTegic.value.DoubleValue
0.000000

@<SCITEGIC>MOL_PROPERTY
U
SciTegic.value.DoubleValue
6.914

@<SCITEGIC>MOL_PROPERTY
W
SciTegic.value.DoubleValue
-62.332

@<SCITEGIC>MOL_PROPERTY
W(PB)
SciTegic.value.DoubleValue
-64.421

@<SCITEGIC>MOL_PROPERTY
W(SA)
SciTegic.value.DoubleValue
2.090

@<SCITEGIC>MOL_PROPERTY
Valence
SciTegic.value.DoubleValue
7.196

@<SCITEGIC>MOL_PROPERTY
Coulomb
SciTegic.value.DoubleValue
-1.020

@<SCITEGIC>MOL_PROPERTY
VdW
SciTegic.value.DoubleValue
0.738

@<SCITEGIC>MOL_PROPERTY
VdW6
SciTegic.value.DoubleValue
-6.010

@<SCITEGIC>MOL_PROPERTY
VdW12
SciTegic.value.DoubleValue
6.748

@<SCITEGIC>MOL_PROPERTY
Bond
SciTegic.value.DoubleValue
0.126

@<SCITEGIC>MOL_PROPERTY
Angle
SciTegic.value.DoubleValue
2.499

@<SCITEGIC>MOL_PROPERTY
Pdih
SciTegic.value.DoubleValue
4.570

@<SCITEGIC>MOL_PROPERTY
Idih
SciTegic.value.DoubleValue
0.001

@<SCITEGIC>MOL_PROPERTY
Tether
SciTegic.value.DoubleValue
0.000

@<TRIPOS>MOLECULE
guest-7_confgen4.mol2 : confsearch ligand conformer 461
          19          18           1
SMALL
USER_CHARGES
 
@<TRIPOS>ATOM
       1    C1      19.476124   16.575231   20.186719 C.2        1 MOL1         0.6115
       2    O1      18.287790   16.378620   20.027261 O.co2      1 MOL1        -0.6776
       3    O2      20.303423   16.444626   19.306513 O.co2      1 MOL1        -0.6776
       4    C2      19.953301   17.027661   21.562258 C.3        1 MOL1        -0.2013
       5    H1      20.959476   16.622501   21.723928 H          1 MOL1         0.0727
       6    H2      19.297087   16.576523   22.316304 H          1 MOL1         0.0727
       7    C3      19.965527   18.568376   21.718747 C.3        1 MOL1        -0.1910
       8    H3      20.618984   19.005739   20.951318 H          1 MOL1         0.0729
       9    H4      18.953476   18.952303   21.534430 H          1 MOL1         0.0729
      10    C4      20.449762   18.998235   23.122812 C.3        1 MOL1        -0.1909
      11    H5      21.431972   18.545679   23.316333 H          1 MOL1         0.0729
      12    H6      19.767951   18.601412   23.887450 H          1 MOL1         0.0729
      13    C5      20.574530   20.530614   23.286624 C.3        1 MOL1        -0.1884
      14    H7      21.033022   20.744721   24.261912 H          1 MOL1         0.0729
      15    H8      21.260209   20.930602   22.526900 H          1 MOL1         0.0729
      16    C6      19.219717   21.266305   23.202408 C.3        1 MOL1        -0.2899
      17    H9      18.507439   20.862979   23.933944 H          1 MOL1         0.0741
      18    H10     19.350257   22.335851   23.412107 H          1 MOL1         0.0741
      19    H11     18.775942   21.175835   22.203097 H          1 MOL1         0.0741
@<TRIPOS>BOND
    1     1     2    1
    2     1     3    2
    3     1     4    1
    4     4     5    1
    5     4     6    1
    6     4     7    1
    7     7     8    1
    8     7     9    1
    9     7    10    1
   10    10    11    1
   11    10    12    1
   12    10    13    1
   13    13    14    1
   14    13    15    1
   15    13    16    1
   16    16    17    1
   17    16    18    1
   18    16    19    1
@<TRIPOS>SUBSTRUCTURE
       1 MOL1            1 RESIDUE      1      MOL     
@<SCITEGIC>MOL_PROPERTY
VConf Rank
SciTegic.value.IntegerValue
461

@<SCITEGIC>MOL_PROPERTY
Conf_Id
SciTegic.value.IntegerValue
42

@<SCITEGIC>MOL_PROPERTY
Delta U+W
SciTegic.value.DoubleValue
-0.344

@<SCITEGIC>MOL_PROPERTY
U+W
SciTegic.value.DoubleValue
-55.236

@<SCITEGIC>MOL_PROPERTY
Grad RMS
SciTegic.value.DoubleValue
0.000000

@<SCITEGIC>MOL_PROPERTY
U
SciTegic.value.DoubleValue
7.244

@<SCITEGIC>MOL_PROPERTY
W
SciTegic.value.DoubleValue
-62.479

@<SCITEGIC>MOL_PROPERTY
W(PB)
SciTegic.value.DoubleValue
-64.610

@<SCITEGIC>MOL_PROPERTY
W(SA)
SciTegic.value.DoubleValue
2.130

@<SCITEGIC>MOL_PROPERTY
Valence
SciTegic.value.DoubleValue
7.174

@<SCITEGIC>MOL_PROPERTY
Coulomb
SciTegic.value.DoubleValue
-0.669

@<SCITEGIC>MOL_PROPERTY
VdW
SciTegic.value.DoubleValue
0.739

@<SCITEGIC>MOL_PROPERTY
VdW6
SciTegic.value.DoubleValue
-5.969

@<SCITEGIC>MOL_PROPERTY
VdW12
SciTegic.value.DoubleValue
6.708

@<SCITEGIC>MOL_PROPERTY
Bond
SciTegic.value.DoubleValue
0.116

@<SCITEGIC>MOL_PROPERTY
Angle
SciTegic.value.DoubleValue
2.481

@<SCITEGIC>MOL_PROPERTY
Pdih
SciTegic.value.DoubleValue
4.576

@<SCITEGIC>MOL_PROPERTY
Idih
SciTegic.value.DoubleValue
0.000

@<SCITEGIC>MOL_PROPERTY
Tether
SciTegic.value.DoubleValue
0.000

@<TRIPOS>MOLECULE
guest-7_confgen4.mol2 : confsearch ligand conformer 462
          19          18           1
SMALL
USER_CHARGES
 
@<TRIPOS>ATOM
       1    C1      21.725305   19.242231   19.556047 C.2        1 MOL1         0.6115
       2    O1      22.003410   20.410853   19.373838 O.co2      1 MOL1        -0.6776
       3    O2      21.477952   18.461924   18.658170 O.co2      1 MOL1        -0.6776
       4    C2      21.665604   18.731178   20.991234 C.3        1 MOL1        -0.2013
       5    H1      22.402042   19.288516   21.582640 H          1 MOL1         0.0727
       6    H2      21.978005   17.679948   20.991655 H          1 MOL1         0.0727
       7    C3      20.258284   18.871261   21.622322 C.3        1 MOL1        -0.1910
       8    H3      19.959596   19.927478   21.593798 H          1 MOL1         0.0729
       9    H4      19.531072   18.315950   21.014020 H          1 MOL1         0.0729
      10    C4      20.227860   18.349211   23.077381 C.3        1 MOL1        -0.1909
      11    H5      20.919246   18.937168   23.696491 H          1 MOL1         0.0729
      12    H6      20.597810   17.314873   23.093934 H          1 MOL1         0.0729
      13    C5      18.817232   18.376135   23.709831 C.3        1 MOL1        -0.1884
      14    H7      18.123927   17.784346   23.096283 H          1 MOL1         0.0729
      15    H8      18.861300   17.883440   24.690929 H          1 MOL1         0.0729
      16    C6      18.258053   19.803286   23.895337 C.3        1 MOL1        -0.2899
      17    H9      18.088120   20.295823   22.929793 H          1 MOL1         0.0741
      18    H10     17.297722   19.773057   24.426178 H          1 MOL1         0.0741
      19    H11     18.948979   20.422874   24.481756 H          1 MOL1         0.0741
@<TRIPOS>BOND
    1     1     2    1
    2     1     3    2
    3     1     4    1
    4     4     5    1
    5     4     6    1
    6     4     7    1
    7     7     8    1
    8     7     9    1
    9     7    10    1
   10    10    11    1
   11    10    12    1
   12    10    13    1
   13    13    14    1
   14    13    15    1
   15    13    16    1
   16    16    17    1
   17    16    18    1
   18    16    19    1
@<TRIPOS>SUBSTRUCTURE
       1 MOL1            1 RESIDUE      1      MOL     
@<SCITEGIC>MOL_PROPERTY
VConf Rank
SciTegic.value.IntegerValue
462

@<SCITEGIC>MOL_PROPERTY
Conf_Id
SciTegic.value.IntegerValue
41

@<SCITEGIC>MOL_PROPERTY
Delta U+W
SciTegic.value.DoubleValue
-0.361

@<SCITEGIC>MOL_PROPERTY
U+W
SciTegic.value.DoubleValue
-55.252

@<SCITEGIC>MOL_PROPERTY
Grad RMS
SciTegic.value.DoubleValue
0.000000

@<SCITEGIC>MOL_PROPERTY
U
SciTegic.value.DoubleValue
7.244

@<SCITEGIC>MOL_PROPERTY
W
SciTegic.value.DoubleValue
-62.496

@<SCITEGIC>MOL_PROPERTY
W(PB)
SciTegic.value.DoubleValue
-64.596

@<SCITEGIC>MOL_PROPERTY
W(SA)
SciTegic.value.DoubleValue
2.099

@<SCITEGIC>MOL_PROPERTY
Valence
SciTegic.value.DoubleValue
7.174

@<SCITEGIC>MOL_PROPERTY
Coulomb
SciTegic.value.DoubleValue
-0.669

@<SCITEGIC>MOL_PROPERTY
VdW
SciTegic.value.DoubleValue
0.739

@<SCITEGIC>MOL_PROPERTY
VdW6
SciTegic.value.DoubleValue
-5.969

@<SCITEGIC>MOL_PROPERTY
VdW12
SciTegic.value.DoubleValue
6.708

@<SCITEGIC>MOL_PROPERTY
Bond
SciTegic.value.DoubleValue
0.116

@<SCITEGIC>MOL_PROPERTY
Angle
SciTegic.value.DoubleValue
2.481

@<SCITEGIC>MOL_PROPERTY
Pdih
SciTegic.value.DoubleValue
4.576

@<SCITEGIC>MOL_PROPERTY
Idih
SciTegic.value.DoubleValue
0.000

@<SCITEGIC>MOL_PROPERTY
Tether
SciTegic.value.DoubleValue
0.000

@<TRIPOS>MOLECULE
guest-7_confgen4.mol2 : confsearch ligand conformer 463
          19          18           1
SMALL
USER_CHARGES
 
@<TRIPOS>ATOM
       1    C1      20.356569   19.472466   19.570702 C.2        1 MOL1         0.6115
       2    O1      21.532009   19.774302   19.632248 O.co2      1 MOL1        -0.6776
       3    O2      19.917891   18.630983   18.811657 O.co2      1 MOL1        -0.6776
       4    C2      19.372774   20.204275   20.479517 C.3        1 MOL1        -0.2013
       5    H1      18.515355   20.500329   19.863648 H          1 MOL1         0.0727
       6    H2      19.843977   21.129431   20.833130 H          1 MOL1         0.0727
       7    C3      18.878520   19.361275   21.683741 C.3        1 MOL1        -0.1910
       8    H3      18.077680   19.909804   22.197847 H          1 MOL1         0.0729
       9    H4      18.435178   18.425632   21.315433 H          1 MOL1         0.0729
      10    C4      20.006867   19.044979   22.690766 C.3        1 MOL1        -0.1909
      11    H5      20.455449   19.982846   23.046029 H          1 MOL1         0.0729
      12    H6      20.804697   18.481077   22.187871 H          1 MOL1         0.0729
      13    C5      19.486483   18.233236   23.895290 C.3        1 MOL1        -0.1884
      14    H7      18.690908   18.794330   24.404863 H          1 MOL1         0.0729
      15    H8      19.039362   17.293346   23.542921 H          1 MOL1         0.0729
      16    C6      20.614568   17.919340   24.898220 C.3        1 MOL1        -0.2899
      17    H9      21.059211   18.843192   25.290897 H          1 MOL1         0.0741
      18    H10     20.227429   17.341680   25.747643 H          1 MOL1         0.0741
      19    H11     21.410294   17.331084   24.422595 H          1 MOL1         0.0741
@<TRIPOS>BOND
    1     1     2    1
    2     1     3    2
    3     1     4    1
    4     4     5    1
    5     4     6    1
    6     4     7    1
    7     7     8    1
    8     7     9    1
    9     7    10    1
   10    10    11    1
   11    10    12    1
   12    10    13    1
   13    13    14    1
   14    13    15    1
   15    13    16    1
   16    16    17    1
   17    16    18    1
   18    16    19    1
@<TRIPOS>SUBSTRUCTURE
       1 MOL1            1 RESIDUE      1      MOL     
@<SCITEGIC>MOL_PROPERTY
VConf Rank
SciTegic.value.IntegerValue
463

@<SCITEGIC>MOL_PROPERTY
Conf_Id
SciTegic.value.IntegerValue
36

@<SCITEGIC>MOL_PROPERTY
Delta U+W
SciTegic.value.DoubleValue
-0.079

@<SCITEGIC>MOL_PROPERTY
U+W
SciTegic.value.DoubleValue
-54.971

@<SCITEGIC>MOL_PROPERTY
Grad RMS
SciTegic.value.DoubleValue
0.000000

@<SCITEGIC>MOL_PROPERTY
U
SciTegic.value.DoubleValue
8.266

@<SCITEGIC>MOL_PROPERTY
W
SciTegic.value.DoubleValue
-63.237

@<SCITEGIC>MOL_PROPERTY
W(PB)
SciTegic.value.DoubleValue
-65.340

@<SCITEGIC>MOL_PROPERTY
W(SA)
SciTegic.value.DoubleValue
2.103

@<SCITEGIC>MOL_PROPERTY
Valence
SciTegic.value.DoubleValue
6.935

@<SCITEGIC>MOL_PROPERTY
Coulomb
SciTegic.value.DoubleValue
0.874

@<SCITEGIC>MOL_PROPERTY
VdW
SciTegic.value.DoubleValue
0.457

@<SCITEGIC>MOL_PROPERTY
VdW6
SciTegic.value.DoubleValue
-6.205

@<SCITEGIC>MOL_PROPERTY
VdW12
SciTegic.value.DoubleValue
6.662

@<SCITEGIC>MOL_PROPERTY
Bond
SciTegic.value.DoubleValue
0.107

@<SCITEGIC>MOL_PROPERTY
Angle
SciTegic.value.DoubleValue
2.420

@<SCITEGIC>MOL_PROPERTY
Pdih
SciTegic.value.DoubleValue
4.407

@<SCITEGIC>MOL_PROPERTY
Idih
SciTegic.value.DoubleValue
0.001

@<SCITEGIC>MOL_PROPERTY
Tether
SciTegic.value.DoubleValue
0.000

@<TRIPOS>MOLECULE
guest-7_confgen4.mol2 : confsearch ligand conformer 464
          19          18           1
SMALL
USER_CHARGES
 
@<TRIPOS>ATOM
       1    C1      18.645935   19.495103   19.960299 C.2        1 MOL1         0.6115
       2    O1      18.532449   18.366777   19.523774 O.co2      1 MOL1        -0.6776
       3    O2      19.056132   20.431505   19.303358 O.co2      1 MOL1        -0.6776
       4    C2      18.231130   19.757252   21.405484 C.3        1 MOL1        -0.2013
       5    H1      17.586651   18.935106   21.739717 H          1 MOL1         0.0727
       6    H2      17.615898   20.664762   21.410569 H          1 MOL1         0.0727
       7    C3      19.422634   19.934278   22.382251 C.3        1 MOL1        -0.1910
       8    H3      20.073966   20.741487   22.019193 H          1 MOL1         0.0729
       9    H4      19.037384   20.254292   23.359854 H          1 MOL1         0.0729
      10    C4      20.244439   18.637759   22.558281 C.3        1 MOL1        -0.1909
      11    H5      20.647788   18.320218   21.586736 H          1 MOL1         0.0729
      12    H6      19.586459   17.830748   22.908744 H          1 MOL1         0.0729
      13    C5      21.404651   18.828079   23.557426 C.3        1 MOL1        -0.1884
      14    H7      22.065777   19.633254   23.208028 H          1 MOL1         0.0729
      15    H8      21.006794   19.141698   24.532507 H          1 MOL1         0.0729
      16    C6      22.222632   17.532777   23.730863 C.3        1 MOL1        -0.2899
      17    H9      22.658774   17.212982   22.775377 H          1 MOL1         0.0741
      18    H10     23.043236   17.685917   24.443775 H          1 MOL1         0.0741
      19    H11     21.591960   16.717823   24.109692 H          1 MOL1         0.0741
@<TRIPOS>BOND
    1     1     2    1
    2     1     3    2
    3     1     4    1
    4     4     5    1
    5     4     6    1
    6     4     7    1
    7     7     8    1
    8     7     9    1
    9     7    10    1
   10    10    11    1
   11    10    12    1
   12    10    13    1
   13    13    14    1
   14    13    15    1
   15    13    16    1
   16    16    17    1
   17    16    18    1
   18    16    19    1
@<TRIPOS>SUBSTRUCTURE
       1 MOL1            1 RESIDUE      1      MOL     
@<SCITEGIC>MOL_PROPERTY
VConf Rank
SciTegic.value.IntegerValue
464

@<SCITEGIC>MOL_PROPERTY
Conf_Id
SciTegic.value.IntegerValue
35

@<SCITEGIC>MOL_PROPERTY
Delta U+W
SciTegic.value.DoubleValue
-0.030

@<SCITEGIC>MOL_PROPERTY
U+W
SciTegic.value.DoubleValue
-54.921

@<SCITEGIC>MOL_PROPERTY
Grad RMS
SciTegic.value.DoubleValue
0.000000

@<SCITEGIC>MOL_PROPERTY
U
SciTegic.value.DoubleValue
8.267

@<SCITEGIC>MOL_PROPERTY
W
SciTegic.value.DoubleValue
-63.188

@<SCITEGIC>MOL_PROPERTY
W(PB)
SciTegic.value.DoubleValue
-65.294

@<SCITEGIC>MOL_PROPERTY
W(SA)
SciTegic.value.DoubleValue
2.106

@<SCITEGIC>MOL_PROPERTY
Valence
SciTegic.value.DoubleValue
6.935

@<SCITEGIC>MOL_PROPERTY
Coulomb
SciTegic.value.DoubleValue
0.875

@<SCITEGIC>MOL_PROPERTY
VdW
SciTegic.value.DoubleValue
0.457

@<SCITEGIC>MOL_PROPERTY
VdW6
SciTegic.value.DoubleValue
-6.205

@<SCITEGIC>MOL_PROPERTY
VdW12
SciTegic.value.DoubleValue
6.662

@<SCITEGIC>MOL_PROPERTY
Bond
SciTegic.value.DoubleValue
0.107

@<SCITEGIC>MOL_PROPERTY
Angle
SciTegic.value.DoubleValue
2.420

@<SCITEGIC>MOL_PROPERTY
Pdih
SciTegic.value.DoubleValue
4.407

@<SCITEGIC>MOL_PROPERTY
Idih
SciTegic.value.DoubleValue
0.001

@<SCITEGIC>MOL_PROPERTY
Tether
SciTegic.value.DoubleValue
0.000

@<TRIPOS>MOLECULE
guest-7_confgen4.mol2 : confsearch ligand conformer 465
          19          18           1
SMALL
USER_CHARGES
 
@<TRIPOS>ATOM
       1    C1      21.441460   19.400133   24.848476 C.2        1 MOL1         0.6115
       2    O1      22.010562   18.424851   25.297538 O.co2      1 MOL1        -0.6776
       3    O2      20.710715   20.113700   25.506867 O.co2      1 MOL1        -0.6776
       4    C2      21.675754   19.758907   23.383598 C.3        1 MOL1        -0.2013
       5    H1      22.754446   19.692348   23.198973 H          1 MOL1         0.0727
       6    H2      21.391585   20.806954   23.229313 H          1 MOL1         0.0727
       7    C3      20.922352   18.847199   22.380156 C.3        1 MOL1        -0.1910
       8    H3      21.271821   19.081685   21.366629 H          1 MOL1         0.0729
       9    H4      21.186553   17.798133   22.572475 H          1 MOL1         0.0729
      10    C4      19.386782   19.023695   22.454712 C.3        1 MOL1        -0.1909
      11    H5      19.121992   20.064675   22.224356 H          1 MOL1         0.0729
      12    H6      19.051872   18.839790   23.484779 H          1 MOL1         0.0729
      13    C5      18.612743   18.072037   21.513416 C.3        1 MOL1        -0.1884
      14    H7      18.874004   17.029739   21.742914 H          1 MOL1         0.0729
      15    H8      17.537702   18.174154   21.716102 H          1 MOL1         0.0729
      16    C6      18.864329   18.353542   20.016259 C.3        1 MOL1        -0.2899
      17    H9      19.906214   18.149962   19.739397 H          1 MOL1         0.0741
      18    H10     18.224721   17.715019   19.393261 H          1 MOL1         0.0741
      19    H11     18.639819   19.399528   19.769977 H          1 MOL1         0.0741
@<TRIPOS>BOND
    1     1     2    1
    2     1     3    2
    3     1     4    1
    4     4     5    1
    5     4     6    1
    6     4     7    1
    7     7     8    1
    8     7     9    1
    9     7    10    1
   10    10    11    1
   11    10    12    1
   12    10    13    1
   13    13    14    1
   14    13    15    1
   15    13    16    1
   16    16    17    1
   17    16    18    1
   18    16    19    1
@<TRIPOS>SUBSTRUCTURE
       1 MOL1            1 RESIDUE      1      MOL     
@<SCITEGIC>MOL_PROPERTY
VConf Rank
SciTegic.value.IntegerValue
465

@<SCITEGIC>MOL_PROPERTY
Conf_Id
SciTegic.value.IntegerValue
74

@<SCITEGIC>MOL_PROPERTY
Delta U+W
SciTegic.value.DoubleValue
0.797

@<SCITEGIC>MOL_PROPERTY
U+W
SciTegic.value.DoubleValue
-54.095

@<SCITEGIC>MOL_PROPERTY
Grad RMS
SciTegic.value.DoubleValue
0.000000

@<SCITEGIC>MOL_PROPERTY
U
SciTegic.value.DoubleValue
8.869

@<SCITEGIC>MOL_PROPERTY
W
SciTegic.value.DoubleValue
-62.964

@<SCITEGIC>MOL_PROPERTY
W(PB)
SciTegic.value.DoubleValue
-65.046

@<SCITEGIC>MOL_PROPERTY
W(SA)
SciTegic.value.DoubleValue
2.082

@<SCITEGIC>MOL_PROPERTY
Valence
SciTegic.value.DoubleValue
7.469

@<SCITEGIC>MOL_PROPERTY
Coulomb
SciTegic.value.DoubleValue
0.762

@<SCITEGIC>MOL_PROPERTY
VdW
SciTegic.value.DoubleValue
0.639

@<SCITEGIC>MOL_PROPERTY
VdW6
SciTegic.value.DoubleValue
-6.782

@<SCITEGIC>MOL_PROPERTY
VdW12
SciTegic.value.DoubleValue
7.421

@<SCITEGIC>MOL_PROPERTY
Bond
SciTegic.value.DoubleValue
0.141

@<SCITEGIC>MOL_PROPERTY
Angle
SciTegic.value.DoubleValue
2.667

@<SCITEGIC>MOL_PROPERTY
Pdih
SciTegic.value.DoubleValue
4.660

@<SCITEGIC>MOL_PROPERTY
Idih
SciTegic.value.DoubleValue
0.001

@<SCITEGIC>MOL_PROPERTY
Tether
SciTegic.value.DoubleValue
0.000

@<TRIPOS>MOLECULE
guest-7_confgen4.mol2 : confsearch ligand conformer 466
          19          18           1
SMALL
USER_CHARGES
 
@<TRIPOS>ATOM
       1    C1      22.582364   19.437556   21.056097 C.2        1 MOL1         0.6115
       2    O1      22.847105   20.084561   20.062256 O.co2      1 MOL1        -0.6776
       3    O2      23.383447   19.204508   21.939430 O.co2      1 MOL1        -0.6776
       4    C2      21.162221   18.905352   21.211564 C.3        1 MOL1        -0.2013
       5    H1      21.219471   17.955312   21.754983 H          1 MOL1         0.0727
       6    H2      20.768708   18.686196   20.211826 H          1 MOL1         0.0727
       7    C3      20.226289   19.897621   21.949144 C.3        1 MOL1        -0.1910
       8    H3      20.609279   20.079940   22.961990 H          1 MOL1         0.0729
       9    H4      20.262084   20.866428   21.432104 H          1 MOL1         0.0729
      10    C4      18.751399   19.427094   22.012633 C.3        1 MOL1        -0.1909
      11    H5      18.358243   19.350031   20.989753 H          1 MOL1         0.0729
      12    H6      18.154505   20.204345   22.508999 H          1 MOL1         0.0729
      13    C5      18.519556   18.078799   22.738064 C.3        1 MOL1        -0.1884
      14    H7      17.446597   17.844681   22.706012 H          1 MOL1         0.0729
      15    H8      19.023232   17.266087   22.198231 H          1 MOL1         0.0729
      16    C6      18.981237   18.089775   24.211198 C.3        1 MOL1        -0.2899
      17    H9      18.506828   18.909947   24.765531 H          1 MOL1         0.0741
      18    H10     18.712428   17.147102   24.705086 H          1 MOL1         0.0741
      19    H11     20.069795   18.206233   24.286995 H          1 MOL1         0.0741
@<TRIPOS>BOND
    1     1     2    1
    2     1     3    2
    3     1     4    1
    4     4     5    1
    5     4     6    1
    6     4     7    1
    7     7     8    1
    8     7     9    1
    9     7    10    1
   10    10    11    1
   11    10    12    1
   12    10    13    1
   13    13    14    1
   14    13    15    1
   15    13    16    1
   16    16    17    1
   17    16    18    1
   18    16    19    1
@<TRIPOS>SUBSTRUCTURE
       1 MOL1            1 RESIDUE      1      MOL     
@<SCITEGIC>MOL_PROPERTY
VConf Rank
SciTegic.value.IntegerValue
466

@<SCITEGIC>MOL_PROPERTY
Conf_Id
SciTegic.value.IntegerValue
67

@<SCITEGIC>MOL_PROPERTY
Delta U+W
SciTegic.value.DoubleValue
0.308

@<SCITEGIC>MOL_PROPERTY
U+W
SciTegic.value.DoubleValue
-54.583

@<SCITEGIC>MOL_PROPERTY
Grad RMS
SciTegic.value.DoubleValue
0.000000

@<SCITEGIC>MOL_PROPERTY
U
SciTegic.value.DoubleValue
8.219

@<SCITEGIC>MOL_PROPERTY
W
SciTegic.value.DoubleValue
-62.802

@<SCITEGIC>MOL_PROPERTY
W(PB)
SciTegic.value.DoubleValue
-64.859

@<SCITEGIC>MOL_PROPERTY
W(SA)
SciTegic.value.DoubleValue
2.057

@<SCITEGIC>MOL_PROPERTY
Valence
SciTegic.value.DoubleValue
7.609

@<SCITEGIC>MOL_PROPERTY
Coulomb
SciTegic.value.DoubleValue
-0.089

@<SCITEGIC>MOL_PROPERTY
VdW
SciTegic.value.DoubleValue
0.699

@<SCITEGIC>MOL_PROPERTY
VdW6
SciTegic.value.DoubleValue
-6.924

@<SCITEGIC>MOL_PROPERTY
VdW12
SciTegic.value.DoubleValue
7.623

@<SCITEGIC>MOL_PROPERTY
Bond
SciTegic.value.DoubleValue
0.163

@<SCITEGIC>MOL_PROPERTY
Angle
SciTegic.value.DoubleValue
2.870

@<SCITEGIC>MOL_PROPERTY
Pdih
SciTegic.value.DoubleValue
4.576

@<SCITEGIC>MOL_PROPERTY
Idih
SciTegic.value.DoubleValue
0.001

@<SCITEGIC>MOL_PROPERTY
Tether
SciTegic.value.DoubleValue
0.000

@<TRIPOS>MOLECULE
guest-7_confgen4.mol2 : confsearch ligand conformer 467
          19          18           1
SMALL
USER_CHARGES
 
@<TRIPOS>ATOM
       1    C1      21.995010   21.043709   22.047497 C.2        1 MOL1         0.6115
       2    O1      23.064016   21.160494   22.613191 O.co2      1 MOL1        -0.6776
       3    O2      21.384739   21.976815   21.564582 O.co2      1 MOL1        -0.6776
       4    C2      21.376953   19.653073   21.956096 C.3        1 MOL1        -0.2013
       5    H1      22.191149   18.921579   21.890091 H          1 MOL1         0.0727
       6    H2      20.813409   19.599348   21.017645 H          1 MOL1         0.0727
       7    C3      20.458291   19.323665   23.161142 C.3        1 MOL1        -0.1910
       8    H3      21.026513   19.475231   24.089232 H          1 MOL1         0.0729
       9    H4      19.625924   20.039076   23.194757 H          1 MOL1         0.0729
      10    C4      19.915039   17.872662   23.147281 C.3        1 MOL1        -0.1909
      11    H5      19.314393   17.712502   24.053015 H          1 MOL1         0.0729
      12    H6      20.761025   17.175393   23.217408 H          1 MOL1         0.0729
      13    C5      19.063003   17.498865   21.909456 C.3        1 MOL1        -0.1884
      14    H7      19.674040   17.550762   20.998659 H          1 MOL1         0.0729
      15    H8      18.749420   16.450219   22.004782 H          1 MOL1         0.0729
      16    C6      17.805906   18.379597   21.743881 C.3        1 MOL1        -0.2899
      17    H9      18.074668   19.421930   21.530393 H          1 MOL1         0.0741
      18    H10     17.190193   18.017517   20.910447 H          1 MOL1         0.0741
      19    H11     17.190575   18.360912   22.652753 H          1 MOL1         0.0741
@<TRIPOS>BOND
    1     1     2    1
    2     1     3    2
    3     1     4    1
    4     4     5    1
    5     4     6    1
    6     4     7    1
    7     7     8    1
    8     7     9    1
    9     7    10    1
   10    10    11    1
   11    10    12    1
   12    10    13    1
   13    13    14    1
   14    13    15    1
   15    13    16    1
   16    16    17    1
   17    16    18    1
   18    16    19    1
@<TRIPOS>SUBSTRUCTURE
       1 MOL1            1 RESIDUE      1      MOL     
@<SCITEGIC>MOL_PROPERTY
VConf Rank
SciTegic.value.IntegerValue
467

@<SCITEGIC>MOL_PROPERTY
Conf_Id
SciTegic.value.IntegerValue
21

@<SCITEGIC>MOL_PROPERTY
Delta U+W
SciTegic.value.DoubleValue
0.319

@<SCITEGIC>MOL_PROPERTY
U+W
SciTegic.value.DoubleValue
-54.572

@<SCITEGIC>MOL_PROPERTY
Grad RMS
SciTegic.value.DoubleValue
0.000000

@<SCITEGIC>MOL_PROPERTY
U
SciTegic.value.DoubleValue
8.220

@<SCITEGIC>MOL_PROPERTY
W
SciTegic.value.DoubleValue
-62.792

@<SCITEGIC>MOL_PROPERTY
W(PB)
SciTegic.value.DoubleValue
-64.830

@<SCITEGIC>MOL_PROPERTY
W(SA)
SciTegic.value.DoubleValue
2.038

@<SCITEGIC>MOL_PROPERTY
Valence
SciTegic.value.DoubleValue
7.609

@<SCITEGIC>MOL_PROPERTY
Coulomb
SciTegic.value.DoubleValue
-0.088

@<SCITEGIC>MOL_PROPERTY
VdW
SciTegic.value.DoubleValue
0.699

@<SCITEGIC>MOL_PROPERTY
VdW6
SciTegic.value.DoubleValue
-6.924

@<SCITEGIC>MOL_PROPERTY
VdW12
SciTegic.value.DoubleValue
7.623

@<SCITEGIC>MOL_PROPERTY
Bond
SciTegic.value.DoubleValue
0.163

@<SCITEGIC>MOL_PROPERTY
Angle
SciTegic.value.DoubleValue
2.870

@<SCITEGIC>MOL_PROPERTY
Pdih
SciTegic.value.DoubleValue
4.576

@<SCITEGIC>MOL_PROPERTY
Idih
SciTegic.value.DoubleValue
0.000

@<SCITEGIC>MOL_PROPERTY
Tether
SciTegic.value.DoubleValue
0.000

@<TRIPOS>MOLECULE
guest-7_confgen4.mol2 : confsearch ligand conformer 468
          19          18           1
SMALL
USER_CHARGES
 
@<TRIPOS>ATOM
       1    C1      19.388932   16.427056   20.978554 C.2        1 MOL1         0.6115
       2    O1      19.821462   15.307269   21.166789 O.co2      1 MOL1        -0.6776
       3    O2      18.327059   16.654685   20.433701 O.co2      1 MOL1        -0.6776
       4    C2      20.215673   17.610067   21.469538 C.3        1 MOL1        -0.2013
       5    H1      20.040683   18.448019   20.787600 H          1 MOL1         0.0727
       6    H2      21.275273   17.342254   21.380604 H          1 MOL1         0.0727
       7    C3      19.888796   18.004813   22.934092 C.3        1 MOL1        -0.1910
       8    H3      18.815782   18.217116   23.038254 H          1 MOL1         0.0729
       9    H4      20.091287   17.133233   23.571855 H          1 MOL1         0.0729
      10    C4      20.725358   19.202460   23.451540 C.3        1 MOL1        -0.1909
      11    H5      21.703634   19.227782   22.952308 H          1 MOL1         0.0729
      12    H6      20.937886   19.035550   24.516409 H          1 MOL1         0.0729
      13    C5      20.028489   20.579673   23.326773 C.3        1 MOL1        -0.1884
      14    H7      19.093384   20.572802   23.903651 H          1 MOL1         0.0729
      15    H8      20.671445   21.338768   23.793224 H          1 MOL1         0.0729
      16    C6      19.730781   21.009231   21.875379 C.3        1 MOL1        -0.2899
      17    H9      19.360524   22.042215   21.849522 H          1 MOL1         0.0741
      18    H10     20.635157   20.957814   21.255350 H          1 MOL1         0.0741
      19    H11     18.960268   20.371473   21.424412 H          1 MOL1         0.0741
@<TRIPOS>BOND
    1     1     2    1
    2     1     3    2
    3     1     4    1
    4     4     5    1
    5     4     6    1
    6     4     7    1
    7     7     8    1
    8     7     9    1
    9     7    10    1
   10    10    11    1
   11    10    12    1
   12    10    13    1
   13    13    14    1
   14    13    15    1
   15    13    16    1
   16    16    17    1
   17    16    18    1
   18    16    19    1
@<TRIPOS>SUBSTRUCTURE
       1 MOL1            1 RESIDUE      1      MOL     
@<SCITEGIC>MOL_PROPERTY
VConf Rank
SciTegic.value.IntegerValue
468

@<SCITEGIC>MOL_PROPERTY
Conf_Id
SciTegic.value.IntegerValue
24

@<SCITEGIC>MOL_PROPERTY
Delta U+W
SciTegic.value.DoubleValue
2.477

@<SCITEGIC>MOL_PROPERTY
U+W
SciTegic.value.DoubleValue
-52.414

@<SCITEGIC>MOL_PROPERTY
Grad RMS
SciTegic.value.DoubleValue
0.000000

@<SCITEGIC>MOL_PROPERTY
U
SciTegic.value.DoubleValue
10.422

@<SCITEGIC>MOL_PROPERTY
W
SciTegic.value.DoubleValue
-62.836

@<SCITEGIC>MOL_PROPERTY
W(PB)
SciTegic.value.DoubleValue
-64.906

@<SCITEGIC>MOL_PROPERTY
W(SA)
SciTegic.value.DoubleValue
2.070

@<SCITEGIC>MOL_PROPERTY
Valence
SciTegic.value.DoubleValue
9.628

@<SCITEGIC>MOL_PROPERTY
Coulomb
SciTegic.value.DoubleValue
0.101

@<SCITEGIC>MOL_PROPERTY
VdW
SciTegic.value.DoubleValue
0.693

@<SCITEGIC>MOL_PROPERTY
VdW6
SciTegic.value.DoubleValue
-6.927

@<SCITEGIC>MOL_PROPERTY
VdW12
SciTegic.value.DoubleValue
7.620

@<SCITEGIC>MOL_PROPERTY
Bond
SciTegic.value.DoubleValue
0.173

@<SCITEGIC>MOL_PROPERTY
Angle
SciTegic.value.DoubleValue
2.989

@<SCITEGIC>MOL_PROPERTY
Pdih
SciTegic.value.DoubleValue
6.465

@<SCITEGIC>MOL_PROPERTY
Idih
SciTegic.value.DoubleValue
0.001

@<SCITEGIC>MOL_PROPERTY
Tether
SciTegic.value.DoubleValue
0.000

@<TRIPOS>MOLECULE
guest-7_confgen4.mol2 : confsearch ligand conformer 469
          19          18           1
SMALL
USER_CHARGES
 
@<TRIPOS>ATOM
       1    C1      18.458799   19.311431   24.577279 C.2        1 MOL1         0.6115
       2    O1      18.913954   18.342559   25.152439 O.co2      1 MOL1        -0.6776
       3    O2      18.066165   20.308536   25.150598 O.co2      1 MOL1        -0.6776
       4    C2      18.345946   19.265197   23.055648 C.3        1 MOL1        -0.2013
       5    H1      17.330232   19.586118   22.796629 H          1 MOL1         0.0727
       6    H2      18.436717   18.222768   22.734192 H          1 MOL1         0.0727
       7    C3      19.373401   20.168545   22.318603 C.3        1 MOL1        -0.1910
       8    H3      19.105573   20.246390   21.256322 H          1 MOL1         0.0729
       9    H4      19.286323   21.184965   22.727068 H          1 MOL1         0.0729
      10    C4      20.845587   19.699938   22.454809 C.3        1 MOL1        -0.1909
      11    H5      20.997479   19.180672   23.410894 H          1 MOL1         0.0729
      12    H6      21.484632   20.592502   22.496450 H          1 MOL1         0.0729
      13    C5      21.353269   18.818204   21.287457 C.3        1 MOL1        -0.1884
      14    H7      21.282081   19.377458   20.344393 H          1 MOL1         0.0729
      15    H8      22.421567   18.614908   21.444183 H          1 MOL1         0.0729
      16    C6      20.611209   17.473556   21.143146 C.3        1 MOL1        -0.2899
      17    H9      19.574690   17.626783   20.818330 H          1 MOL1         0.0741
      18    H10     21.103062   16.842261   20.391930 H          1 MOL1         0.0741
      19    H11     20.602117   16.925073   22.094235 H          1 MOL1         0.0741
@<TRIPOS>BOND
    1     1     2    1
    2     1     3    2
    3     1     4    1
    4     4     5    1
    5     4     6    1
    6     4     7    1
    7     7     8    1
    8     7     9    1
    9     7    10    1
   10    10    11    1
   11    10    12    1
   12    10    13    1
   13    13    14    1
   14    13    15    1
   15    13    16    1
   16    16    17    1
   17    16    18    1
   18    16    19    1
@<TRIPOS>SUBSTRUCTURE
       1 MOL1            1 RESIDUE      1      MOL     
@<SCITEGIC>MOL_PROPERTY
VConf Rank
SciTegic.value.IntegerValue
469

@<SCITEGIC>MOL_PROPERTY
Conf_Id
SciTegic.value.IntegerValue
4

@<SCITEGIC>MOL_PROPERTY
Delta U+W
SciTegic.value.DoubleValue
3.753

@<SCITEGIC>MOL_PROPERTY
U+W
SciTegic.value.DoubleValue
-51.138

@<SCITEGIC>MOL_PROPERTY
Grad RMS
SciTegic.value.DoubleValue
0.000000

@<SCITEGIC>MOL_PROPERTY
U
SciTegic.value.DoubleValue
12.334

@<SCITEGIC>MOL_PROPERTY
W
SciTegic.value.DoubleValue
-63.472

@<SCITEGIC>MOL_PROPERTY
W(PB)
SciTegic.value.DoubleValue
-65.500

@<SCITEGIC>MOL_PROPERTY
W(SA)
SciTegic.value.DoubleValue
2.028

@<SCITEGIC>MOL_PROPERTY
Valence
SciTegic.value.DoubleValue
9.984

@<SCITEGIC>MOL_PROPERTY
Coulomb
SciTegic.value.DoubleValue
1.767

@<SCITEGIC>MOL_PROPERTY
VdW
SciTegic.value.DoubleValue
0.583

@<SCITEGIC>MOL_PROPERTY
VdW6
SciTegic.value.DoubleValue
-7.767

@<SCITEGIC>MOL_PROPERTY
VdW12
SciTegic.value.DoubleValue
8.349

@<SCITEGIC>MOL_PROPERTY
Bond
SciTegic.value.DoubleValue
0.203

@<SCITEGIC>MOL_PROPERTY
Angle
SciTegic.value.DoubleValue
3.191

@<SCITEGIC>MOL_PROPERTY
Pdih
SciTegic.value.DoubleValue
6.589

@<SCITEGIC>MOL_PROPERTY
Idih
SciTegic.value.DoubleValue
0.001

@<SCITEGIC>MOL_PROPERTY
Tether
SciTegic.value.DoubleValue
0.000

@<TRIPOS>MOLECULE
guest-7_confgen4.mol2 : confsearch ligand conformer 470
          19          18           1
SMALL
USER_CHARGES
 
@<TRIPOS>ATOM
       1    C1      17.436284   19.606540   22.068980 C.2        1 MOL1         0.6115
       2    O1      16.946956   20.689752   21.815435 O.co2      1 MOL1        -0.6776
       3    O2      17.074142   18.569081   21.550112 O.co2      1 MOL1        -0.6776
       4    C2      18.544724   19.545515   23.116772 C.3        1 MOL1        -0.2013
       5    H1      18.648845   18.507796   23.449225 H          1 MOL1         0.0727
       6    H2      18.201347   20.120162   23.984889 H          1 MOL1         0.0727
       7    C3      19.905994   20.115334   22.629752 C.3        1 MOL1        -0.1910
       8    H3      19.731357   21.129771   22.245104 H          1 MOL1         0.0729
       9    H4      20.588106   20.229524   23.482933 H          1 MOL1         0.0729
      10    C4      20.589198   19.271858   21.521938 C.3        1 MOL1        -0.1909
      11    H5      21.110206   19.960078   20.842462 H          1 MOL1         0.0729
      12    H6      19.835659   18.760863   20.907228 H          1 MOL1         0.0729
      13    C5      21.631718   18.250092   22.038706 C.3        1 MOL1        -0.1884
      14    H7      22.108769   17.771516   21.172368 H          1 MOL1         0.0729
      15    H8      22.430987   18.778235   22.576698 H          1 MOL1         0.0729
      16    C6      21.042151   17.151226   22.946704 C.3        1 MOL1        -0.2899
      17    H9      20.190676   16.655403   22.462312 H          1 MOL1         0.0741
      18    H10     21.799378   16.387666   23.166614 H          1 MOL1         0.0741
      19    H11     20.705430   17.567800   23.904013 H          1 MOL1         0.0741
@<TRIPOS>BOND
    1     1     2    1
    2     1     3    2
    3     1     4    1
    4     4     5    1
    5     4     6    1
    6     4     7    1
    7     7     8    1
    8     7     9    1
    9     7    10    1
   10    10    11    1
   11    10    12    1
   12    10    13    1
   13    13    14    1
   14    13    15    1
   15    13    16    1
   16    16    17    1
   17    16    18    1
   18    16    19    1
@<TRIPOS>SUBSTRUCTURE
       1 MOL1            1 RESIDUE      1      MOL     
@<SCITEGIC>MOL_PROPERTY
VConf Rank
SciTegic.value.IntegerValue
470

@<SCITEGIC>MOL_PROPERTY
Conf_Id
SciTegic.value.IntegerValue
73

@<SCITEGIC>MOL_PROPERTY
Delta U+W
SciTegic.value.DoubleValue
3.707

@<SCITEGIC>MOL_PROPERTY
U+W
SciTegic.value.DoubleValue
-51.184

@<SCITEGIC>MOL_PROPERTY
Grad RMS
SciTegic.value.DoubleValue
0.000000

@<SCITEGIC>MOL_PROPERTY
U
SciTegic.value.DoubleValue
12.334

@<SCITEGIC>MOL_PROPERTY
W
SciTegic.value.DoubleValue
-63.519

@<SCITEGIC>MOL_PROPERTY
W(PB)
SciTegic.value.DoubleValue
-65.541

@<SCITEGIC>MOL_PROPERTY
W(SA)
SciTegic.value.DoubleValue
2.022

@<SCITEGIC>MOL_PROPERTY
Valence
SciTegic.value.DoubleValue
9.984

@<SCITEGIC>MOL_PROPERTY
Coulomb
SciTegic.value.DoubleValue
1.768

@<SCITEGIC>MOL_PROPERTY
VdW
SciTegic.value.DoubleValue
0.583

@<SCITEGIC>MOL_PROPERTY
VdW6
SciTegic.value.DoubleValue
-7.767

@<SCITEGIC>MOL_PROPERTY
VdW12
SciTegic.value.DoubleValue
8.350

@<SCITEGIC>MOL_PROPERTY
Bond
SciTegic.value.DoubleValue
0.203

@<SCITEGIC>MOL_PROPERTY
Angle
SciTegic.value.DoubleValue
3.192

@<SCITEGIC>MOL_PROPERTY
Pdih
SciTegic.value.DoubleValue
6.589

@<SCITEGIC>MOL_PROPERTY
Idih
SciTegic.value.DoubleValue
0.001

@<SCITEGIC>MOL_PROPERTY
Tether
SciTegic.value.DoubleValue
0.000

@<TRIPOS>MOLECULE
guest-7_confgen4.mol2 : confsearch ligand conformer 471
          19          18           1
SMALL
USER_CHARGES
 
@<TRIPOS>ATOM
       1    C1      18.785185   18.410767   24.671942 C.2        1 MOL1         0.6115
       2    O1      19.805514   18.475270   25.328813 O.co2      1 MOL1        -0.6776
       3    O2      17.689966   18.715478   25.101833 O.co2      1 MOL1        -0.6776
       4    C2      18.876264   17.889124   23.240538 C.3        1 MOL1        -0.2013
       5    H1      18.119797   17.103398   23.130711 H          1 MOL1         0.0727
       6    H2      19.849580   17.404000   23.104126 H          1 MOL1         0.0727
       7    C3      18.650446   18.975041   22.153313 C.3        1 MOL1        -0.1910
       8    H3      18.659171   18.502278   21.162715 H          1 MOL1         0.0729
       9    H4      17.642396   19.393675   22.278582 H          1 MOL1         0.0729
      10    C4      19.676921   20.136685   22.185372 C.3        1 MOL1        -0.1909
      11    H5      19.574802   20.678860   23.135477 H          1 MOL1         0.0729
      12    H6      19.418367   20.857239   21.397625 H          1 MOL1         0.0729
      13    C5      21.156332   19.714340   22.011633 C.3        1 MOL1        -0.1884
      14    H7      21.785262   20.613304   22.068261 H          1 MOL1         0.0729
      15    H8      21.466880   19.074765   22.848859 H          1 MOL1         0.0729
      16    C6      21.434964   18.996489   20.673452 C.3        1 MOL1        -0.2899
      17    H9      20.912758   18.032892   20.621562 H          1 MOL1         0.0741
      18    H10     21.111257   19.610913   19.823329 H          1 MOL1         0.0741
      19    H11     22.508769   18.799527   20.559679 H          1 MOL1         0.0741
@<TRIPOS>BOND
    1     1     2    1
    2     1     3    2
    3     1     4    1
    4     4     5    1
    5     4     6    1
    6     4     7    1
    7     7     8    1
    8     7     9    1
    9     7    10    1
   10    10    11    1
   11    10    12    1
   12    10    13    1
   13    13    14    1
   14    13    15    1
   15    13    16    1
   16    16    17    1
   17    16    18    1
   18    16    19    1
@<TRIPOS>SUBSTRUCTURE
       1 MOL1            1 RESIDUE      1      MOL     
@<SCITEGIC>MOL_PROPERTY
VConf Rank
SciTegic.value.IntegerValue
471

@<SCITEGIC>MOL_PROPERTY
Conf_Id
SciTegic.value.IntegerValue
56

@<SCITEGIC>MOL_PROPERTY
Delta U+W
SciTegic.value.DoubleValue
1.735

@<SCITEGIC>MOL_PROPERTY
U+W
SciTegic.value.DoubleValue
-53.156

@<SCITEGIC>MOL_PROPERTY
Grad RMS
SciTegic.value.DoubleValue
0.000000

@<SCITEGIC>MOL_PROPERTY
U
SciTegic.value.DoubleValue
10.214

@<SCITEGIC>MOL_PROPERTY
W
SciTegic.value.DoubleValue
-63.370

@<SCITEGIC>MOL_PROPERTY
W(PB)
SciTegic.value.DoubleValue
-65.388

@<SCITEGIC>MOL_PROPERTY
W(SA)
SciTegic.value.DoubleValue
2.018

@<SCITEGIC>MOL_PROPERTY
Valence
SciTegic.value.DoubleValue
7.868

@<SCITEGIC>MOL_PROPERTY
Coulomb
SciTegic.value.DoubleValue
1.968

@<SCITEGIC>MOL_PROPERTY
VdW
SciTegic.value.DoubleValue
0.378

@<SCITEGIC>MOL_PROPERTY
VdW6
SciTegic.value.DoubleValue
-8.067

@<SCITEGIC>MOL_PROPERTY
VdW12
SciTegic.value.DoubleValue
8.445

@<SCITEGIC>MOL_PROPERTY
Bond
SciTegic.value.DoubleValue
0.191

@<SCITEGIC>MOL_PROPERTY
Angle
SciTegic.value.DoubleValue
3.117

@<SCITEGIC>MOL_PROPERTY
Pdih
SciTegic.value.DoubleValue
4.559

@<SCITEGIC>MOL_PROPERTY
Idih
SciTegic.value.DoubleValue
0.001

@<SCITEGIC>MOL_PROPERTY
Tether
SciTegic.value.DoubleValue
0.000

@<TRIPOS>MOLECULE
guest-7_confgen4.mol2 : confsearch ligand conformer 472
          19          18           1
SMALL
USER_CHARGES
 
@<TRIPOS>ATOM
       1    C1      22.060368   19.951650   20.515301 C.2        1 MOL1         0.6115
       2    O1      23.051725   20.523240   20.923787 O.co2      1 MOL1        -0.6776
       3    O2      21.740896   19.914601   19.343576 O.co2      1 MOL1        -0.6776
       4    C2      21.156798   19.261705   21.531064 C.3        1 MOL1        -0.2013
       5    H1      21.782266   18.906441   22.358684 H          1 MOL1         0.0727
       6    H2      20.722113   18.381759   21.043977 H          1 MOL1         0.0727
       7    C3      20.036227   20.188791   22.065673 C.3        1 MOL1        -0.1910
       8    H3      20.492379   21.124213   22.418250 H          1 MOL1         0.0729
       9    H4      19.369662   20.465194   21.237128 H          1 MOL1         0.0729
      10    C4      19.203374   19.582650   23.223016 C.3        1 MOL1        -0.1909
      11    H5      18.484546   20.347246   23.548055 H          1 MOL1         0.0729
      12    H6      19.848033   19.390831   24.091705 H          1 MOL1         0.0729
      13    C5      18.411593   18.304706   22.850121 C.3        1 MOL1        -0.1884
      14    H7      17.454557   18.315362   23.389851 H          1 MOL1         0.0729
      15    H8      18.159055   18.311016   21.780779 H          1 MOL1         0.0729
      16    C6      19.151398   16.999448   23.218519 C.3        1 MOL1        -0.2899
      17    H9      18.543379   16.125566   22.951094 H          1 MOL1         0.0741
      18    H10     20.110617   16.911452   22.696241 H          1 MOL1         0.0741
      19    H11     19.347838   16.953627   24.297613 H          1 MOL1         0.0741
@<TRIPOS>BOND
    1     1     2    1
    2     1     3    2
    3     1     4    1
    4     4     5    1
    5     4     6    1
    6     4     7    1
    7     7     8    1
    8     7     9    1
    9     7    10    1
   10    10    11    1
   11    10    12    1
   12    10    13    1
   13    13    14    1
   14    13    15    1
   15    13    16    1
   16    16    17    1
   17    16    18    1
   18    16    19    1
@<TRIPOS>SUBSTRUCTURE
       1 MOL1            1 RESIDUE      1      MOL     
@<SCITEGIC>MOL_PROPERTY
VConf Rank
SciTegic.value.IntegerValue
472

@<SCITEGIC>MOL_PROPERTY
Conf_Id
SciTegic.value.IntegerValue
53

@<SCITEGIC>MOL_PROPERTY
Delta U+W
SciTegic.value.DoubleValue
2.279

@<SCITEGIC>MOL_PROPERTY
U+W
SciTegic.value.DoubleValue
-52.612

@<SCITEGIC>MOL_PROPERTY
Grad RMS
SciTegic.value.DoubleValue
0.000000

@<SCITEGIC>MOL_PROPERTY
U
SciTegic.value.DoubleValue
10.231

@<SCITEGIC>MOL_PROPERTY
W
SciTegic.value.DoubleValue
-62.843

@<SCITEGIC>MOL_PROPERTY
W(PB)
SciTegic.value.DoubleValue
-64.893

@<SCITEGIC>MOL_PROPERTY
W(SA)
SciTegic.value.DoubleValue
2.050

@<SCITEGIC>MOL_PROPERTY
Valence
SciTegic.value.DoubleValue
9.644

@<SCITEGIC>MOL_PROPERTY
Coulomb
SciTegic.value.DoubleValue
-0.164

@<SCITEGIC>MOL_PROPERTY
VdW
SciTegic.value.DoubleValue
0.751

@<SCITEGIC>MOL_PROPERTY
VdW6
SciTegic.value.DoubleValue
-6.881

@<SCITEGIC>MOL_PROPERTY
VdW12
SciTegic.value.DoubleValue
7.631

@<SCITEGIC>MOL_PROPERTY
Bond
SciTegic.value.DoubleValue
0.163

@<SCITEGIC>MOL_PROPERTY
Angle
SciTegic.value.DoubleValue
2.998

@<SCITEGIC>MOL_PROPERTY
Pdih
SciTegic.value.DoubleValue
6.482

@<SCITEGIC>MOL_PROPERTY
Idih
SciTegic.value.DoubleValue
0.001

@<SCITEGIC>MOL_PROPERTY
Tether
SciTegic.value.DoubleValue
0.000

@<TRIPOS>MOLECULE
guest-7_confgen4.mol2 : confsearch ligand conformer 473
          19          18           1
SMALL
USER_CHARGES
 
@<TRIPOS>ATOM
       1    C1      20.202905   16.714341   23.524131 C.2        1 MOL1         0.6115
       2    O1      19.089222   16.607591   23.998651 O.co2      1 MOL1        -0.6776
       3    O2      21.222104   16.611882   24.178334 O.co2      1 MOL1        -0.6776
       4    C2      20.326502   16.917929   22.015239 C.3        1 MOL1        -0.2013
       5    H1      19.322612   16.932566   21.573750 H          1 MOL1         0.0727
       6    H2      20.827996   16.025249   21.623768 H          1 MOL1         0.0727
       7    C3      21.124896   18.178437   21.578417 C.3        1 MOL1        -0.1910
       8    H3      22.040847   18.268442   22.178813 H          1 MOL1         0.0729
       9    H4      21.456717   18.027004   20.542377 H          1 MOL1         0.0729
      10    C4      20.324848   19.503629   21.628068 C.3        1 MOL1        -0.1909
      11    H5      19.414622   19.409160   21.020286 H          1 MOL1         0.0729
      12    H6      20.931838   20.287550   21.154741 H          1 MOL1         0.0729
      13    C5      19.950949   19.960649   23.055270 C.3        1 MOL1        -0.1884
      14    H7      19.236663   19.256848   23.501212 H          1 MOL1         0.0729
      15    H8      20.845512   19.958678   23.693354 H          1 MOL1         0.0729
      16    C6      19.324725   21.369787   23.051941 C.3        1 MOL1        -0.2899
      17    H9      18.412898   21.392215   22.440856 H          1 MOL1         0.0741
      18    H10     19.057113   21.675874   24.071618 H          1 MOL1         0.0741
      19    H11     20.026628   22.111528   22.648866 H          1 MOL1         0.0741
@<TRIPOS>BOND
    1     1     2    1
    2     1     3    2
    3     1     4    1
    4     4     5    1
    5     4     6    1
    6     4     7    1
    7     7     8    1
    8     7     9    1
    9     7    10    1
   10    10    11    1
   11    10    12    1
   12    10    13    1
   13    13    14    1
   14    13    15    1
   15    13    16    1
   16    16    17    1
   17    16    18    1
   18    16    19    1
@<TRIPOS>SUBSTRUCTURE
       1 MOL1            1 RESIDUE      1      MOL     
@<SCITEGIC>MOL_PROPERTY
VConf Rank
SciTegic.value.IntegerValue
473

@<SCITEGIC>MOL_PROPERTY
Conf_Id
SciTegic.value.IntegerValue
25

@<SCITEGIC>MOL_PROPERTY
Delta U+W
SciTegic.value.DoubleValue
2.065

@<SCITEGIC>MOL_PROPERTY
U+W
SciTegic.value.DoubleValue
-52.826

@<SCITEGIC>MOL_PROPERTY
Grad RMS
SciTegic.value.DoubleValue
0.000000

@<SCITEGIC>MOL_PROPERTY
U
SciTegic.value.DoubleValue
10.967

@<SCITEGIC>MOL_PROPERTY
W
SciTegic.value.DoubleValue
-63.794

@<SCITEGIC>MOL_PROPERTY
W(PB)
SciTegic.value.DoubleValue
-65.830

@<SCITEGIC>MOL_PROPERTY
W(SA)
SciTegic.value.DoubleValue
2.036

@<SCITEGIC>MOL_PROPERTY
Valence
SciTegic.value.DoubleValue
8.609

@<SCITEGIC>MOL_PROPERTY
Coulomb
SciTegic.value.DoubleValue
1.892

@<SCITEGIC>MOL_PROPERTY
VdW
SciTegic.value.DoubleValue
0.467

@<SCITEGIC>MOL_PROPERTY
VdW6
SciTegic.value.DoubleValue
-7.569

@<SCITEGIC>MOL_PROPERTY
VdW12
SciTegic.value.DoubleValue
8.036

@<SCITEGIC>MOL_PROPERTY
Bond
SciTegic.value.DoubleValue
0.170

@<SCITEGIC>MOL_PROPERTY
Angle
SciTegic.value.DoubleValue
3.195

@<SCITEGIC>MOL_PROPERTY
Pdih
SciTegic.value.DoubleValue
5.237

@<SCITEGIC>MOL_PROPERTY
Idih
SciTegic.value.DoubleValue
0.007

@<SCITEGIC>MOL_PROPERTY
Tether
SciTegic.value.DoubleValue
0.000

@<TRIPOS>MOLECULE
guest-7_confgen4.mol2 : confsearch ligand conformer 474
          19          18           1
SMALL
USER_CHARGES
 
@<TRIPOS>ATOM
       1    C1      19.763853   17.936366   24.717888 C.2        1 MOL1         0.6115
       2    O1      19.931780   16.733525   24.670750 O.co2      1 MOL1        -0.6776
       3    O2      18.722992   18.453625   25.072717 O.co2      1 MOL1        -0.6776
       4    C2      20.942982   18.847377   24.381440 C.3        1 MOL1        -0.2013
       5    H1      21.717225   18.638177   25.128707 H          1 MOL1         0.0727
       6    H2      20.640271   19.891394   24.527443 H          1 MOL1         0.0727
       7    C3      21.546324   18.655577   22.961469 C.3        1 MOL1        -0.1910
       8    H3      22.564758   19.066880   22.967787 H          1 MOL1         0.0729
       9    H4      21.654604   17.584298   22.741970 H          1 MOL1         0.0729
      10    C4      20.762882   19.354556   21.822907 C.3        1 MOL1        -0.1909
      11    H5      21.359892   19.283708   20.903357 H          1 MOL1         0.0729
      12    H6      20.664632   20.425918   22.045097 H          1 MOL1         0.0729
      13    C5      19.367121   18.749799   21.555147 C.3        1 MOL1        -0.1884
      14    H7      19.450209   17.661005   21.432592 H          1 MOL1         0.0729
      15    H8      18.708514   18.927005   22.414938 H          1 MOL1         0.0729
      16    C6      18.717958   19.360882   20.296973 C.3        1 MOL1        -0.2899
      17    H9      17.724169   18.927160   20.125758 H          1 MOL1         0.0741
      18    H10     18.599878   20.447057   20.404858 H          1 MOL1         0.0741
      19    H11     19.329499   19.168743   19.405672 H          1 MOL1         0.0741
@<TRIPOS>BOND
    1     1     2    1
    2     1     3    2
    3     1     4    1
    4     4     5    1
    5     4     6    1
    6     4     7    1
    7     7     8    1
    8     7     9    1
    9     7    10    1
   10    10    11    1
   11    10    12    1
   12    10    13    1
   13    13    14    1
   14    13    15    1
   15    13    16    1
   16    16    17    1
   17    16    18    1
   18    16    19    1
@<TRIPOS>SUBSTRUCTURE
       1 MOL1            1 RESIDUE      1      MOL     
@<SCITEGIC>MOL_PROPERTY
VConf Rank
SciTegic.value.IntegerValue
474

@<SCITEGIC>MOL_PROPERTY
Conf_Id
SciTegic.value.IntegerValue
52

@<SCITEGIC>MOL_PROPERTY
Delta U+W
SciTegic.value.DoubleValue
2.070

@<SCITEGIC>MOL_PROPERTY
U+W
SciTegic.value.DoubleValue
-52.822

@<SCITEGIC>MOL_PROPERTY
Grad RMS
SciTegic.value.DoubleValue
0.000000

@<SCITEGIC>MOL_PROPERTY
U
SciTegic.value.DoubleValue
10.967

@<SCITEGIC>MOL_PROPERTY
W
SciTegic.value.DoubleValue
-63.789

@<SCITEGIC>MOL_PROPERTY
W(PB)
SciTegic.value.DoubleValue
-65.837

@<SCITEGIC>MOL_PROPERTY
W(SA)
SciTegic.value.DoubleValue
2.048

@<SCITEGIC>MOL_PROPERTY
Valence
SciTegic.value.DoubleValue
8.609

@<SCITEGIC>MOL_PROPERTY
Coulomb
SciTegic.value.DoubleValue
1.892

@<SCITEGIC>MOL_PROPERTY
VdW
SciTegic.value.DoubleValue
0.467

@<SCITEGIC>MOL_PROPERTY
VdW6
SciTegic.value.DoubleValue
-7.569

@<SCITEGIC>MOL_PROPERTY
VdW12
SciTegic.value.DoubleValue
8.035

@<SCITEGIC>MOL_PROPERTY
Bond
SciTegic.value.DoubleValue
0.170

@<SCITEGIC>MOL_PROPERTY
Angle
SciTegic.value.DoubleValue
3.196

@<SCITEGIC>MOL_PROPERTY
Pdih
SciTegic.value.DoubleValue
5.237

@<SCITEGIC>MOL_PROPERTY
Idih
SciTegic.value.DoubleValue
0.007

@<SCITEGIC>MOL_PROPERTY
Tether
SciTegic.value.DoubleValue
0.000

@<TRIPOS>MOLECULE
guest-7_confgen4.mol2 : confsearch ligand conformer 475
          19          18           1
SMALL
USER_CHARGES
 
@<TRIPOS>ATOM
       1    C1      18.740898   20.613547   21.978918 C.2        1 MOL1         0.6115
       2    O1      19.291900   21.069088   20.995559 O.co2      1 MOL1        -0.6776
       3    O2      17.552877   20.361090   22.018532 O.co2      1 MOL1        -0.6776
       4    C2      19.546959   20.466961   23.270491 C.3        1 MOL1        -0.2013
       5    H1      18.951195   19.908142   24.002150 H          1 MOL1         0.0727
       6    H2      19.663085   21.480415   23.671366 H          1 MOL1         0.0727
       7    C3      20.954565   19.822612   23.119390 C.3        1 MOL1        -0.1910
       8    H3      21.447429   20.204862   22.214818 H          1 MOL1         0.0729
       9    H4      21.573067   20.162645   23.960929 H          1 MOL1         0.0729
      10    C4      20.979876   18.272600   23.119432 C.3        1 MOL1        -0.1909
      11    H5      20.578698   17.890788   24.068280 H          1 MOL1         0.0729
      12    H6      22.032959   17.960396   23.096841 H          1 MOL1         0.0729
      13    C5      20.257683   17.606425   21.923339 C.3        1 MOL1        -0.1884
      14    H7      20.187748   18.305848   21.078785 H          1 MOL1         0.0729
      15    H8      20.864053   16.761549   21.568871 H          1 MOL1         0.0729
      16    C6      18.858119   17.070564   22.293740 C.3        1 MOL1        -0.2899
      17    H9      18.927939   16.296841   23.069249 H          1 MOL1         0.0741
      18    H10     18.208619   17.869452   22.670111 H          1 MOL1         0.0741
      19    H11     18.371062   16.626400   21.416180 H          1 MOL1         0.0741
@<TRIPOS>BOND
    1     1     2    1
    2     1     3    2
    3     1     4    1
    4     4     5    1
    5     4     6    1
    6     4     7    1
    7     7     8    1
    8     7     9    1
    9     7    10    1
   10    10    11    1
   11    10    12    1
   12    10    13    1
   13    13    14    1
   14    13    15    1
   15    13    16    1
   16    16    17    1
   17    16    18    1
   18    16    19    1
@<TRIPOS>SUBSTRUCTURE
       1 MOL1            1 RESIDUE      1      MOL     
@<SCITEGIC>MOL_PROPERTY
VConf Rank
SciTegic.value.IntegerValue
475

@<SCITEGIC>MOL_PROPERTY
Conf_Id
SciTegic.value.IntegerValue
66

@<SCITEGIC>MOL_PROPERTY
Delta U+W
SciTegic.value.DoubleValue
5.819

@<SCITEGIC>MOL_PROPERTY
U+W
SciTegic.value.DoubleValue
-49.072

@<SCITEGIC>MOL_PROPERTY
Grad RMS
SciTegic.value.DoubleValue
0.000000

@<SCITEGIC>MOL_PROPERTY
U
SciTegic.value.DoubleValue
15.324

@<SCITEGIC>MOL_PROPERTY
W
SciTegic.value.DoubleValue
-64.396

@<SCITEGIC>MOL_PROPERTY
W(PB)
SciTegic.value.DoubleValue
-66.382

@<SCITEGIC>MOL_PROPERTY
W(SA)
SciTegic.value.DoubleValue
1.986

@<SCITEGIC>MOL_PROPERTY
Valence
SciTegic.value.DoubleValue
11.748

@<SCITEGIC>MOL_PROPERTY
Coulomb
SciTegic.value.DoubleValue
3.201

@<SCITEGIC>MOL_PROPERTY
VdW
SciTegic.value.DoubleValue
0.375

@<SCITEGIC>MOL_PROPERTY
VdW6
SciTegic.value.DoubleValue
-8.854

@<SCITEGIC>MOL_PROPERTY
VdW12
SciTegic.value.DoubleValue
9.229

@<SCITEGIC>MOL_PROPERTY
Bond
SciTegic.value.DoubleValue
0.216

@<SCITEGIC>MOL_PROPERTY
Angle
SciTegic.value.DoubleValue
3.812

@<SCITEGIC>MOL_PROPERTY
Pdih
SciTegic.value.DoubleValue
7.699

@<SCITEGIC>MOL_PROPERTY
Idih
SciTegic.value.DoubleValue
0.022

@<SCITEGIC>MOL_PROPERTY
Tether
SciTegic.value.DoubleValue
0.000

@<TRIPOS>MOLECULE
guest-7_confgen4.mol2 : confsearch ligand conformer 476
          19          18           1
SMALL
USER_CHARGES
 
@<TRIPOS>ATOM
       1    C1      20.022483   17.297165   25.146757 C.2        1 MOL1         0.6115
       2    O1      19.668974   16.261656   25.674406 O.co2      1 MOL1        -0.6776
       3    O2      20.606882   18.180296   25.744003 O.co2      1 MOL1        -0.6776
       4    C2      19.702636   17.468226   23.660785 C.3        1 MOL1        -0.2013
       5    H1      18.616989   17.366944   23.546064 H          1 MOL1         0.0727
       6    H2      20.161377   16.626677   23.128429 H          1 MOL1         0.0727
       7    C3      20.173596   18.806099   23.030923 C.3        1 MOL1        -0.1910
       8    H3      19.715077   19.645157   23.572411 H          1 MOL1         0.0729
       9    H4      21.261076   18.904135   23.154389 H          1 MOL1         0.0729
      10    C4      19.810807   18.894423   21.532642 C.3        1 MOL1        -0.1909
      11    H5      18.723245   18.796004   21.411511 H          1 MOL1         0.0729
      12    H6      20.270100   18.054628   20.993250 H          1 MOL1         0.0729
      13    C5      20.279818   20.225143   20.908457 C.3        1 MOL1        -0.1884
      14    H7      19.821011   21.067776   21.444143 H          1 MOL1         0.0729
      15    H8      21.367687   20.326434   21.025822 H          1 MOL1         0.0729
      16    C6      19.915895   20.309928   19.412676 C.3        1 MOL1        -0.2899
      17    H9      18.829573   20.242943   19.268322 H          1 MOL1         0.0741
      18    H10     20.256544   21.261888   18.985080 H          1 MOL1         0.0741
      19    H11     20.387885   19.495999   18.846844 H          1 MOL1         0.0741
@<TRIPOS>BOND
    1     1     2    1
    2     1     3    2
    3     1     4    1
    4     4     5    1
    5     4     6    1
    6     4     7    1
    7     7     8    1
    8     7     9    1
    9     7    10    1
   10    10    11    1
   11    10    12    1
   12    10    13    1
   13    13    14    1
   14    13    15    1
   15    13    16    1
   16    16    17    1
   17    16    18    1
   18    16    19    1
@<TRIPOS>SUBSTRUCTURE
       1 MOL1            1 RESIDUE      1      MOL     
@<SCITEGIC>MOL_PROPERTY
VConf Rank
SciTegic.value.IntegerValue
476

@<SCITEGIC>MOL_PROPERTY
Conf_Id
SciTegic.value.IntegerValue
0

@<SCITEGIC>MOL_PROPERTY
Delta U+W
SciTegic.value.DoubleValue
0.000

@<SCITEGIC>MOL_PROPERTY
U+W
SciTegic.value.DoubleValue
-54.891

@<SCITEGIC>MOL_PROPERTY
Grad RMS
SciTegic.value.DoubleValue
0.000000

@<SCITEGIC>MOL_PROPERTY
U
SciTegic.value.DoubleValue
6.966

@<SCITEGIC>MOL_PROPERTY
W
SciTegic.value.DoubleValue
-61.857

@<SCITEGIC>MOL_PROPERTY
W(PB)
SciTegic.value.DoubleValue
-63.965

@<SCITEGIC>MOL_PROPERTY
W(SA)
SciTegic.value.DoubleValue
2.108

@<SCITEGIC>MOL_PROPERTY
Valence
SciTegic.value.DoubleValue
7.175

@<SCITEGIC>MOL_PROPERTY
Coulomb
SciTegic.value.DoubleValue
-1.360

@<SCITEGIC>MOL_PROPERTY
VdW
SciTegic.value.DoubleValue
1.151

@<SCITEGIC>MOL_PROPERTY
VdW6
SciTegic.value.DoubleValue
-5.641

@<SCITEGIC>MOL_PROPERTY
VdW12
SciTegic.value.DoubleValue
6.792

@<SCITEGIC>MOL_PROPERTY
Bond
SciTegic.value.DoubleValue
0.119

@<SCITEGIC>MOL_PROPERTY
Angle
SciTegic.value.DoubleValue
2.715

@<SCITEGIC>MOL_PROPERTY
Pdih
SciTegic.value.DoubleValue
4.340

@<SCITEGIC>MOL_PROPERTY
Idih
SciTegic.value.DoubleValue
0.000

@<SCITEGIC>MOL_PROPERTY
Tether
SciTegic.value.DoubleValue
0.000

@<TRIPOS>MOLECULE
guest-7_confgen4.mol2 : confsearch ligand conformer 477
          19          18           1
SMALL
USER_CHARGES
 
@<TRIPOS>ATOM
       1    C1      23.305135   18.808337   22.374744 C.2        1 MOL1         0.6115
       2    O1      23.895221   18.864335   21.314158 O.co2      1 MOL1        -0.6776
       3    O2      23.762254   19.222607   23.421456 O.co2      1 MOL1        -0.6776
       4    C2      21.905711   18.203547   22.389259 C.3        1 MOL1        -0.2013
       5    H1      21.755410   17.715278   23.359694 H          1 MOL1         0.0727
       6    H2      21.864842   17.420356   21.622652 H          1 MOL1         0.0727
       7    C3      20.793806   19.252456   22.141126 C.3        1 MOL1        -0.1910
       8    H3      20.856198   20.035929   22.909128 H          1 MOL1         0.0729
       9    H4      20.965744   19.741123   21.172007 H          1 MOL1         0.0729
      10    C4      19.387761   18.615052   22.160630 C.3        1 MOL1        -0.1909
      11    H5      19.219463   18.126227   23.130124 H          1 MOL1         0.0729
      12    H6      19.328991   17.831463   21.392694 H          1 MOL1         0.0729
      13    C5      18.282100   19.662284   21.913259 C.3        1 MOL1        -0.1884
      14    H7      18.336398   20.446936   22.680634 H          1 MOL1         0.0729
      15    H8      18.445857   20.152138   20.943352 H          1 MOL1         0.0729
      16    C6      16.879564   19.022409   21.933475 C.3        1 MOL1        -0.2899
      17    H9      16.105860   19.780710   21.756078 H          1 MOL1         0.0741
      18    H10     16.786799   18.254720   21.154070 H          1 MOL1         0.0741
      19    H11     16.676545   18.551695   22.904369 H          1 MOL1         0.0741
@<TRIPOS>BOND
    1     1     2    1
    2     1     3    2
    3     1     4    1
    4     4     5    1
    5     4     6    1
    6     4     7    1
    7     7     8    1
    8     7     9    1
    9     7    10    1
   10    10    11    1
   11    10    12    1
   12    10    13    1
   13    13    14    1
   14    13    15    1
   15    13    16    1
   16    16    17    1
   17    16    18    1
   18    16    19    1
@<TRIPOS>SUBSTRUCTURE
       1 MOL1            1 RESIDUE      1      MOL     
@<SCITEGIC>MOL_PROPERTY
VConf Rank
SciTegic.value.IntegerValue
477

@<SCITEGIC>MOL_PROPERTY
Conf_Id
SciTegic.value.IntegerValue
18

@<SCITEGIC>MOL_PROPERTY
Delta U+W
SciTegic.value.DoubleValue
-1.199

@<SCITEGIC>MOL_PROPERTY
U+W
SciTegic.value.DoubleValue
-56.090

@<SCITEGIC>MOL_PROPERTY
Grad RMS
SciTegic.value.DoubleValue
0.000000

@<SCITEGIC>MOL_PROPERTY
U
SciTegic.value.DoubleValue
5.975

@<SCITEGIC>MOL_PROPERTY
W
SciTegic.value.DoubleValue
-62.066

@<SCITEGIC>MOL_PROPERTY
W(PB)
SciTegic.value.DoubleValue
-64.219

@<SCITEGIC>MOL_PROPERTY
W(SA)
SciTegic.value.DoubleValue
2.153

@<SCITEGIC>MOL_PROPERTY
Valence
SciTegic.value.DoubleValue
6.673

@<SCITEGIC>MOL_PROPERTY
Coulomb
SciTegic.value.DoubleValue
-1.307

@<SCITEGIC>MOL_PROPERTY
VdW
SciTegic.value.DoubleValue
0.610

@<SCITEGIC>MOL_PROPERTY
VdW6
SciTegic.value.DoubleValue
-5.351

@<SCITEGIC>MOL_PROPERTY
VdW12
SciTegic.value.DoubleValue
5.961

@<SCITEGIC>MOL_PROPERTY
Bond
SciTegic.value.DoubleValue
0.086

@<SCITEGIC>MOL_PROPERTY
Angle
SciTegic.value.DoubleValue
2.253

@<SCITEGIC>MOL_PROPERTY
Pdih
SciTegic.value.DoubleValue
4.333

@<SCITEGIC>MOL_PROPERTY
Idih
SciTegic.value.DoubleValue
0.001

@<SCITEGIC>MOL_PROPERTY
Tether
SciTegic.value.DoubleValue
0.000

@<TRIPOS>MOLECULE
guest-7_confgen4.mol2 : confsearch ligand conformer 478
          19          18           1
SMALL
USER_CHARGES
 
@<TRIPOS>ATOM
       1    C1      21.410405   20.270064   19.640796 C.2        1 MOL1         0.6115
       2    O1      22.543389   20.009576   19.287552 O.co2      1 MOL1        -0.6776
       3    O2      20.588427   20.804187   18.922933 O.co2      1 MOL1        -0.6776
       4    C2      20.990842   19.886298   21.055381 C.3        1 MOL1        -0.2013
       5    H1      20.267716   20.632833   21.402681 H          1 MOL1         0.0727
       6    H2      21.872184   19.960369   21.703656 H          1 MOL1         0.0727
       7    C3      20.386043   18.460505   21.136090 C.3        1 MOL1        -0.1910
       8    H3      19.479001   18.411110   20.517911 H          1 MOL1         0.0729
       9    H4      21.099679   17.749649   20.696965 H          1 MOL1         0.0729
      10    C4      20.060566   18.008211   22.579360 C.3        1 MOL1        -0.1909
      11    H5      20.971142   18.050605   23.192597 H          1 MOL1         0.0729
      12    H6      19.752374   16.954007   22.553178 H          1 MOL1         0.0729
      13    C5      18.943628   18.841296   23.247141 C.3        1 MOL1        -0.1884
      14    H7      19.262321   19.886622   23.352438 H          1 MOL1         0.0729
      15    H8      18.049116   18.841036   22.609085 H          1 MOL1         0.0729
      16    C6      18.579835   18.285807   24.638671 C.3        1 MOL1        -0.2899
      17    H9      17.787943   18.889318   25.101026 H          1 MOL1         0.0741
      18    H10     18.219178   17.251301   24.567198 H          1 MOL1         0.0741
      19    H11     19.450858   18.300067   25.306894 H          1 MOL1         0.0741
@<TRIPOS>BOND
    1     1     2    1
    2     1     3    2
    3     1     4    1
    4     4     5    1
    5     4     6    1
    6     4     7    1
    7     7     8    1
    8     7     9    1
    9     7    10    1
   10    10    11    1
   11    10    12    1
   12    10    13    1
   13    13    14    1
   14    13    15    1
   15    13    16    1
   16    16    17    1
   17    16    18    1
   18    16    19    1
@<TRIPOS>SUBSTRUCTURE
       1 MOL1            1 RESIDUE      1      MOL     
@<SCITEGIC>MOL_PROPERTY
VConf Rank
SciTegic.value.IntegerValue
478

@<SCITEGIC>MOL_PROPERTY
Conf_Id
SciTegic.value.IntegerValue
34

@<SCITEGIC>MOL_PROPERTY
Delta U+W
SciTegic.value.DoubleValue
-0.563

@<SCITEGIC>MOL_PROPERTY
U+W
SciTegic.value.DoubleValue
-55.455

@<SCITEGIC>MOL_PROPERTY
Grad RMS
SciTegic.value.DoubleValue
0.000000

@<SCITEGIC>MOL_PROPERTY
U
SciTegic.value.DoubleValue
6.914

@<SCITEGIC>MOL_PROPERTY
W
SciTegic.value.DoubleValue
-62.369

@<SCITEGIC>MOL_PROPERTY
W(PB)
SciTegic.value.DoubleValue
-64.446

@<SCITEGIC>MOL_PROPERTY
W(SA)
SciTegic.value.DoubleValue
2.077

@<SCITEGIC>MOL_PROPERTY
Valence
SciTegic.value.DoubleValue
7.196

@<SCITEGIC>MOL_PROPERTY
Coulomb
SciTegic.value.DoubleValue
-1.020

@<SCITEGIC>MOL_PROPERTY
VdW
SciTegic.value.DoubleValue
0.738

@<SCITEGIC>MOL_PROPERTY
VdW6
SciTegic.value.DoubleValue
-6.010

@<SCITEGIC>MOL_PROPERTY
VdW12
SciTegic.value.DoubleValue
6.748

@<SCITEGIC>MOL_PROPERTY
Bond
SciTegic.value.DoubleValue
0.126

@<SCITEGIC>MOL_PROPERTY
Angle
SciTegic.value.DoubleValue
2.499

@<SCITEGIC>MOL_PROPERTY
Pdih
SciTegic.value.DoubleValue
4.570

@<SCITEGIC>MOL_PROPERTY
Idih
SciTegic.value.DoubleValue
0.001

@<SCITEGIC>MOL_PROPERTY
Tether
SciTegic.value.DoubleValue
0.000

@<TRIPOS>MOLECULE
guest-7_confgen4.mol2 : confsearch ligand conformer 479
          19          18           1
SMALL
USER_CHARGES
 
@<TRIPOS>ATOM
       1    C1      20.804746   18.734419   25.283335 C.2        1 MOL1         0.6115
       2    O1      21.640504   19.448860   25.800415 O.co2      1 MOL1        -0.6776
       3    O2      20.426350   17.685114   25.765038 O.co2      1 MOL1        -0.6776
       4    C2      20.214735   19.167691   23.945979 C.3        1 MOL1        -0.2013
       5    H1      20.188845   20.263766   23.924544 H          1 MOL1         0.0727
       6    H2      19.177195   18.816883   23.910075 H          1 MOL1         0.0727
       7    C3      21.016544   18.627975   22.733135 C.3        1 MOL1        -0.1910
       8    H3      22.069312   18.921028   22.848121 H          1 MOL1         0.0729
       9    H4      20.997907   17.529381   22.740462 H          1 MOL1         0.0729
      10    C4      20.502607   19.150668   21.370716 C.3        1 MOL1        -0.1909
      11    H5      21.195031   18.817081   20.585680 H          1 MOL1         0.0729
      12    H6      20.530520   20.248929   21.363508 H          1 MOL1         0.0729
      13    C5      19.077914   18.663559   21.023605 C.3        1 MOL1        -0.1884
      14    H7      19.036861   17.567050   21.080629 H          1 MOL1         0.0729
      15    H8      18.356665   19.050134   21.755536 H          1 MOL1         0.0729
      16    C6      18.653255   19.118917   19.613080 C.3        1 MOL1        -0.2899
      17    H9      18.658905   20.214102   19.535975 H          1 MOL1         0.0741
      18    H10     19.332208   18.717719   18.849241 H          1 MOL1         0.0741
      19    H11     17.638945   18.768066   19.382497 H          1 MOL1         0.0741
@<TRIPOS>BOND
    1     1     2    1
    2     1     3    2
    3     1     4    1
    4     4     5    1
    5     4     6    1
    6     4     7    1
    7     7     8    1
    8     7     9    1
    9     7    10    1
   10    10    11    1
   11    10    12    1
   12    10    13    1
   13    13    14    1
   14    13    15    1
   15    13    16    1
   16    16    17    1
   17    16    18    1
   18    16    19    1
@<TRIPOS>SUBSTRUCTURE
       1 MOL1            1 RESIDUE      1      MOL     
@<SCITEGIC>MOL_PROPERTY
VConf Rank
SciTegic.value.IntegerValue
479

@<SCITEGIC>MOL_PROPERTY
Conf_Id
SciTegic.value.IntegerValue
33

@<SCITEGIC>MOL_PROPERTY
Delta U+W
SciTegic.value.DoubleValue
-0.526

@<SCITEGIC>MOL_PROPERTY
U+W
SciTegic.value.DoubleValue
-55.418

@<SCITEGIC>MOL_PROPERTY
Grad RMS
SciTegic.value.DoubleValue
0.000000

@<SCITEGIC>MOL_PROPERTY
U
SciTegic.value.DoubleValue
6.914

@<SCITEGIC>MOL_PROPERTY
W
SciTegic.value.DoubleValue
-62.332

@<SCITEGIC>MOL_PROPERTY
W(PB)
SciTegic.value.DoubleValue
-64.421

@<SCITEGIC>MOL_PROPERTY
W(SA)
SciTegic.value.DoubleValue
2.090

@<SCITEGIC>MOL_PROPERTY
Valence
SciTegic.value.DoubleValue
7.196

@<SCITEGIC>MOL_PROPERTY
Coulomb
SciTegic.value.DoubleValue
-1.020

@<SCITEGIC>MOL_PROPERTY
VdW
SciTegic.value.DoubleValue
0.738

@<SCITEGIC>MOL_PROPERTY
VdW6
SciTegic.value.DoubleValue
-6.010

@<SCITEGIC>MOL_PROPERTY
VdW12
SciTegic.value.DoubleValue
6.748

@<SCITEGIC>MOL_PROPERTY
Bond
SciTegic.value.DoubleValue
0.126

@<SCITEGIC>MOL_PROPERTY
Angle
SciTegic.value.DoubleValue
2.499

@<SCITEGIC>MOL_PROPERTY
Pdih
SciTegic.value.DoubleValue
4.570

@<SCITEGIC>MOL_PROPERTY
Idih
SciTegic.value.DoubleValue
0.001

@<SCITEGIC>MOL_PROPERTY
Tether
SciTegic.value.DoubleValue
0.000

@<TRIPOS>MOLECULE
guest-7_confgen4.mol2 : confsearch ligand conformer 480
          19          18           1
SMALL
USER_CHARGES
 
@<TRIPOS>ATOM
       1    C1      19.943894   15.912492   21.348475 C.2        1 MOL1         0.6115
       2    O1      20.386594   15.818585   20.220904 O.co2      1 MOL1        -0.6776
       3    O2      20.132690   15.083331   22.216285 O.co2      1 MOL1        -0.6776
       4    C2      19.120895   17.147167   21.698832 C.3        1 MOL1        -0.2013
       5    H1      18.367095   16.854953   22.439827 H          1 MOL1         0.0727
       6    H2      18.583229   17.465657   20.797608 H          1 MOL1         0.0727
       7    C3      19.984175   18.311414   22.244470 C.3        1 MOL1        -0.1910
       8    H3      20.523199   17.974256   23.140581 H          1 MOL1         0.0729
       9    H4      20.742054   18.573616   21.494476 H          1 MOL1         0.0729
      10    C4      19.125024   19.550215   22.587826 C.3        1 MOL1        -0.1909
      11    H5      18.329160   19.251585   23.283824 H          1 MOL1         0.0729
      12    H6      18.624451   19.916787   21.681152 H          1 MOL1         0.0729
      13    C5      19.934578   20.699338   23.231818 C.3        1 MOL1        -0.1884
      14    H7      19.237185   21.486134   23.550941 H          1 MOL1         0.0729
      15    H8      20.432352   20.337952   24.142284 H          1 MOL1         0.0729
      16    C6      20.979996   21.318644   22.279236 C.3        1 MOL1        -0.2899
      17    H9      20.509342   21.660979   21.348404 H          1 MOL1         0.0741
      18    H10     21.464152   22.183489   22.751018 H          1 MOL1         0.0741
      19    H11     21.765925   20.597220   22.023102 H          1 MOL1         0.0741
@<TRIPOS>BOND
    1     1     2    1
    2     1     3    2
    3     1     4    1
    4     4     5    1
    5     4     6    1
    6     4     7    1
    7     7     8    1
    8     7     9    1
    9     7    10    1
   10    10    11    1
   11    10    12    1
   12    10    13    1
   13    13    14    1
   14    13    15    1
   15    13    16    1
   16    16    17    1
   17    16    18    1
   18    16    19    1
@<TRIPOS>SUBSTRUCTURE
       1 MOL1            1 RESIDUE      1      MOL     
@<SCITEGIC>MOL_PROPERTY
VConf Rank
SciTegic.value.IntegerValue
480

@<SCITEGIC>MOL_PROPERTY
Conf_Id
SciTegic.value.IntegerValue
42

@<SCITEGIC>MOL_PROPERTY
Delta U+W
SciTegic.value.DoubleValue
-0.344

@<SCITEGIC>MOL_PROPERTY
U+W
SciTegic.value.DoubleValue
-55.236

@<SCITEGIC>MOL_PROPERTY
Grad RMS
SciTegic.value.DoubleValue
0.000000

@<SCITEGIC>MOL_PROPERTY
U
SciTegic.value.DoubleValue
7.244

@<SCITEGIC>MOL_PROPERTY
W
SciTegic.value.DoubleValue
-62.479

@<SCITEGIC>MOL_PROPERTY
W(PB)
SciTegic.value.DoubleValue
-64.610

@<SCITEGIC>MOL_PROPERTY
W(SA)
SciTegic.value.DoubleValue
2.130

@<SCITEGIC>MOL_PROPERTY
Valence
SciTegic.value.DoubleValue
7.174

@<SCITEGIC>MOL_PROPERTY
Coulomb
SciTegic.value.DoubleValue
-0.669

@<SCITEGIC>MOL_PROPERTY
VdW
SciTegic.value.DoubleValue
0.739

@<SCITEGIC>MOL_PROPERTY
VdW6
SciTegic.value.DoubleValue
-5.969

@<SCITEGIC>MOL_PROPERTY
VdW12
SciTegic.value.DoubleValue
6.708

@<SCITEGIC>MOL_PROPERTY
Bond
SciTegic.value.DoubleValue
0.116

@<SCITEGIC>MOL_PROPERTY
Angle
SciTegic.value.DoubleValue
2.481

@<SCITEGIC>MOL_PROPERTY
Pdih
SciTegic.value.DoubleValue
4.576

@<SCITEGIC>MOL_PROPERTY
Idih
SciTegic.value.DoubleValue
0.000

@<SCITEGIC>MOL_PROPERTY
Tether
SciTegic.value.DoubleValue
0.000

@<TRIPOS>MOLECULE
guest-7_confgen4.mol2 : confsearch ligand conformer 481
          19          18           1
SMALL
USER_CHARGES
 
@<TRIPOS>ATOM
       1    C1      21.247416   17.942120   19.472010 C.2        1 MOL1         0.6115
       2    O1      20.928861   18.710022   18.585969 O.co2      1 MOL1        -0.6776
       3    O2      21.355115   16.742069   19.315405 O.co2      1 MOL1        -0.6776
       4    C2      21.508701   18.513485   20.861172 C.3        1 MOL1        -0.2013
       5    H1      21.921379   19.522648   20.742795 H          1 MOL1         0.0727
       6    H2      22.281665   17.901367   21.341294 H          1 MOL1         0.0727
       7    C3      20.236570   18.557388   21.743329 C.3        1 MOL1        -0.1910
       8    H3      19.471897   19.159040   21.234495 H          1 MOL1         0.0729
       9    H4      19.830201   17.541595   21.844649 H          1 MOL1         0.0729
      10    C4      20.529795   19.143928   23.143561 C.3        1 MOL1        -0.1909
      11    H5      20.889734   20.177192   23.044485 H          1 MOL1         0.0729
      12    H6      21.346147   18.572846   23.606623 H          1 MOL1         0.0729
      13    C5      19.308465   19.110616   24.091101 C.3        1 MOL1        -0.1884
      14    H7      18.948933   18.077751   24.197176 H          1 MOL1         0.0729
      15    H8      19.629643   19.431652   25.091614 H          1 MOL1         0.0729
      16    C6      18.149626   20.018799   23.626182 C.3        1 MOL1        -0.2899
      17    H9      17.718650   19.666308   22.680796 H          1 MOL1         0.0741
      18    H10     17.346181   20.028675   24.374059 H          1 MOL1         0.0741
      19    H11     18.492538   21.052053   23.484922 H          1 MOL1         0.0741
@<TRIPOS>BOND
    1     1     2    1
    2     1     3    2
    3     1     4    1
    4     4     5    1
    5     4     6    1
    6     4     7    1
    7     7     8    1
    8     7     9    1
    9     7    10    1
   10    10    11    1
   11    10    12    1
   12    10    13    1
   13    13    14    1
   14    13    15    1
   15    13    16    1
   16    16    17    1
   17    16    18    1
   18    16    19    1
@<TRIPOS>SUBSTRUCTURE
       1 MOL1            1 RESIDUE      1      MOL     
@<SCITEGIC>MOL_PROPERTY
VConf Rank
SciTegic.value.IntegerValue
481

@<SCITEGIC>MOL_PROPERTY
Conf_Id
SciTegic.value.IntegerValue
41

@<SCITEGIC>MOL_PROPERTY
Delta U+W
SciTegic.value.DoubleValue
-0.361

@<SCITEGIC>MOL_PROPERTY
U+W
SciTegic.value.DoubleValue
-55.252

@<SCITEGIC>MOL_PROPERTY
Grad RMS
SciTegic.value.DoubleValue
0.000000

@<SCITEGIC>MOL_PROPERTY
U
SciTegic.value.DoubleValue
7.244

@<SCITEGIC>MOL_PROPERTY
W
SciTegic.value.DoubleValue
-62.496

@<SCITEGIC>MOL_PROPERTY
W(PB)
SciTegic.value.DoubleValue
-64.596

@<SCITEGIC>MOL_PROPERTY
W(SA)
SciTegic.value.DoubleValue
2.099

@<SCITEGIC>MOL_PROPERTY
Valence
SciTegic.value.DoubleValue
7.174

@<SCITEGIC>MOL_PROPERTY
Coulomb
SciTegic.value.DoubleValue
-0.669

@<SCITEGIC>MOL_PROPERTY
VdW
SciTegic.value.DoubleValue
0.739

@<SCITEGIC>MOL_PROPERTY
VdW6
SciTegic.value.DoubleValue
-5.969

@<SCITEGIC>MOL_PROPERTY
VdW12
SciTegic.value.DoubleValue
6.708

@<SCITEGIC>MOL_PROPERTY
Bond
SciTegic.value.DoubleValue
0.116

@<SCITEGIC>MOL_PROPERTY
Angle
SciTegic.value.DoubleValue
2.481

@<SCITEGIC>MOL_PROPERTY
Pdih
SciTegic.value.DoubleValue
4.576

@<SCITEGIC>MOL_PROPERTY
Idih
SciTegic.value.DoubleValue
0.000

@<SCITEGIC>MOL_PROPERTY
Tether
SciTegic.value.DoubleValue
0.000

@<TRIPOS>MOLECULE
guest-7_confgen4.mol2 : confsearch ligand conformer 482
          19          18           1
SMALL
USER_CHARGES
 
@<TRIPOS>ATOM
       1    C1      17.108629   19.619987   21.706063 C.2        1 MOL1         0.6115
       2    O1      16.780747   20.184870   22.730735 O.co2      1 MOL1        -0.6776
       3    O2      16.941069   20.088560   20.597441 O.co2      1 MOL1        -0.6776
       4    C2      17.745546   18.237208   21.813777 C.3        1 MOL1        -0.2013
       5    H1      17.251702   17.590565   21.078874 H          1 MOL1         0.0727
       6    H2      17.518898   17.823147   22.803813 H          1 MOL1         0.0727
       7    C3      19.276547   18.226194   21.566781 C.3        1 MOL1        -0.1910
       8    H3      19.623298   17.184749   21.525652 H          1 MOL1         0.0729
       9    H4      19.489834   18.669713   20.584217 H          1 MOL1         0.0729
      10    C4      20.060847   18.981170   22.663226 C.3        1 MOL1        -0.1909
      11    H5      19.834244   18.542558   23.644705 H          1 MOL1         0.0729
      12    H6      19.731560   20.028882   22.699182 H          1 MOL1         0.0729
      13    C5      21.582733   18.930487   22.414434 C.3        1 MOL1        -0.1884
      14    H7      21.918617   17.884764   22.381655 H          1 MOL1         0.0729
      15    H8      21.812475   19.370855   21.434246 H          1 MOL1         0.0729
      16    C6      22.362441   19.684524   23.510089 C.3        1 MOL1        -0.2899
      17    H9      22.175363   19.244681   24.498495 H          1 MOL1         0.0741
      18    H10     23.442219   19.638884   23.317523 H          1 MOL1         0.0741
      19    H11     22.068450   20.741810   23.544110 H          1 MOL1         0.0741
@<TRIPOS>BOND
    1     1     2    1
    2     1     3    2
    3     1     4    1
    4     4     5    1
    5     4     6    1
    6     4     7    1
    7     7     8    1
    8     7     9    1
    9     7    10    1
   10    10    11    1
   11    10    12    1
   12    10    13    1
   13    13    14    1
   14    13    15    1
   15    13    16    1
   16    16    17    1
   17    16    18    1
   18    16    19    1
@<TRIPOS>SUBSTRUCTURE
       1 MOL1            1 RESIDUE      1      MOL     
@<SCITEGIC>MOL_PROPERTY
VConf Rank
SciTegic.value.IntegerValue
482

@<SCITEGIC>MOL_PROPERTY
Conf_Id
SciTegic.value.IntegerValue
36

@<SCITEGIC>MOL_PROPERTY
Delta U+W
SciTegic.value.DoubleValue
-0.079

@<SCITEGIC>MOL_PROPERTY
U+W
SciTegic.value.DoubleValue
-54.971

@<SCITEGIC>MOL_PROPERTY
Grad RMS
SciTegic.value.DoubleValue
0.000000

@<SCITEGIC>MOL_PROPERTY
U
SciTegic.value.DoubleValue
8.266

@<SCITEGIC>MOL_PROPERTY
W
SciTegic.value.DoubleValue
-63.237

@<SCITEGIC>MOL_PROPERTY
W(PB)
SciTegic.value.DoubleValue
-65.340

@<SCITEGIC>MOL_PROPERTY
W(SA)
SciTegic.value.DoubleValue
2.103

@<SCITEGIC>MOL_PROPERTY
Valence
SciTegic.value.DoubleValue
6.935

@<SCITEGIC>MOL_PROPERTY
Coulomb
SciTegic.value.DoubleValue
0.874

@<SCITEGIC>MOL_PROPERTY
VdW
SciTegic.value.DoubleValue
0.457

@<SCITEGIC>MOL_PROPERTY
VdW6
SciTegic.value.DoubleValue
-6.205

@<SCITEGIC>MOL_PROPERTY
VdW12
SciTegic.value.DoubleValue
6.662

@<SCITEGIC>MOL_PROPERTY
Bond
SciTegic.value.DoubleValue
0.107

@<SCITEGIC>MOL_PROPERTY
Angle
SciTegic.value.DoubleValue
2.420

@<SCITEGIC>MOL_PROPERTY
Pdih
SciTegic.value.DoubleValue
4.407

@<SCITEGIC>MOL_PROPERTY
Idih
SciTegic.value.DoubleValue
0.001

@<SCITEGIC>MOL_PROPERTY
Tether
SciTegic.value.DoubleValue
0.000

@<TRIPOS>MOLECULE
guest-7_confgen4.mol2 : confsearch ligand conformer 483
          19          18           1
SMALL
USER_CHARGES
 
@<TRIPOS>ATOM
       1    C1      18.926696   17.431237   20.242361 C.2        1 MOL1         0.6115
       2    O1      19.428789   17.970549   19.276132 O.co2      1 MOL1        -0.6776
       3    O2      17.730946   17.254331   20.367137 O.co2      1 MOL1        -0.6776
       4    C2      19.847690   16.928724   21.350781 C.3        1 MOL1        -0.2013
       5    H1      20.866181   16.850164   20.951415 H          1 MOL1         0.0727
       6    H2      19.528041   15.911673   21.606791 H          1 MOL1         0.0727
       7    C3      19.839659   17.810323   22.626638 C.3        1 MOL1        -0.1910
       8    H3      18.809681   17.903147   22.998336 H          1 MOL1         0.0729
       9    H4      20.415304   17.303924   23.413231 H          1 MOL1         0.0729
      10    C4      20.436570   19.214398   22.382543 C.3        1 MOL1        -0.1909
      11    H5      19.855399   19.734383   21.608413 H          1 MOL1         0.0729
      12    H6      21.461315   19.116053   21.998805 H          1 MOL1         0.0729
      13    C5      20.447488   20.062428   23.671469 C.3        1 MOL1        -0.1884
      14    H7      19.423254   20.164400   24.056204 H          1 MOL1         0.0729
      15    H8      21.031074   19.549160   24.448266 H          1 MOL1         0.0729
      16    C6      21.043613   21.462673   23.424628 C.3        1 MOL1        -0.2899
      17    H9      20.459989   22.010990   22.673513 H          1 MOL1         0.0741
      18    H10     21.043294   22.052080   24.350742 H          1 MOL1         0.0741
      19    H11     22.079704   21.391182   23.068522 H          1 MOL1         0.0741
@<TRIPOS>BOND
    1     1     2    1
    2     1     3    2
    3     1     4    1
    4     4     5    1
    5     4     6    1
    6     4     7    1
    7     7     8    1
    8     7     9    1
    9     7    10    1
   10    10    11    1
   11    10    12    1
   12    10    13    1
   13    13    14    1
   14    13    15    1
   15    13    16    1
   16    16    17    1
   17    16    18    1
   18    16    19    1
@<TRIPOS>SUBSTRUCTURE
       1 MOL1            1 RESIDUE      1      MOL     
@<SCITEGIC>MOL_PROPERTY
VConf Rank
SciTegic.value.IntegerValue
483

@<SCITEGIC>MOL_PROPERTY
Conf_Id
SciTegic.value.IntegerValue
35

@<SCITEGIC>MOL_PROPERTY
Delta U+W
SciTegic.value.DoubleValue
-0.030

@<SCITEGIC>MOL_PROPERTY
U+W
SciTegic.value.DoubleValue
-54.921

@<SCITEGIC>MOL_PROPERTY
Grad RMS
SciTegic.value.DoubleValue
0.000000

@<SCITEGIC>MOL_PROPERTY
U
SciTegic.value.DoubleValue
8.267

@<SCITEGIC>MOL_PROPERTY
W
SciTegic.value.DoubleValue
-63.188

@<SCITEGIC>MOL_PROPERTY
W(PB)
SciTegic.value.DoubleValue
-65.294

@<SCITEGIC>MOL_PROPERTY
W(SA)
SciTegic.value.DoubleValue
2.106

@<SCITEGIC>MOL_PROPERTY
Valence
SciTegic.value.DoubleValue
6.935

@<SCITEGIC>MOL_PROPERTY
Coulomb
SciTegic.value.DoubleValue
0.875

@<SCITEGIC>MOL_PROPERTY
VdW
SciTegic.value.DoubleValue
0.457

@<SCITEGIC>MOL_PROPERTY
VdW6
SciTegic.value.DoubleValue
-6.205

@<SCITEGIC>MOL_PROPERTY
VdW12
SciTegic.value.DoubleValue
6.662

@<SCITEGIC>MOL_PROPERTY
Bond
SciTegic.value.DoubleValue
0.107

@<SCITEGIC>MOL_PROPERTY
Angle
SciTegic.value.DoubleValue
2.420

@<SCITEGIC>MOL_PROPERTY
Pdih
SciTegic.value.DoubleValue
4.407

@<SCITEGIC>MOL_PROPERTY
Idih
SciTegic.value.DoubleValue
0.001

@<SCITEGIC>MOL_PROPERTY
Tether
SciTegic.value.DoubleValue
0.000

@<TRIPOS>MOLECULE
guest-7_confgen4.mol2 : confsearch ligand conformer 484
          19          18           1
SMALL
USER_CHARGES
 
@<TRIPOS>ATOM
       1    C1      18.739768   20.451590   20.233751 C.2        1 MOL1         0.6115
       2    O1      18.996850   21.638107   20.286611 O.co2      1 MOL1        -0.6776
       3    O2      17.611664   20.012980   20.125828 O.co2      1 MOL1        -0.6776
       4    C2      19.899859   19.461059   20.283928 C.3        1 MOL1        -0.2013
       5    H1      20.672074   19.826576   19.596777 H          1 MOL1         0.0727
       6    H2      19.555366   18.497087   19.890175 H          1 MOL1         0.0727
       7    C3      20.511804   19.273785   21.696788 C.3        1 MOL1        -0.1910
       8    H3      21.424453   18.671472   21.603823 H          1 MOL1         0.0729
       9    H4      20.815923   20.251997   22.094209 H          1 MOL1         0.0729
      10    C4      19.534279   18.588345   22.681318 C.3        1 MOL1        -0.1909
      11    H5      19.261535   17.594551   22.300788 H          1 MOL1         0.0729
      12    H6      18.602483   19.168559   22.727496 H          1 MOL1         0.0729
      13    C5      20.098101   18.457027   24.115086 C.3        1 MOL1        -0.1884
      14    H7      20.369890   19.449931   24.499251 H          1 MOL1         0.0729
      15    H8      19.303732   18.077008   24.772189 H          1 MOL1         0.0729
      16    C6      21.315229   17.511730   24.210119 C.3        1 MOL1        -0.2899
      17    H9      22.177431   17.911614   23.662103 H          1 MOL1         0.0741
      18    H10     21.618857   17.381585   25.256928 H          1 MOL1         0.0741
      19    H11     21.076131   16.521052   23.802032 H          1 MOL1         0.0741
@<TRIPOS>BOND
    1     1     2    1
    2     1     3    2
    3     1     4    1
    4     4     5    1
    5     4     6    1
    6     4     7    1
    7     7     8    1
    8     7     9    1
    9     7    10    1
   10    10    11    1
   11    10    12    1
   12    10    13    1
   13    13    14    1
   14    13    15    1
   15    13    16    1
   16    16    17    1
   17    16    18    1
   18    16    19    1
@<TRIPOS>SUBSTRUCTURE
       1 MOL1            1 RESIDUE      1      MOL     
@<SCITEGIC>MOL_PROPERTY
VConf Rank
SciTegic.value.IntegerValue
484

@<SCITEGIC>MOL_PROPERTY
Conf_Id
SciTegic.value.IntegerValue
74

@<SCITEGIC>MOL_PROPERTY
Delta U+W
SciTegic.value.DoubleValue
0.797

@<SCITEGIC>MOL_PROPERTY
U+W
SciTegic.value.DoubleValue
-54.095

@<SCITEGIC>MOL_PROPERTY
Grad RMS
SciTegic.value.DoubleValue
0.000000

@<SCITEGIC>MOL_PROPERTY
U
SciTegic.value.DoubleValue
8.869

@<SCITEGIC>MOL_PROPERTY
W
SciTegic.value.DoubleValue
-62.964

@<SCITEGIC>MOL_PROPERTY
W(PB)
SciTegic.value.DoubleValue
-65.046

@<SCITEGIC>MOL_PROPERTY
W(SA)
SciTegic.value.DoubleValue
2.082

@<SCITEGIC>MOL_PROPERTY
Valence
SciTegic.value.DoubleValue
7.469

@<SCITEGIC>MOL_PROPERTY
Coulomb
SciTegic.value.DoubleValue
0.762

@<SCITEGIC>MOL_PROPERTY
VdW
SciTegic.value.DoubleValue
0.639

@<SCITEGIC>MOL_PROPERTY
VdW6
SciTegic.value.DoubleValue
-6.782

@<SCITEGIC>MOL_PROPERTY
VdW12
SciTegic.value.DoubleValue
7.421

@<SCITEGIC>MOL_PROPERTY
Bond
SciTegic.value.DoubleValue
0.141

@<SCITEGIC>MOL_PROPERTY
Angle
SciTegic.value.DoubleValue
2.667

@<SCITEGIC>MOL_PROPERTY
Pdih
SciTegic.value.DoubleValue
4.660

@<SCITEGIC>MOL_PROPERTY
Idih
SciTegic.value.DoubleValue
0.001

@<SCITEGIC>MOL_PROPERTY
Tether
SciTegic.value.DoubleValue
0.000

@<TRIPOS>MOLECULE
guest-7_confgen4.mol2 : confsearch ligand conformer 485
          19          18           1
SMALL
USER_CHARGES
 
@<TRIPOS>ATOM
       1    C1      20.452410   21.163212   20.464403 C.2        1 MOL1         0.6115
       2    O1      21.187456   21.223102   19.498721 O.co2      1 MOL1        -0.6776
       3    O2      19.487224   21.884668   20.620095 O.co2      1 MOL1        -0.6776
       4    C2      20.746876   20.112733   21.529298 C.3        1 MOL1        -0.2013
       5    H1      20.434403   20.521687   22.496912 H          1 MOL1         0.0727
       6    H2      21.832648   19.965789   21.572466 H          1 MOL1         0.0727
       7    C3      20.034902   18.762855   21.254503 C.3        1 MOL1        -0.1910
       8    H3      18.947439   18.915147   21.251437 H          1 MOL1         0.0729
       9    H4      20.297091   18.425834   20.242143 H          1 MOL1         0.0729
      10    C4      20.414909   17.646425   22.259445 C.3        1 MOL1        -0.1909
      11    H5      21.490325   17.439991   22.171922 H          1 MOL1         0.0729
      12    H6      19.903511   16.719395   21.966412 H          1 MOL1         0.0729
      13    C5      20.085629   17.952420   23.741282 C.3        1 MOL1        -0.1884
      14    H7      20.411683   17.101251   24.354699 H          1 MOL1         0.0729
      15    H8      20.667321   18.816529   24.088498 H          1 MOL1         0.0729
      16    C6      18.583136   18.200311   23.995173 C.3        1 MOL1        -0.2899
      17    H9      17.979397   17.357476   23.634397 H          1 MOL1         0.0741
      18    H10     18.389653   18.320478   25.068924 H          1 MOL1         0.0741
      19    H11     18.238774   19.112265   23.491168 H          1 MOL1         0.0741
@<TRIPOS>BOND
    1     1     2    1
    2     1     3    2
    3     1     4    1
    4     4     5    1
    5     4     6    1
    6     4     7    1
    7     7     8    1
    8     7     9    1
    9     7    10    1
   10    10    11    1
   11    10    12    1
   12    10    13    1
   13    13    14    1
   14    13    15    1
   15    13    16    1
   16    16    17    1
   17    16    18    1
   18    16    19    1
@<TRIPOS>SUBSTRUCTURE
       1 MOL1            1 RESIDUE      1      MOL     
@<SCITEGIC>MOL_PROPERTY
VConf Rank
SciTegic.value.IntegerValue
485

@<SCITEGIC>MOL_PROPERTY
Conf_Id
SciTegic.value.IntegerValue
67

@<SCITEGIC>MOL_PROPERTY
Delta U+W
SciTegic.value.DoubleValue
0.308

@<SCITEGIC>MOL_PROPERTY
U+W
SciTegic.value.DoubleValue
-54.583

@<SCITEGIC>MOL_PROPERTY
Grad RMS
SciTegic.value.DoubleValue
0.000000

@<SCITEGIC>MOL_PROPERTY
U
SciTegic.value.DoubleValue
8.219

@<SCITEGIC>MOL_PROPERTY
W
SciTegic.value.DoubleValue
-62.802

@<SCITEGIC>MOL_PROPERTY
W(PB)
SciTegic.value.DoubleValue
-64.859

@<SCITEGIC>MOL_PROPERTY
W(SA)
SciTegic.value.DoubleValue
2.057

@<SCITEGIC>MOL_PROPERTY
Valence
SciTegic.value.DoubleValue
7.609

@<SCITEGIC>MOL_PROPERTY
Coulomb
SciTegic.value.DoubleValue
-0.089

@<SCITEGIC>MOL_PROPERTY
VdW
SciTegic.value.DoubleValue
0.699

@<SCITEGIC>MOL_PROPERTY
VdW6
SciTegic.value.DoubleValue
-6.924

@<SCITEGIC>MOL_PROPERTY
VdW12
SciTegic.value.DoubleValue
7.623

@<SCITEGIC>MOL_PROPERTY
Bond
SciTegic.value.DoubleValue
0.163

@<SCITEGIC>MOL_PROPERTY
Angle
SciTegic.value.DoubleValue
2.870

@<SCITEGIC>MOL_PROPERTY
Pdih
SciTegic.value.DoubleValue
4.576

@<SCITEGIC>MOL_PROPERTY
Idih
SciTegic.value.DoubleValue
0.001

@<SCITEGIC>MOL_PROPERTY
Tether
SciTegic.value.DoubleValue
0.000

@<TRIPOS>MOLECULE
guest-7_confgen4.mol2 : confsearch ligand conformer 486
          19          18           1
SMALL
USER_CHARGES
 
@<TRIPOS>ATOM
       1    C1      21.233899   19.536601   24.879480 C.2        1 MOL1         0.6115
       2    O1      21.574145   18.779977   25.767272 O.co2      1 MOL1        -0.6776
       3    O2      20.990875   20.713902   25.056176 O.co2      1 MOL1        -0.6776
       4    C2      21.085142   18.972999   23.470778 C.3        1 MOL1        -0.2013
       5    H1      21.819855   18.168675   23.345817 H          1 MOL1         0.0727
       6    H2      21.348445   19.767948   22.763750 H          1 MOL1         0.0727
       7    C3      19.656719   18.442000   23.184010 C.3        1 MOL1        -0.1910
       8    H3      19.388258   17.714633   23.962511 H          1 MOL1         0.0729
       9    H4      18.934266   19.263962   23.274669 H          1 MOL1         0.0729
      10    C4      19.516402   17.757874   21.800896 C.3        1 MOL1        -0.1909
      11    H5      18.491932   17.374493   21.699596 H          1 MOL1         0.0729
      12    H6      20.173595   16.878107   21.770872 H          1 MOL1         0.0729
      13    C5      19.835704   18.659680   20.583238 C.3        1 MOL1        -0.1884
      14    H7      20.888280   18.971286   20.607640 H          1 MOL1         0.0729
      15    H8      19.716782   18.064937   19.667149 H          1 MOL1         0.0729
      16    C6      18.926518   19.903799   20.488646 C.3        1 MOL1        -0.2899
      17    H9      19.096884   20.587026   21.330337 H          1 MOL1         0.0741
      18    H10     19.129606   20.458611   19.563576 H          1 MOL1         0.0741
      19    H11     17.866954   19.616838   20.485897 H          1 MOL1         0.0741
@<TRIPOS>BOND
    1     1     2    1
    2     1     3    2
    3     1     4    1
    4     4     5    1
    5     4     6    1
    6     4     7    1
    7     7     8    1
    8     7     9    1
    9     7    10    1
   10    10    11    1
   11    10    12    1
   12    10    13    1
   13    13    14    1
   14    13    15    1
   15    13    16    1
   16    16    17    1
   17    16    18    1
   18    16    19    1
@<TRIPOS>SUBSTRUCTURE
       1 MOL1            1 RESIDUE      1      MOL     
@<SCITEGIC>MOL_PROPERTY
VConf Rank
SciTegic.value.IntegerValue
486

@<SCITEGIC>MOL_PROPERTY
Conf_Id
SciTegic.value.IntegerValue
21

@<SCITEGIC>MOL_PROPERTY
Delta U+W
SciTegic.value.DoubleValue
0.319

@<SCITEGIC>MOL_PROPERTY
U+W
SciTegic.value.DoubleValue
-54.572

@<SCITEGIC>MOL_PROPERTY
Grad RMS
SciTegic.value.DoubleValue
0.000000

@<SCITEGIC>MOL_PROPERTY
U
SciTegic.value.DoubleValue
8.220

@<SCITEGIC>MOL_PROPERTY
W
SciTegic.value.DoubleValue
-62.792

@<SCITEGIC>MOL_PROPERTY
W(PB)
SciTegic.value.DoubleValue
-64.830

@<SCITEGIC>MOL_PROPERTY
W(SA)
SciTegic.value.DoubleValue
2.038

@<SCITEGIC>MOL_PROPERTY
Valence
SciTegic.value.DoubleValue
7.609

@<SCITEGIC>MOL_PROPERTY
Coulomb
SciTegic.value.DoubleValue
-0.088

@<SCITEGIC>MOL_PROPERTY
VdW
SciTegic.value.DoubleValue
0.699

@<SCITEGIC>MOL_PROPERTY
VdW6
SciTegic.value.DoubleValue
-6.924

@<SCITEGIC>MOL_PROPERTY
VdW12
SciTegic.value.DoubleValue
7.623

@<SCITEGIC>MOL_PROPERTY
Bond
SciTegic.value.DoubleValue
0.163

@<SCITEGIC>MOL_PROPERTY
Angle
SciTegic.value.DoubleValue
2.870

@<SCITEGIC>MOL_PROPERTY
Pdih
SciTegic.value.DoubleValue
4.576

@<SCITEGIC>MOL_PROPERTY
Idih
SciTegic.value.DoubleValue
0.000

@<SCITEGIC>MOL_PROPERTY
Tether
SciTegic.value.DoubleValue
0.000

@<TRIPOS>MOLECULE
guest-7_confgen4.mol2 : confsearch ligand conformer 487
          19          18           1
SMALL
USER_CHARGES
 
@<TRIPOS>ATOM
       1    C1      19.528918   21.582629   21.283621 C.2        1 MOL1         0.6115
       2    O1      19.337749   22.632904   21.863977 O.co2      1 MOL1        -0.6776
       3    O2      19.948341   21.510160   20.145602 O.co2      1 MOL1        -0.6776
       4    C2      19.244176   20.284879   22.031183 C.3        1 MOL1        -0.2013
       5    H1      18.913445   19.541432   21.299249 H          1 MOL1         0.0727
       6    H2      18.400502   20.462964   22.708593 H          1 MOL1         0.0727
       7    C3      20.469754   19.772020   22.832761 C.3        1 MOL1        -0.1910
       8    H3      21.333722   19.648559   22.165229 H          1 MOL1         0.0729
       9    H4      20.750508   20.550846   23.555259 H          1 MOL1         0.0729
      10    C4      20.195498   18.456142   23.604248 C.3        1 MOL1        -0.1909
      11    H5      19.135571   18.393760   23.886314 H          1 MOL1         0.0729
      12    H6      20.754321   18.491893   24.549453 H          1 MOL1         0.0729
      13    C5      20.624456   17.168369   22.858899 C.3        1 MOL1        -0.1884
      14    H7      21.704572   17.200511   22.659966 H          1 MOL1         0.0729
      15    H8      20.460254   16.309747   23.524481 H          1 MOL1         0.0729
      16    C6      19.868285   16.920236   21.537411 C.3        1 MOL1        -0.2899
      17    H9      20.122695   15.933462   21.129530 H          1 MOL1         0.0741
      18    H10     18.782046   16.953088   21.692275 H          1 MOL1         0.0741
      19    H11     20.137061   17.668678   20.781506 H          1 MOL1         0.0741
@<TRIPOS>BOND
    1     1     2    1
    2     1     3    2
    3     1     4    1
    4     4     5    1
    5     4     6    1
    6     4     7    1
    7     7     8    1
    8     7     9    1
    9     7    10    1
   10    10    11    1
   11    10    12    1
   12    10    13    1
   13    13    14    1
   14    13    15    1
   15    13    16    1
   16    16    17    1
   17    16    18    1
   18    16    19    1
@<TRIPOS>SUBSTRUCTURE
       1 MOL1            1 RESIDUE      1      MOL     
@<SCITEGIC>MOL_PROPERTY
VConf Rank
SciTegic.value.IntegerValue
487

@<SCITEGIC>MOL_PROPERTY
Conf_Id
SciTegic.value.IntegerValue
24

@<SCITEGIC>MOL_PROPERTY
Delta U+W
SciTegic.value.DoubleValue
2.477

@<SCITEGIC>MOL_PROPERTY
U+W
SciTegic.value.DoubleValue
-52.414

@<SCITEGIC>MOL_PROPERTY
Grad RMS
SciTegic.value.DoubleValue
0.000000

@<SCITEGIC>MOL_PROPERTY
U
SciTegic.value.DoubleValue
10.422

@<SCITEGIC>MOL_PROPERTY
W
SciTegic.value.DoubleValue
-62.836

@<SCITEGIC>MOL_PROPERTY
W(PB)
SciTegic.value.DoubleValue
-64.906

@<SCITEGIC>MOL_PROPERTY
W(SA)
SciTegic.value.DoubleValue
2.070

@<SCITEGIC>MOL_PROPERTY
Valence
SciTegic.value.DoubleValue
9.628

@<SCITEGIC>MOL_PROPERTY
Coulomb
SciTegic.value.DoubleValue
0.101

@<SCITEGIC>MOL_PROPERTY
VdW
SciTegic.value.DoubleValue
0.693

@<SCITEGIC>MOL_PROPERTY
VdW6
SciTegic.value.DoubleValue
-6.927

@<SCITEGIC>MOL_PROPERTY
VdW12
SciTegic.value.DoubleValue
7.620

@<SCITEGIC>MOL_PROPERTY
Bond
SciTegic.value.DoubleValue
0.173

@<SCITEGIC>MOL_PROPERTY
Angle
SciTegic.value.DoubleValue
2.989

@<SCITEGIC>MOL_PROPERTY
Pdih
SciTegic.value.DoubleValue
6.465

@<SCITEGIC>MOL_PROPERTY
Idih
SciTegic.value.DoubleValue
0.001

@<SCITEGIC>MOL_PROPERTY
Tether
SciTegic.value.DoubleValue
0.000

@<TRIPOS>MOLECULE
guest-7_confgen4.mol2 : confsearch ligand conformer 488
          19          18           1
SMALL
USER_CHARGES
 
@<TRIPOS>ATOM
       1    C1      19.221154   17.638893   20.303057 C.2        1 MOL1         0.6115
       2    O1      19.904107   16.670755   20.573197 O.co2      1 MOL1        -0.6776
       3    O2      18.176092   17.571435   19.686316 O.co2      1 MOL1        -0.6776
       4    C2      19.713938   19.017711   20.734631 C.3        1 MOL1        -0.2013
       5    H1      19.641617   19.675368   19.860552 H          1 MOL1         0.0727
       6    H2      20.777397   18.942234   20.982805 H          1 MOL1         0.0727
       7    C3      18.908403   19.636489   21.910712 C.3        1 MOL1        -0.1910
       8    H3      19.177609   20.694574   22.029943 H          1 MOL1         0.0729
       9    H4      17.844309   19.624842   21.636663 H          1 MOL1         0.0729
      10    C4      19.084335   18.895601   23.261864 C.3        1 MOL1        -0.1909
      11    H5      19.280968   17.828088   23.092873 H          1 MOL1         0.0729
      12    H6      18.128577   18.940054   23.801615 H          1 MOL1         0.0729
      13    C5      20.170791   19.493260   24.189400 C.3        1 MOL1        -0.1884
      14    H7      19.920079   20.536204   24.427338 H          1 MOL1         0.0729
      15    H8      20.152639   18.947713   25.142921 H          1 MOL1         0.0729
      16    C6      21.599470   19.428703   23.611245 C.3        1 MOL1        -0.2899
      17    H9      21.707726   20.098076   22.748937 H          1 MOL1         0.0741
      18    H10     22.333400   19.740212   24.365624 H          1 MOL1         0.0741
      19    H11     21.850194   18.407646   23.294911 H          1 MOL1         0.0741
@<TRIPOS>BOND
    1     1     2    1
    2     1     3    2
    3     1     4    1
    4     4     5    1
    5     4     6    1
    6     4     7    1
    7     7     8    1
    8     7     9    1
    9     7    10    1
   10    10    11    1
   11    10    12    1
   12    10    13    1
   13    13    14    1
   14    13    15    1
   15    13    16    1
   16    16    17    1
   17    16    18    1
   18    16    19    1
@<TRIPOS>SUBSTRUCTURE
       1 MOL1            1 RESIDUE      1      MOL     
@<SCITEGIC>MOL_PROPERTY
VConf Rank
SciTegic.value.IntegerValue
488

@<SCITEGIC>MOL_PROPERTY
Conf_Id
SciTegic.value.IntegerValue
4

@<SCITEGIC>MOL_PROPERTY
Delta U+W
SciTegic.value.DoubleValue
3.753

@<SCITEGIC>MOL_PROPERTY
U+W
SciTegic.value.DoubleValue
-51.138

@<SCITEGIC>MOL_PROPERTY
Grad RMS
SciTegic.value.DoubleValue
0.000000

@<SCITEGIC>MOL_PROPERTY
U
SciTegic.value.DoubleValue
12.334

@<SCITEGIC>MOL_PROPERTY
W
SciTegic.value.DoubleValue
-63.472

@<SCITEGIC>MOL_PROPERTY
W(PB)
SciTegic.value.DoubleValue
-65.500

@<SCITEGIC>MOL_PROPERTY
W(SA)
SciTegic.value.DoubleValue
2.028

@<SCITEGIC>MOL_PROPERTY
Valence
SciTegic.value.DoubleValue
9.984

@<SCITEGIC>MOL_PROPERTY
Coulomb
SciTegic.value.DoubleValue
1.767

@<SCITEGIC>MOL_PROPERTY
VdW
SciTegic.value.DoubleValue
0.583

@<SCITEGIC>MOL_PROPERTY
VdW6
SciTegic.value.DoubleValue
-7.767

@<SCITEGIC>MOL_PROPERTY
VdW12
SciTegic.value.DoubleValue
8.349

@<SCITEGIC>MOL_PROPERTY
Bond
SciTegic.value.DoubleValue
0.203

@<SCITEGIC>MOL_PROPERTY
Angle
SciTegic.value.DoubleValue
3.191

@<SCITEGIC>MOL_PROPERTY
Pdih
SciTegic.value.DoubleValue
6.589

@<SCITEGIC>MOL_PROPERTY
Idih
SciTegic.value.DoubleValue
0.001

@<SCITEGIC>MOL_PROPERTY
Tether
SciTegic.value.DoubleValue
0.000

@<TRIPOS>MOLECULE
guest-7_confgen4.mol2 : confsearch ligand conformer 489
          19          18           1
SMALL
USER_CHARGES
 
@<TRIPOS>ATOM
       1    C1      17.675608   17.592316   22.195453 C.2        1 MOL1         0.6115
       2    O1      17.386059   16.452763   22.503110 O.co2      1 MOL1        -0.6776
       3    O2      16.948517   18.545681   22.393260 O.co2      1 MOL1        -0.6776
       4    C2      19.011879   17.831392   21.497276 C.3        1 MOL1        -0.2013
       5    H1      18.980178   18.815301   21.018583 H          1 MOL1         0.0727
       6    H2      19.092527   17.092760   20.691252 H          1 MOL1         0.0727
       7    C3      20.245232   17.705503   22.434255 C.3        1 MOL1        -0.1910
       8    H3      20.190365   16.730769   22.938652 H          1 MOL1         0.0729
       9    H4      21.166141   17.684223   21.836169 H          1 MOL1         0.0729
      10    C4      20.344154   18.819218   23.509116 C.3        1 MOL1        -0.1909
      11    H5      20.767694   18.376064   24.420714 H          1 MOL1         0.0729
      12    H6      19.342953   19.174492   23.788727 H          1 MOL1         0.0729
      13    C5      21.240350   20.019060   23.115270 C.3        1 MOL1        -0.1884
      14    H7      21.305175   20.701421   23.973952 H          1 MOL1         0.0729
      15    H8      22.263777   19.668185   22.923735 H          1 MOL1         0.0729
      16    C6      20.732991   20.811330   21.892791 C.3        1 MOL1        -0.2899
      17    H9      19.685192   21.111307   22.025518 H          1 MOL1         0.0741
      18    H10     21.330847   21.720616   21.749460 H          1 MOL1         0.0741
      19    H11     20.812289   20.215813   20.974953 H          1 MOL1         0.0741
@<TRIPOS>BOND
    1     1     2    1
    2     1     3    2
    3     1     4    1
    4     4     5    1
    5     4     6    1
    6     4     7    1
    7     7     8    1
    8     7     9    1
    9     7    10    1
   10    10    11    1
   11    10    12    1
   12    10    13    1
   13    13    14    1
   14    13    15    1
   15    13    16    1
   16    16    17    1
   17    16    18    1
   18    16    19    1
@<TRIPOS>SUBSTRUCTURE
       1 MOL1            1 RESIDUE      1      MOL     
@<SCITEGIC>MOL_PROPERTY
VConf Rank
SciTegic.value.IntegerValue
489

@<SCITEGIC>MOL_PROPERTY
Conf_Id
SciTegic.value.IntegerValue
73

@<SCITEGIC>MOL_PROPERTY
Delta U+W
SciTegic.value.DoubleValue
3.707

@<SCITEGIC>MOL_PROPERTY
U+W
SciTegic.value.DoubleValue
-51.184

@<SCITEGIC>MOL_PROPERTY
Grad RMS
SciTegic.value.DoubleValue
0.000000

@<SCITEGIC>MOL_PROPERTY
U
SciTegic.value.DoubleValue
12.334

@<SCITEGIC>MOL_PROPERTY
W
SciTegic.value.DoubleValue
-63.519

@<SCITEGIC>MOL_PROPERTY
W(PB)
SciTegic.value.DoubleValue
-65.541

@<SCITEGIC>MOL_PROPERTY
W(SA)
SciTegic.value.DoubleValue
2.022

@<SCITEGIC>MOL_PROPERTY
Valence
SciTegic.value.DoubleValue
9.984

@<SCITEGIC>MOL_PROPERTY
Coulomb
SciTegic.value.DoubleValue
1.768

@<SCITEGIC>MOL_PROPERTY
VdW
SciTegic.value.DoubleValue
0.583

@<SCITEGIC>MOL_PROPERTY
VdW6
SciTegic.value.DoubleValue
-7.767

@<SCITEGIC>MOL_PROPERTY
VdW12
SciTegic.value.DoubleValue
8.350

@<SCITEGIC>MOL_PROPERTY
Bond
SciTegic.value.DoubleValue
0.203

@<SCITEGIC>MOL_PROPERTY
Angle
SciTegic.value.DoubleValue
3.192

@<SCITEGIC>MOL_PROPERTY
Pdih
SciTegic.value.DoubleValue
6.589

@<SCITEGIC>MOL_PROPERTY
Idih
SciTegic.value.DoubleValue
0.001

@<SCITEGIC>MOL_PROPERTY
Tether
SciTegic.value.DoubleValue
0.000

@<TRIPOS>MOLECULE
guest-7_confgen4.mol2 : confsearch ligand conformer 490
          19          18           1
SMALL
USER_CHARGES
 
@<TRIPOS>ATOM
       1    C1      21.809951   18.629699   24.034578 C.2        1 MOL1         0.6115
       2    O1      21.133250   18.453306   25.028395 O.co2      1 MOL1        -0.6776
       3    O2      22.864920   18.061394   23.831530 O.co2      1 MOL1        -0.6776
       4    C2      21.327718   19.642320   22.999505 C.3        1 MOL1        -0.2013
       5    H1      22.164889   20.318045   22.789245 H          1 MOL1         0.0727
       6    H2      20.538775   20.256248   23.448903 H          1 MOL1         0.0727
       7    C3      20.834627   19.006643   21.670956 C.3        1 MOL1        -0.1910
       8    H3      20.578491   19.804223   20.961643 H          1 MOL1         0.0729
       9    H4      21.667698   18.454061   21.215152 H          1 MOL1         0.0729
      10    C4      19.629609   18.043978   21.830024 C.3        1 MOL1        -0.1909
      11    H5      19.935302   17.185816   22.444184 H          1 MOL1         0.0729
      12    H6      19.374096   17.633291   20.843798 H          1 MOL1         0.0729
      13    C5      18.360397   18.673812   22.454224 C.3        1 MOL1        -0.1884
      14    H7      17.586846   17.897546   22.531208 H          1 MOL1         0.0729
      15    H8      18.567056   18.997904   23.483157 H          1 MOL1         0.0729
      16    C6      17.798032   19.856272   21.636173 C.3        1 MOL1        -0.2899
      17    H9      18.495483   20.703274   21.628435 H          1 MOL1         0.0741
      18    H10     17.604819   19.558535   20.597407 H          1 MOL1         0.0741
      19    H11     16.852673   20.207678   22.069306 H          1 MOL1         0.0741
@<TRIPOS>BOND
    1     1     2    1
    2     1     3    2
    3     1     4    1
    4     4     5    1
    5     4     6    1
    6     4     7    1
    7     7     8    1
    8     7     9    1
    9     7    10    1
   10    10    11    1
   11    10    12    1
   12    10    13    1
   13    13    14    1
   14    13    15    1
   15    13    16    1
   16    16    17    1
   17    16    18    1
   18    16    19    1
@<TRIPOS>SUBSTRUCTURE
       1 MOL1            1 RESIDUE      1      MOL     
@<SCITEGIC>MOL_PROPERTY
VConf Rank
SciTegic.value.IntegerValue
490

@<SCITEGIC>MOL_PROPERTY
Conf_Id
SciTegic.value.IntegerValue
56

@<SCITEGIC>MOL_PROPERTY
Delta U+W
SciTegic.value.DoubleValue
1.735

@<SCITEGIC>MOL_PROPERTY
U+W
SciTegic.value.DoubleValue
-53.156

@<SCITEGIC>MOL_PROPERTY
Grad RMS
SciTegic.value.DoubleValue
0.000000

@<SCITEGIC>MOL_PROPERTY
U
SciTegic.value.DoubleValue
10.214

@<SCITEGIC>MOL_PROPERTY
W
SciTegic.value.DoubleValue
-63.370

@<SCITEGIC>MOL_PROPERTY
W(PB)
SciTegic.value.DoubleValue
-65.388

@<SCITEGIC>MOL_PROPERTY
W(SA)
SciTegic.value.DoubleValue
2.018

@<SCITEGIC>MOL_PROPERTY
Valence
SciTegic.value.DoubleValue
7.868

@<SCITEGIC>MOL_PROPERTY
Coulomb
SciTegic.value.DoubleValue
1.968

@<SCITEGIC>MOL_PROPERTY
VdW
SciTegic.value.DoubleValue
0.378

@<SCITEGIC>MOL_PROPERTY
VdW6
SciTegic.value.DoubleValue
-8.067

@<SCITEGIC>MOL_PROPERTY
VdW12
SciTegic.value.DoubleValue
8.445

@<SCITEGIC>MOL_PROPERTY
Bond
SciTegic.value.DoubleValue
0.191

@<SCITEGIC>MOL_PROPERTY
Angle
SciTegic.value.DoubleValue
3.117

@<SCITEGIC>MOL_PROPERTY
Pdih
SciTegic.value.DoubleValue
4.559

@<SCITEGIC>MOL_PROPERTY
Idih
SciTegic.value.DoubleValue
0.001

@<SCITEGIC>MOL_PROPERTY
Tether
SciTegic.value.DoubleValue
0.000

@<TRIPOS>MOLECULE
guest-7_confgen4.mol2 : confsearch ligand conformer 491
          19          18           1
SMALL
USER_CHARGES
 
@<TRIPOS>ATOM
       1    C1      18.998370   16.304456   23.129616 C.2        1 MOL1         0.6115
       2    O1      17.832923   15.968678   23.056467 O.co2      1 MOL1        -0.6776
       3    O2      19.842970   15.673150   23.733336 O.co2      1 MOL1        -0.6776
       4    C2      19.419137   17.599764   22.444511 C.3        1 MOL1        -0.2013
       5    H1      18.786628   17.739174   21.559708 H          1 MOL1         0.0727
       6    H2      20.450139   17.470881   22.096755 H          1 MOL1         0.0727
       7    C3      19.316364   18.833268   23.376648 C.3        1 MOL1        -0.1910
       8    H3      18.311848   18.854890   23.821485 H          1 MOL1         0.0729
       9    H4      20.019929   18.714667   24.212187 H          1 MOL1         0.0729
      10    C4      19.569909   20.189575   22.671922 C.3        1 MOL1        -0.1909
      11    H5      19.417273   20.982329   23.417050 H          1 MOL1         0.0729
      12    H6      18.810925   20.359402   21.895970 H          1 MOL1         0.0729
      13    C5      20.990730   20.354280   22.077576 C.3        1 MOL1        -0.1884
      14    H7      21.301207   21.401552   22.196598 H          1 MOL1         0.0729
      15    H8      21.714217   19.754792   22.647215 H          1 MOL1         0.0729
      16    C6      21.068088   20.002606   20.575221 C.3        1 MOL1        -0.2899
      17    H9      22.088239   20.151895   20.198552 H          1 MOL1         0.0741
      18    H10     20.790770   18.959889   20.384292 H          1 MOL1         0.0741
      19    H11     20.397156   20.644250   19.989326 H          1 MOL1         0.0741
@<TRIPOS>BOND
    1     1     2    1
    2     1     3    2
    3     1     4    1
    4     4     5    1
    5     4     6    1
    6     4     7    1
    7     7     8    1
    8     7     9    1
    9     7    10    1
   10    10    11    1
   11    10    12    1
   12    10    13    1
   13    13    14    1
   14    13    15    1
   15    13    16    1
   16    16    17    1
   17    16    18    1
   18    16    19    1
@<TRIPOS>SUBSTRUCTURE
       1 MOL1            1 RESIDUE      1      MOL     
@<SCITEGIC>MOL_PROPERTY
VConf Rank
SciTegic.value.IntegerValue
491

@<SCITEGIC>MOL_PROPERTY
Conf_Id
SciTegic.value.IntegerValue
53

@<SCITEGIC>MOL_PROPERTY
Delta U+W
SciTegic.value.DoubleValue
2.279

@<SCITEGIC>MOL_PROPERTY
U+W
SciTegic.value.DoubleValue
-52.612

@<SCITEGIC>MOL_PROPERTY
Grad RMS
SciTegic.value.DoubleValue
0.000000

@<SCITEGIC>MOL_PROPERTY
U
SciTegic.value.DoubleValue
10.231

@<SCITEGIC>MOL_PROPERTY
W
SciTegic.value.DoubleValue
-62.843

@<SCITEGIC>MOL_PROPERTY
W(PB)
SciTegic.value.DoubleValue
-64.893

@<SCITEGIC>MOL_PROPERTY
W(SA)
SciTegic.value.DoubleValue
2.050

@<SCITEGIC>MOL_PROPERTY
Valence
SciTegic.value.DoubleValue
9.644

@<SCITEGIC>MOL_PROPERTY
Coulomb
SciTegic.value.DoubleValue
-0.164

@<SCITEGIC>MOL_PROPERTY
VdW
SciTegic.value.DoubleValue
0.751

@<SCITEGIC>MOL_PROPERTY
VdW6
SciTegic.value.DoubleValue
-6.881

@<SCITEGIC>MOL_PROPERTY
VdW12
SciTegic.value.DoubleValue
7.631

@<SCITEGIC>MOL_PROPERTY
Bond
SciTegic.value.DoubleValue
0.163

@<SCITEGIC>MOL_PROPERTY
Angle
SciTegic.value.DoubleValue
2.998

@<SCITEGIC>MOL_PROPERTY
Pdih
SciTegic.value.DoubleValue
6.482

@<SCITEGIC>MOL_PROPERTY
Idih
SciTegic.value.DoubleValue
0.001

@<SCITEGIC>MOL_PROPERTY
Tether
SciTegic.value.DoubleValue
0.000

@<TRIPOS>MOLECULE
guest-7_confgen4.mol2 : confsearch ligand conformer 492
          19          18           1
SMALL
USER_CHARGES
 
@<TRIPOS>ATOM
       1    C1      21.899408   17.543340   21.503319 C.2        1 MOL1         0.6115
       2    O1      21.754635   16.465188   22.045059 O.co2      1 MOL1        -0.6776
       3    O2      22.941327   18.168802   21.524528 O.co2      1 MOL1        -0.6776
       4    C2      20.731386   18.106288   20.695671 C.3        1 MOL1        -0.2013
       5    H1      19.895638   17.397142   20.735167 H          1 MOL1         0.0727
       6    H2      21.065524   18.139018   19.652165 H          1 MOL1         0.0727
       7    C3      20.254261   19.524390   21.118119 C.3        1 MOL1        -0.1910
       8    H3      21.121968   20.179285   21.278548 H          1 MOL1         0.0729
       9    H4      19.699043   19.959704   20.276305 H          1 MOL1         0.0729
      10    C4      19.328652   19.555369   22.359475 C.3        1 MOL1        -0.1909
      11    H5      18.460095   18.904544   22.189561 H          1 MOL1         0.0729
      12    H6      18.933847   20.575031   22.466374 H          1 MOL1         0.0729
      13    C5      20.028015   19.154315   23.676905 C.3        1 MOL1        -0.1884
      14    H7      20.314786   18.095501   23.644015 H          1 MOL1         0.0729
      15    H8      20.953131   19.734508   23.799108 H          1 MOL1         0.0729
      16    C6      19.112098   19.383987   24.895996 C.3        1 MOL1        -0.2899
      17    H9      18.190116   18.794086   24.810417 H          1 MOL1         0.0741
      18    H10     19.620292   19.086317   25.822374 H          1 MOL1         0.0741
      19    H11     18.835378   20.442542   24.986585 H          1 MOL1         0.0741
@<TRIPOS>BOND
    1     1     2    1
    2     1     3    2
    3     1     4    1
    4     4     5    1
    5     4     6    1
    6     4     7    1
    7     7     8    1
    8     7     9    1
    9     7    10    1
   10    10    11    1
   11    10    12    1
   12    10    13    1
   13    13    14    1
   14    13    15    1
   15    13    16    1
   16    16    17    1
   17    16    18    1
   18    16    19    1
@<TRIPOS>SUBSTRUCTURE
       1 MOL1            1 RESIDUE      1      MOL     
@<SCITEGIC>MOL_PROPERTY
VConf Rank
SciTegic.value.IntegerValue
492

@<SCITEGIC>MOL_PROPERTY
Conf_Id
SciTegic.value.IntegerValue
25

@<SCITEGIC>MOL_PROPERTY
Delta U+W
SciTegic.value.DoubleValue
2.065

@<SCITEGIC>MOL_PROPERTY
U+W
SciTegic.value.DoubleValue
-52.826

@<SCITEGIC>MOL_PROPERTY
Grad RMS
SciTegic.value.DoubleValue
0.000000

@<SCITEGIC>MOL_PROPERTY
U
SciTegic.value.DoubleValue
10.967

@<SCITEGIC>MOL_PROPERTY
W
SciTegic.value.DoubleValue
-63.794

@<SCITEGIC>MOL_PROPERTY
W(PB)
SciTegic.value.DoubleValue
-65.830

@<SCITEGIC>MOL_PROPERTY
W(SA)
SciTegic.value.DoubleValue
2.036

@<SCITEGIC>MOL_PROPERTY
Valence
SciTegic.value.DoubleValue
8.609

@<SCITEGIC>MOL_PROPERTY
Coulomb
SciTegic.value.DoubleValue
1.892

@<SCITEGIC>MOL_PROPERTY
VdW
SciTegic.value.DoubleValue
0.467

@<SCITEGIC>MOL_PROPERTY
VdW6
SciTegic.value.DoubleValue
-7.569

@<SCITEGIC>MOL_PROPERTY
VdW12
SciTegic.value.DoubleValue
8.036

@<SCITEGIC>MOL_PROPERTY
Bond
SciTegic.value.DoubleValue
0.170

@<SCITEGIC>MOL_PROPERTY
Angle
SciTegic.value.DoubleValue
3.195

@<SCITEGIC>MOL_PROPERTY
Pdih
SciTegic.value.DoubleValue
5.237

@<SCITEGIC>MOL_PROPERTY
Idih
SciTegic.value.DoubleValue
0.007

@<SCITEGIC>MOL_PROPERTY
Tether
SciTegic.value.DoubleValue
0.000

@<TRIPOS>MOLECULE
guest-7_confgen4.mol2 : confsearch ligand conformer 493
          19          18           1
SMALL
USER_CHARGES
 
@<TRIPOS>ATOM
       1    C1      21.351922   19.518594   24.472137 C.2        1 MOL1         0.6115
       2    O1      21.220163   20.717678   24.620752 O.co2      1 MOL1        -0.6776
       3    O2      22.429559   18.976796   24.323798 O.co2      1 MOL1        -0.6776
       4    C2      20.106455   18.637156   24.545365 C.3        1 MOL1        -0.2013
       5    H1      19.703542   18.756306   25.557831 H          1 MOL1         0.0727
       6    H2      20.406612   17.586660   24.448994 H          1 MOL1         0.0727
       7    C3      18.992199   18.975121   23.515152 C.3        1 MOL1        -0.1910
       8    H3      18.048052   18.555033   23.887348 H          1 MOL1         0.0729
       9    H4      18.841619   20.062676   23.469391 H          1 MOL1         0.0729
      10    C4      19.230300   18.411496   22.092369 C.3        1 MOL1        -0.1909
      11    H5      18.317985   18.575180   21.502538 H          1 MOL1         0.0729
      12    H6      19.372769   17.323465   22.144597 H          1 MOL1         0.0729
      13    C5      20.421963   19.056067   21.350719 C.3        1 MOL1        -0.1884
      14    H7      20.333844   20.150811   21.384875 H          1 MOL1         0.0729
      15    H8      21.363161   18.793753   21.850465 H          1 MOL1         0.0729
      16    C6      20.492214   18.591362   19.882063 C.3        1 MOL1        -0.2899
      17    H9      21.348566   19.051312   19.372011 H          1 MOL1         0.0741
      18    H10     20.606598   17.501170   19.820779 H          1 MOL1         0.0741
      19    H11     19.582019   18.872414   19.336287 H          1 MOL1         0.0741
@<TRIPOS>BOND
    1     1     2    1
    2     1     3    2
    3     1     4    1
    4     4     5    1
    5     4     6    1
    6     4     7    1
    7     7     8    1
    8     7     9    1
    9     7    10    1
   10    10    11    1
   11    10    12    1
   12    10    13    1
   13    13    14    1
   14    13    15    1
   15    13    16    1
   16    16    17    1
   17    16    18    1
   18    16    19    1
@<TRIPOS>SUBSTRUCTURE
       1 MOL1            1 RESIDUE      1      MOL     
@<SCITEGIC>MOL_PROPERTY
VConf Rank
SciTegic.value.IntegerValue
493

@<SCITEGIC>MOL_PROPERTY
Conf_Id
SciTegic.value.IntegerValue
52

@<SCITEGIC>MOL_PROPERTY
Delta U+W
SciTegic.value.DoubleValue
2.070

@<SCITEGIC>MOL_PROPERTY
U+W
SciTegic.value.DoubleValue
-52.822

@<SCITEGIC>MOL_PROPERTY
Grad RMS
SciTegic.value.DoubleValue
0.000000

@<SCITEGIC>MOL_PROPERTY
U
SciTegic.value.DoubleValue
10.967

@<SCITEGIC>MOL_PROPERTY
W
SciTegic.value.DoubleValue
-63.789

@<SCITEGIC>MOL_PROPERTY
W(PB)
SciTegic.value.DoubleValue
-65.837

@<SCITEGIC>MOL_PROPERTY
W(SA)
SciTegic.value.DoubleValue
2.048

@<SCITEGIC>MOL_PROPERTY
Valence
SciTegic.value.DoubleValue
8.609

@<SCITEGIC>MOL_PROPERTY
Coulomb
SciTegic.value.DoubleValue
1.892

@<SCITEGIC>MOL_PROPERTY
VdW
SciTegic.value.DoubleValue
0.467

@<SCITEGIC>MOL_PROPERTY
VdW6
SciTegic.value.DoubleValue
-7.569

@<SCITEGIC>MOL_PROPERTY
VdW12
SciTegic.value.DoubleValue
8.035

@<SCITEGIC>MOL_PROPERTY
Bond
SciTegic.value.DoubleValue
0.170

@<SCITEGIC>MOL_PROPERTY
Angle
SciTegic.value.DoubleValue
3.196

@<SCITEGIC>MOL_PROPERTY
Pdih
SciTegic.value.DoubleValue
5.237

@<SCITEGIC>MOL_PROPERTY
Idih
SciTegic.value.DoubleValue
0.007

@<SCITEGIC>MOL_PROPERTY
Tether
SciTegic.value.DoubleValue
0.000

@<TRIPOS>MOLECULE
guest-7_confgen4.mol2 : confsearch ligand conformer 494
          19          18           1
SMALL
USER_CHARGES
 
@<TRIPOS>ATOM
       1    C1      19.499418   17.027625   21.581755 C.2        1 MOL1         0.6115
       2    O1      18.450890   17.125444   20.974189 O.co2      1 MOL1        -0.6776
       3    O2      20.537480   16.666984   21.063040 O.co2      1 MOL1        -0.6776
       4    C2      19.493726   17.244393   23.095810 C.3        1 MOL1        -0.2013
       5    H1      20.528781   17.269873   23.457126 H          1 MOL1         0.0727
       6    H2      19.034268   16.348113   23.528076 H          1 MOL1         0.0727
       7    C3      18.718997   18.496794   23.596465 C.3        1 MOL1        -0.1910
       8    H3      17.784336   18.611368   23.030283 H          1 MOL1         0.0729
       9    H4      18.415953   18.312465   24.635957 H          1 MOL1         0.0729
      10    C4      19.516852   19.825721   23.572781 C.3        1 MOL1        -0.1909
      11    H5      20.400503   19.744464   24.220542 H          1 MOL1         0.0729
      12    H6      18.884179   20.597937   24.031445 H          1 MOL1         0.0729
      13    C5      19.926528   20.317855   22.163540 C.3        1 MOL1        -0.1884
      14    H7      19.270088   19.881184   21.398191 H          1 MOL1         0.0729
      15    H8      19.775159   21.404743   22.109601 H          1 MOL1         0.0729
      16    C6      21.405493   20.022415   21.834144 C.3        1 MOL1        -0.2899
      17    H9      22.073358   20.537760   22.536506 H          1 MOL1         0.0741
      18    H10     21.622196   18.949092   21.886562 H          1 MOL1         0.0741
      19    H11     21.650529   20.365996   20.820967 H          1 MOL1         0.0741
@<TRIPOS>BOND
    1     1     2    1
    2     1     3    2
    3     1     4    1
    4     4     5    1
    5     4     6    1
    6     4     7    1
    7     7     8    1
    8     7     9    1
    9     7    10    1
   10    10    11    1
   11    10    12    1
   12    10    13    1
   13    13    14    1
   14    13    15    1
   15    13    16    1
   16    16    17    1
   17    16    18    1
   18    16    19    1
@<TRIPOS>SUBSTRUCTURE
       1 MOL1            1 RESIDUE      1      MOL     
@<SCITEGIC>MOL_PROPERTY
VConf Rank
SciTegic.value.IntegerValue
494

@<SCITEGIC>MOL_PROPERTY
Conf_Id
SciTegic.value.IntegerValue
66

@<SCITEGIC>MOL_PROPERTY
Delta U+W
SciTegic.value.DoubleValue
5.819

@<SCITEGIC>MOL_PROPERTY
U+W
SciTegic.value.DoubleValue
-49.072

@<SCITEGIC>MOL_PROPERTY
Grad RMS
SciTegic.value.DoubleValue
0.000000

@<SCITEGIC>MOL_PROPERTY
U
SciTegic.value.DoubleValue
15.324

@<SCITEGIC>MOL_PROPERTY
W
SciTegic.value.DoubleValue
-64.396

@<SCITEGIC>MOL_PROPERTY
W(PB)
SciTegic.value.DoubleValue
-66.382

@<SCITEGIC>MOL_PROPERTY
W(SA)
SciTegic.value.DoubleValue
1.986

@<SCITEGIC>MOL_PROPERTY
Valence
SciTegic.value.DoubleValue
11.748

@<SCITEGIC>MOL_PROPERTY
Coulomb
SciTegic.value.DoubleValue
3.201

@<SCITEGIC>MOL_PROPERTY
VdW
SciTegic.value.DoubleValue
0.375

@<SCITEGIC>MOL_PROPERTY
VdW6
SciTegic.value.DoubleValue
-8.854

@<SCITEGIC>MOL_PROPERTY
VdW12
SciTegic.value.DoubleValue
9.229

@<SCITEGIC>MOL_PROPERTY
Bond
SciTegic.value.DoubleValue
0.216

@<SCITEGIC>MOL_PROPERTY
Angle
SciTegic.value.DoubleValue
3.812

@<SCITEGIC>MOL_PROPERTY
Pdih
SciTegic.value.DoubleValue
7.699

@<SCITEGIC>MOL_PROPERTY
Idih
SciTegic.value.DoubleValue
0.022

@<SCITEGIC>MOL_PROPERTY
Tether
SciTegic.value.DoubleValue
0.000

@<TRIPOS>MOLECULE
guest-7_confgen4.mol2 : confsearch ligand conformer 495
          19          18           1
SMALL
USER_CHARGES
 
@<TRIPOS>ATOM
       1    C1      21.900625   18.903629   19.303496 C.2        1 MOL1         0.6115
       2    O1      21.955375   18.411103   18.194405 O.co2      1 MOL1        -0.6776
       3    O2      22.730170   19.687125   19.723181 O.co2      1 MOL1        -0.6776
       4    C2      20.721253   18.499182   20.189600 C.3        1 MOL1        -0.2013
       5    H1      20.746385   17.407656   20.289545 H          1 MOL1         0.0727
       6    H2      19.802659   18.750527   19.646406 H          1 MOL1         0.0727
       7    C3      20.693874   19.153734   21.596456 C.3        1 MOL1        -0.1910
       8    H3      21.619346   18.902902   22.133162 H          1 MOL1         0.0729
       9    H4      20.674686   20.247181   21.489345 H          1 MOL1         0.0729
      10    C4      19.473301   18.691048   22.421310 C.3        1 MOL1        -0.1909
      11    H5      19.494382   17.597643   22.527003 H          1 MOL1         0.0729
      12    H6      18.549219   18.942675   21.882881 H          1 MOL1         0.0729
      13    C5      19.448008   19.342849   23.819492 C.3        1 MOL1        -0.1884
      14    H7      20.370028   19.091911   24.362080 H          1 MOL1         0.0729
      15    H8      19.424855   20.436770   23.718039 H          1 MOL1         0.0729
      16    C6      18.228221   18.878610   24.640219 C.3        1 MOL1        -0.2899
      17    H9      18.242805   17.790264   24.784136 H          1 MOL1         0.0741
      18    H10     18.225963   19.351477   25.630926 H          1 MOL1         0.0741
      19    H11     17.290501   19.145235   24.135232 H          1 MOL1         0.0741
@<TRIPOS>BOND
    1     1     2    1
    2     1     3    2
    3     1     4    1
    4     4     5    1
    5     4     6    1
    6     4     7    1
    7     7     8    1
    8     7     9    1
    9     7    10    1
   10    10    11    1
   11    10    12    1
   12    10    13    1
   13    13    14    1
   14    13    15    1
   15    13    16    1
   16    16    17    1
   17    16    18    1
   18    16    19    1
@<TRIPOS>SUBSTRUCTURE
       1 MOL1            1 RESIDUE      1      MOL     
@<SCITEGIC>MOL_PROPERTY
VConf Rank
SciTegic.value.IntegerValue
495

@<SCITEGIC>MOL_PROPERTY
Conf_Id
SciTegic.value.IntegerValue
0

@<SCITEGIC>MOL_PROPERTY
Delta U+W
SciTegic.value.DoubleValue
0.000

@<SCITEGIC>MOL_PROPERTY
U+W
SciTegic.value.DoubleValue
-54.891

@<SCITEGIC>MOL_PROPERTY
Grad RMS
SciTegic.value.DoubleValue
0.000000

@<SCITEGIC>MOL_PROPERTY
U
SciTegic.value.DoubleValue
6.966

@<SCITEGIC>MOL_PROPERTY
W
SciTegic.value.DoubleValue
-61.857

@<SCITEGIC>MOL_PROPERTY
W(PB)
SciTegic.value.DoubleValue
-63.965

@<SCITEGIC>MOL_PROPERTY
W(SA)
SciTegic.value.DoubleValue
2.108

@<SCITEGIC>MOL_PROPERTY
Valence
SciTegic.value.DoubleValue
7.175

@<SCITEGIC>MOL_PROPERTY
Coulomb
SciTegic.value.DoubleValue
-1.360

@<SCITEGIC>MOL_PROPERTY
VdW
SciTegic.value.DoubleValue
1.151

@<SCITEGIC>MOL_PROPERTY
VdW6
SciTegic.value.DoubleValue
-5.641

@<SCITEGIC>MOL_PROPERTY
VdW12
SciTegic.value.DoubleValue
6.792

@<SCITEGIC>MOL_PROPERTY
Bond
SciTegic.value.DoubleValue
0.119

@<SCITEGIC>MOL_PROPERTY
Angle
SciTegic.value.DoubleValue
2.715

@<SCITEGIC>MOL_PROPERTY
Pdih
SciTegic.value.DoubleValue
4.340

@<SCITEGIC>MOL_PROPERTY
Idih
SciTegic.value.DoubleValue
0.000

@<SCITEGIC>MOL_PROPERTY
Tether
SciTegic.value.DoubleValue
0.000

@<TRIPOS>MOLECULE
guest-7_confgen4.mol2 : confsearch ligand conformer 496
          19          18           1
SMALL
USER_CHARGES
 
@<TRIPOS>ATOM
       1    C1      21.780355   20.271316   24.643207 C.2        1 MOL1         0.6115
       2    O1      22.788799   19.653295   24.921186 O.co2      1 MOL1        -0.6776
       3    O2      21.670406   21.473985   24.776174 O.co2      1 MOL1        -0.6776
       4    C2      20.594709   19.497915   24.077113 C.3        1 MOL1        -0.2013
       5    H1      19.674592   19.996882   24.404462 H          1 MOL1         0.0727
       6    H2      20.596591   18.496217   24.523591 H          1 MOL1         0.0727
       7    C3      20.625592   19.394260   22.532310 C.3        1 MOL1        -0.1910
       8    H3      20.636156   20.404910   22.101003 H          1 MOL1         0.0729
       9    H4      21.558333   18.904277   22.220125 H          1 MOL1         0.0729
      10    C4      19.415486   18.607158   21.984825 C.3        1 MOL1        -0.1909
      11    H5      18.484657   19.098670   22.299733 H          1 MOL1         0.0729
      12    H6      19.407026   17.597801   22.418784 H          1 MOL1         0.0729
      13    C5      19.448827   18.505559   20.445689 C.3        1 MOL1        -0.1884
      14    H7      19.455461   19.513366   20.007768 H          1 MOL1         0.0729
      15    H8      20.377683   18.012575   20.126808 H          1 MOL1         0.0729
      16    C6      18.239115   17.719121   19.902487 C.3        1 MOL1        -0.2899
      17    H9      18.278639   17.656564   18.807209 H          1 MOL1         0.0741
      18    H10     18.225183   16.695850   20.300162 H          1 MOL1         0.0741
      19    H11     17.296049   18.207880   20.180271 H          1 MOL1         0.0741
@<TRIPOS>BOND
    1     1     2    1
    2     1     3    2
    3     1     4    1
    4     4     5    1
    5     4     6    1
    6     4     7    1
    7     7     8    1
    8     7     9    1
    9     7    10    1
   10    10    11    1
   11    10    12    1
   12    10    13    1
   13    13    14    1
   14    13    15    1
   15    13    16    1
   16    16    17    1
   17    16    18    1
   18    16    19    1
@<TRIPOS>SUBSTRUCTURE
       1 MOL1            1 RESIDUE      1      MOL     
@<SCITEGIC>MOL_PROPERTY
VConf Rank
SciTegic.value.IntegerValue
496

@<SCITEGIC>MOL_PROPERTY
Conf_Id
SciTegic.value.IntegerValue
18

@<SCITEGIC>MOL_PROPERTY
Delta U+W
SciTegic.value.DoubleValue
-1.199

@<SCITEGIC>MOL_PROPERTY
U+W
SciTegic.value.DoubleValue
-56.090

@<SCITEGIC>MOL_PROPERTY
Grad RMS
SciTegic.value.DoubleValue
0.000000

@<SCITEGIC>MOL_PROPERTY
U
SciTegic.value.DoubleValue
5.975

@<SCITEGIC>MOL_PROPERTY
W
SciTegic.value.DoubleValue
-62.066

@<SCITEGIC>MOL_PROPERTY
W(PB)
SciTegic.value.DoubleValue
-64.219

@<SCITEGIC>MOL_PROPERTY
W(SA)
SciTegic.value.DoubleValue
2.153

@<SCITEGIC>MOL_PROPERTY
Valence
SciTegic.value.DoubleValue
6.673

@<SCITEGIC>MOL_PROPERTY
Coulomb
SciTegic.value.DoubleValue
-1.307

@<SCITEGIC>MOL_PROPERTY
VdW
SciTegic.value.DoubleValue
0.610

@<SCITEGIC>MOL_PROPERTY
VdW6
SciTegic.value.DoubleValue
-5.351

@<SCITEGIC>MOL_PROPERTY
VdW12
SciTegic.value.DoubleValue
5.961

@<SCITEGIC>MOL_PROPERTY
Bond
SciTegic.value.DoubleValue
0.086

@<SCITEGIC>MOL_PROPERTY
Angle
SciTegic.value.DoubleValue
2.253

@<SCITEGIC>MOL_PROPERTY
Pdih
SciTegic.value.DoubleValue
4.333

@<SCITEGIC>MOL_PROPERTY
Idih
SciTegic.value.DoubleValue
0.001

@<SCITEGIC>MOL_PROPERTY
Tether
SciTegic.value.DoubleValue
0.000

@<TRIPOS>MOLECULE
guest-7_confgen4.mol2 : confsearch ligand conformer 497
          19          18           1
SMALL
USER_CHARGES
 
@<TRIPOS>ATOM
       1    C1      17.221345   18.270293   23.689493 C.2        1 MOL1         0.6115
       2    O1      17.122447   17.471156   24.599376 O.co2      1 MOL1        -0.6776
       3    O2      16.394744   19.129871   23.456860 O.co2      1 MOL1        -0.6776
       4    C2      18.460986   18.204231   22.804458 C.3        1 MOL1        -0.2013
       5    H1      18.166850   18.513566   21.795182 H          1 MOL1         0.0727
       6    H2      18.780521   17.156974   22.743957 H          1 MOL1         0.0727
       7    C3      19.621839   19.087901   23.330508 C.3        1 MOL1        -0.1910
       8    H3      19.304883   20.139874   23.344680 H          1 MOL1         0.0729
       9    H4      19.829458   18.812507   24.373808 H          1 MOL1         0.0729
      10    C4      20.926614   18.945814   22.511418 C.3        1 MOL1        -0.1909
      11    H5      21.245407   17.894457   22.506311 H          1 MOL1         0.0729
      12    H6      21.720858   19.508876   23.020487 H          1 MOL1         0.0729
      13    C5      20.799416   19.458577   21.059382 C.3        1 MOL1        -0.1884
      14    H7      20.063115   18.858402   20.508919 H          1 MOL1         0.0729
      15    H8      20.431718   20.493978   21.062736 H          1 MOL1         0.0729
      16    C6      22.150169   19.397577   20.318427 C.3        1 MOL1        -0.2899
      17    H9      22.043027   19.761930   19.288447 H          1 MOL1         0.0741
      18    H10     22.902842   20.019129   20.820963 H          1 MOL1         0.0741
      19    H11     22.528409   18.367746   20.276143 H          1 MOL1         0.0741
@<TRIPOS>BOND
    1     1     2    1
    2     1     3    2
    3     1     4    1
    4     4     5    1
    5     4     6    1
    6     4     7    1
    7     7     8    1
    8     7     9    1
    9     7    10    1
   10    10    11    1
   11    10    12    1
   12    10    13    1
   13    13    14    1
   14    13    15    1
   15    13    16    1
   16    16    17    1
   17    16    18    1
   18    16    19    1
@<TRIPOS>SUBSTRUCTURE
       1 MOL1            1 RESIDUE      1      MOL     
@<SCITEGIC>MOL_PROPERTY
VConf Rank
SciTegic.value.IntegerValue
497

@<SCITEGIC>MOL_PROPERTY
Conf_Id
SciTegic.value.IntegerValue
34

@<SCITEGIC>MOL_PROPERTY
Delta U+W
SciTegic.value.DoubleValue
-0.563

@<SCITEGIC>MOL_PROPERTY
U+W
SciTegic.value.DoubleValue
-55.455

@<SCITEGIC>MOL_PROPERTY
Grad RMS
SciTegic.value.DoubleValue
0.000000

@<SCITEGIC>MOL_PROPERTY
U
SciTegic.value.DoubleValue
6.914

@<SCITEGIC>MOL_PROPERTY
W
SciTegic.value.DoubleValue
-62.369

@<SCITEGIC>MOL_PROPERTY
W(PB)
SciTegic.value.DoubleValue
-64.446

@<SCITEGIC>MOL_PROPERTY
W(SA)
SciTegic.value.DoubleValue
2.077

@<SCITEGIC>MOL_PROPERTY
Valence
SciTegic.value.DoubleValue
7.196

@<SCITEGIC>MOL_PROPERTY
Coulomb
SciTegic.value.DoubleValue
-1.020

@<SCITEGIC>MOL_PROPERTY
VdW
SciTegic.value.DoubleValue
0.738

@<SCITEGIC>MOL_PROPERTY
VdW6
SciTegic.value.DoubleValue
-6.010

@<SCITEGIC>MOL_PROPERTY
VdW12
SciTegic.value.DoubleValue
6.748

@<SCITEGIC>MOL_PROPERTY
Bond
SciTegic.value.DoubleValue
0.126

@<SCITEGIC>MOL_PROPERTY
Angle
SciTegic.value.DoubleValue
2.499

@<SCITEGIC>MOL_PROPERTY
Pdih
SciTegic.value.DoubleValue
4.570

@<SCITEGIC>MOL_PROPERTY
Idih
SciTegic.value.DoubleValue
0.001

@<SCITEGIC>MOL_PROPERTY
Tether
SciTegic.value.DoubleValue
0.000

@<TRIPOS>MOLECULE
guest-7_confgen4.mol2 : confsearch ligand conformer 498
          19          18           1
SMALL
USER_CHARGES
 
@<TRIPOS>ATOM
       1    C1      21.597321   16.930187   24.115101 C.2        1 MOL1         0.6115
       2    O1      22.446278   17.299092   24.902165 O.co2      1 MOL1        -0.6776
       3    O2      21.486344   15.781358   23.735446 O.co2      1 MOL1        -0.6776
       4    C2      20.632448   17.970116   23.556598 C.3        1 MOL1        -0.2013
       5    H1      20.469971   18.732507   24.327878 H          1 MOL1         0.0727
       6    H2      19.671303   17.473439   23.382367 H          1 MOL1         0.0727
       7    C3      21.150729   18.630647   22.252656 C.3        1 MOL1        -0.1910
       8    H3      22.153965   19.038407   22.438863 H          1 MOL1         0.0729
       9    H4      21.267183   17.864036   21.474160 H          1 MOL1         0.0729
      10    C4      20.241459   19.769511   21.733292 C.3        1 MOL1        -0.1909
      11    H5      20.741204   20.254579   20.883600 H          1 MOL1         0.0729
      12    H6      20.133964   20.538309   22.510726 H          1 MOL1         0.0729
      13    C5      18.844969   19.284265   21.283997 C.3        1 MOL1        -0.1884
      14    H7      18.952602   18.479601   20.543591 H          1 MOL1         0.0729
      15    H8      18.297427   18.863685   22.137621 H          1 MOL1         0.0729
      16    C6      18.016860   20.433163   20.674462 C.3        1 MOL1        -0.2899
      17    H9      17.870251   21.240906   21.403478 H          1 MOL1         0.0741
      18    H10     18.517353   20.853769   19.792427 H          1 MOL1         0.0741
      19    H11     17.027415   20.073764   20.363141 H          1 MOL1         0.0741
@<TRIPOS>BOND
    1     1     2    1
    2     1     3    2
    3     1     4    1
    4     4     5    1
    5     4     6    1
    6     4     7    1
    7     7     8    1
    8     7     9    1
    9     7    10    1
   10    10    11    1
   11    10    12    1
   12    10    13    1
   13    13    14    1
   14    13    15    1
   15    13    16    1
   16    16    17    1
   17    16    18    1
   18    16    19    1
@<TRIPOS>SUBSTRUCTURE
       1 MOL1            1 RESIDUE      1      MOL     
@<SCITEGIC>MOL_PROPERTY
VConf Rank
SciTegic.value.IntegerValue
498

@<SCITEGIC>MOL_PROPERTY
Conf_Id
SciTegic.value.IntegerValue
33

@<SCITEGIC>MOL_PROPERTY
Delta U+W
SciTegic.value.DoubleValue
-0.526

@<SCITEGIC>MOL_PROPERTY
U+W
SciTegic.value.DoubleValue
-55.418

@<SCITEGIC>MOL_PROPERTY
Grad RMS
SciTegic.value.DoubleValue
0.000000

@<SCITEGIC>MOL_PROPERTY
U
SciTegic.value.DoubleValue
6.914

@<SCITEGIC>MOL_PROPERTY
W
SciTegic.value.DoubleValue
-62.332

@<SCITEGIC>MOL_PROPERTY
W(PB)
SciTegic.value.DoubleValue
-64.421

@<SCITEGIC>MOL_PROPERTY
W(SA)
SciTegic.value.DoubleValue
2.090

@<SCITEGIC>MOL_PROPERTY
Valence
SciTegic.value.DoubleValue
7.196

@<SCITEGIC>MOL_PROPERTY
Coulomb
SciTegic.value.DoubleValue
-1.020

@<SCITEGIC>MOL_PROPERTY
VdW
SciTegic.value.DoubleValue
0.738

@<SCITEGIC>MOL_PROPERTY
VdW6
SciTegic.value.DoubleValue
-6.010

@<SCITEGIC>MOL_PROPERTY
VdW12
SciTegic.value.DoubleValue
6.748

@<SCITEGIC>MOL_PROPERTY
Bond
SciTegic.value.DoubleValue
0.126

@<SCITEGIC>MOL_PROPERTY
Angle
SciTegic.value.DoubleValue
2.499

@<SCITEGIC>MOL_PROPERTY
Pdih
SciTegic.value.DoubleValue
4.570

@<SCITEGIC>MOL_PROPERTY
Idih
SciTegic.value.DoubleValue
0.001

@<SCITEGIC>MOL_PROPERTY
Tether
SciTegic.value.DoubleValue
0.000

@<TRIPOS>MOLECULE
guest-7_confgen4.mol2 : confsearch ligand conformer 499
          19          18           1
SMALL
USER_CHARGES
 
@<TRIPOS>ATOM
       1    C1      17.628866   19.875895   20.231185 C.2        1 MOL1         0.6115
       2    O1      16.993976   18.909657   19.857666 O.co2      1 MOL1        -0.6776
       3    O2      17.139280   20.972938   20.412973 O.co2      1 MOL1        -0.6776
       4    C2      19.118348   19.697801   20.503629 C.3        1 MOL1        -0.2013
       5    H1      19.623799   20.640653   20.262322 H          1 MOL1         0.0727
       6    H2      19.502914   18.937727   19.812888 H          1 MOL1         0.0727
       7    C3      19.418258   19.289377   21.967079 C.3        1 MOL1        -0.1910
       8    H3      19.019020   20.055087   22.646444 H          1 MOL1         0.0729
       9    H4      18.887705   18.354483   22.190927 H          1 MOL1         0.0729
      10    C4      20.934351   19.112549   22.213770 C.3        1 MOL1        -0.1909
      11    H5      21.454730   20.033342   21.916553 H          1 MOL1         0.0729
      12    H6      21.323833   18.312775   21.569042 H          1 MOL1         0.0729
      13    C5      21.284622   18.804810   23.687945 C.3        1 MOL1        -0.1884
      14    H7      22.377673   18.811888   23.799448 H          1 MOL1         0.0729
      15    H8      20.901469   19.605532   24.335529 H          1 MOL1         0.0729
      16    C6      20.744699   17.441868   24.172430 C.3        1 MOL1        -0.2899
      17    H9      21.091264   16.628246   23.521992 H          1 MOL1         0.0741
      18    H10     21.093443   17.231455   25.191765 H          1 MOL1         0.0741
      19    H11     19.647741   17.427731   24.187476 H          1 MOL1         0.0741
@<TRIPOS>BOND
    1     1     2    1
    2     1     3    2
    3     1     4    1
    4     4     5    1
    5     4     6    1
    6     4     7    1
    7     7     8    1
    8     7     9    1
    9     7    10    1
   10    10    11    1
   11    10    12    1
   12    10    13    1
   13    13    14    1
   14    13    15    1
   15    13    16    1
   16    16    17    1
   17    16    18    1
   18    16    19    1
@<TRIPOS>SUBSTRUCTURE
       1 MOL1            1 RESIDUE      1      MOL     
@<SCITEGIC>MOL_PROPERTY
VConf Rank
SciTegic.value.IntegerValue
499

@<SCITEGIC>MOL_PROPERTY
Conf_Id
SciTegic.value.IntegerValue
42

@<SCITEGIC>MOL_PROPERTY
Delta U+W
SciTegic.value.DoubleValue
-0.344

@<SCITEGIC>MOL_PROPERTY
U+W
SciTegic.value.DoubleValue
-55.236

@<SCITEGIC>MOL_PROPERTY
Grad RMS
SciTegic.value.DoubleValue
0.000000

@<SCITEGIC>MOL_PROPERTY
U
SciTegic.value.DoubleValue
7.244

@<SCITEGIC>MOL_PROPERTY
W
SciTegic.value.DoubleValue
-62.479

@<SCITEGIC>MOL_PROPERTY
W(PB)
SciTegic.value.DoubleValue
-64.610

@<SCITEGIC>MOL_PROPERTY
W(SA)
SciTegic.value.DoubleValue
2.130

@<SCITEGIC>MOL_PROPERTY
Valence
SciTegic.value.DoubleValue
7.174

@<SCITEGIC>MOL_PROPERTY
Coulomb
SciTegic.value.DoubleValue
-0.669

@<SCITEGIC>MOL_PROPERTY
VdW
SciTegic.value.DoubleValue
0.739

@<SCITEGIC>MOL_PROPERTY
VdW6
SciTegic.value.DoubleValue
-5.969

@<SCITEGIC>MOL_PROPERTY
VdW12
SciTegic.value.DoubleValue
6.708

@<SCITEGIC>MOL_PROPERTY
Bond
SciTegic.value.DoubleValue
0.116

@<SCITEGIC>MOL_PROPERTY
Angle
SciTegic.value.DoubleValue
2.481

@<SCITEGIC>MOL_PROPERTY
Pdih
SciTegic.value.DoubleValue
4.576

@<SCITEGIC>MOL_PROPERTY
Idih
SciTegic.value.DoubleValue
0.000

@<SCITEGIC>MOL_PROPERTY
Tether
SciTegic.value.DoubleValue
0.000

@<TRIPOS>MOLECULE
guest-7_confgen4.mol2 : confsearch ligand conformer 500
          19          18           1
SMALL
USER_CHARGES
 
@<TRIPOS>ATOM
       1    C1      22.634038   20.234410   23.557252 C.2        1 MOL1         0.6115
       2    O1      22.302093   21.006278   24.434892 O.co2      1 MOL1        -0.6776
       3    O2      23.599073   20.406977   22.839495 O.co2      1 MOL1        -0.6776
       4    C2      21.782380   18.990014   23.332182 C.3        1 MOL1        -0.2013
       5    H1      21.367106   18.681470   24.299175 H          1 MOL1         0.0727
       6    H2      22.441884   18.183271   22.990279 H          1 MOL1         0.0727
       7    C3      20.641571   19.217844   22.309884 C.3        1 MOL1        -0.1910
       8    H3      20.006561   20.040802   22.663610 H          1 MOL1         0.0729
       9    H4      21.072475   19.535122   21.350251 H          1 MOL1         0.0729
      10    C4      19.792800   17.941950   22.104115 C.3        1 MOL1        -0.1909
      11    H5      19.322219   17.652842   23.053840 H          1 MOL1         0.0729
      12    H6      20.455945   17.113316   21.820221 H          1 MOL1         0.0729
      13    C5      18.706394   18.096452   21.014877 C.3        1 MOL1        -0.1884
      14    H7      19.173891   18.380187   20.061846 H          1 MOL1         0.0729
      15    H8      18.232018   17.119363   20.849014 H          1 MOL1         0.0729
      16    C6      17.613596   19.123055   21.383292 C.3        1 MOL1        -0.2899
      17    H9      18.023170   20.138882   21.447253 H          1 MOL1         0.0741
      18    H10     16.822696   19.131293   20.622141 H          1 MOL1         0.0741
      19    H11     17.151607   18.876024   22.348019 H          1 MOL1         0.0741
@<TRIPOS>BOND
    1     1     2    1
    2     1     3    2
    3     1     4    1
    4     4     5    1
    5     4     6    1
    6     4     7    1
    7     7     8    1
    8     7     9    1
    9     7    10    1
   10    10    11    1
   11    10    12    1
   12    10    13    1
   13    13    14    1
   14    13    15    1
   15    13    16    1
   16    16    17    1
   17    16    18    1
   18    16    19    1
@<TRIPOS>SUBSTRUCTURE
       1 MOL1            1 RESIDUE      1      MOL     
@<SCITEGIC>MOL_PROPERTY
VConf Rank
SciTegic.value.IntegerValue
500

@<SCITEGIC>MOL_PROPERTY
Conf_Id
SciTegic.value.IntegerValue
41

@<SCITEGIC>MOL_PROPERTY
Delta U+W
SciTegic.value.DoubleValue
-0.361

@<SCITEGIC>MOL_PROPERTY
U+W
SciTegic.value.DoubleValue
-55.252

@<SCITEGIC>MOL_PROPERTY
Grad RMS
SciTegic.value.DoubleValue
0.000000

@<SCITEGIC>MOL_PROPERTY
U
SciTegic.value.DoubleValue
7.244

@<SCITEGIC>MOL_PROPERTY
W
SciTegic.value.DoubleValue
-62.496

@<SCITEGIC>MOL_PROPERTY
W(PB)
SciTegic.value.DoubleValue
-64.596

@<SCITEGIC>MOL_PROPERTY
W(SA)
SciTegic.value.DoubleValue
2.099

@<SCITEGIC>MOL_PROPERTY
Valence
SciTegic.value.DoubleValue
7.174

@<SCITEGIC>MOL_PROPERTY
Coulomb
SciTegic.value.DoubleValue
-0.669

@<SCITEGIC>MOL_PROPERTY
VdW
SciTegic.value.DoubleValue
0.739

@<SCITEGIC>MOL_PROPERTY
VdW6
SciTegic.value.DoubleValue
-5.969

@<SCITEGIC>MOL_PROPERTY
VdW12
SciTegic.value.DoubleValue
6.708

@<SCITEGIC>MOL_PROPERTY
Bond
SciTegic.value.DoubleValue
0.116

@<SCITEGIC>MOL_PROPERTY
Angle
SciTegic.value.DoubleValue
2.481

@<SCITEGIC>MOL_PROPERTY
Pdih
SciTegic.value.DoubleValue
4.576

@<SCITEGIC>MOL_PROPERTY
Idih
SciTegic.value.DoubleValue
0.000

@<SCITEGIC>MOL_PROPERTY
Tether
SciTegic.value.DoubleValue
0.000

@<TRIPOS>MOLECULE
guest-7_confgen4.mol2 : confsearch ligand conformer 501
          19          18           1
SMALL
USER_CHARGES
 
@<TRIPOS>ATOM
       1    C1      17.379018   20.467855   22.401935 C.2        1 MOL1         0.6115
       2    O1      17.227418   20.573427   23.602944 O.co2      1 MOL1        -0.6776
       3    O2      17.334685   21.408540   21.633933 O.co2      1 MOL1        -0.6776
       4    C2      17.616128   19.076236   21.821832 C.3        1 MOL1        -0.2013
       5    H1      16.957669   18.967010   20.951997 H          1 MOL1         0.0727
       6    H2      17.294883   18.330015   22.558678 H          1 MOL1         0.0727
       7    C3      19.083735   18.811053   21.396511 C.3        1 MOL1        -0.1910
       8    H3      19.133217   17.849581   20.867685 H          1 MOL1         0.0729
       9    H4      19.400223   19.582493   20.680726 H          1 MOL1         0.0729
      10    C4      20.054679   18.781968   22.598065 C.3        1 MOL1        -0.1909
      11    H5      19.726705   18.018429   23.316724 H          1 MOL1         0.0729
      12    H6      20.023657   19.746978   23.122676 H          1 MOL1         0.0729
      13    C5      21.502692   18.485609   22.155309 C.3        1 MOL1        -0.1884
      14    H7      21.540634   17.519309   21.633529 H          1 MOL1         0.0729
      15    H8      21.834177   19.249331   21.438147 H          1 MOL1         0.0729
      16    C6      22.468953   18.457169   23.356353 C.3        1 MOL1        -0.2899
      17    H9      22.178740   17.680003   24.075516 H          1 MOL1         0.0741
      18    H10     23.493526   18.245759   23.023720 H          1 MOL1         0.0741
      19    H11     22.474480   19.422843   23.878735 H          1 MOL1         0.0741
@<TRIPOS>BOND
    1     1     2    1
    2     1     3    2
    3     1     4    1
    4     4     5    1
    5     4     6    1
    6     4     7    1
    7     7     8    1
    8     7     9    1
    9     7    10    1
   10    10    11    1
   11    10    12    1
   12    10    13    1
   13    13    14    1
   14    13    15    1
   15    13    16    1
   16    16    17    1
   17    16    18    1
   18    16    19    1
@<TRIPOS>SUBSTRUCTURE
       1 MOL1            1 RESIDUE      1      MOL     
@<SCITEGIC>MOL_PROPERTY
VConf Rank
SciTegic.value.IntegerValue
501

@<SCITEGIC>MOL_PROPERTY
Conf_Id
SciTegic.value.IntegerValue
36

@<SCITEGIC>MOL_PROPERTY
Delta U+W
SciTegic.value.DoubleValue
-0.079

@<SCITEGIC>MOL_PROPERTY
U+W
SciTegic.value.DoubleValue
-54.971

@<SCITEGIC>MOL_PROPERTY
Grad RMS
SciTegic.value.DoubleValue
0.000000

@<SCITEGIC>MOL_PROPERTY
U
SciTegic.value.DoubleValue
8.266

@<SCITEGIC>MOL_PROPERTY
W
SciTegic.value.DoubleValue
-63.237

@<SCITEGIC>MOL_PROPERTY
W(PB)
SciTegic.value.DoubleValue
-65.340

@<SCITEGIC>MOL_PROPERTY
W(SA)
SciTegic.value.DoubleValue
2.103

@<SCITEGIC>MOL_PROPERTY
Valence
SciTegic.value.DoubleValue
6.935

@<SCITEGIC>MOL_PROPERTY
Coulomb
SciTegic.value.DoubleValue
0.874

@<SCITEGIC>MOL_PROPERTY
VdW
SciTegic.value.DoubleValue
0.457

@<SCITEGIC>MOL_PROPERTY
VdW6
SciTegic.value.DoubleValue
-6.205

@<SCITEGIC>MOL_PROPERTY
VdW12
SciTegic.value.DoubleValue
6.662

@<SCITEGIC>MOL_PROPERTY
Bond
SciTegic.value.DoubleValue
0.107

@<SCITEGIC>MOL_PROPERTY
Angle
SciTegic.value.DoubleValue
2.420

@<SCITEGIC>MOL_PROPERTY
Pdih
SciTegic.value.DoubleValue
4.407

@<SCITEGIC>MOL_PROPERTY
Idih
SciTegic.value.DoubleValue
0.001

@<SCITEGIC>MOL_PROPERTY
Tether
SciTegic.value.DoubleValue
0.000

@<TRIPOS>MOLECULE
guest-7_confgen4.mol2 : confsearch ligand conformer 502
          19          18           1
SMALL
USER_CHARGES
 
@<TRIPOS>ATOM
       1    C1      21.304212   18.850345   19.727551 C.2        1 MOL1         0.6115
       2    O1      21.973976   19.863822   19.756405 O.co2      1 MOL1        -0.6776
       3    O2      20.524988   18.585261   18.833560 O.co2      1 MOL1        -0.6776
       4    C2      21.464523   17.844174   20.863891 C.3        1 MOL1        -0.2013
       5    H1      22.409191   18.048642   21.382333 H          1 MOL1         0.0727
       6    H2      21.559999   16.850328   20.410830 H          1 MOL1         0.0727
       7    C3      20.288805   17.841144   21.875212 C.3        1 MOL1        -0.1910
       8    H3      19.346895   17.663673   21.337679 H          1 MOL1         0.0729
       9    H4      20.419212   17.000952   22.570630 H          1 MOL1         0.0729
      10    C4      20.192852   19.157273   22.678896 C.3        1 MOL1        -0.1909
      11    H5      20.045141   20.001297   21.990981 H          1 MOL1         0.0729
      12    H6      21.141112   19.336853   23.203857 H          1 MOL1         0.0729
      13    C5      19.036826   19.120013   23.700081 C.3        1 MOL1        -0.1884
      14    H7      18.086659   18.942863   23.177325 H          1 MOL1         0.0729
      15    H8      19.181470   18.280083   24.393643 H          1 MOL1         0.0729
      16    C6      18.943752   20.434529   24.500310 C.3        1 MOL1        -0.2899
      17    H9      18.767700   21.288608   23.833230 H          1 MOL1         0.0741
      18    H10     18.116784   20.391072   25.220949 H          1 MOL1         0.0741
      19    H11     19.870589   20.620885   25.058566 H          1 MOL1         0.0741
@<TRIPOS>BOND
    1     1     2    1
    2     1     3    2
    3     1     4    1
    4     4     5    1
    5     4     6    1
    6     4     7    1
    7     7     8    1
    8     7     9    1
    9     7    10    1
   10    10    11    1
   11    10    12    1
   12    10    13    1
   13    13    14    1
   14    13    15    1
   15    13    16    1
   16    16    17    1
   17    16    18    1
   18    16    19    1
@<TRIPOS>SUBSTRUCTURE
       1 MOL1            1 RESIDUE      1      MOL     
@<SCITEGIC>MOL_PROPERTY
VConf Rank
SciTegic.value.IntegerValue
502

@<SCITEGIC>MOL_PROPERTY
Conf_Id
SciTegic.value.IntegerValue
35

@<SCITEGIC>MOL_PROPERTY
Delta U+W
SciTegic.value.DoubleValue
-0.030

@<SCITEGIC>MOL_PROPERTY
U+W
SciTegic.value.DoubleValue
-54.921

@<SCITEGIC>MOL_PROPERTY
Grad RMS
SciTegic.value.DoubleValue
0.000000

@<SCITEGIC>MOL_PROPERTY
U
SciTegic.value.DoubleValue
8.267

@<SCITEGIC>MOL_PROPERTY
W
SciTegic.value.DoubleValue
-63.188

@<SCITEGIC>MOL_PROPERTY
W(PB)
SciTegic.value.DoubleValue
-65.294

@<SCITEGIC>MOL_PROPERTY
W(SA)
SciTegic.value.DoubleValue
2.106

@<SCITEGIC>MOL_PROPERTY
Valence
SciTegic.value.DoubleValue
6.935

@<SCITEGIC>MOL_PROPERTY
Coulomb
SciTegic.value.DoubleValue
0.875

@<SCITEGIC>MOL_PROPERTY
VdW
SciTegic.value.DoubleValue
0.457

@<SCITEGIC>MOL_PROPERTY
VdW6
SciTegic.value.DoubleValue
-6.205

@<SCITEGIC>MOL_PROPERTY
VdW12
SciTegic.value.DoubleValue
6.662

@<SCITEGIC>MOL_PROPERTY
Bond
SciTegic.value.DoubleValue
0.107

@<SCITEGIC>MOL_PROPERTY
Angle
SciTegic.value.DoubleValue
2.420

@<SCITEGIC>MOL_PROPERTY
Pdih
SciTegic.value.DoubleValue
4.407

@<SCITEGIC>MOL_PROPERTY
Idih
SciTegic.value.DoubleValue
0.001

@<SCITEGIC>MOL_PROPERTY
Tether
SciTegic.value.DoubleValue
0.000

@<TRIPOS>MOLECULE
guest-7_confgen4.mol2 : confsearch ligand conformer 503
          19          18           1
SMALL
USER_CHARGES
 
@<TRIPOS>ATOM
       1    C1      21.927962   17.742137   24.274726 C.2        1 MOL1         0.6115
       2    O1      23.066779   17.639507   23.863298 O.co2      1 MOL1        -0.6776
       3    O2      21.336559   16.846646   24.844798 O.co2      1 MOL1        -0.6776
       4    C2      21.211211   19.075971   24.083320 C.3        1 MOL1        -0.2013
       5    H1      21.911045   19.868155   24.374475 H          1 MOL1         0.0727
       6    H2      20.367988   19.124692   24.783006 H          1 MOL1         0.0727
       7    C3      20.718997   19.327982   22.634204 C.3        1 MOL1        -0.1910
       8    H3      20.360796   20.362877   22.563247 H          1 MOL1         0.0729
       9    H4      21.566640   19.237012   21.940983 H          1 MOL1         0.0729
      10    C4      19.590200   18.356836   22.213046 C.3        1 MOL1        -0.1909
      11    H5      18.728838   18.476767   22.884232 H          1 MOL1         0.0729
      12    H6      19.938536   17.322427   22.338284 H          1 MOL1         0.0729
      13    C5      19.134500   18.543464   20.747325 C.3        1 MOL1        -0.1884
      14    H7      19.993732   18.421953   20.073332 H          1 MOL1         0.0729
      15    H8      18.426157   17.742553   20.494320 H          1 MOL1         0.0729
      16    C6      18.457019   19.906012   20.485600 C.3        1 MOL1        -0.2899
      17    H9      19.163289   20.735979   20.611927 H          1 MOL1         0.0741
      18    H10     18.071703   19.951713   19.458770 H          1 MOL1         0.0741
      19    H11     17.613476   20.063371   21.170305 H          1 MOL1         0.0741
@<TRIPOS>BOND
    1     1     2    1
    2     1     3    2
    3     1     4    1
    4     4     5    1
    5     4     6    1
    6     4     7    1
    7     7     8    1
    8     7     9    1
    9     7    10    1
   10    10    11    1
   11    10    12    1
   12    10    13    1
   13    13    14    1
   14    13    15    1
   15    13    16    1
   16    16    17    1
   17    16    18    1
   18    16    19    1
@<TRIPOS>SUBSTRUCTURE
       1 MOL1            1 RESIDUE      1      MOL     
@<SCITEGIC>MOL_PROPERTY
VConf Rank
SciTegic.value.IntegerValue
503

@<SCITEGIC>MOL_PROPERTY
Conf_Id
SciTegic.value.IntegerValue
74

@<SCITEGIC>MOL_PROPERTY
Delta U+W
SciTegic.value.DoubleValue
0.797

@<SCITEGIC>MOL_PROPERTY
U+W
SciTegic.value.DoubleValue
-54.095

@<SCITEGIC>MOL_PROPERTY
Grad RMS
SciTegic.value.DoubleValue
0.000000

@<SCITEGIC>MOL_PROPERTY
U
SciTegic.value.DoubleValue
8.869

@<SCITEGIC>MOL_PROPERTY
W
SciTegic.value.DoubleValue
-62.964

@<SCITEGIC>MOL_PROPERTY
W(PB)
SciTegic.value.DoubleValue
-65.046

@<SCITEGIC>MOL_PROPERTY
W(SA)
SciTegic.value.DoubleValue
2.082

@<SCITEGIC>MOL_PROPERTY
Valence
SciTegic.value.DoubleValue
7.469

@<SCITEGIC>MOL_PROPERTY
Coulomb
SciTegic.value.DoubleValue
0.762

@<SCITEGIC>MOL_PROPERTY
VdW
SciTegic.value.DoubleValue
0.639

@<SCITEGIC>MOL_PROPERTY
VdW6
SciTegic.value.DoubleValue
-6.782

@<SCITEGIC>MOL_PROPERTY
VdW12
SciTegic.value.DoubleValue
7.421

@<SCITEGIC>MOL_PROPERTY
Bond
SciTegic.value.DoubleValue
0.141

@<SCITEGIC>MOL_PROPERTY
Angle
SciTegic.value.DoubleValue
2.667

@<SCITEGIC>MOL_PROPERTY
Pdih
SciTegic.value.DoubleValue
4.660

@<SCITEGIC>MOL_PROPERTY
Idih
SciTegic.value.DoubleValue
0.001

@<SCITEGIC>MOL_PROPERTY
Tether
SciTegic.value.DoubleValue
0.000

@<TRIPOS>MOLECULE
guest-7_confgen4.mol2 : confsearch ligand conformer 504
          19          18           1
SMALL
USER_CHARGES
 
@<TRIPOS>ATOM
       1    C1      21.015622   21.582361   22.985162 C.2        1 MOL1         0.6115
       2    O1      20.583702   22.396585   23.776937 O.co2      1 MOL1        -0.6776
       3    O2      22.172628   21.552855   22.615312 O.co2      1 MOL1        -0.6776
       4    C2      20.057378   20.528939   22.440840 C.3        1 MOL1        -0.2013
       5    H1      20.370206   20.289889   21.418024 H          1 MOL1         0.0727
       6    H2      19.057849   20.975746   22.380328 H          1 MOL1         0.0727
       7    C3      20.017999   19.245919   23.310838 C.3        1 MOL1        -0.1910
       8    H3      21.015078   18.786439   23.332971 H          1 MOL1         0.0729
       9    H4      19.791610   19.530074   24.347758 H          1 MOL1         0.0729
      10    C4      18.963785   18.211782   22.841876 C.3        1 MOL1        -0.1909
      11    H5      17.964266   18.659879   22.925325 H          1 MOL1         0.0729
      12    H6      18.972881   17.359889   23.535400 H          1 MOL1         0.0729
      13    C5      19.153855   17.683868   21.398589 C.3        1 MOL1        -0.1884
      14    H7      18.344544   16.974835   21.176398 H          1 MOL1         0.0729
      15    H8      19.044437   18.504296   20.677108 H          1 MOL1         0.0729
      16    C6      20.508051   16.975509   21.180006 C.3        1 MOL1        -0.2899
      17    H9      20.649152   16.164755   21.906503 H          1 MOL1         0.0741
      18    H10     20.556005   16.540498   20.173388 H          1 MOL1         0.0741
      19    H11     21.345740   17.677449   21.279131 H          1 MOL1         0.0741
@<TRIPOS>BOND
    1     1     2    1
    2     1     3    2
    3     1     4    1
    4     4     5    1
    5     4     6    1
    6     4     7    1
    7     7     8    1
    8     7     9    1
    9     7    10    1
   10    10    11    1
   11    10    12    1
   12    10    13    1
   13    13    14    1
   14    13    15    1
   15    13    16    1
   16    16    17    1
   17    16    18    1
   18    16    19    1
@<TRIPOS>SUBSTRUCTURE
       1 MOL1            1 RESIDUE      1      MOL     
@<SCITEGIC>MOL_PROPERTY
VConf Rank
SciTegic.value.IntegerValue
504

@<SCITEGIC>MOL_PROPERTY
Conf_Id
SciTegic.value.IntegerValue
67

@<SCITEGIC>MOL_PROPERTY
Delta U+W
SciTegic.value.DoubleValue
0.308

@<SCITEGIC>MOL_PROPERTY
U+W
SciTegic.value.DoubleValue
-54.583

@<SCITEGIC>MOL_PROPERTY
Grad RMS
SciTegic.value.DoubleValue
0.000000

@<SCITEGIC>MOL_PROPERTY
U
SciTegic.value.DoubleValue
8.219

@<SCITEGIC>MOL_PROPERTY
W
SciTegic.value.DoubleValue
-62.802

@<SCITEGIC>MOL_PROPERTY
W(PB)
SciTegic.value.DoubleValue
-64.859

@<SCITEGIC>MOL_PROPERTY
W(SA)
SciTegic.value.DoubleValue
2.057

@<SCITEGIC>MOL_PROPERTY
Valence
SciTegic.value.DoubleValue
7.609

@<SCITEGIC>MOL_PROPERTY
Coulomb
SciTegic.value.DoubleValue
-0.089

@<SCITEGIC>MOL_PROPERTY
VdW
SciTegic.value.DoubleValue
0.699

@<SCITEGIC>MOL_PROPERTY
VdW6
SciTegic.value.DoubleValue
-6.924

@<SCITEGIC>MOL_PROPERTY
VdW12
SciTegic.value.DoubleValue
7.623

@<SCITEGIC>MOL_PROPERTY
Bond
SciTegic.value.DoubleValue
0.163

@<SCITEGIC>MOL_PROPERTY
Angle
SciTegic.value.DoubleValue
2.870

@<SCITEGIC>MOL_PROPERTY
Pdih
SciTegic.value.DoubleValue
4.576

@<SCITEGIC>MOL_PROPERTY
Idih
SciTegic.value.DoubleValue
0.001

@<SCITEGIC>MOL_PROPERTY
Tether
SciTegic.value.DoubleValue
0.000

@<TRIPOS>MOLECULE
guest-7_confgen4.mol2 : confsearch ligand conformer 505
          19          18           1
SMALL
USER_CHARGES
 
@<TRIPOS>ATOM
       1    C1      21.612676   16.694939   23.272395 C.2        1 MOL1         0.6115
       2    O1      22.799577   16.484630   23.119235 O.co2      1 MOL1        -0.6776
       3    O2      20.802914   15.824662   23.523842 O.co2      1 MOL1        -0.6776
       4    C2      21.109748   18.126197   23.121463 C.3        1 MOL1        -0.2013
       5    H1      21.903196   18.803893   23.458396 H          1 MOL1         0.0727
       6    H2      20.260217   18.254912   23.801822 H          1 MOL1         0.0727
       7    C3      20.696956   18.467494   21.666229 C.3        1 MOL1        -0.1910
       8    H3      21.539766   18.241338   20.998604 H          1 MOL1         0.0729
       9    H4      19.876469   17.808341   21.353024 H          1 MOL1         0.0729
      10    C4      20.295554   19.950846   21.468064 C.3        1 MOL1        -0.1909
      11    H5      20.062529   20.114222   20.407033 H          1 MOL1         0.0729
      12    H6      21.163549   20.586845   21.689161 H          1 MOL1         0.0729
      13    C5      19.096614   20.429879   22.323032 C.3        1 MOL1        -0.1884
      14    H7      19.345854   20.373950   23.390909 H          1 MOL1         0.0729
      15    H8      18.917071   21.492418   22.108889 H          1 MOL1         0.0729
      16    C6      17.797289   19.642180   22.049749 C.3        1 MOL1        -0.2899
      17    H9      17.894245   18.593658   22.358729 H          1 MOL1         0.0741
      18    H10     16.959211   20.077582   22.609092 H          1 MOL1         0.0741
      19    H11     17.540829   19.665362   20.982641 H          1 MOL1         0.0741
@<TRIPOS>BOND
    1     1     2    1
    2     1     3    2
    3     1     4    1
    4     4     5    1
    5     4     6    1
    6     4     7    1
    7     7     8    1
    8     7     9    1
    9     7    10    1
   10    10    11    1
   11    10    12    1
   12    10    13    1
   13    13    14    1
   14    13    15    1
   15    13    16    1
   16    16    17    1
   17    16    18    1
   18    16    19    1
@<TRIPOS>SUBSTRUCTURE
       1 MOL1            1 RESIDUE      1      MOL     
@<SCITEGIC>MOL_PROPERTY
VConf Rank
SciTegic.value.IntegerValue
505

@<SCITEGIC>MOL_PROPERTY
Conf_Id
SciTegic.value.IntegerValue
21

@<SCITEGIC>MOL_PROPERTY
Delta U+W
SciTegic.value.DoubleValue
0.319

@<SCITEGIC>MOL_PROPERTY
U+W
SciTegic.value.DoubleValue
-54.572

@<SCITEGIC>MOL_PROPERTY
Grad RMS
SciTegic.value.DoubleValue
0.000000

@<SCITEGIC>MOL_PROPERTY
U
SciTegic.value.DoubleValue
8.220

@<SCITEGIC>MOL_PROPERTY
W
SciTegic.value.DoubleValue
-62.792

@<SCITEGIC>MOL_PROPERTY
W(PB)
SciTegic.value.DoubleValue
-64.830

@<SCITEGIC>MOL_PROPERTY
W(SA)
SciTegic.value.DoubleValue
2.038

@<SCITEGIC>MOL_PROPERTY
Valence
SciTegic.value.DoubleValue
7.609

@<SCITEGIC>MOL_PROPERTY
Coulomb
SciTegic.value.DoubleValue
-0.088

@<SCITEGIC>MOL_PROPERTY
VdW
SciTegic.value.DoubleValue
0.699

@<SCITEGIC>MOL_PROPERTY
VdW6
SciTegic.value.DoubleValue
-6.924

@<SCITEGIC>MOL_PROPERTY
VdW12
SciTegic.value.DoubleValue
7.623

@<SCITEGIC>MOL_PROPERTY
Bond
SciTegic.value.DoubleValue
0.163

@<SCITEGIC>MOL_PROPERTY
Angle
SciTegic.value.DoubleValue
2.870

@<SCITEGIC>MOL_PROPERTY
Pdih
SciTegic.value.DoubleValue
4.576

@<SCITEGIC>MOL_PROPERTY
Idih
SciTegic.value.DoubleValue
0.000

@<SCITEGIC>MOL_PROPERTY
Tether
SciTegic.value.DoubleValue
0.000

@<TRIPOS>MOLECULE
guest-7_confgen4.mol2 : confsearch ligand conformer 506
          19          18           1
SMALL
USER_CHARGES
 
@<TRIPOS>ATOM
       1    C1      19.689631   17.561441   24.859462 C.2        1 MOL1         0.6115
       2    O1      20.262039   16.585411   25.302354 O.co2      1 MOL1        -0.6776
       3    O2      19.143901   18.394194   25.555848 O.co2      1 MOL1        -0.6776
       4    C2      19.671376   17.761170   23.348218 C.3        1 MOL1        -0.2013
       5    H1      18.734961   18.264044   23.087320 H          1 MOL1         0.0727
       6    H2      19.644241   16.771595   22.876636 H          1 MOL1         0.0727
       7    C3      20.896877   18.561467   22.833180 C.3        1 MOL1        -0.1910
       8    H3      20.959308   19.530437   23.347458 H          1 MOL1         0.0729
       9    H4      21.803660   18.007708   23.113344 H          1 MOL1         0.0729
      10    C4      20.897326   18.768285   21.297220 C.3        1 MOL1        -0.1909
      11    H5      20.384146   17.933646   20.800308 H          1 MOL1         0.0729
      12    H6      21.938202   18.729171   20.947907 H          1 MOL1         0.0729
      13    C5      20.299200   20.116775   20.826338 C.3        1 MOL1        -0.1884
      14    H7      20.875755   20.946270   21.258518 H          1 MOL1         0.0729
      15    H8      20.423245   20.191313   19.737187 H          1 MOL1         0.0729
      16    C6      18.805811   20.300093   21.166749 C.3        1 MOL1        -0.2899
      17    H9      18.413663   21.209809   20.694043 H          1 MOL1         0.0741
      18    H10     18.212153   19.449134   20.808396 H          1 MOL1         0.0741
      19    H11     18.656381   20.400317   22.249071 H          1 MOL1         0.0741
@<TRIPOS>BOND
    1     1     2    1
    2     1     3    2
    3     1     4    1
    4     4     5    1
    5     4     6    1
    6     4     7    1
    7     7     8    1
    8     7     9    1
    9     7    10    1
   10    10    11    1
   11    10    12    1
   12    10    13    1
   13    13    14    1
   14    13    15    1
   15    13    16    1
   16    16    17    1
   17    16    18    1
   18    16    19    1
@<TRIPOS>SUBSTRUCTURE
       1 MOL1            1 RESIDUE      1      MOL     
@<SCITEGIC>MOL_PROPERTY
VConf Rank
SciTegic.value.IntegerValue
506

@<SCITEGIC>MOL_PROPERTY
Conf_Id
SciTegic.value.IntegerValue
24

@<SCITEGIC>MOL_PROPERTY
Delta U+W
SciTegic.value.DoubleValue
2.477

@<SCITEGIC>MOL_PROPERTY
U+W
SciTegic.value.DoubleValue
-52.414

@<SCITEGIC>MOL_PROPERTY
Grad RMS
SciTegic.value.DoubleValue
0.000000

@<SCITEGIC>MOL_PROPERTY
U
SciTegic.value.DoubleValue
10.422

@<SCITEGIC>MOL_PROPERTY
W
SciTegic.value.DoubleValue
-62.836

@<SCITEGIC>MOL_PROPERTY
W(PB)
SciTegic.value.DoubleValue
-64.906

@<SCITEGIC>MOL_PROPERTY
W(SA)
SciTegic.value.DoubleValue
2.070

@<SCITEGIC>MOL_PROPERTY
Valence
SciTegic.value.DoubleValue
9.628

@<SCITEGIC>MOL_PROPERTY
Coulomb
SciTegic.value.DoubleValue
0.101

@<SCITEGIC>MOL_PROPERTY
VdW
SciTegic.value.DoubleValue
0.693

@<SCITEGIC>MOL_PROPERTY
VdW6
SciTegic.value.DoubleValue
-6.927

@<SCITEGIC>MOL_PROPERTY
VdW12
SciTegic.value.DoubleValue
7.620

@<SCITEGIC>MOL_PROPERTY
Bond
SciTegic.value.DoubleValue
0.173

@<SCITEGIC>MOL_PROPERTY
Angle
SciTegic.value.DoubleValue
2.989

@<SCITEGIC>MOL_PROPERTY
Pdih
SciTegic.value.DoubleValue
6.465

@<SCITEGIC>MOL_PROPERTY
Idih
SciTegic.value.DoubleValue
0.001

@<SCITEGIC>MOL_PROPERTY
Tether
SciTegic.value.DoubleValue
0.000

@<TRIPOS>MOLECULE
guest-7_confgen4.mol2 : confsearch ligand conformer 507
          19          18           1
SMALL
USER_CHARGES
 
@<TRIPOS>ATOM
       1    C1      19.316377   18.431780   19.929039 C.2        1 MOL1         0.6115
       2    O1      19.496051   17.235443   20.043871 O.co2      1 MOL1        -0.6776
       3    O2      18.519575   18.918715   19.151173 O.co2      1 MOL1        -0.6776
       4    C2      20.155303   19.376998   20.785193 C.3        1 MOL1        -0.2013
       5    H1      20.561629   20.144695   20.116390 H          1 MOL1         0.0727
       6    H2      21.011123   18.819041   21.178242 H          1 MOL1         0.0727
       7    C3      19.361425   20.062846   21.931626 C.3        1 MOL1        -0.1910
       8    H3      19.963063   20.870849   22.369113 H          1 MOL1         0.0729
       9    H4      18.479430   20.547994   21.490886 H          1 MOL1         0.0729
      10    C4      18.892805   19.094615   23.048944 C.3        1 MOL1        -0.1909
      11    H5      18.715943   18.090755   22.639321 H          1 MOL1         0.0729
      12    H6      17.917037   19.442835   23.414190 H          1 MOL1         0.0729
      13    C5      19.842565   19.008348   24.268953 C.3        1 MOL1        -0.1884
      14    H7      19.944201   20.001130   24.728579 H          1 MOL1         0.0729
      15    H8      19.376546   18.364758   25.027750 H          1 MOL1         0.0729
      16    C6      21.242514   18.449813   23.940721 C.3        1 MOL1        -0.2899
      17    H9      21.811142   19.149882   23.316284 H          1 MOL1         0.0741
      18    H10     21.816722   18.287242   24.861934 H          1 MOL1         0.0741
      19    H11     21.169353   17.490122   23.412398 H          1 MOL1         0.0741
@<TRIPOS>BOND
    1     1     2    1
    2     1     3    2
    3     1     4    1
    4     4     5    1
    5     4     6    1
    6     4     7    1
    7     7     8    1
    8     7     9    1
    9     7    10    1
   10    10    11    1
   11    10    12    1
   12    10    13    1
   13    13    14    1
   14    13    15    1
   15    13    16    1
   16    16    17    1
   17    16    18    1
   18    16    19    1
@<TRIPOS>SUBSTRUCTURE
       1 MOL1            1 RESIDUE      1      MOL     
@<SCITEGIC>MOL_PROPERTY
VConf Rank
SciTegic.value.IntegerValue
507

@<SCITEGIC>MOL_PROPERTY
Conf_Id
SciTegic.value.IntegerValue
4

@<SCITEGIC>MOL_PROPERTY
Delta U+W
SciTegic.value.DoubleValue
3.753

@<SCITEGIC>MOL_PROPERTY
U+W
SciTegic.value.DoubleValue
-51.138

@<SCITEGIC>MOL_PROPERTY
Grad RMS
SciTegic.value.DoubleValue
0.000000

@<SCITEGIC>MOL_PROPERTY
U
SciTegic.value.DoubleValue
12.334

@<SCITEGIC>MOL_PROPERTY
W
SciTegic.value.DoubleValue
-63.472

@<SCITEGIC>MOL_PROPERTY
W(PB)
SciTegic.value.DoubleValue
-65.500

@<SCITEGIC>MOL_PROPERTY
W(SA)
SciTegic.value.DoubleValue
2.028

@<SCITEGIC>MOL_PROPERTY
Valence
SciTegic.value.DoubleValue
9.984

@<SCITEGIC>MOL_PROPERTY
Coulomb
SciTegic.value.DoubleValue
1.767

@<SCITEGIC>MOL_PROPERTY
VdW
SciTegic.value.DoubleValue
0.583

@<SCITEGIC>MOL_PROPERTY
VdW6
SciTegic.value.DoubleValue
-7.767

@<SCITEGIC>MOL_PROPERTY
VdW12
SciTegic.value.DoubleValue
8.349

@<SCITEGIC>MOL_PROPERTY
Bond
SciTegic.value.DoubleValue
0.203

@<SCITEGIC>MOL_PROPERTY
Angle
SciTegic.value.DoubleValue
3.191

@<SCITEGIC>MOL_PROPERTY
Pdih
SciTegic.value.DoubleValue
6.589

@<SCITEGIC>MOL_PROPERTY
Idih
SciTegic.value.DoubleValue
0.001

@<SCITEGIC>MOL_PROPERTY
Tether
SciTegic.value.DoubleValue
0.000

@<TRIPOS>MOLECULE
guest-7_confgen4.mol2 : confsearch ligand conformer 508
          19          18           1
SMALL
USER_CHARGES
 
@<TRIPOS>ATOM
       1    C1      17.695679   17.618228   22.867547 C.2        1 MOL1         0.6115
       2    O1      17.431536   16.742676   23.667990 O.co2      1 MOL1        -0.6776
       3    O2      16.955274   18.550809   22.625089 O.co2      1 MOL1        -0.6776
       4    C2      19.015588   17.522809   22.106649 C.3        1 MOL1        -0.2013
       5    H1      18.958453   18.179204   21.232515 H          1 MOL1         0.0727
       6    H2      19.095721   16.498272   21.724998 H          1 MOL1         0.0727
       7    C3      20.266552   17.848671   22.969111 C.3        1 MOL1        -0.1910
       8    H3      20.237415   17.211480   23.863914 H          1 MOL1         0.0729
       9    H4      21.177508   17.564011   22.425641 H          1 MOL1         0.0729
      10    C4      20.363824   19.331101   23.414548 C.3        1 MOL1        -0.1909
      11    H5      20.810398   19.356616   24.417894 H          1 MOL1         0.0729
      12    H6      19.361340   19.766783   23.524152 H          1 MOL1         0.0729
      13    C5      21.231918   20.225808   22.495954 C.3        1 MOL1        -0.1884
      14    H7      21.299094   21.225508   22.946776 H          1 MOL1         0.0729
      15    H8      22.258024   19.834443   22.462171 H          1 MOL1         0.0729
      16    C6      20.690150   20.368205   21.058676 C.3        1 MOL1        -0.2899
      17    H9      19.639590   20.687239   21.063944 H          1 MOL1         0.0741
      18    H10     21.269342   21.116447   20.502394 H          1 MOL1         0.0741
      19    H11     20.764523   19.419904   20.512279 H          1 MOL1         0.0741
@<TRIPOS>BOND
    1     1     2    1
    2     1     3    2
    3     1     4    1
    4     4     5    1
    5     4     6    1
    6     4     7    1
    7     7     8    1
    8     7     9    1
    9     7    10    1
   10    10    11    1
   11    10    12    1
   12    10    13    1
   13    13    14    1
   14    13    15    1
   15    13    16    1
   16    16    17    1
   17    16    18    1
   18    16    19    1
@<TRIPOS>SUBSTRUCTURE
       1 MOL1            1 RESIDUE      1      MOL     
@<SCITEGIC>MOL_PROPERTY
VConf Rank
SciTegic.value.IntegerValue
508

@<SCITEGIC>MOL_PROPERTY
Conf_Id
SciTegic.value.IntegerValue
73

@<SCITEGIC>MOL_PROPERTY
Delta U+W
SciTegic.value.DoubleValue
3.707

@<SCITEGIC>MOL_PROPERTY
U+W
SciTegic.value.DoubleValue
-51.184

@<SCITEGIC>MOL_PROPERTY
Grad RMS
SciTegic.value.DoubleValue
0.000000

@<SCITEGIC>MOL_PROPERTY
U
SciTegic.value.DoubleValue
12.334

@<SCITEGIC>MOL_PROPERTY
W
SciTegic.value.DoubleValue
-63.519

@<SCITEGIC>MOL_PROPERTY
W(PB)
SciTegic.value.DoubleValue
-65.541

@<SCITEGIC>MOL_PROPERTY
W(SA)
SciTegic.value.DoubleValue
2.022

@<SCITEGIC>MOL_PROPERTY
Valence
SciTegic.value.DoubleValue
9.984

@<SCITEGIC>MOL_PROPERTY
Coulomb
SciTegic.value.DoubleValue
1.768

@<SCITEGIC>MOL_PROPERTY
VdW
SciTegic.value.DoubleValue
0.583

@<SCITEGIC>MOL_PROPERTY
VdW6
SciTegic.value.DoubleValue
-7.767

@<SCITEGIC>MOL_PROPERTY
VdW12
SciTegic.value.DoubleValue
8.350

@<SCITEGIC>MOL_PROPERTY
Bond
SciTegic.value.DoubleValue
0.203

@<SCITEGIC>MOL_PROPERTY
Angle
SciTegic.value.DoubleValue
3.192

@<SCITEGIC>MOL_PROPERTY
Pdih
SciTegic.value.DoubleValue
6.589

@<SCITEGIC>MOL_PROPERTY
Idih
SciTegic.value.DoubleValue
0.001

@<SCITEGIC>MOL_PROPERTY
Tether
SciTegic.value.DoubleValue
0.000

@<TRIPOS>MOLECULE
guest-7_confgen4.mol2 : confsearch ligand conformer 509
          19          18           1
SMALL
USER_CHARGES
 
@<TRIPOS>ATOM
       1    C1      22.388755   19.206061   21.945175 C.2        1 MOL1         0.6115
       2    O1      22.314479   19.997651   21.026165 O.co2      1 MOL1        -0.6776
       3    O2      23.302429   19.191995   22.746524 O.co2      1 MOL1        -0.6776
       4    C2      21.294163   18.151579   22.083964 C.3        1 MOL1        -0.2013
       5    H1      21.788965   17.178015   22.178907 H          1 MOL1         0.0727
       6    H2      20.718350   18.117403   21.151994 H          1 MOL1         0.0727
       7    C3      20.352552   18.369866   23.299689 C.3        1 MOL1        -0.1910
       8    H3      19.647287   17.531372   23.365986 H          1 MOL1         0.0729
       9    H4      20.951959   18.332961   24.219722 H          1 MOL1         0.0729
      10    C4      19.569922   19.708071   23.271518 C.3        1 MOL1        -0.1909
      11    H5      20.283427   20.541616   23.328052 H          1 MOL1         0.0729
      12    H6      18.954658   19.775635   24.178975 H          1 MOL1         0.0729
      13    C5      18.662070   19.915090   22.034519 C.3        1 MOL1        -0.1884
      14    H7      18.176713   20.897125   22.117783 H          1 MOL1         0.0729
      15    H8      19.271653   19.955453   21.121708 H          1 MOL1         0.0729
      16    C6      17.571133   18.832510   21.887719 C.3        1 MOL1        -0.2899
      17    H9      18.011204   17.847413   21.688137 H          1 MOL1         0.0741
      18    H10     16.963568   18.761063   22.799186 H          1 MOL1         0.0741
      19    H11     16.901345   19.073167   21.052098 H          1 MOL1         0.0741
@<TRIPOS>BOND
    1     1     2    1
    2     1     3    2
    3     1     4    1
    4     4     5    1
    5     4     6    1
    6     4     7    1
    7     7     8    1
    8     7     9    1
    9     7    10    1
   10    10    11    1
   11    10    12    1
   12    10    13    1
   13    13    14    1
   14    13    15    1
   15    13    16    1
   16    16    17    1
   17    16    18    1
   18    16    19    1
@<TRIPOS>SUBSTRUCTURE
       1 MOL1            1 RESIDUE      1      MOL     
@<SCITEGIC>MOL_PROPERTY
VConf Rank
SciTegic.value.IntegerValue
509

@<SCITEGIC>MOL_PROPERTY
Conf_Id
SciTegic.value.IntegerValue
56

@<SCITEGIC>MOL_PROPERTY
Delta U+W
SciTegic.value.DoubleValue
1.735

@<SCITEGIC>MOL_PROPERTY
U+W
SciTegic.value.DoubleValue
-53.156

@<SCITEGIC>MOL_PROPERTY
Grad RMS
SciTegic.value.DoubleValue
0.000000

@<SCITEGIC>MOL_PROPERTY
U
SciTegic.value.DoubleValue
10.214

@<SCITEGIC>MOL_PROPERTY
W
SciTegic.value.DoubleValue
-63.370

@<SCITEGIC>MOL_PROPERTY
W(PB)
SciTegic.value.DoubleValue
-65.388

@<SCITEGIC>MOL_PROPERTY
W(SA)
SciTegic.value.DoubleValue
2.018

@<SCITEGIC>MOL_PROPERTY
Valence
SciTegic.value.DoubleValue
7.868

@<SCITEGIC>MOL_PROPERTY
Coulomb
SciTegic.value.DoubleValue
1.968

@<SCITEGIC>MOL_PROPERTY
VdW
SciTegic.value.DoubleValue
0.378

@<SCITEGIC>MOL_PROPERTY
VdW6
SciTegic.value.DoubleValue
-8.067

@<SCITEGIC>MOL_PROPERTY
VdW12
SciTegic.value.DoubleValue
8.445

@<SCITEGIC>MOL_PROPERTY
Bond
SciTegic.value.DoubleValue
0.191

@<SCITEGIC>MOL_PROPERTY
Angle
SciTegic.value.DoubleValue
3.117

@<SCITEGIC>MOL_PROPERTY
Pdih
SciTegic.value.DoubleValue
4.559

@<SCITEGIC>MOL_PROPERTY
Idih
SciTegic.value.DoubleValue
0.001

@<SCITEGIC>MOL_PROPERTY
Tether
SciTegic.value.DoubleValue
0.000

@<TRIPOS>MOLECULE
guest-7_confgen4.mol2 : confsearch ligand conformer 510
          19          18           1
SMALL
USER_CHARGES
 
@<TRIPOS>ATOM
       1    C1      18.819670   16.981169   24.146042 C.2        1 MOL1         0.6115
       2    O1      19.105956   16.944771   25.326330 O.co2      1 MOL1        -0.6776
       3    O2      18.203138   16.102476   23.576691 O.co2      1 MOL1        -0.6776
       4    C2      19.277802   18.185034   23.330529 C.3        1 MOL1        -0.2013
       5    H1      19.296571   19.058885   23.992656 H          1 MOL1         0.0727
       6    H2      18.521309   18.370478   22.559920 H          1 MOL1         0.0727
       7    C3      20.668291   17.975744   22.679597 C.3        1 MOL1        -0.1910
       8    H3      21.374853   17.652098   23.456401 H          1 MOL1         0.0729
       9    H4      20.608323   17.151161   21.955954 H          1 MOL1         0.0729
      10    C4      21.245190   19.235336   21.985977 C.3        1 MOL1        -0.1909
      11    H5      22.246457   18.978026   21.614186 H          1 MOL1         0.0729
      12    H6      21.397265   20.035763   22.722991 H          1 MOL1         0.0729
      13    C5      20.407628   19.757477   20.792258 C.3        1 MOL1        -0.1884
      14    H7      21.093168   20.145155   20.026045 H          1 MOL1         0.0729
      15    H8      19.858982   18.930485   20.320685 H          1 MOL1         0.0729
      16    C6      19.435307   20.893718   21.179911 C.3        1 MOL1        -0.2899
      17    H9      18.879543   21.239979   20.298943 H          1 MOL1         0.0741
      18    H10     18.704829   20.569218   21.929390 H          1 MOL1         0.0741
      19    H11     19.982541   21.752527   21.589928 H          1 MOL1         0.0741
@<TRIPOS>BOND
    1     1     2    1
    2     1     3    2
    3     1     4    1
    4     4     5    1
    5     4     6    1
    6     4     7    1
    7     7     8    1
    8     7     9    1
    9     7    10    1
   10    10    11    1
   11    10    12    1
   12    10    13    1
   13    13    14    1
   14    13    15    1
   15    13    16    1
   16    16    17    1
   17    16    18    1
   18    16    19    1
@<TRIPOS>SUBSTRUCTURE
       1 MOL1            1 RESIDUE      1      MOL     
@<SCITEGIC>MOL_PROPERTY
VConf Rank
SciTegic.value.IntegerValue
510

@<SCITEGIC>MOL_PROPERTY
Conf_Id
SciTegic.value.IntegerValue
53

@<SCITEGIC>MOL_PROPERTY
Delta U+W
SciTegic.value.DoubleValue
2.279

@<SCITEGIC>MOL_PROPERTY
U+W
SciTegic.value.DoubleValue
-52.612

@<SCITEGIC>MOL_PROPERTY
Grad RMS
SciTegic.value.DoubleValue
0.000000

@<SCITEGIC>MOL_PROPERTY
U
SciTegic.value.DoubleValue
10.231

@<SCITEGIC>MOL_PROPERTY
W
SciTegic.value.DoubleValue
-62.843

@<SCITEGIC>MOL_PROPERTY
W(PB)
SciTegic.value.DoubleValue
-64.893

@<SCITEGIC>MOL_PROPERTY
W(SA)
SciTegic.value.DoubleValue
2.050

@<SCITEGIC>MOL_PROPERTY
Valence
SciTegic.value.DoubleValue
9.644

@<SCITEGIC>MOL_PROPERTY
Coulomb
SciTegic.value.DoubleValue
-0.164

@<SCITEGIC>MOL_PROPERTY
VdW
SciTegic.value.DoubleValue
0.751

@<SCITEGIC>MOL_PROPERTY
VdW6
SciTegic.value.DoubleValue
-6.881

@<SCITEGIC>MOL_PROPERTY
VdW12
SciTegic.value.DoubleValue
7.631

@<SCITEGIC>MOL_PROPERTY
Bond
SciTegic.value.DoubleValue
0.163

@<SCITEGIC>MOL_PROPERTY
Angle
SciTegic.value.DoubleValue
2.998

@<SCITEGIC>MOL_PROPERTY
Pdih
SciTegic.value.DoubleValue
6.482

@<SCITEGIC>MOL_PROPERTY
Idih
SciTegic.value.DoubleValue
0.001

@<SCITEGIC>MOL_PROPERTY
Tether
SciTegic.value.DoubleValue
0.000

@<TRIPOS>MOLECULE
guest-7_confgen4.mol2 : confsearch ligand conformer 511
          19          18           1
SMALL
USER_CHARGES
 
@<TRIPOS>ATOM
       1    C1      18.583778   19.168647   20.686581 C.2        1 MOL1         0.6115
       2    O1      19.255933   18.961204   19.695608 O.co2      1 MOL1        -0.6776
       3    O2      17.956429   20.193791   20.867576 O.co2      1 MOL1        -0.6776
       4    C2      18.466816   18.053525   21.724033 C.3        1 MOL1        -0.2013
       5    H1      19.044647   17.186199   21.382303 H          1 MOL1         0.0727
       6    H2      17.414494   17.746583   21.729402 H          1 MOL1         0.0727
       7    C3      18.886523   18.444251   23.169129 C.3        1 MOL1        -0.1910
       8    H3      18.464954   19.425099   23.429437 H          1 MOL1         0.0729
       9    H4      18.427780   17.725207   23.861189 H          1 MOL1         0.0729
      10    C4      20.413765   18.437280   23.426344 C.3        1 MOL1        -0.1909
      11    H5      20.827361   17.452097   23.171027 H          1 MOL1         0.0729
      12    H6      20.579725   18.571633   24.504035 H          1 MOL1         0.0729
      13    C5      21.185782   19.537460   22.665314 C.3        1 MOL1        -0.1884
      14    H7      21.144826   19.347888   21.585133 H          1 MOL1         0.0729
      15    H8      20.711421   20.513297   22.838872 H          1 MOL1         0.0729
      16    C6      22.662823   19.598339   23.104037 C.3        1 MOL1        -0.2899
      17    H9      23.167246   18.641334   22.916800 H          1 MOL1         0.0741
      18    H10     23.198915   20.378589   22.548284 H          1 MOL1         0.0741
      19    H11     22.746381   19.826934   24.174588 H          1 MOL1         0.0741
@<TRIPOS>BOND
    1     1     2    1
    2     1     3    2
    3     1     4    1
    4     4     5    1
    5     4     6    1
    6     4     7    1
    7     7     8    1
    8     7     9    1
    9     7    10    1
   10    10    11    1
   11    10    12    1
   12    10    13    1
   13    13    14    1
   14    13    15    1
   15    13    16    1
   16    16    17    1
   17    16    18    1
   18    16    19    1
@<TRIPOS>SUBSTRUCTURE
       1 MOL1            1 RESIDUE      1      MOL     
@<SCITEGIC>MOL_PROPERTY
VConf Rank
SciTegic.value.IntegerValue
511

@<SCITEGIC>MOL_PROPERTY
Conf_Id
SciTegic.value.IntegerValue
25

@<SCITEGIC>MOL_PROPERTY
Delta U+W
SciTegic.value.DoubleValue
2.065

@<SCITEGIC>MOL_PROPERTY
U+W
SciTegic.value.DoubleValue
-52.826

@<SCITEGIC>MOL_PROPERTY
Grad RMS
SciTegic.value.DoubleValue
0.000000

@<SCITEGIC>MOL_PROPERTY
U
SciTegic.value.DoubleValue
10.967

@<SCITEGIC>MOL_PROPERTY
W
SciTegic.value.DoubleValue
-63.794

@<SCITEGIC>MOL_PROPERTY
W(PB)
SciTegic.value.DoubleValue
-65.830

@<SCITEGIC>MOL_PROPERTY
W(SA)
SciTegic.value.DoubleValue
2.036

@<SCITEGIC>MOL_PROPERTY
Valence
SciTegic.value.DoubleValue
8.609

@<SCITEGIC>MOL_PROPERTY
Coulomb
SciTegic.value.DoubleValue
1.892

@<SCITEGIC>MOL_PROPERTY
VdW
SciTegic.value.DoubleValue
0.467

@<SCITEGIC>MOL_PROPERTY
VdW6
SciTegic.value.DoubleValue
-7.569

@<SCITEGIC>MOL_PROPERTY
VdW12
SciTegic.value.DoubleValue
8.036

@<SCITEGIC>MOL_PROPERTY
Bond
SciTegic.value.DoubleValue
0.170

@<SCITEGIC>MOL_PROPERTY
Angle
SciTegic.value.DoubleValue
3.195

@<SCITEGIC>MOL_PROPERTY
Pdih
SciTegic.value.DoubleValue
5.237

@<SCITEGIC>MOL_PROPERTY
Idih
SciTegic.value.DoubleValue
0.007

@<SCITEGIC>MOL_PROPERTY
Tether
SciTegic.value.DoubleValue
0.000

@<TRIPOS>MOLECULE
guest-7_confgen4.mol2 : confsearch ligand conformer 512
          19          18           1
SMALL
USER_CHARGES
 
@<TRIPOS>ATOM
       1    C1      21.139332   19.856509   20.558064 C.2        1 MOL1         0.6115
       2    O1      22.077165   19.164301   20.213731 O.co2      1 MOL1        -0.6776
       3    O2      21.249828   21.025011   20.873099 O.co2      1 MOL1        -0.6776
       4    C2      19.738444   19.248223   20.526686 C.3        1 MOL1        -0.2013
       5    H1      19.535994   18.994277   19.479714 H          1 MOL1         0.0727
       6    H2      19.009184   20.017077   20.809471 H          1 MOL1         0.0727
       7    C3      19.546669   17.977085   21.401077 C.3        1 MOL1        -0.1910
       8    H3      18.665907   17.438125   21.026649 H          1 MOL1         0.0729
       9    H4      20.398213   17.296161   21.264112 H          1 MOL1         0.0729
      10    C4      19.324447   18.253164   22.908749 C.3        1 MOL1        -0.1909
      11    H5      19.047378   17.306525   23.392606 H          1 MOL1         0.0729
      12    H6      18.467694   18.928369   23.038788 H          1 MOL1         0.0729
      13    C5      20.559001   18.835947   23.631120 C.3        1 MOL1        -0.1884
      14    H7      21.441435   18.216427   23.419223 H          1 MOL1         0.0729
      15    H8      20.775599   19.843425   23.253655 H          1 MOL1         0.0729
      16    C6      20.338428   18.912561   25.155362 C.3        1 MOL1        -0.2899
      17    H9      21.220677   19.336369   25.652422 H          1 MOL1         0.0741
      18    H10     19.476006   19.548181   25.395306 H          1 MOL1         0.0741
      19    H11     20.158142   17.915315   25.577635 H          1 MOL1         0.0741
@<TRIPOS>BOND
    1     1     2    1
    2     1     3    2
    3     1     4    1
    4     4     5    1
    5     4     6    1
    6     4     7    1
    7     7     8    1
    8     7     9    1
    9     7    10    1
   10    10    11    1
   11    10    12    1
   12    10    13    1
   13    13    14    1
   14    13    15    1
   15    13    16    1
   16    16    17    1
   17    16    18    1
   18    16    19    1
@<TRIPOS>SUBSTRUCTURE
       1 MOL1            1 RESIDUE      1      MOL     
@<SCITEGIC>MOL_PROPERTY
VConf Rank
SciTegic.value.IntegerValue
512

@<SCITEGIC>MOL_PROPERTY
Conf_Id
SciTegic.value.IntegerValue
52

@<SCITEGIC>MOL_PROPERTY
Delta U+W
SciTegic.value.DoubleValue
2.070

@<SCITEGIC>MOL_PROPERTY
U+W
SciTegic.value.DoubleValue
-52.822

@<SCITEGIC>MOL_PROPERTY
Grad RMS
SciTegic.value.DoubleValue
0.000000

@<SCITEGIC>MOL_PROPERTY
U
SciTegic.value.DoubleValue
10.967

@<SCITEGIC>MOL_PROPERTY
W
SciTegic.value.DoubleValue
-63.789

@<SCITEGIC>MOL_PROPERTY
W(PB)
SciTegic.value.DoubleValue
-65.837

@<SCITEGIC>MOL_PROPERTY
W(SA)
SciTegic.value.DoubleValue
2.048

@<SCITEGIC>MOL_PROPERTY
Valence
SciTegic.value.DoubleValue
8.609

@<SCITEGIC>MOL_PROPERTY
Coulomb
SciTegic.value.DoubleValue
1.892

@<SCITEGIC>MOL_PROPERTY
VdW
SciTegic.value.DoubleValue
0.467

@<SCITEGIC>MOL_PROPERTY
VdW6
SciTegic.value.DoubleValue
-7.569

@<SCITEGIC>MOL_PROPERTY
VdW12
SciTegic.value.DoubleValue
8.035

@<SCITEGIC>MOL_PROPERTY
Bond
SciTegic.value.DoubleValue
0.170

@<SCITEGIC>MOL_PROPERTY
Angle
SciTegic.value.DoubleValue
3.196

@<SCITEGIC>MOL_PROPERTY
Pdih
SciTegic.value.DoubleValue
5.237

@<SCITEGIC>MOL_PROPERTY
Idih
SciTegic.value.DoubleValue
0.007

@<SCITEGIC>MOL_PROPERTY
Tether
SciTegic.value.DoubleValue
0.000

@<TRIPOS>MOLECULE
guest-7_confgen4.mol2 : confsearch ligand conformer 513
          19          18           1
SMALL
USER_CHARGES
 
@<TRIPOS>ATOM
       1    C1      18.367186   17.734801   21.550323 C.2        1 MOL1         0.6115
       2    O1      17.861059   16.960488   22.339241 O.co2      1 MOL1        -0.6776
       3    O2      17.719943   18.481507   20.843071 O.co2      1 MOL1        -0.6776
       4    C2      19.881377   17.684150   21.340462 C.3        1 MOL1        -0.2013
       5    H1      20.185175   18.536955   20.721618 H          1 MOL1         0.0727
       6    H2      20.074617   16.783278   20.746861 H          1 MOL1         0.0727
       7    C3      20.741678   17.626337   22.635031 C.3        1 MOL1        -0.1910
       8    H3      20.274349   16.952926   23.366743 H          1 MOL1         0.0729
       9    H4      21.704945   17.164727   22.379319 H          1 MOL1         0.0729
      10    C4      21.042573   18.996279   23.295259 C.3        1 MOL1        -0.1909
      11    H5      21.599855   19.635233   22.596538 H          1 MOL1         0.0729
      12    H6      21.724657   18.813550   24.136887 H          1 MOL1         0.0729
      13    C5      19.802794   19.747082   23.838612 C.3        1 MOL1        -0.1884
      14    H7      18.980222   19.043683   24.028246 H          1 MOL1         0.0729
      15    H8      20.054759   20.189678   24.812147 H          1 MOL1         0.0729
      16    C6      19.333805   20.881613   22.902658 C.3        1 MOL1        -0.2899
      17    H9      20.116757   21.642208   22.786822 H          1 MOL1         0.0741
      18    H10     19.080903   20.501612   21.905978 H          1 MOL1         0.0741
      19    H11     18.442077   21.374118   23.311164 H          1 MOL1         0.0741
@<TRIPOS>BOND
    1     1     2    1
    2     1     3    2
    3     1     4    1
    4     4     5    1
    5     4     6    1
    6     4     7    1
    7     7     8    1
    8     7     9    1
    9     7    10    1
   10    10    11    1
   11    10    12    1
   12    10    13    1
   13    13    14    1
   14    13    15    1
   15    13    16    1
   16    16    17    1
   17    16    18    1
   18    16    19    1
@<TRIPOS>SUBSTRUCTURE
       1 MOL1            1 RESIDUE      1      MOL     
@<SCITEGIC>MOL_PROPERTY
VConf Rank
SciTegic.value.IntegerValue
513

@<SCITEGIC>MOL_PROPERTY
Conf_Id
SciTegic.value.IntegerValue
66

@<SCITEGIC>MOL_PROPERTY
Delta U+W
SciTegic.value.DoubleValue
5.819

@<SCITEGIC>MOL_PROPERTY
U+W
SciTegic.value.DoubleValue
-49.072

@<SCITEGIC>MOL_PROPERTY
Grad RMS
SciTegic.value.DoubleValue
0.000000

@<SCITEGIC>MOL_PROPERTY
U
SciTegic.value.DoubleValue
15.324

@<SCITEGIC>MOL_PROPERTY
W
SciTegic.value.DoubleValue
-64.396

@<SCITEGIC>MOL_PROPERTY
W(PB)
SciTegic.value.DoubleValue
-66.382

@<SCITEGIC>MOL_PROPERTY
W(SA)
SciTegic.value.DoubleValue
1.986

@<SCITEGIC>MOL_PROPERTY
Valence
SciTegic.value.DoubleValue
11.748

@<SCITEGIC>MOL_PROPERTY
Coulomb
SciTegic.value.DoubleValue
3.201

@<SCITEGIC>MOL_PROPERTY
VdW
SciTegic.value.DoubleValue
0.375

@<SCITEGIC>MOL_PROPERTY
VdW6
SciTegic.value.DoubleValue
-8.854

@<SCITEGIC>MOL_PROPERTY
VdW12
SciTegic.value.DoubleValue
9.229

@<SCITEGIC>MOL_PROPERTY
Bond
SciTegic.value.DoubleValue
0.216

@<SCITEGIC>MOL_PROPERTY
Angle
SciTegic.value.DoubleValue
3.812

@<SCITEGIC>MOL_PROPERTY
Pdih
SciTegic.value.DoubleValue
7.699

@<SCITEGIC>MOL_PROPERTY
Idih
SciTegic.value.DoubleValue
0.022

@<SCITEGIC>MOL_PROPERTY
Tether
SciTegic.value.DoubleValue
0.000

@<TRIPOS>MOLECULE
guest-7_confgen4.mol2 : confsearch ligand conformer 514
          19          18           1
SMALL
USER_CHARGES
 
@<TRIPOS>ATOM
       1    C1      19.416688   15.594353   22.763301 C.2        1 MOL1         0.6115
       2    O1      19.904133   14.642914   23.340208 O.co2      1 MOL1        -0.6776
       3    O2      18.371722   15.531206   22.145075 O.co2      1 MOL1        -0.6776
       4    C2      20.176959   16.919614   22.836408 C.3        1 MOL1        -0.2013
       5    H1      21.182416   16.742430   22.436769 H          1 MOL1         0.0727
       6    H2      20.293172   17.172012   23.896993 H          1 MOL1         0.0727
       7    C3      19.515835   18.105609   22.084900 C.3        1 MOL1        -0.1910
       8    H3      19.396967   17.844123   21.024257 H          1 MOL1         0.0729
       9    H4      18.506771   18.274117   22.485977 H          1 MOL1         0.0729
      10    C4      20.347766   19.400342   22.210674 C.3        1 MOL1        -0.1909
      11    H5      21.356176   19.229579   21.809301 H          1 MOL1         0.0729
      12    H6      20.465470   19.659839   23.271785 H          1 MOL1         0.0729
      13    C5      19.688836   20.578056   21.462879 C.3        1 MOL1        -0.1884
      14    H7      19.571047   20.323083   20.400520 H          1 MOL1         0.0729
      15    H8      18.680502   20.753370   21.862905 H          1 MOL1         0.0729
      16    C6      20.522112   21.868931   21.590488 C.3        1 MOL1        -0.2899
      17    H9      21.526487   21.731394   21.168900 H          1 MOL1         0.0741
      18    H10     20.039342   22.695630   21.053263 H          1 MOL1         0.0741
      19    H11     20.629255   22.164918   22.642311 H          1 MOL1         0.0741
@<TRIPOS>BOND
    1     1     2    1
    2     1     3    2
    3     1     4    1
    4     4     5    1
    5     4     6    1
    6     4     7    1
    7     7     8    1
    8     7     9    1
    9     7    10    1
   10    10    11    1
   11    10    12    1
   12    10    13    1
   13    13    14    1
   14    13    15    1
   15    13    16    1
   16    16    17    1
   17    16    18    1
   18    16    19    1
@<TRIPOS>SUBSTRUCTURE
       1 MOL1            1 RESIDUE      1      MOL     
@<SCITEGIC>MOL_PROPERTY
VConf Rank
SciTegic.value.IntegerValue
514

@<SCITEGIC>MOL_PROPERTY
Conf_Id
SciTegic.value.IntegerValue
0

@<SCITEGIC>MOL_PROPERTY
Delta U+W
SciTegic.value.DoubleValue
0.000

@<SCITEGIC>MOL_PROPERTY
U+W
SciTegic.value.DoubleValue
-54.891

@<SCITEGIC>MOL_PROPERTY
Grad RMS
SciTegic.value.DoubleValue
0.000000

@<SCITEGIC>MOL_PROPERTY
U
SciTegic.value.DoubleValue
6.966

@<SCITEGIC>MOL_PROPERTY
W
SciTegic.value.DoubleValue
-61.857

@<SCITEGIC>MOL_PROPERTY
W(PB)
SciTegic.value.DoubleValue
-63.965

@<SCITEGIC>MOL_PROPERTY
W(SA)
SciTegic.value.DoubleValue
2.108

@<SCITEGIC>MOL_PROPERTY
Valence
SciTegic.value.DoubleValue
7.175

@<SCITEGIC>MOL_PROPERTY
Coulomb
SciTegic.value.DoubleValue
-1.360

@<SCITEGIC>MOL_PROPERTY
VdW
SciTegic.value.DoubleValue
1.151

@<SCITEGIC>MOL_PROPERTY
VdW6
SciTegic.value.DoubleValue
-5.641

@<SCITEGIC>MOL_PROPERTY
VdW12
SciTegic.value.DoubleValue
6.792

@<SCITEGIC>MOL_PROPERTY
Bond
SciTegic.value.DoubleValue
0.119

@<SCITEGIC>MOL_PROPERTY
Angle
SciTegic.value.DoubleValue
2.715

@<SCITEGIC>MOL_PROPERTY
Pdih
SciTegic.value.DoubleValue
4.340

@<SCITEGIC>MOL_PROPERTY
Idih
SciTegic.value.DoubleValue
0.000

@<SCITEGIC>MOL_PROPERTY
Tether
SciTegic.value.DoubleValue
0.000

@<TRIPOS>MOLECULE
guest-7_confgen4.mol2 : confsearch ligand conformer 515
          19          18           1
SMALL
USER_CHARGES
 
@<TRIPOS>ATOM
       1    C1      16.626796   18.264308   22.572488 C.2        1 MOL1         0.6115
       2    O1      16.381139   17.163699   23.024697 O.co2      1 MOL1        -0.6776
       3    O2      15.926061   19.239384   22.757903 O.co2      1 MOL1        -0.6776
       4    C2      17.894979   18.435831   21.743837 C.3        1 MOL1        -0.2013
       5    H1      17.706585   19.207962   20.988150 H          1 MOL1         0.0727
       6    H2      18.081909   17.497148   21.208415 H          1 MOL1         0.0727
       7    C3      19.127364   18.816534   22.600812 C.3        1 MOL1        -0.1910
       8    H3      18.919579   19.751217   23.140018 H          1 MOL1         0.0729
       9    H4      19.294828   18.040339   23.360434 H          1 MOL1         0.0729
      10    C4      20.397213   18.983994   21.738798 C.3        1 MOL1        -0.1909
      11    H5      20.226160   19.759576   20.979583 H          1 MOL1         0.0729
      12    H6      20.601521   18.048432   21.200121 H          1 MOL1         0.0729
      13    C5      21.623272   19.363309   22.595112 C.3        1 MOL1        -0.1884
      14    H7      21.423484   20.299808   23.134137 H          1 MOL1         0.0729
      15    H8      21.798864   18.588805   23.354589 H          1 MOL1         0.0729
      16    C6      22.889333   19.529767   21.731205 C.3        1 MOL1        -0.2899
      17    H9      23.751023   19.799300   22.355666 H          1 MOL1         0.0741
      18    H10     23.130883   18.597191   21.204536 H          1 MOL1         0.0741
      19    H11     22.752663   20.320997   20.982406 H          1 MOL1         0.0741
@<TRIPOS>BOND
    1     1     2    1
    2     1     3    2
    3     1     4    1
    4     4     5    1
    5     4     6    1
    6     4     7    1
    7     7     8    1
    8     7     9    1
    9     7    10    1
   10    10    11    1
   11    10    12    1
   12    10    13    1
   13    13    14    1
   14    13    15    1
   15    13    16    1
   16    16    17    1
   17    16    18    1
   18    16    19    1
@<TRIPOS>SUBSTRUCTURE
       1 MOL1            1 RESIDUE      1      MOL     
@<SCITEGIC>MOL_PROPERTY
VConf Rank
SciTegic.value.IntegerValue
515

@<SCITEGIC>MOL_PROPERTY
Conf_Id
SciTegic.value.IntegerValue
18

@<SCITEGIC>MOL_PROPERTY
Delta U+W
SciTegic.value.DoubleValue
-1.199

@<SCITEGIC>MOL_PROPERTY
U+W
SciTegic.value.DoubleValue
-56.090

@<SCITEGIC>MOL_PROPERTY
Grad RMS
SciTegic.value.DoubleValue
0.000000

@<SCITEGIC>MOL_PROPERTY
U
SciTegic.value.DoubleValue
5.975

@<SCITEGIC>MOL_PROPERTY
W
SciTegic.value.DoubleValue
-62.066

@<SCITEGIC>MOL_PROPERTY
W(PB)
SciTegic.value.DoubleValue
-64.219

@<SCITEGIC>MOL_PROPERTY
W(SA)
SciTegic.value.DoubleValue
2.153

@<SCITEGIC>MOL_PROPERTY
Valence
SciTegic.value.DoubleValue
6.673

@<SCITEGIC>MOL_PROPERTY
Coulomb
SciTegic.value.DoubleValue
-1.307

@<SCITEGIC>MOL_PROPERTY
VdW
SciTegic.value.DoubleValue
0.610

@<SCITEGIC>MOL_PROPERTY
VdW6
SciTegic.value.DoubleValue
-5.351

@<SCITEGIC>MOL_PROPERTY
VdW12
SciTegic.value.DoubleValue
5.961

@<SCITEGIC>MOL_PROPERTY
Bond
SciTegic.value.DoubleValue
0.086

@<SCITEGIC>MOL_PROPERTY
Angle
SciTegic.value.DoubleValue
2.253

@<SCITEGIC>MOL_PROPERTY
Pdih
SciTegic.value.DoubleValue
4.333

@<SCITEGIC>MOL_PROPERTY
Idih
SciTegic.value.DoubleValue
0.001

@<SCITEGIC>MOL_PROPERTY
Tether
SciTegic.value.DoubleValue
0.000

@<TRIPOS>MOLECULE
guest-7_confgen4.mol2 : confsearch ligand conformer 516
          19          18           1
SMALL
USER_CHARGES
 
@<TRIPOS>ATOM
       1    C1      19.044367   17.439222   24.876522 C.2        1 MOL1         0.6115
       2    O1      18.955921   16.232248   24.984584 O.co2      1 MOL1        -0.6776
       3    O2      19.102963   18.196595   25.824792 O.co2      1 MOL1        -0.6776
       4    C2      19.106696   18.034125   23.474178 C.3        1 MOL1        -0.2013
       5    H1      18.617816   19.014346   23.505895 H          1 MOL1         0.0727
       6    H2      18.514401   17.396221   22.807263 H          1 MOL1         0.0727
       7    C3      20.557282   18.163729   22.941088 C.3        1 MOL1        -0.1910
       8    H3      21.128419   18.840014   23.592049 H          1 MOL1         0.0729
       9    H4      21.046434   17.182082   23.008330 H          1 MOL1         0.0729
      10    C4      20.635667   18.657205   21.476892 C.3        1 MOL1        -0.1909
      11    H5      20.070843   17.974326   20.827540 H          1 MOL1         0.0729
      12    H6      21.682318   18.605091   21.147013 H          1 MOL1         0.0729
      13    C5      20.120812   20.101629   21.286961 C.3        1 MOL1        -0.1884
      14    H7      19.053907   20.159671   21.539360 H          1 MOL1         0.0729
      15    H8      20.650279   20.777132   21.972984 H          1 MOL1         0.0729
      16    C6      20.319681   20.586084   19.836780 C.3        1 MOL1        -0.2899
      17    H9      19.946766   21.611608   19.717096 H          1 MOL1         0.0741
      18    H10     21.382518   20.577931   19.561650 H          1 MOL1         0.0741
      19    H11     19.777558   19.943601   19.130576 H          1 MOL1         0.0741
@<TRIPOS>BOND
    1     1     2    1
    2     1     3    2
    3     1     4    1
    4     4     5    1
    5     4     6    1
    6     4     7    1
    7     7     8    1
    8     7     9    1
    9     7    10    1
   10    10    11    1
   11    10    12    1
   12    10    13    1
   13    13    14    1
   14    13    15    1
   15    13    16    1
   16    16    17    1
   17    16    18    1
   18    16    19    1
@<TRIPOS>SUBSTRUCTURE
       1 MOL1            1 RESIDUE      1      MOL     
@<SCITEGIC>MOL_PROPERTY
VConf Rank
SciTegic.value.IntegerValue
516

@<SCITEGIC>MOL_PROPERTY
Conf_Id
SciTegic.value.IntegerValue
34

@<SCITEGIC>MOL_PROPERTY
Delta U+W
SciTegic.value.DoubleValue
-0.563

@<SCITEGIC>MOL_PROPERTY
U+W
SciTegic.value.DoubleValue
-55.455

@<SCITEGIC>MOL_PROPERTY
Grad RMS
SciTegic.value.DoubleValue
0.000000

@<SCITEGIC>MOL_PROPERTY
U
SciTegic.value.DoubleValue
6.914

@<SCITEGIC>MOL_PROPERTY
W
SciTegic.value.DoubleValue
-62.369

@<SCITEGIC>MOL_PROPERTY
W(PB)
SciTegic.value.DoubleValue
-64.446

@<SCITEGIC>MOL_PROPERTY
W(SA)
SciTegic.value.DoubleValue
2.077

@<SCITEGIC>MOL_PROPERTY
Valence
SciTegic.value.DoubleValue
7.196

@<SCITEGIC>MOL_PROPERTY
Coulomb
SciTegic.value.DoubleValue
-1.020

@<SCITEGIC>MOL_PROPERTY
VdW
SciTegic.value.DoubleValue
0.738

@<SCITEGIC>MOL_PROPERTY
VdW6
SciTegic.value.DoubleValue
-6.010

@<SCITEGIC>MOL_PROPERTY
VdW12
SciTegic.value.DoubleValue
6.748

@<SCITEGIC>MOL_PROPERTY
Bond
SciTegic.value.DoubleValue
0.126

@<SCITEGIC>MOL_PROPERTY
Angle
SciTegic.value.DoubleValue
2.499

@<SCITEGIC>MOL_PROPERTY
Pdih
SciTegic.value.DoubleValue
4.570

@<SCITEGIC>MOL_PROPERTY
Idih
SciTegic.value.DoubleValue
0.001

@<SCITEGIC>MOL_PROPERTY
Tether
SciTegic.value.DoubleValue
0.000

@<TRIPOS>MOLECULE
guest-7_confgen4.mol2 : confsearch ligand conformer 517
          19          18           1
SMALL
USER_CHARGES
 
@<TRIPOS>ATOM
       1    C1      16.886114   18.500239   22.964553 C.2        1 MOL1         0.6115
       2    O1      16.286028   19.212096   23.745224 O.co2      1 MOL1        -0.6776
       3    O2      16.510712   17.390804   22.641304 O.co2      1 MOL1        -0.6776
       4    C2      18.193089   19.018889   22.375336 C.3        1 MOL1        -0.2013
       5    H1      18.116055   20.108898   22.283368 H          1 MOL1         0.0727
       6    H2      18.286273   18.612557   21.361898 H          1 MOL1         0.0727
       7    C3      19.429458   18.640613   23.231770 C.3        1 MOL1        -0.1910
       8    H3      19.262380   18.983179   24.262379 H          1 MOL1         0.0729
       9    H4      19.521871   17.546781   23.279728 H          1 MOL1         0.0729
      10    C4      20.751420   19.254916   22.713528 C.3        1 MOL1        -0.1909
      11    H5      21.545956   19.035910   23.440001 H          1 MOL1         0.0729
      12    H6      20.658688   20.348951   22.674846 H          1 MOL1         0.0729
      13    C5      21.176364   18.718894   21.328026 C.3        1 MOL1        -0.1884
      14    H7      21.219665   17.621263   21.352524 H          1 MOL1         0.0729
      15    H8      20.430627   18.993748   20.570599 H          1 MOL1         0.0729
      16    C6      22.550087   19.275911   20.903901 C.3        1 MOL1        -0.2899
      17    H9      22.527776   20.371988   20.844541 H          1 MOL1         0.0741
      18    H10     23.329961   18.986962   21.620624 H          1 MOL1         0.0741
      19    H11     22.836521   18.888744   19.917419 H          1 MOL1         0.0741
@<TRIPOS>BOND
    1     1     2    1
    2     1     3    2
    3     1     4    1
    4     4     5    1
    5     4     6    1
    6     4     7    1
    7     7     8    1
    8     7     9    1
    9     7    10    1
   10    10    11    1
   11    10    12    1
   12    10    13    1
   13    13    14    1
   14    13    15    1
   15    13    16    1
   16    16    17    1
   17    16    18    1
   18    16    19    1
@<TRIPOS>SUBSTRUCTURE
       1 MOL1            1 RESIDUE      1      MOL     
@<SCITEGIC>MOL_PROPERTY
VConf Rank
SciTegic.value.IntegerValue
517

@<SCITEGIC>MOL_PROPERTY
Conf_Id
SciTegic.value.IntegerValue
33

@<SCITEGIC>MOL_PROPERTY
Delta U+W
SciTegic.value.DoubleValue
-0.526

@<SCITEGIC>MOL_PROPERTY
U+W
SciTegic.value.DoubleValue
-55.418

@<SCITEGIC>MOL_PROPERTY
Grad RMS
SciTegic.value.DoubleValue
0.000000

@<SCITEGIC>MOL_PROPERTY
U
SciTegic.value.DoubleValue
6.914

@<SCITEGIC>MOL_PROPERTY
W
SciTegic.value.DoubleValue
-62.332

@<SCITEGIC>MOL_PROPERTY
W(PB)
SciTegic.value.DoubleValue
-64.421

@<SCITEGIC>MOL_PROPERTY
W(SA)
SciTegic.value.DoubleValue
2.090

@<SCITEGIC>MOL_PROPERTY
Valence
SciTegic.value.DoubleValue
7.196

@<SCITEGIC>MOL_PROPERTY
Coulomb
SciTegic.value.DoubleValue
-1.020

@<SCITEGIC>MOL_PROPERTY
VdW
SciTegic.value.DoubleValue
0.738

@<SCITEGIC>MOL_PROPERTY
VdW6
SciTegic.value.DoubleValue
-6.010

@<SCITEGIC>MOL_PROPERTY
VdW12
SciTegic.value.DoubleValue
6.748

@<SCITEGIC>MOL_PROPERTY
Bond
SciTegic.value.DoubleValue
0.126

@<SCITEGIC>MOL_PROPERTY
Angle
SciTegic.value.DoubleValue
2.499

@<SCITEGIC>MOL_PROPERTY
Pdih
SciTegic.value.DoubleValue
4.570

@<SCITEGIC>MOL_PROPERTY
Idih
SciTegic.value.DoubleValue
0.001

@<SCITEGIC>MOL_PROPERTY
Tether
SciTegic.value.DoubleValue
0.000

@<TRIPOS>MOLECULE
guest-7_confgen4.mol2 : confsearch ligand conformer 518
          19          18           1
SMALL
USER_CHARGES
 
@<TRIPOS>ATOM
       1    C1      19.291304   16.469342   24.104328 C.2        1 MOL1         0.6115
       2    O1      20.312023   15.839934   24.299771 O.co2      1 MOL1        -0.6776
       3    O2      18.413417   16.601407   24.933857 O.co2      1 MOL1        -0.6776
       4    C2      19.109890   17.145274   22.749815 C.3        1 MOL1        -0.2013
       5    H1      18.039344   17.149359   22.511924 H          1 MOL1         0.0727
       6    H2      19.608150   16.529064   21.991693 H          1 MOL1         0.0727
       7    C3      19.670652   18.588504   22.717064 C.3        1 MOL1        -0.1910
       8    H3      19.168993   19.190134   23.487530 H          1 MOL1         0.0729
       9    H4      20.737327   18.561230   22.976064 H          1 MOL1         0.0729
      10    C4      19.476475   19.247759   21.332023 C.3        1 MOL1        -0.1909
      11    H5      18.413168   19.200901   21.059669 H          1 MOL1         0.0729
      12    H6      20.019033   18.673138   20.568840 H          1 MOL1         0.0729
      13    C5      19.930204   20.725132   21.286346 C.3        1 MOL1        -0.1884
      14    H7      19.651139   21.149657   20.312105 H          1 MOL1         0.0729
      15    H8      19.385553   21.304401   22.044719 H          1 MOL1         0.0729
      16    C6      21.450347   20.903861   21.489011 C.3        1 MOL1        -0.2899
      17    H9      22.016496   20.310051   20.759613 H          1 MOL1         0.0741
      18    H10     21.733399   21.956593   21.360249 H          1 MOL1         0.0741
      19    H11     21.759076   20.598072   22.496444 H          1 MOL1         0.0741
@<TRIPOS>BOND
    1     1     2    1
    2     1     3    2
    3     1     4    1
    4     4     5    1
    5     4     6    1
    6     4     7    1
    7     7     8    1
    8     7     9    1
    9     7    10    1
   10    10    11    1
   11    10    12    1
   12    10    13    1
   13    13    14    1
   14    13    15    1
   15    13    16    1
   16    16    17    1
   17    16    18    1
   18    16    19    1
@<TRIPOS>SUBSTRUCTURE
       1 MOL1            1 RESIDUE      1      MOL     
@<SCITEGIC>MOL_PROPERTY
VConf Rank
SciTegic.value.IntegerValue
518

@<SCITEGIC>MOL_PROPERTY
Conf_Id
SciTegic.value.IntegerValue
42

@<SCITEGIC>MOL_PROPERTY
Delta U+W
SciTegic.value.DoubleValue
-0.344

@<SCITEGIC>MOL_PROPERTY
U+W
SciTegic.value.DoubleValue
-55.236

@<SCITEGIC>MOL_PROPERTY
Grad RMS
SciTegic.value.DoubleValue
0.000000

@<SCITEGIC>MOL_PROPERTY
U
SciTegic.value.DoubleValue
7.244

@<SCITEGIC>MOL_PROPERTY
W
SciTegic.value.DoubleValue
-62.479

@<SCITEGIC>MOL_PROPERTY
W(PB)
SciTegic.value.DoubleValue
-64.610

@<SCITEGIC>MOL_PROPERTY
W(SA)
SciTegic.value.DoubleValue
2.130

@<SCITEGIC>MOL_PROPERTY
Valence
SciTegic.value.DoubleValue
7.174

@<SCITEGIC>MOL_PROPERTY
Coulomb
SciTegic.value.DoubleValue
-0.669

@<SCITEGIC>MOL_PROPERTY
VdW
SciTegic.value.DoubleValue
0.739

@<SCITEGIC>MOL_PROPERTY
VdW6
SciTegic.value.DoubleValue
-5.969

@<SCITEGIC>MOL_PROPERTY
VdW12
SciTegic.value.DoubleValue
6.708

@<SCITEGIC>MOL_PROPERTY
Bond
SciTegic.value.DoubleValue
0.116

@<SCITEGIC>MOL_PROPERTY
Angle
SciTegic.value.DoubleValue
2.481

@<SCITEGIC>MOL_PROPERTY
Pdih
SciTegic.value.DoubleValue
4.576

@<SCITEGIC>MOL_PROPERTY
Idih
SciTegic.value.DoubleValue
0.000

@<SCITEGIC>MOL_PROPERTY
Tether
SciTegic.value.DoubleValue
0.000

@<TRIPOS>MOLECULE
guest-7_confgen4.mol2 : confsearch ligand conformer 519
          19          18           1
SMALL
USER_CHARGES
 
@<TRIPOS>ATOM
       1    C1      20.147978   19.977450   25.229620 C.2        1 MOL1         0.6115
       2    O1      19.993696   19.044723   25.992797 O.co2      1 MOL1        -0.6776
       3    O2      19.725899   21.096862   25.441779 O.co2      1 MOL1        -0.6776
       4    C2      20.896597   19.725134   23.925624 C.3        1 MOL1        -0.2013
       5    H1      21.648792   18.948405   24.108988 H          1 MOL1         0.0727
       6    H2      21.435796   20.642279   23.659562 H          1 MOL1         0.0727
       7    C3      19.961365   19.299216   22.767013 C.3        1 MOL1        -0.1910
       8    H3      19.419437   18.391364   23.063223 H          1 MOL1         0.0729
       9    H4      19.208614   20.082379   22.601899 H          1 MOL1         0.0729
      10    C4      20.746857   19.046752   21.459374 C.3        1 MOL1        -0.1909
      11    H5      21.465766   18.229907   21.610836 H          1 MOL1         0.0729
      12    H6      21.337845   19.941134   21.218948 H          1 MOL1         0.0729
      13    C5      19.839008   18.719016   20.251487 C.3        1 MOL1        -0.1884
      14    H7      19.122056   19.536504   20.093312 H          1 MOL1         0.0729
      15    H8      20.460056   18.671503   19.346343 H          1 MOL1         0.0729
      16    C6      19.078963   17.383651   20.403083 C.3        1 MOL1        -0.2899
      17    H9      18.358620   17.424062   21.229654 H          1 MOL1         0.0741
      18    H10     18.520111   17.154116   19.486601 H          1 MOL1         0.0741
      19    H11     19.774059   16.555098   20.591495 H          1 MOL1         0.0741
@<TRIPOS>BOND
    1     1     2    1
    2     1     3    2
    3     1     4    1
    4     4     5    1
    5     4     6    1
    6     4     7    1
    7     7     8    1
    8     7     9    1
    9     7    10    1
   10    10    11    1
   11    10    12    1
   12    10    13    1
   13    13    14    1
   14    13    15    1
   15    13    16    1
   16    16    17    1
   17    16    18    1
   18    16    19    1
@<TRIPOS>SUBSTRUCTURE
       1 MOL1            1 RESIDUE      1      MOL     
@<SCITEGIC>MOL_PROPERTY
VConf Rank
SciTegic.value.IntegerValue
519

@<SCITEGIC>MOL_PROPERTY
Conf_Id
SciTegic.value.IntegerValue
41

@<SCITEGIC>MOL_PROPERTY
Delta U+W
SciTegic.value.DoubleValue
-0.361

@<SCITEGIC>MOL_PROPERTY
U+W
SciTegic.value.DoubleValue
-55.252

@<SCITEGIC>MOL_PROPERTY
Grad RMS
SciTegic.value.DoubleValue
0.000000

@<SCITEGIC>MOL_PROPERTY
U
SciTegic.value.DoubleValue
7.244

@<SCITEGIC>MOL_PROPERTY
W
SciTegic.value.DoubleValue
-62.496

@<SCITEGIC>MOL_PROPERTY
W(PB)
SciTegic.value.DoubleValue
-64.596

@<SCITEGIC>MOL_PROPERTY
W(SA)
SciTegic.value.DoubleValue
2.099

@<SCITEGIC>MOL_PROPERTY
Valence
SciTegic.value.DoubleValue
7.174

@<SCITEGIC>MOL_PROPERTY
Coulomb
SciTegic.value.DoubleValue
-0.669

@<SCITEGIC>MOL_PROPERTY
VdW
SciTegic.value.DoubleValue
0.739

@<SCITEGIC>MOL_PROPERTY
VdW6
SciTegic.value.DoubleValue
-5.969

@<SCITEGIC>MOL_PROPERTY
VdW12
SciTegic.value.DoubleValue
6.708

@<SCITEGIC>MOL_PROPERTY
Bond
SciTegic.value.DoubleValue
0.116

@<SCITEGIC>MOL_PROPERTY
Angle
SciTegic.value.DoubleValue
2.481

@<SCITEGIC>MOL_PROPERTY
Pdih
SciTegic.value.DoubleValue
4.576

@<SCITEGIC>MOL_PROPERTY
Idih
SciTegic.value.DoubleValue
0.000

@<SCITEGIC>MOL_PROPERTY
Tether
SciTegic.value.DoubleValue
0.000

@<TRIPOS>MOLECULE
guest-7_confgen4.mol2 : confsearch ligand conformer 520
          19          18           1
SMALL
USER_CHARGES
 
@<TRIPOS>ATOM
       1    C1      18.227266   20.778605   23.898057 C.2        1 MOL1         0.6115
       2    O1      19.084496   21.254365   24.615942 O.co2      1 MOL1        -0.6776
       3    O2      17.441413   21.447254   23.256164 O.co2      1 MOL1        -0.6776
       4    C2      18.115385   19.258837   23.813616 C.3        1 MOL1        -0.2013
       5    H1      17.054686   19.001800   23.918316 H          1 MOL1         0.0727
       6    H2      18.634521   18.820849   24.674808 H          1 MOL1         0.0727
       7    C3      18.665854   18.657472   22.494361 C.3        1 MOL1        -0.1910
       8    H3      18.419857   17.587479   22.460656 H          1 MOL1         0.0729
       9    H4      18.156924   19.126170   21.640579 H          1 MOL1         0.0729
      10    C4      20.194426   18.833296   22.353424 C.3        1 MOL1        -0.1909
      11    H5      20.697785   18.374666   23.215583 H          1 MOL1         0.0729
      12    H6      20.447194   19.902541   22.369110 H          1 MOL1         0.0729
      13    C5      20.724413   18.200420   21.049896 C.3        1 MOL1        -0.1884
      14    H7      20.478119   17.129722   21.030528 H          1 MOL1         0.0729
      15    H8      20.224258   18.659121   20.185655 H          1 MOL1         0.0729
      16    C6      22.249765   18.377423   20.912251 C.3        1 MOL1        -0.2899
      17    H9      22.777502   17.900265   21.748445 H          1 MOL1         0.0741
      18    H10     22.609544   17.922317   19.980305 H          1 MOL1         0.0741
      19    H11     22.521812   19.441007   20.897319 H          1 MOL1         0.0741
@<TRIPOS>BOND
    1     1     2    1
    2     1     3    2
    3     1     4    1
    4     4     5    1
    5     4     6    1
    6     4     7    1
    7     7     8    1
    8     7     9    1
    9     7    10    1
   10    10    11    1
   11    10    12    1
   12    10    13    1
   13    13    14    1
   14    13    15    1
   15    13    16    1
   16    16    17    1
   17    16    18    1
   18    16    19    1
@<TRIPOS>SUBSTRUCTURE
       1 MOL1            1 RESIDUE      1      MOL     
@<SCITEGIC>MOL_PROPERTY
VConf Rank
SciTegic.value.IntegerValue
520

@<SCITEGIC>MOL_PROPERTY
Conf_Id
SciTegic.value.IntegerValue
36

@<SCITEGIC>MOL_PROPERTY
Delta U+W
SciTegic.value.DoubleValue
-0.079

@<SCITEGIC>MOL_PROPERTY
U+W
SciTegic.value.DoubleValue
-54.971

@<SCITEGIC>MOL_PROPERTY
Grad RMS
SciTegic.value.DoubleValue
0.000000

@<SCITEGIC>MOL_PROPERTY
U
SciTegic.value.DoubleValue
8.266

@<SCITEGIC>MOL_PROPERTY
W
SciTegic.value.DoubleValue
-63.237

@<SCITEGIC>MOL_PROPERTY
W(PB)
SciTegic.value.DoubleValue
-65.340

@<SCITEGIC>MOL_PROPERTY
W(SA)
SciTegic.value.DoubleValue
2.103

@<SCITEGIC>MOL_PROPERTY
Valence
SciTegic.value.DoubleValue
6.935

@<SCITEGIC>MOL_PROPERTY
Coulomb
SciTegic.value.DoubleValue
0.874

@<SCITEGIC>MOL_PROPERTY
VdW
SciTegic.value.DoubleValue
0.457

@<SCITEGIC>MOL_PROPERTY
VdW6
SciTegic.value.DoubleValue
-6.205

@<SCITEGIC>MOL_PROPERTY
VdW12
SciTegic.value.DoubleValue
6.662

@<SCITEGIC>MOL_PROPERTY
Bond
SciTegic.value.DoubleValue
0.107

@<SCITEGIC>MOL_PROPERTY
Angle
SciTegic.value.DoubleValue
2.420

@<SCITEGIC>MOL_PROPERTY
Pdih
SciTegic.value.DoubleValue
4.407

@<SCITEGIC>MOL_PROPERTY
Idih
SciTegic.value.DoubleValue
0.001

@<SCITEGIC>MOL_PROPERTY
Tether
SciTegic.value.DoubleValue
0.000

@<TRIPOS>MOLECULE
guest-7_confgen4.mol2 : confsearch ligand conformer 521
          19          18           1
SMALL
USER_CHARGES
 
@<TRIPOS>ATOM
       1    C1      22.003545   21.081496   21.887455 C.2        1 MOL1         0.6115
       2    O1      22.670312   20.995946   22.899708 O.co2      1 MOL1        -0.6776
       3    O2      21.506139   22.118931   21.496307 O.co2      1 MOL1        -0.6776
       4    C2      21.796143   19.823321   21.048809 C.3        1 MOL1        -0.2013
       5    H1      22.557943   19.085745   21.329217 H          1 MOL1         0.0727
       6    H2      21.984536   20.091850   20.002621 H          1 MOL1         0.0727
       7    C3      20.379699   19.205069   21.177434 C.3        1 MOL1        -0.1910
       8    H3      19.626940   19.963556   20.921148 H          1 MOL1         0.0729
       9    H4      20.276149   18.395658   20.442133 H          1 MOL1         0.0729
      10    C4      20.100765   18.647581   22.591192 C.3        1 MOL1        -0.1909
      11    H5      20.185722   19.455407   23.331207 H          1 MOL1         0.0729
      12    H6      20.863291   17.899452   22.847876 H          1 MOL1         0.0729
      13    C5      18.699180   18.009689   22.687409 C.3        1 MOL1        -0.1884
      14    H7      17.934275   18.756608   22.433425 H          1 MOL1         0.0729
      15    H8      18.609799   17.197950   21.952208 H          1 MOL1         0.0729
      16    C6      18.423940   17.454426   24.099113 C.3        1 MOL1        -0.2899
      17    H9      18.476114   18.252065   24.851771 H          1 MOL1         0.0741
      18    H10     17.423586   17.005209   24.149939 H          1 MOL1         0.0741
      19    H11     19.156608   16.681857   24.366957 H          1 MOL1         0.0741
@<TRIPOS>BOND
    1     1     2    1
    2     1     3    2
    3     1     4    1
    4     4     5    1
    5     4     6    1
    6     4     7    1
    7     7     8    1
    8     7     9    1
    9     7    10    1
   10    10    11    1
   11    10    12    1
   12    10    13    1
   13    13    14    1
   14    13    15    1
   15    13    16    1
   16    16    17    1
   17    16    18    1
   18    16    19    1
@<TRIPOS>SUBSTRUCTURE
       1 MOL1            1 RESIDUE      1      MOL     
@<SCITEGIC>MOL_PROPERTY
VConf Rank
SciTegic.value.IntegerValue
521

@<SCITEGIC>MOL_PROPERTY
Conf_Id
SciTegic.value.IntegerValue
35

@<SCITEGIC>MOL_PROPERTY
Delta U+W
SciTegic.value.DoubleValue
-0.030

@<SCITEGIC>MOL_PROPERTY
U+W
SciTegic.value.DoubleValue
-54.921

@<SCITEGIC>MOL_PROPERTY
Grad RMS
SciTegic.value.DoubleValue
0.000000

@<SCITEGIC>MOL_PROPERTY
U
SciTegic.value.DoubleValue
8.267

@<SCITEGIC>MOL_PROPERTY
W
SciTegic.value.DoubleValue
-63.188

@<SCITEGIC>MOL_PROPERTY
W(PB)
SciTegic.value.DoubleValue
-65.294

@<SCITEGIC>MOL_PROPERTY
W(SA)
SciTegic.value.DoubleValue
2.106

@<SCITEGIC>MOL_PROPERTY
Valence
SciTegic.value.DoubleValue
6.935

@<SCITEGIC>MOL_PROPERTY
Coulomb
SciTegic.value.DoubleValue
0.875

@<SCITEGIC>MOL_PROPERTY
VdW
SciTegic.value.DoubleValue
0.457

@<SCITEGIC>MOL_PROPERTY
VdW6
SciTegic.value.DoubleValue
-6.205

@<SCITEGIC>MOL_PROPERTY
VdW12
SciTegic.value.DoubleValue
6.662

@<SCITEGIC>MOL_PROPERTY
Bond
SciTegic.value.DoubleValue
0.107

@<SCITEGIC>MOL_PROPERTY
Angle
SciTegic.value.DoubleValue
2.420

@<SCITEGIC>MOL_PROPERTY
Pdih
SciTegic.value.DoubleValue
4.407

@<SCITEGIC>MOL_PROPERTY
Idih
SciTegic.value.DoubleValue
0.001

@<SCITEGIC>MOL_PROPERTY
Tether
SciTegic.value.DoubleValue
0.000

@<TRIPOS>MOLECULE
guest-7_confgen4.mol2 : confsearch ligand conformer 522
          19          18           1
SMALL
USER_CHARGES
 
@<TRIPOS>ATOM
       1    C1      18.492158   19.576955   24.664176 C.2        1 MOL1         0.6115
       2    O1      18.954576   20.503269   25.300430 O.co2      1 MOL1        -0.6776
       3    O2      18.122015   18.534802   25.167720 O.co2      1 MOL1        -0.6776
       4    C2      18.349308   19.741891   23.153590 C.3        1 MOL1        -0.2013
       5    H1      17.908798   20.729447   22.972538 H          1 MOL1         0.0727
       6    H2      17.628780   19.000982   22.786369 H          1 MOL1         0.0727
       7    C3      19.684947   19.620927   22.374387 C.3        1 MOL1        -0.1910
       8    H3      19.505380   19.904681   21.329595 H          1 MOL1         0.0729
       9    H4      20.408988   20.341456   22.779272 H          1 MOL1         0.0729
      10    C4      20.278267   18.192830   22.430899 C.3        1 MOL1        -0.1909
      11    H5      19.568584   17.479214   21.990537 H          1 MOL1         0.0729
      12    H6      20.404576   17.895700   23.481035 H          1 MOL1         0.0729
      13    C5      21.646240   18.067548   21.721122 C.3        1 MOL1        -0.1884
      14    H7      22.358945   18.778813   22.160970 H          1 MOL1         0.0729
      15    H8      22.051338   17.064271   21.912308 H          1 MOL1         0.0729
      16    C6      21.566582   18.287952   20.194985 C.3        1 MOL1        -0.2899
      17    H9      21.278028   19.318402   19.953053 H          1 MOL1         0.0741
      18    H10     22.542120   18.098498   19.728756 H          1 MOL1         0.0741
      19    H11     20.835798   17.608414   19.737458 H          1 MOL1         0.0741
@<TRIPOS>BOND
    1     1     2    1
    2     1     3    2
    3     1     4    1
    4     4     5    1
    5     4     6    1
    6     4     7    1
    7     7     8    1
    8     7     9    1
    9     7    10    1
   10    10    11    1
   11    10    12    1
   12    10    13    1
   13    13    14    1
   14    13    15    1
   15    13    16    1
   16    16    17    1
   17    16    18    1
   18    16    19    1
@<TRIPOS>SUBSTRUCTURE
       1 MOL1            1 RESIDUE      1      MOL     
@<SCITEGIC>MOL_PROPERTY
VConf Rank
SciTegic.value.IntegerValue
522

@<SCITEGIC>MOL_PROPERTY
Conf_Id
SciTegic.value.IntegerValue
74

@<SCITEGIC>MOL_PROPERTY
Delta U+W
SciTegic.value.DoubleValue
0.797

@<SCITEGIC>MOL_PROPERTY
U+W
SciTegic.value.DoubleValue
-54.095

@<SCITEGIC>MOL_PROPERTY
Grad RMS
SciTegic.value.DoubleValue
0.000000

@<SCITEGIC>MOL_PROPERTY
U
SciTegic.value.DoubleValue
8.869

@<SCITEGIC>MOL_PROPERTY
W
SciTegic.value.DoubleValue
-62.964

@<SCITEGIC>MOL_PROPERTY
W(PB)
SciTegic.value.DoubleValue
-65.046

@<SCITEGIC>MOL_PROPERTY
W(SA)
SciTegic.value.DoubleValue
2.082

@<SCITEGIC>MOL_PROPERTY
Valence
SciTegic.value.DoubleValue
7.469

@<SCITEGIC>MOL_PROPERTY
Coulomb
SciTegic.value.DoubleValue
0.762

@<SCITEGIC>MOL_PROPERTY
VdW
SciTegic.value.DoubleValue
0.639

@<SCITEGIC>MOL_PROPERTY
VdW6
SciTegic.value.DoubleValue
-6.782

@<SCITEGIC>MOL_PROPERTY
VdW12
SciTegic.value.DoubleValue
7.421

@<SCITEGIC>MOL_PROPERTY
Bond
SciTegic.value.DoubleValue
0.141

@<SCITEGIC>MOL_PROPERTY
Angle
SciTegic.value.DoubleValue
2.667

@<SCITEGIC>MOL_PROPERTY
Pdih
SciTegic.value.DoubleValue
4.660

@<SCITEGIC>MOL_PROPERTY
Idih
SciTegic.value.DoubleValue
0.001

@<SCITEGIC>MOL_PROPERTY
Tether
SciTegic.value.DoubleValue
0.000

@<TRIPOS>MOLECULE
guest-7_confgen4.mol2 : confsearch ligand conformer 523
          19          18           1
SMALL
USER_CHARGES
 
@<TRIPOS>ATOM
       1    C1      17.871248   17.695146   23.921344 C.2        1 MOL1         0.6115
       2    O1      17.706304   16.526095   24.208633 O.co2      1 MOL1        -0.6776
       3    O2      17.419063   18.617077   24.570878 O.co2      1 MOL1        -0.6776
       4    C2      18.707045   18.022725   22.689129 C.3        1 MOL1        -0.2013
       5    H1      18.310047   18.946231   22.252449 H          1 MOL1         0.0727
       6    H2      18.557839   17.223477   21.953401 H          1 MOL1         0.0727
       7    C3      20.215925   18.178726   23.010894 C.3        1 MOL1        -0.1910
       8    H3      20.356848   19.006226   23.718823 H          1 MOL1         0.0729
       9    H4      20.561112   17.273590   23.529327 H          1 MOL1         0.0729
      10    C4      21.097864   18.394120   21.755299 C.3        1 MOL1        -0.1909
      11    H5      21.020232   17.508570   21.109877 H          1 MOL1         0.0729
      12    H6      22.149357   18.449695   22.068436 H          1 MOL1         0.0729
      13    C5      20.758120   19.651738   20.918119 C.3        1 MOL1        -0.1884
      14    H7      21.434609   19.689050   20.053220 H          1 MOL1         0.0729
      15    H8      19.743656   19.570394   20.505982 H          1 MOL1         0.0729
      16    C6      20.893709   20.969256   21.711315 C.3        1 MOL1        -0.2899
      17    H9      21.894772   21.061148   22.152291 H          1 MOL1         0.0741
      18    H10     20.733163   21.832499   21.052641 H          1 MOL1         0.0741
      19    H11     20.153872   21.025803   22.519838 H          1 MOL1         0.0741
@<TRIPOS>BOND
    1     1     2    1
    2     1     3    2
    3     1     4    1
    4     4     5    1
    5     4     6    1
    6     4     7    1
    7     7     8    1
    8     7     9    1
    9     7    10    1
   10    10    11    1
   11    10    12    1
   12    10    13    1
   13    13    14    1
   14    13    15    1
   15    13    16    1
   16    16    17    1
   17    16    18    1
   18    16    19    1
@<TRIPOS>SUBSTRUCTURE
       1 MOL1            1 RESIDUE      1      MOL     
@<SCITEGIC>MOL_PROPERTY
VConf Rank
SciTegic.value.IntegerValue
523

@<SCITEGIC>MOL_PROPERTY
Conf_Id
SciTegic.value.IntegerValue
67

@<SCITEGIC>MOL_PROPERTY
Delta U+W
SciTegic.value.DoubleValue
0.308

@<SCITEGIC>MOL_PROPERTY
U+W
SciTegic.value.DoubleValue
-54.583

@<SCITEGIC>MOL_PROPERTY
Grad RMS
SciTegic.value.DoubleValue
0.000000

@<SCITEGIC>MOL_PROPERTY
U
SciTegic.value.DoubleValue
8.219

@<SCITEGIC>MOL_PROPERTY
W
SciTegic.value.DoubleValue
-62.802

@<SCITEGIC>MOL_PROPERTY
W(PB)
SciTegic.value.DoubleValue
-64.859

@<SCITEGIC>MOL_PROPERTY
W(SA)
SciTegic.value.DoubleValue
2.057

@<SCITEGIC>MOL_PROPERTY
Valence
SciTegic.value.DoubleValue
7.609

@<SCITEGIC>MOL_PROPERTY
Coulomb
SciTegic.value.DoubleValue
-0.089

@<SCITEGIC>MOL_PROPERTY
VdW
SciTegic.value.DoubleValue
0.699

@<SCITEGIC>MOL_PROPERTY
VdW6
SciTegic.value.DoubleValue
-6.924

@<SCITEGIC>MOL_PROPERTY
VdW12
SciTegic.value.DoubleValue
7.623

@<SCITEGIC>MOL_PROPERTY
Bond
SciTegic.value.DoubleValue
0.163

@<SCITEGIC>MOL_PROPERTY
Angle
SciTegic.value.DoubleValue
2.870

@<SCITEGIC>MOL_PROPERTY
Pdih
SciTegic.value.DoubleValue
4.576

@<SCITEGIC>MOL_PROPERTY
Idih
SciTegic.value.DoubleValue
0.001

@<SCITEGIC>MOL_PROPERTY
Tether
SciTegic.value.DoubleValue
0.000

@<TRIPOS>MOLECULE
guest-7_confgen4.mol2 : confsearch ligand conformer 524
          19          18           1
SMALL
USER_CHARGES
 
@<TRIPOS>ATOM
       1    C1      22.216652   20.744856   21.754269 C.2        1 MOL1         0.6115
       2    O1      22.215337   21.955044   21.645347 O.co2      1 MOL1        -0.6776
       3    O2      23.070850   20.027642   21.272322 O.co2      1 MOL1        -0.6776
       4    C2      21.073356   20.089750   22.521033 C.3        1 MOL1        -0.2013
       5    H1      20.754754   20.778416   23.312606 H          1 MOL1         0.0727
       6    H2      21.470110   19.192495   23.009581 H          1 MOL1         0.0727
       7    C3      19.870758   19.726631   21.611917 C.3        1 MOL1        -0.1910
       8    H3      19.555415   20.627726   21.068055 H          1 MOL1         0.0729
       9    H4      20.192600   19.007617   20.846923 H          1 MOL1         0.0729
      10    C4      18.652417   19.168957   22.389970 C.3        1 MOL1        -0.1909
      11    H5      17.836069   18.981447   21.679198 H          1 MOL1         0.0729
      12    H6      18.284328   19.943170   23.076919 H          1 MOL1         0.0729
      13    C5      18.920739   17.874510   23.196388 C.3        1 MOL1        -0.1884
      14    H7      19.660789   18.065286   23.984766 H          1 MOL1         0.0729
      15    H8      17.994904   17.586364   23.712995 H          1 MOL1         0.0729
      16    C6      19.387613   16.693195   22.318937 C.3        1 MOL1        -0.2899
      17    H9      20.369982   16.892252   21.872175 H          1 MOL1         0.0741
      18    H10     19.474767   15.778995   22.920151 H          1 MOL1         0.0741
      19    H11     18.672823   16.498996   21.508757 H          1 MOL1         0.0741
@<TRIPOS>BOND
    1     1     2    1
    2     1     3    2
    3     1     4    1
    4     4     5    1
    5     4     6    1
    6     4     7    1
    7     7     8    1
    8     7     9    1
    9     7    10    1
   10    10    11    1
   11    10    12    1
   12    10    13    1
   13    13    14    1
   14    13    15    1
   15    13    16    1
   16    16    17    1
   17    16    18    1
   18    16    19    1
@<TRIPOS>SUBSTRUCTURE
       1 MOL1            1 RESIDUE      1      MOL     
@<SCITEGIC>MOL_PROPERTY
VConf Rank
SciTegic.value.IntegerValue
524

@<SCITEGIC>MOL_PROPERTY
Conf_Id
SciTegic.value.IntegerValue
21

@<SCITEGIC>MOL_PROPERTY
Delta U+W
SciTegic.value.DoubleValue
0.319

@<SCITEGIC>MOL_PROPERTY
U+W
SciTegic.value.DoubleValue
-54.572

@<SCITEGIC>MOL_PROPERTY
Grad RMS
SciTegic.value.DoubleValue
0.000000

@<SCITEGIC>MOL_PROPERTY
U
SciTegic.value.DoubleValue
8.220

@<SCITEGIC>MOL_PROPERTY
W
SciTegic.value.DoubleValue
-62.792

@<SCITEGIC>MOL_PROPERTY
W(PB)
SciTegic.value.DoubleValue
-64.830

@<SCITEGIC>MOL_PROPERTY
W(SA)
SciTegic.value.DoubleValue
2.038

@<SCITEGIC>MOL_PROPERTY
Valence
SciTegic.value.DoubleValue
7.609

@<SCITEGIC>MOL_PROPERTY
Coulomb
SciTegic.value.DoubleValue
-0.088

@<SCITEGIC>MOL_PROPERTY
VdW
SciTegic.value.DoubleValue
0.699

@<SCITEGIC>MOL_PROPERTY
VdW6
SciTegic.value.DoubleValue
-6.924

@<SCITEGIC>MOL_PROPERTY
VdW12
SciTegic.value.DoubleValue
7.623

@<SCITEGIC>MOL_PROPERTY
Bond
SciTegic.value.DoubleValue
0.163

@<SCITEGIC>MOL_PROPERTY
Angle
SciTegic.value.DoubleValue
2.870

@<SCITEGIC>MOL_PROPERTY
Pdih
SciTegic.value.DoubleValue
4.576

@<SCITEGIC>MOL_PROPERTY
Idih
SciTegic.value.DoubleValue
0.000

@<SCITEGIC>MOL_PROPERTY
Tether
SciTegic.value.DoubleValue
0.000

@<TRIPOS>MOLECULE
guest-7_confgen4.mol2 : confsearch ligand conformer 525
          19          18           1
SMALL
USER_CHARGES
 
@<TRIPOS>ATOM
       1    C1      20.645185   17.317271   24.638652 C.2        1 MOL1         0.6115
       2    O1      21.626038   16.640234   24.875267 O.co2      1 MOL1        -0.6776
       3    O2      19.911900   17.762068   25.499292 O.co2      1 MOL1        -0.6776
       4    C2      20.328220   17.641346   23.183114 C.3        1 MOL1        -0.2013
       5    H1      19.240915   17.719375   23.085631 H          1 MOL1         0.0727
       6    H2      20.643076   16.788204   22.570416 H          1 MOL1         0.0727
       7    C3      21.027055   18.935968   22.689984 C.3        1 MOL1        -0.1910
       8    H3      20.758609   19.781372   23.338452 H          1 MOL1         0.0729
       9    H4      22.111428   18.797615   22.801287 H          1 MOL1         0.0729
      10    C4      20.720431   19.276898   21.209547 C.3        1 MOL1        -0.1909
      11    H5      20.530498   18.357842   20.638443 H          1 MOL1         0.0729
      12    H6      21.622656   19.721726   20.767855 H          1 MOL1         0.0729
      13    C5      19.559055   20.280416   21.004441 C.3        1 MOL1        -0.1884
      14    H7      19.798780   21.228457   21.505447 H          1 MOL1         0.0729
      15    H8      19.482647   20.510239   19.932743 H          1 MOL1         0.0729
      16    C6      18.189006   19.772702   21.499301 C.3        1 MOL1        -0.2899
      17    H9      17.393344   20.470184   21.207315 H          1 MOL1         0.0741
      18    H10     17.953393   18.790622   21.069205 H          1 MOL1         0.0741
      19    H11     18.169638   19.689741   22.593165 H          1 MOL1         0.0741
@<TRIPOS>BOND
    1     1     2    1
    2     1     3    2
    3     1     4    1
    4     4     5    1
    5     4     6    1
    6     4     7    1
    7     7     8    1
    8     7     9    1
    9     7    10    1
   10    10    11    1
   11    10    12    1
   12    10    13    1
   13    13    14    1
   14    13    15    1
   15    13    16    1
   16    16    17    1
   17    16    18    1
   18    16    19    1
@<TRIPOS>SUBSTRUCTURE
       1 MOL1            1 RESIDUE      1      MOL     
@<SCITEGIC>MOL_PROPERTY
VConf Rank
SciTegic.value.IntegerValue
525

@<SCITEGIC>MOL_PROPERTY
Conf_Id
SciTegic.value.IntegerValue
24

@<SCITEGIC>MOL_PROPERTY
Delta U+W
SciTegic.value.DoubleValue
2.477

@<SCITEGIC>MOL_PROPERTY
U+W
SciTegic.value.DoubleValue
-52.414

@<SCITEGIC>MOL_PROPERTY
Grad RMS
SciTegic.value.DoubleValue
0.000000

@<SCITEGIC>MOL_PROPERTY
U
SciTegic.value.DoubleValue
10.422

@<SCITEGIC>MOL_PROPERTY
W
SciTegic.value.DoubleValue
-62.836

@<SCITEGIC>MOL_PROPERTY
W(PB)
SciTegic.value.DoubleValue
-64.906

@<SCITEGIC>MOL_PROPERTY
W(SA)
SciTegic.value.DoubleValue
2.070

@<SCITEGIC>MOL_PROPERTY
Valence
SciTegic.value.DoubleValue
9.628

@<SCITEGIC>MOL_PROPERTY
Coulomb
SciTegic.value.DoubleValue
0.101

@<SCITEGIC>MOL_PROPERTY
VdW
SciTegic.value.DoubleValue
0.693

@<SCITEGIC>MOL_PROPERTY
VdW6
SciTegic.value.DoubleValue
-6.927

@<SCITEGIC>MOL_PROPERTY
VdW12
SciTegic.value.DoubleValue
7.620

@<SCITEGIC>MOL_PROPERTY
Bond
SciTegic.value.DoubleValue
0.173

@<SCITEGIC>MOL_PROPERTY
Angle
SciTegic.value.DoubleValue
2.989

@<SCITEGIC>MOL_PROPERTY
Pdih
SciTegic.value.DoubleValue
6.465

@<SCITEGIC>MOL_PROPERTY
Idih
SciTegic.value.DoubleValue
0.001

@<SCITEGIC>MOL_PROPERTY
Tether
SciTegic.value.DoubleValue
0.000

@<TRIPOS>MOLECULE
guest-7_confgen4.mol2 : confsearch ligand conformer 526
          19          18           1
SMALL
USER_CHARGES
 
@<TRIPOS>ATOM
       1    C1      22.021261   17.569664   22.550626 C.2        1 MOL1         0.6115
       2    O1      21.493730   16.530609   22.206002 O.co2      1 MOL1        -0.6776
       3    O2      23.184947   17.838059   22.325072 O.co2      1 MOL1        -0.6776
       4    C2      21.188607   18.581173   23.334060 C.3        1 MOL1        -0.2013
       5    H1      21.779454   18.878839   24.208161 H          1 MOL1         0.0727
       6    H2      20.297760   18.072806   23.716403 H          1 MOL1         0.0727
       7    C3      20.802984   19.847295   22.519710 C.3        1 MOL1        -0.1910
       8    H3      20.390937   20.611217   23.192668 H          1 MOL1         0.0729
       9    H4      21.724730   20.277143   22.103596 H          1 MOL1         0.0729
      10    C4      19.808782   19.579516   21.359824 C.3        1 MOL1        -0.1909
      11    H5      19.941762   18.562751   20.965726 H          1 MOL1         0.0729
      12    H6      20.062104   20.254977   20.531354 H          1 MOL1         0.0729
      13    C5      18.320930   19.818212   21.716513 C.3        1 MOL1        -0.1884
      14    H7      18.178235   20.863155   22.024626 H          1 MOL1         0.0729
      15    H8      17.718998   19.680967   20.807671 H          1 MOL1         0.0729
      16    C6      17.776984   18.881280   22.814619 C.3        1 MOL1        -0.2899
      17    H9      18.235160   19.103095   23.786334 H          1 MOL1         0.0741
      18    H10     16.692156   19.007411   22.924245 H          1 MOL1         0.0741
      19    H11     17.973283   17.829694   22.567397 H          1 MOL1         0.0741
@<TRIPOS>BOND
    1     1     2    1
    2     1     3    2
    3     1     4    1
    4     4     5    1
    5     4     6    1
    6     4     7    1
    7     7     8    1
    8     7     9    1
    9     7    10    1
   10    10    11    1
   11    10    12    1
   12    10    13    1
   13    13    14    1
   14    13    15    1
   15    13    16    1
   16    16    17    1
   17    16    18    1
   18    16    19    1
@<TRIPOS>SUBSTRUCTURE
       1 MOL1            1 RESIDUE      1      MOL     
@<SCITEGIC>MOL_PROPERTY
VConf Rank
SciTegic.value.IntegerValue
526

@<SCITEGIC>MOL_PROPERTY
Conf_Id
SciTegic.value.IntegerValue
4

@<SCITEGIC>MOL_PROPERTY
Delta U+W
SciTegic.value.DoubleValue
3.753

@<SCITEGIC>MOL_PROPERTY
U+W
SciTegic.value.DoubleValue
-51.138

@<SCITEGIC>MOL_PROPERTY
Grad RMS
SciTegic.value.DoubleValue
0.000000

@<SCITEGIC>MOL_PROPERTY
U
SciTegic.value.DoubleValue
12.334

@<SCITEGIC>MOL_PROPERTY
W
SciTegic.value.DoubleValue
-63.472

@<SCITEGIC>MOL_PROPERTY
W(PB)
SciTegic.value.DoubleValue
-65.500

@<SCITEGIC>MOL_PROPERTY
W(SA)
SciTegic.value.DoubleValue
2.028

@<SCITEGIC>MOL_PROPERTY
Valence
SciTegic.value.DoubleValue
9.984

@<SCITEGIC>MOL_PROPERTY
Coulomb
SciTegic.value.DoubleValue
1.767

@<SCITEGIC>MOL_PROPERTY
VdW
SciTegic.value.DoubleValue
0.583

@<SCITEGIC>MOL_PROPERTY
VdW6
SciTegic.value.DoubleValue
-7.767

@<SCITEGIC>MOL_PROPERTY
VdW12
SciTegic.value.DoubleValue
8.349

@<SCITEGIC>MOL_PROPERTY
Bond
SciTegic.value.DoubleValue
0.203

@<SCITEGIC>MOL_PROPERTY
Angle
SciTegic.value.DoubleValue
3.191

@<SCITEGIC>MOL_PROPERTY
Pdih
SciTegic.value.DoubleValue
6.589

@<SCITEGIC>MOL_PROPERTY
Idih
SciTegic.value.DoubleValue
0.001

@<SCITEGIC>MOL_PROPERTY
Tether
SciTegic.value.DoubleValue
0.000

@<TRIPOS>MOLECULE
guest-7_confgen4.mol2 : confsearch ligand conformer 527
          19          18           1
SMALL
USER_CHARGES
 
@<TRIPOS>ATOM
       1    C1      21.088747   17.392378   20.633757 C.2        1 MOL1         0.6115
       2    O1      21.996606   17.632638   19.862303 O.co2      1 MOL1        -0.6776
       3    O2      20.995981   16.353655   21.257570 O.co2      1 MOL1        -0.6776
       4    C2      19.992854   18.441329   20.803905 C.3        1 MOL1        -0.2013
       5    H1      19.123186   17.960729   21.263176 H          1 MOL1         0.0727
       6    H2      19.684777   18.753317   19.799163 H          1 MOL1         0.0727
       7    C3      20.434854   19.690176   21.616282 C.3        1 MOL1        -0.1910
       8    H3      21.347381   20.090846   21.153364 H          1 MOL1         0.0729
       9    H4      19.677953   20.480685   21.524472 H          1 MOL1         0.0729
      10    C4      20.717806   19.407165   23.114720 C.3        1 MOL1        -0.1909
      11    H5      21.547036   20.053710   23.432743 H          1 MOL1         0.0729
      12    H6      21.074611   18.377199   23.251346 H          1 MOL1         0.0729
      13    C5      19.523376   19.683103   24.060816 C.3        1 MOL1        -0.1884
      14    H7      19.857456   19.530731   25.096348 H          1 MOL1         0.0729
      15    H8      19.228837   20.738913   23.985229 H          1 MOL1         0.0729
      16    C6      18.293723   18.788251   23.802452 C.3        1 MOL1        -0.2899
      17    H9      18.573597   17.726583   23.798079 H          1 MOL1         0.0741
      18    H10     17.539154   18.937151   24.585543 H          1 MOL1         0.0741
      19    H11     17.823992   19.029655   22.840978 H          1 MOL1         0.0741
@<TRIPOS>BOND
    1     1     2    1
    2     1     3    2
    3     1     4    1
    4     4     5    1
    5     4     6    1
    6     4     7    1
    7     7     8    1
    8     7     9    1
    9     7    10    1
   10    10    11    1
   11    10    12    1
   12    10    13    1
   13    13    14    1
   14    13    15    1
   15    13    16    1
   16    16    17    1
   17    16    18    1
   18    16    19    1
@<TRIPOS>SUBSTRUCTURE
       1 MOL1            1 RESIDUE      1      MOL     
@<SCITEGIC>MOL_PROPERTY
VConf Rank
SciTegic.value.IntegerValue
527

@<SCITEGIC>MOL_PROPERTY
Conf_Id
SciTegic.value.IntegerValue
73

@<SCITEGIC>MOL_PROPERTY
Delta U+W
SciTegic.value.DoubleValue
3.707

@<SCITEGIC>MOL_PROPERTY
U+W
SciTegic.value.DoubleValue
-51.184

@<SCITEGIC>MOL_PROPERTY
Grad RMS
SciTegic.value.DoubleValue
0.000000

@<SCITEGIC>MOL_PROPERTY
U
SciTegic.value.DoubleValue
12.334

@<SCITEGIC>MOL_PROPERTY
W
SciTegic.value.DoubleValue
-63.519

@<SCITEGIC>MOL_PROPERTY
W(PB)
SciTegic.value.DoubleValue
-65.541

@<SCITEGIC>MOL_PROPERTY
W(SA)
SciTegic.value.DoubleValue
2.022

@<SCITEGIC>MOL_PROPERTY
Valence
SciTegic.value.DoubleValue
9.984

@<SCITEGIC>MOL_PROPERTY
Coulomb
SciTegic.value.DoubleValue
1.768

@<SCITEGIC>MOL_PROPERTY
VdW
SciTegic.value.DoubleValue
0.583

@<SCITEGIC>MOL_PROPERTY
VdW6
SciTegic.value.DoubleValue
-7.767

@<SCITEGIC>MOL_PROPERTY
VdW12
SciTegic.value.DoubleValue
8.350

@<SCITEGIC>MOL_PROPERTY
Bond
SciTegic.value.DoubleValue
0.203

@<SCITEGIC>MOL_PROPERTY
Angle
SciTegic.value.DoubleValue
3.192

@<SCITEGIC>MOL_PROPERTY
Pdih
SciTegic.value.DoubleValue
6.589

@<SCITEGIC>MOL_PROPERTY
Idih
SciTegic.value.DoubleValue
0.001

@<SCITEGIC>MOL_PROPERTY
Tether
SciTegic.value.DoubleValue
0.000

@<TRIPOS>MOLECULE
guest-7_confgen4.mol2 : confsearch ligand conformer 528
          19          18           1
SMALL
USER_CHARGES
 
@<TRIPOS>ATOM
       1    C1      17.519363   18.719735   21.311726 C.2        1 MOL1         0.6115
       2    O1      16.924124   19.494848   22.033947 O.co2      1 MOL1        -0.6776
       3    O2      17.245514   18.549230   20.139935 O.co2      1 MOL1        -0.6776
       4    C2      18.650922   17.891200   21.913746 C.3        1 MOL1        -0.2013
       5    H1      18.466531   16.844111   21.646773 H          1 MOL1         0.0727
       6    H2      18.586352   17.948820   23.006361 H          1 MOL1         0.0727
       7    C3      20.067504   18.303234   21.428160 C.3        1 MOL1        -0.1910
       8    H3      20.809349   17.612744   21.849770 H          1 MOL1         0.0729
       9    H4      20.117894   18.171175   20.338604 H          1 MOL1         0.0729
      10    C4      20.461884   19.763484   21.769081 C.3        1 MOL1        -0.1909
      11    H5      19.784475   20.449747   21.242542 H          1 MOL1         0.0729
      12    H6      21.464442   19.960985   21.366012 H          1 MOL1         0.0729
      13    C5      20.450364   20.114702   23.276970 C.3        1 MOL1        -0.1884
      14    H7      20.727701   21.171501   23.391676 H          1 MOL1         0.0729
      15    H8      19.431677   20.024175   23.677630 H          1 MOL1         0.0729
      16    C6      21.420237   19.252829   24.113746 C.3        1 MOL1        -0.2899
      17    H9      21.113275   18.199433   24.120288 H          1 MOL1         0.0741
      18    H10     22.441611   19.312424   23.715932 H          1 MOL1         0.0741
      19    H11     21.441412   19.599670   25.154922 H          1 MOL1         0.0741
@<TRIPOS>BOND
    1     1     2    1
    2     1     3    2
    3     1     4    1
    4     4     5    1
    5     4     6    1
    6     4     7    1
    7     7     8    1
    8     7     9    1
    9     7    10    1
   10    10    11    1
   11    10    12    1
   12    10    13    1
   13    13    14    1
   14    13    15    1
   15    13    16    1
   16    16    17    1
   17    16    18    1
   18    16    19    1
@<TRIPOS>SUBSTRUCTURE
       1 MOL1            1 RESIDUE      1      MOL     
@<SCITEGIC>MOL_PROPERTY
VConf Rank
SciTegic.value.IntegerValue
528

@<SCITEGIC>MOL_PROPERTY
Conf_Id
SciTegic.value.IntegerValue
56

@<SCITEGIC>MOL_PROPERTY
Delta U+W
SciTegic.value.DoubleValue
1.735

@<SCITEGIC>MOL_PROPERTY
U+W
SciTegic.value.DoubleValue
-53.156

@<SCITEGIC>MOL_PROPERTY
Grad RMS
SciTegic.value.DoubleValue
0.000000

@<SCITEGIC>MOL_PROPERTY
U
SciTegic.value.DoubleValue
10.214

@<SCITEGIC>MOL_PROPERTY
W
SciTegic.value.DoubleValue
-63.370

@<SCITEGIC>MOL_PROPERTY
W(PB)
SciTegic.value.DoubleValue
-65.388

@<SCITEGIC>MOL_PROPERTY
W(SA)
SciTegic.value.DoubleValue
2.018

@<SCITEGIC>MOL_PROPERTY
Valence
SciTegic.value.DoubleValue
7.868

@<SCITEGIC>MOL_PROPERTY
Coulomb
SciTegic.value.DoubleValue
1.968

@<SCITEGIC>MOL_PROPERTY
VdW
SciTegic.value.DoubleValue
0.378

@<SCITEGIC>MOL_PROPERTY
VdW6
SciTegic.value.DoubleValue
-8.067

@<SCITEGIC>MOL_PROPERTY
VdW12
SciTegic.value.DoubleValue
8.445

@<SCITEGIC>MOL_PROPERTY
Bond
SciTegic.value.DoubleValue
0.191

@<SCITEGIC>MOL_PROPERTY
Angle
SciTegic.value.DoubleValue
3.117

@<SCITEGIC>MOL_PROPERTY
Pdih
SciTegic.value.DoubleValue
4.559

@<SCITEGIC>MOL_PROPERTY
Idih
SciTegic.value.DoubleValue
0.001

@<SCITEGIC>MOL_PROPERTY
Tether
SciTegic.value.DoubleValue
0.000

@<TRIPOS>MOLECULE
guest-7_confgen4.mol2 : confsearch ligand conformer 529
          19          18           1
SMALL
USER_CHARGES
 
@<TRIPOS>ATOM
       1    C1      17.562067   19.667516   23.821956 C.2        1 MOL1         0.6115
       2    O1      17.390184   19.331204   24.976822 O.co2      1 MOL1        -0.6776
       3    O2      16.692439   20.155277   23.127543 O.co2      1 MOL1        -0.6776
       4    C2      18.938051   19.445424   23.204234 C.3        1 MOL1        -0.2013
       5    H1      19.688384   19.542350   23.997949 H          1 MOL1         0.0727
       6    H2      19.112288   20.252835   22.484346 H          1 MOL1         0.0727
       7    C3      19.068831   18.067153   22.508359 C.3        1 MOL1        -0.1910
       8    H3      18.750736   17.286181   23.212843 H          1 MOL1         0.0729
       9    H4      18.369167   18.021381   21.662445 H          1 MOL1         0.0729
      10    C4      20.499904   17.732092   22.018199 C.3        1 MOL1        -0.1909
      11    H5      20.475162   16.718290   21.595628 H          1 MOL1         0.0729
      12    H6      21.189386   17.682583   22.872109 H          1 MOL1         0.0729
      13    C5      21.054416   18.691571   20.936061 C.3        1 MOL1        -0.1884
      14    H7      21.666276   18.110243   20.232480 H          1 MOL1         0.0729
      15    H8      20.231207   19.116849   20.345491 H          1 MOL1         0.0729
      16    C6      21.937102   19.819468   21.515234 C.3        1 MOL1        -0.2899
      17    H9      22.318732   20.459724   20.709439 H          1 MOL1         0.0741
      18    H10     21.381830   20.456077   22.213103 H          1 MOL1         0.0741
      19    H11     22.800662   19.403281   22.050195 H          1 MOL1         0.0741
@<TRIPOS>BOND
    1     1     2    1
    2     1     3    2
    3     1     4    1
    4     4     5    1
    5     4     6    1
    6     4     7    1
    7     7     8    1
    8     7     9    1
    9     7    10    1
   10    10    11    1
   11    10    12    1
   12    10    13    1
   13    13    14    1
   14    13    15    1
   15    13    16    1
   16    16    17    1
   17    16    18    1
   18    16    19    1
@<TRIPOS>SUBSTRUCTURE
       1 MOL1            1 RESIDUE      1      MOL     
@<SCITEGIC>MOL_PROPERTY
VConf Rank
SciTegic.value.IntegerValue
529

@<SCITEGIC>MOL_PROPERTY
Conf_Id
SciTegic.value.IntegerValue
53

@<SCITEGIC>MOL_PROPERTY
Delta U+W
SciTegic.value.DoubleValue
2.279

@<SCITEGIC>MOL_PROPERTY
U+W
SciTegic.value.DoubleValue
-52.612

@<SCITEGIC>MOL_PROPERTY
Grad RMS
SciTegic.value.DoubleValue
0.000000

@<SCITEGIC>MOL_PROPERTY
U
SciTegic.value.DoubleValue
10.231

@<SCITEGIC>MOL_PROPERTY
W
SciTegic.value.DoubleValue
-62.843

@<SCITEGIC>MOL_PROPERTY
W(PB)
SciTegic.value.DoubleValue
-64.893

@<SCITEGIC>MOL_PROPERTY
W(SA)
SciTegic.value.DoubleValue
2.050

@<SCITEGIC>MOL_PROPERTY
Valence
SciTegic.value.DoubleValue
9.644

@<SCITEGIC>MOL_PROPERTY
Coulomb
SciTegic.value.DoubleValue
-0.164

@<SCITEGIC>MOL_PROPERTY
VdW
SciTegic.value.DoubleValue
0.751

@<SCITEGIC>MOL_PROPERTY
VdW6
SciTegic.value.DoubleValue
-6.881

@<SCITEGIC>MOL_PROPERTY
VdW12
SciTegic.value.DoubleValue
7.631

@<SCITEGIC>MOL_PROPERTY
Bond
SciTegic.value.DoubleValue
0.163

@<SCITEGIC>MOL_PROPERTY
Angle
SciTegic.value.DoubleValue
2.998

@<SCITEGIC>MOL_PROPERTY
Pdih
SciTegic.value.DoubleValue
6.482

@<SCITEGIC>MOL_PROPERTY
Idih
SciTegic.value.DoubleValue
0.001

@<SCITEGIC>MOL_PROPERTY
Tether
SciTegic.value.DoubleValue
0.000

@<TRIPOS>MOLECULE
guest-7_confgen4.mol2 : confsearch ligand conformer 530
          19          18           1
SMALL
USER_CHARGES
 
@<TRIPOS>ATOM
       1    C1      17.763476   18.803074   22.223739 C.2        1 MOL1         0.6115
       2    O1      17.439467   19.972018   22.149970 O.co2      1 MOL1        -0.6776
       3    O2      17.312925   18.034255   23.050278 O.co2      1 MOL1        -0.6776
       4    C2      18.734481   18.257383   21.178343 C.3        1 MOL1        -0.2013
       5    H1      18.997504   19.062169   20.481163 H          1 MOL1         0.0727
       6    H2      18.177397   17.511286   20.599879 H          1 MOL1         0.0727
       7    C3      20.021480   17.596986   21.748112 C.3        1 MOL1        -0.1910
       8    H3      19.764279   16.941804   22.591987 H          1 MOL1         0.0729
       9    H4      20.437342   16.940402   20.971985 H          1 MOL1         0.0729
      10    C4      21.131344   18.592452   22.167546 C.3        1 MOL1        -0.1909
      11    H5      21.388587   19.239220   21.317633 H          1 MOL1         0.0729
      12    H6      22.036920   18.016221   22.401852 H          1 MOL1         0.0729
      13    C5      20.767648   19.462673   23.390663 C.3        1 MOL1        -0.1884
      14    H7      19.946257   20.144797   23.136831 H          1 MOL1         0.0729
      15    H8      20.412851   18.823005   24.210627 H          1 MOL1         0.0729
      16    C6      21.973923   20.293987   23.871965 C.3        1 MOL1        -0.2899
      17    H9      22.332019   20.961715   23.077442 H          1 MOL1         0.0741
      18    H10     21.696766   20.912589   24.735423 H          1 MOL1         0.0741
      19    H11     22.804931   19.643322   24.174256 H          1 MOL1         0.0741
@<TRIPOS>BOND
    1     1     2    1
    2     1     3    2
    3     1     4    1
    4     4     5    1
    5     4     6    1
    6     4     7    1
    7     7     8    1
    8     7     9    1
    9     7    10    1
   10    10    11    1
   11    10    12    1
   12    10    13    1
   13    13    14    1
   14    13    15    1
   15    13    16    1
   16    16    17    1
   17    16    18    1
   18    16    19    1
@<TRIPOS>SUBSTRUCTURE
       1 MOL1            1 RESIDUE      1      MOL     
@<SCITEGIC>MOL_PROPERTY
VConf Rank
SciTegic.value.IntegerValue
530

@<SCITEGIC>MOL_PROPERTY
Conf_Id
SciTegic.value.IntegerValue
25

@<SCITEGIC>MOL_PROPERTY
Delta U+W
SciTegic.value.DoubleValue
2.065

@<SCITEGIC>MOL_PROPERTY
U+W
SciTegic.value.DoubleValue
-52.826

@<SCITEGIC>MOL_PROPERTY
Grad RMS
SciTegic.value.DoubleValue
0.000000

@<SCITEGIC>MOL_PROPERTY
U
SciTegic.value.DoubleValue
10.967

@<SCITEGIC>MOL_PROPERTY
W
SciTegic.value.DoubleValue
-63.794

@<SCITEGIC>MOL_PROPERTY
W(PB)
SciTegic.value.DoubleValue
-65.830

@<SCITEGIC>MOL_PROPERTY
W(SA)
SciTegic.value.DoubleValue
2.036

@<SCITEGIC>MOL_PROPERTY
Valence
SciTegic.value.DoubleValue
8.609

@<SCITEGIC>MOL_PROPERTY
Coulomb
SciTegic.value.DoubleValue
1.892

@<SCITEGIC>MOL_PROPERTY
VdW
SciTegic.value.DoubleValue
0.467

@<SCITEGIC>MOL_PROPERTY
VdW6
SciTegic.value.DoubleValue
-7.569

@<SCITEGIC>MOL_PROPERTY
VdW12
SciTegic.value.DoubleValue
8.036

@<SCITEGIC>MOL_PROPERTY
Bond
SciTegic.value.DoubleValue
0.170

@<SCITEGIC>MOL_PROPERTY
Angle
SciTegic.value.DoubleValue
3.195

@<SCITEGIC>MOL_PROPERTY
Pdih
SciTegic.value.DoubleValue
5.237

@<SCITEGIC>MOL_PROPERTY
Idih
SciTegic.value.DoubleValue
0.007

@<SCITEGIC>MOL_PROPERTY
Tether
SciTegic.value.DoubleValue
0.000

@<TRIPOS>MOLECULE
guest-7_confgen4.mol2 : confsearch ligand conformer 531
          19          18           1
SMALL
USER_CHARGES
 
@<TRIPOS>ATOM
       1    C1      19.825180   17.076542   20.881399 C.2        1 MOL1         0.6115
       2    O1      18.777053   17.258954   20.293690 O.co2      1 MOL1        -0.6776
       3    O2      20.069520   16.070570   21.517930 O.co2      1 MOL1        -0.6776
       4    C2      20.920370   18.134180   20.757124 C.3        1 MOL1        -0.2013
       5    H1      21.191822   18.173653   19.695814 H          1 MOL1         0.0727
       6    H2      21.811479   17.790110   21.296071 H          1 MOL1         0.0727
       7    C3      20.522680   19.560739   21.230308 C.3        1 MOL1        -0.1910
       8    H3      21.215691   20.276475   20.767841 H          1 MOL1         0.0729
       9    H4      19.524538   19.817290   20.848946 H          1 MOL1         0.0729
      10    C4      20.577008   19.775426   22.763160 C.3        1 MOL1        -0.1909
      11    H5      20.432403   20.845839   22.963944 H          1 MOL1         0.0729
      12    H6      21.579155   19.524186   23.136548 H          1 MOL1         0.0729
      13    C5      19.514655   18.976036   23.549263 C.3        1 MOL1        -0.1884
      14    H7      18.521019   19.147407   23.112553 H          1 MOL1         0.0729
      15    H8      19.718655   17.900519   23.471457 H          1 MOL1         0.0729
      16    C6      19.496826   19.372459   25.039353 C.3        1 MOL1        -0.2899
      17    H9      18.743255   18.789827   25.584986 H          1 MOL1         0.0741
      18    H10     20.472846   19.186287   25.506346 H          1 MOL1         0.0741
      19    H11     19.255390   20.436551   25.160737 H          1 MOL1         0.0741
@<TRIPOS>BOND
    1     1     2    1
    2     1     3    2
    3     1     4    1
    4     4     5    1
    5     4     6    1
    6     4     7    1
    7     7     8    1
    8     7     9    1
    9     7    10    1
   10    10    11    1
   11    10    12    1
   12    10    13    1
   13    13    14    1
   14    13    15    1
   15    13    16    1
   16    16    17    1
   17    16    18    1
   18    16    19    1
@<TRIPOS>SUBSTRUCTURE
       1 MOL1            1 RESIDUE      1      MOL     
@<SCITEGIC>MOL_PROPERTY
VConf Rank
SciTegic.value.IntegerValue
531

@<SCITEGIC>MOL_PROPERTY
Conf_Id
SciTegic.value.IntegerValue
52

@<SCITEGIC>MOL_PROPERTY
Delta U+W
SciTegic.value.DoubleValue
2.070

@<SCITEGIC>MOL_PROPERTY
U+W
SciTegic.value.DoubleValue
-52.822

@<SCITEGIC>MOL_PROPERTY
Grad RMS
SciTegic.value.DoubleValue
0.000000

@<SCITEGIC>MOL_PROPERTY
U
SciTegic.value.DoubleValue
10.967

@<SCITEGIC>MOL_PROPERTY
W
SciTegic.value.DoubleValue
-63.789

@<SCITEGIC>MOL_PROPERTY
W(PB)
SciTegic.value.DoubleValue
-65.837

@<SCITEGIC>MOL_PROPERTY
W(SA)
SciTegic.value.DoubleValue
2.048

@<SCITEGIC>MOL_PROPERTY
Valence
SciTegic.value.DoubleValue
8.609

@<SCITEGIC>MOL_PROPERTY
Coulomb
SciTegic.value.DoubleValue
1.892

@<SCITEGIC>MOL_PROPERTY
VdW
SciTegic.value.DoubleValue
0.467

@<SCITEGIC>MOL_PROPERTY
VdW6
SciTegic.value.DoubleValue
-7.569

@<SCITEGIC>MOL_PROPERTY
VdW12
SciTegic.value.DoubleValue
8.035

@<SCITEGIC>MOL_PROPERTY
Bond
SciTegic.value.DoubleValue
0.170

@<SCITEGIC>MOL_PROPERTY
Angle
SciTegic.value.DoubleValue
3.196

@<SCITEGIC>MOL_PROPERTY
Pdih
SciTegic.value.DoubleValue
5.237

@<SCITEGIC>MOL_PROPERTY
Idih
SciTegic.value.DoubleValue
0.007

@<SCITEGIC>MOL_PROPERTY
Tether
SciTegic.value.DoubleValue
0.000

@<TRIPOS>MOLECULE
guest-7_confgen4.mol2 : confsearch ligand conformer 532
          19          18           1
SMALL
USER_CHARGES
 
@<TRIPOS>ATOM
       1    C1      19.279480   17.036919   21.665361 C.2        1 MOL1         0.6115
       2    O1      19.610830   17.098502   20.497229 O.co2      1 MOL1        -0.6776
       3    O2      19.582873   16.113676   22.394931 O.co2      1 MOL1        -0.6776
       4    C2      18.331179   18.102770   22.216783 C.3        1 MOL1        -0.2013
       5    H1      18.258237   17.987838   23.304905 H          1 MOL1         0.0727
       6    H2      17.340994   17.865991   21.810895 H          1 MOL1         0.0727
       7    C3      18.683546   19.573787   21.854405 C.3        1 MOL1        -0.1910
       8    H3      19.015067   19.633836   20.808570 H          1 MOL1         0.0729
       9    H4      17.759239   20.164717   21.907448 H          1 MOL1         0.0729
      10    C4      19.725343   20.255022   22.778394 C.3        1 MOL1        -0.1909
      11    H5      19.348901   20.285248   23.810099 H          1 MOL1         0.0729
      12    H6      19.808773   21.304196   22.463371 H          1 MOL1         0.0729
      13    C5      21.141024   19.630196   22.740571 C.3        1 MOL1        -0.1884
      14    H7      21.291790   19.076682   21.803423 H          1 MOL1         0.0729
      15    H8      21.885391   20.438320   22.739380 H          1 MOL1         0.0729
      16    C6      21.424305   18.718661   23.953822 C.3        1 MOL1        -0.2899
      17    H9      21.373766   19.287732   24.891127 H          1 MOL1         0.0741
      18    H10     20.700931   17.897400   24.016993 H          1 MOL1         0.0741
      19    H11     22.427063   18.278732   23.879275 H          1 MOL1         0.0741
@<TRIPOS>BOND
    1     1     2    1
    2     1     3    2
    3     1     4    1
    4     4     5    1
    5     4     6    1
    6     4     7    1
    7     7     8    1
    8     7     9    1
    9     7    10    1
   10    10    11    1
   11    10    12    1
   12    10    13    1
   13    13    14    1
   14    13    15    1
   15    13    16    1
   16    16    17    1
   17    16    18    1
   18    16    19    1
@<TRIPOS>SUBSTRUCTURE
       1 MOL1            1 RESIDUE      1      MOL     
@<SCITEGIC>MOL_PROPERTY
VConf Rank
SciTegic.value.IntegerValue
532

@<SCITEGIC>MOL_PROPERTY
Conf_Id
SciTegic.value.IntegerValue
66

@<SCITEGIC>MOL_PROPERTY
Delta U+W
SciTegic.value.DoubleValue
5.819

@<SCITEGIC>MOL_PROPERTY
U+W
SciTegic.value.DoubleValue
-49.072

@<SCITEGIC>MOL_PROPERTY
Grad RMS
SciTegic.value.DoubleValue
0.000000

@<SCITEGIC>MOL_PROPERTY
U
SciTegic.value.DoubleValue
15.324

@<SCITEGIC>MOL_PROPERTY
W
SciTegic.value.DoubleValue
-64.396

@<SCITEGIC>MOL_PROPERTY
W(PB)
SciTegic.value.DoubleValue
-66.382

@<SCITEGIC>MOL_PROPERTY
W(SA)
SciTegic.value.DoubleValue
1.986

@<SCITEGIC>MOL_PROPERTY
Valence
SciTegic.value.DoubleValue
11.748

@<SCITEGIC>MOL_PROPERTY
Coulomb
SciTegic.value.DoubleValue
3.201

@<SCITEGIC>MOL_PROPERTY
VdW
SciTegic.value.DoubleValue
0.375

@<SCITEGIC>MOL_PROPERTY
VdW6
SciTegic.value.DoubleValue
-8.854

@<SCITEGIC>MOL_PROPERTY
VdW12
SciTegic.value.DoubleValue
9.229

@<SCITEGIC>MOL_PROPERTY
Bond
SciTegic.value.DoubleValue
0.216

@<SCITEGIC>MOL_PROPERTY
Angle
SciTegic.value.DoubleValue
3.812

@<SCITEGIC>MOL_PROPERTY
Pdih
SciTegic.value.DoubleValue
7.699

@<SCITEGIC>MOL_PROPERTY
Idih
SciTegic.value.DoubleValue
0.022

@<SCITEGIC>MOL_PROPERTY
Tether
SciTegic.value.DoubleValue
0.000

@<TRIPOS>MOLECULE
guest-7_confgen4.mol2 : confsearch ligand conformer 533
          19          18           1
SMALL
USER_CHARGES
 
@<TRIPOS>ATOM
       1    C1      21.556791   19.674668   25.064879 C.2        1 MOL1         0.6115
       2    O1      21.419297   19.582082   26.268285 O.co2      1 MOL1        -0.6776
       3    O2      22.528659   20.188585   24.545739 O.co2      1 MOL1        -0.6776
       4    C2      20.437728   19.109206   24.188736 C.3        1 MOL1        -0.2013
       5    H1      19.508927   19.615268   24.477318 H          1 MOL1         0.0727
       6    H2      20.320898   18.050819   24.449921 H          1 MOL1         0.0727
       7    C3      20.657858   19.250238   22.659002 C.3        1 MOL1        -0.1910
       8    H3      20.779959   20.312279   22.404784 H          1 MOL1         0.0729
       9    H4      21.592809   18.746236   22.377370 H          1 MOL1         0.0729
      10    C4      19.483375   18.654747   21.852626 C.3        1 MOL1        -0.1909
      11    H5      18.549709   19.159910   22.135872 H          1 MOL1         0.0729
      12    H6      19.363014   17.593028   22.108395 H          1 MOL1         0.0729
      13    C5      19.704170   18.796015   20.332203 C.3        1 MOL1        -0.1884
      14    H7      19.823161   19.856974   20.072011 H          1 MOL1         0.0729
      15    H8      20.636298   18.290182   20.044517 H          1 MOL1         0.0729
      16    C6      18.529697   18.200562   19.530306 C.3        1 MOL1        -0.2899
      17    H9      17.588478   18.709925   19.775417 H          1 MOL1         0.0741
      18    H10     18.703108   18.309473   18.451800 H          1 MOL1         0.0741
      19    H11     18.407722   17.131324   19.747732 H          1 MOL1         0.0741
@<TRIPOS>BOND
    1     1     2    1
    2     1     3    2
    3     1     4    1
    4     4     5    1
    5     4     6    1
    6     4     7    1
    7     7     8    1
    8     7     9    1
    9     7    10    1
   10    10    11    1
   11    10    12    1
   12    10    13    1
   13    13    14    1
   14    13    15    1
   15    13    16    1
   16    16    17    1
   17    16    18    1
   18    16    19    1
@<TRIPOS>SUBSTRUCTURE
       1 MOL1            1 RESIDUE      1      MOL     
@<SCITEGIC>MOL_PROPERTY
VConf Rank
SciTegic.value.IntegerValue
533

@<SCITEGIC>MOL_PROPERTY
Conf_Id
SciTegic.value.IntegerValue
0

@<SCITEGIC>MOL_PROPERTY
Delta U+W
SciTegic.value.DoubleValue
0.000

@<SCITEGIC>MOL_PROPERTY
U+W
SciTegic.value.DoubleValue
-54.891

@<SCITEGIC>MOL_PROPERTY
Grad RMS
SciTegic.value.DoubleValue
0.000000

@<SCITEGIC>MOL_PROPERTY
U
SciTegic.value.DoubleValue
6.966

@<SCITEGIC>MOL_PROPERTY
W
SciTegic.value.DoubleValue
-61.857

@<SCITEGIC>MOL_PROPERTY
W(PB)
SciTegic.value.DoubleValue
-63.965

@<SCITEGIC>MOL_PROPERTY
W(SA)
SciTegic.value.DoubleValue
2.108

@<SCITEGIC>MOL_PROPERTY
Valence
SciTegic.value.DoubleValue
7.175

@<SCITEGIC>MOL_PROPERTY
Coulomb
SciTegic.value.DoubleValue
-1.360

@<SCITEGIC>MOL_PROPERTY
VdW
SciTegic.value.DoubleValue
1.151

@<SCITEGIC>MOL_PROPERTY
VdW6
SciTegic.value.DoubleValue
-5.641

@<SCITEGIC>MOL_PROPERTY
VdW12
SciTegic.value.DoubleValue
6.792

@<SCITEGIC>MOL_PROPERTY
Bond
SciTegic.value.DoubleValue
0.119

@<SCITEGIC>MOL_PROPERTY
Angle
SciTegic.value.DoubleValue
2.715

@<SCITEGIC>MOL_PROPERTY
Pdih
SciTegic.value.DoubleValue
4.340

@<SCITEGIC>MOL_PROPERTY
Idih
SciTegic.value.DoubleValue
0.000

@<SCITEGIC>MOL_PROPERTY
Tether
SciTegic.value.DoubleValue
0.000

@<TRIPOS>MOLECULE
guest-7_confgen4.mol2 : confsearch ligand conformer 534
          19          18           1
SMALL
USER_CHARGES
 
@<TRIPOS>ATOM
       1    C1      21.505459   19.237668   25.125329 C.2        1 MOL1         0.6115
       2    O1      22.215852   18.299621   25.427968 O.co2      1 MOL1        -0.6776
       3    O2      21.712906   20.380719   25.481116 O.co2      1 MOL1        -0.6776
       4    C2      20.298816   18.968834   24.233079 C.3        1 MOL1        -0.2013
       5    H1      19.508734   19.679144   24.505055 H          1 MOL1         0.0727
       6    H2      19.923536   17.963843   24.460898 H          1 MOL1         0.0727
       7    C3      20.627257   19.087103   22.724353 C.3        1 MOL1        -0.1910
       8    H3      21.013475   20.094352   22.514987 H          1 MOL1         0.0729
       9    H4      21.428453   18.379026   22.470857 H          1 MOL1         0.0729
      10    C4      19.389910   18.810421   21.843418 C.3        1 MOL1        -0.1909
      11    H5      18.590355   19.518931   22.100160 H          1 MOL1         0.0729
      12    H6      19.005462   17.803333   22.055944 H          1 MOL1         0.0729
      13    C5      19.720024   18.929016   20.340976 C.3        1 MOL1        -0.1884
      14    H7      20.103171   19.935803   20.124017 H          1 MOL1         0.0729
      15    H8      20.518166   18.220326   20.079783 H          1 MOL1         0.0729
      16    C6      18.482322   18.652208   19.464376 C.3        1 MOL1        -0.2899
      17    H9      18.734762   18.740757   18.399696 H          1 MOL1         0.0741
      18    H10     18.096556   17.639088   19.638147 H          1 MOL1         0.0741
      19    H11     17.678440   19.367407   19.682750 H          1 MOL1         0.0741
@<TRIPOS>BOND
    1     1     2    1
    2     1     3    2
    3     1     4    1
    4     4     5    1
    5     4     6    1
    6     4     7    1
    7     7     8    1
    8     7     9    1
    9     7    10    1
   10    10    11    1
   11    10    12    1
   12    10    13    1
   13    13    14    1
   14    13    15    1
   15    13    16    1
   16    16    17    1
   17    16    18    1
   18    16    19    1
@<TRIPOS>SUBSTRUCTURE
       1 MOL1            1 RESIDUE      1      MOL     
@<SCITEGIC>MOL_PROPERTY
VConf Rank
SciTegic.value.IntegerValue
534

@<SCITEGIC>MOL_PROPERTY
Conf_Id
SciTegic.value.IntegerValue
18

@<SCITEGIC>MOL_PROPERTY
Delta U+W
SciTegic.value.DoubleValue
-1.199

@<SCITEGIC>MOL_PROPERTY
U+W
SciTegic.value.DoubleValue
-56.090

@<SCITEGIC>MOL_PROPERTY
Grad RMS
SciTegic.value.DoubleValue
0.000000

@<SCITEGIC>MOL_PROPERTY
U
SciTegic.value.DoubleValue
5.975

@<SCITEGIC>MOL_PROPERTY
W
SciTegic.value.DoubleValue
-62.066

@<SCITEGIC>MOL_PROPERTY
W(PB)
SciTegic.value.DoubleValue
-64.219

@<SCITEGIC>MOL_PROPERTY
W(SA)
SciTegic.value.DoubleValue
2.153

@<SCITEGIC>MOL_PROPERTY
Valence
SciTegic.value.DoubleValue
6.673

@<SCITEGIC>MOL_PROPERTY
Coulomb
SciTegic.value.DoubleValue
-1.307

@<SCITEGIC>MOL_PROPERTY
VdW
SciTegic.value.DoubleValue
0.610

@<SCITEGIC>MOL_PROPERTY
VdW6
SciTegic.value.DoubleValue
-5.351

@<SCITEGIC>MOL_PROPERTY
VdW12
SciTegic.value.DoubleValue
5.961

@<SCITEGIC>MOL_PROPERTY
Bond
SciTegic.value.DoubleValue
0.086

@<SCITEGIC>MOL_PROPERTY
Angle
SciTegic.value.DoubleValue
2.253

@<SCITEGIC>MOL_PROPERTY
Pdih
SciTegic.value.DoubleValue
4.333

@<SCITEGIC>MOL_PROPERTY
Idih
SciTegic.value.DoubleValue
0.001

@<SCITEGIC>MOL_PROPERTY
Tether
SciTegic.value.DoubleValue
0.000

@<TRIPOS>MOLECULE
guest-7_confgen4.mol2 : confsearch ligand conformer 535
          19          18           1
SMALL
USER_CHARGES
 
@<TRIPOS>ATOM
       1    C1      20.607579   15.788934   21.825250 C.2        1 MOL1         0.6115
       2    O1      20.007892   15.068028   21.052620 O.co2      1 MOL1        -0.6776
       3    O2      21.689182   15.509912   22.303312 O.co2      1 MOL1        -0.6776
       4    C2      19.978066   17.126360   22.198568 C.3        1 MOL1        -0.2013
       5    H1      20.268978   17.355370   23.229959 H          1 MOL1         0.0727
       6    H2      18.888318   17.004604   22.186959 H          1 MOL1         0.0727
       7    C3      20.397979   18.274570   21.244383 C.3        1 MOL1        -0.1910
       8    H3      21.486206   18.416725   21.297907 H          1 MOL1         0.0729
       9    H4      20.174999   17.973605   20.211366 H          1 MOL1         0.0729
      10    C4      19.680624   19.613902   21.536146 C.3        1 MOL1        -0.1909
      11    H5      18.593208   19.470349   21.473495 H          1 MOL1         0.0729
      12    H6      19.945460   20.330443   20.746561 H          1 MOL1         0.0729
      13    C5      20.047607   20.221147   22.908767 C.3        1 MOL1        -0.1884
      14    H7      19.722130   19.553676   23.717413 H          1 MOL1         0.0729
      15    H8      21.138985   20.317537   22.991650 H          1 MOL1         0.0729
      16    C6      19.395168   21.603961   23.107314 C.3        1 MOL1        -0.2899
      17    H9      19.662558   22.020605   24.087109 H          1 MOL1         0.0741
      18    H10     19.728940   22.310680   22.336256 H          1 MOL1         0.0741
      19    H11     18.300768   21.532450   23.056519 H          1 MOL1         0.0741
@<TRIPOS>BOND
    1     1     2    1
    2     1     3    2
    3     1     4    1
    4     4     5    1
    5     4     6    1
    6     4     7    1
    7     7     8    1
    8     7     9    1
    9     7    10    1
   10    10    11    1
   11    10    12    1
   12    10    13    1
   13    13    14    1
   14    13    15    1
   15    13    16    1
   16    16    17    1
   17    16    18    1
   18    16    19    1
@<TRIPOS>SUBSTRUCTURE
       1 MOL1            1 RESIDUE      1      MOL     
@<SCITEGIC>MOL_PROPERTY
VConf Rank
SciTegic.value.IntegerValue
535

@<SCITEGIC>MOL_PROPERTY
Conf_Id
SciTegic.value.IntegerValue
34

@<SCITEGIC>MOL_PROPERTY
Delta U+W
SciTegic.value.DoubleValue
-0.563

@<SCITEGIC>MOL_PROPERTY
U+W
SciTegic.value.DoubleValue
-55.455

@<SCITEGIC>MOL_PROPERTY
Grad RMS
SciTegic.value.DoubleValue
0.000000

@<SCITEGIC>MOL_PROPERTY
U
SciTegic.value.DoubleValue
6.914

@<SCITEGIC>MOL_PROPERTY
W
SciTegic.value.DoubleValue
-62.369

@<SCITEGIC>MOL_PROPERTY
W(PB)
SciTegic.value.DoubleValue
-64.446

@<SCITEGIC>MOL_PROPERTY
W(SA)
SciTegic.value.DoubleValue
2.077

@<SCITEGIC>MOL_PROPERTY
Valence
SciTegic.value.DoubleValue
7.196

@<SCITEGIC>MOL_PROPERTY
Coulomb
SciTegic.value.DoubleValue
-1.020

@<SCITEGIC>MOL_PROPERTY
VdW
SciTegic.value.DoubleValue
0.738

@<SCITEGIC>MOL_PROPERTY
VdW6
SciTegic.value.DoubleValue
-6.010

@<SCITEGIC>MOL_PROPERTY
VdW12
SciTegic.value.DoubleValue
6.748

@<SCITEGIC>MOL_PROPERTY
Bond
SciTegic.value.DoubleValue
0.126

@<SCITEGIC>MOL_PROPERTY
Angle
SciTegic.value.DoubleValue
2.499

@<SCITEGIC>MOL_PROPERTY
Pdih
SciTegic.value.DoubleValue
4.570

@<SCITEGIC>MOL_PROPERTY
Idih
SciTegic.value.DoubleValue
0.001

@<SCITEGIC>MOL_PROPERTY
Tether
SciTegic.value.DoubleValue
0.000

@<TRIPOS>MOLECULE
guest-7_confgen4.mol2 : confsearch ligand conformer 536
          19          18           1
SMALL
USER_CHARGES
 
@<TRIPOS>ATOM
       1    C1      21.330967   17.157855   24.503091 C.2        1 MOL1         0.6115
       2    O1      20.795853   16.919716   25.567625 O.co2      1 MOL1        -0.6776
       3    O2      22.525138   17.043379   24.310444 O.co2      1 MOL1        -0.6776
       4    C2      20.459144   17.648215   23.352513 C.3        1 MOL1        -0.2013
       5    H1      19.468472   17.189744   23.456839 H          1 MOL1         0.0727
       6    H2      20.895220   17.272191   22.420157 H          1 MOL1         0.0727
       7    C3      20.331704   19.193310   23.312250 C.3        1 MOL1        -0.1910
       8    H3      19.978636   19.543420   24.292142 H          1 MOL1         0.0729
       9    H4      21.324564   19.639634   23.162806 H          1 MOL1         0.0729
      10    C4      19.359068   19.704878   22.223304 C.3        1 MOL1        -0.1909
      11    H5      19.239718   20.790268   22.344534 H          1 MOL1         0.0729
      12    H6      18.365342   19.263522   22.380542 H          1 MOL1         0.0729
      13    C5      19.838088   19.410178   20.784136 C.3        1 MOL1        -0.1884
      14    H7      20.852806   19.807138   20.642578 H          1 MOL1         0.0729
      15    H8      19.891366   18.326365   20.617184 H          1 MOL1         0.0729
      16    C6      18.894151   20.032787   19.735992 C.3        1 MOL1        -0.2899
      17    H9      17.876854   19.632413   19.837054 H          1 MOL1         0.0741
      18    H10     18.846200   21.123832   19.848721 H          1 MOL1         0.0741
      19    H11     19.245756   19.812494   18.719658 H          1 MOL1         0.0741
@<TRIPOS>BOND
    1     1     2    1
    2     1     3    2
    3     1     4    1
    4     4     5    1
    5     4     6    1
    6     4     7    1
    7     7     8    1
    8     7     9    1
    9     7    10    1
   10    10    11    1
   11    10    12    1
   12    10    13    1
   13    13    14    1
   14    13    15    1
   15    13    16    1
   16    16    17    1
   17    16    18    1
   18    16    19    1
@<TRIPOS>SUBSTRUCTURE
       1 MOL1            1 RESIDUE      1      MOL     
@<SCITEGIC>MOL_PROPERTY
VConf Rank
SciTegic.value.IntegerValue
536

@<SCITEGIC>MOL_PROPERTY
Conf_Id
SciTegic.value.IntegerValue
33

@<SCITEGIC>MOL_PROPERTY
Delta U+W
SciTegic.value.DoubleValue
-0.526

@<SCITEGIC>MOL_PROPERTY
U+W
SciTegic.value.DoubleValue
-55.418

@<SCITEGIC>MOL_PROPERTY
Grad RMS
SciTegic.value.DoubleValue
0.000000

@<SCITEGIC>MOL_PROPERTY
U
SciTegic.value.DoubleValue
6.914

@<SCITEGIC>MOL_PROPERTY
W
SciTegic.value.DoubleValue
-62.332

@<SCITEGIC>MOL_PROPERTY
W(PB)
SciTegic.value.DoubleValue
-64.421

@<SCITEGIC>MOL_PROPERTY
W(SA)
SciTegic.value.DoubleValue
2.090

@<SCITEGIC>MOL_PROPERTY
Valence
SciTegic.value.DoubleValue
7.196

@<SCITEGIC>MOL_PROPERTY
Coulomb
SciTegic.value.DoubleValue
-1.020

@<SCITEGIC>MOL_PROPERTY
VdW
SciTegic.value.DoubleValue
0.738

@<SCITEGIC>MOL_PROPERTY
VdW6
SciTegic.value.DoubleValue
-6.010

@<SCITEGIC>MOL_PROPERTY
VdW12
SciTegic.value.DoubleValue
6.748

@<SCITEGIC>MOL_PROPERTY
Bond
SciTegic.value.DoubleValue
0.126

@<SCITEGIC>MOL_PROPERTY
Angle
SciTegic.value.DoubleValue
2.499

@<SCITEGIC>MOL_PROPERTY
Pdih
SciTegic.value.DoubleValue
4.570

@<SCITEGIC>MOL_PROPERTY
Idih
SciTegic.value.DoubleValue
0.001

@<SCITEGIC>MOL_PROPERTY
Tether
SciTegic.value.DoubleValue
0.000

@<TRIPOS>MOLECULE
guest-7_confgen4.mol2 : confsearch ligand conformer 537
          19          18           1
SMALL
USER_CHARGES
 
@<TRIPOS>ATOM
       1    C1      18.032598   19.077605   24.790507 C.2        1 MOL1         0.6115
       2    O1      18.634800   18.665317   25.761892 O.co2      1 MOL1        -0.6776
       3    O2      17.214905   19.975069   24.837200 O.co2      1 MOL1        -0.6776
       4    C2      18.332217   18.446029   23.435575 C.3        1 MOL1        -0.2013
       5    H1      17.412029   18.466564   22.839327 H          1 MOL1         0.0727
       6    H2      18.588815   17.392479   23.599640 H          1 MOL1         0.0727
       7    C3      19.477052   19.162133   22.677295 C.3        1 MOL1        -0.1910
       8    H3      19.209487   20.217452   22.529137 H          1 MOL1         0.0729
       9    H4      20.380985   19.145276   23.300386 H          1 MOL1         0.0729
      10    C4      19.761500   18.499207   21.309713 C.3        1 MOL1        -0.1909
      11    H5      18.829079   18.461308   20.729930 H          1 MOL1         0.0729
      12    H6      20.076541   17.457670   21.461228 H          1 MOL1         0.0729
      13    C5      20.828096   19.245744   20.475662 C.3        1 MOL1        -0.1884
      14    H7      20.884269   18.783661   19.480389 H          1 MOL1         0.0729
      15    H8      20.513835   20.286638   20.317211 H          1 MOL1         0.0729
      16    C6      22.232886   19.219010   21.115741 C.3        1 MOL1        -0.2899
      17    H9      22.556335   18.188204   21.310620 H          1 MOL1         0.0741
      18    H10     22.968497   19.683098   20.446085 H          1 MOL1         0.0741
      19    H11     22.252064   19.771352   22.063525 H          1 MOL1         0.0741
@<TRIPOS>BOND
    1     1     2    1
    2     1     3    2
    3     1     4    1
    4     4     5    1
    5     4     6    1
    6     4     7    1
    7     7     8    1
    8     7     9    1
    9     7    10    1
   10    10    11    1
   11    10    12    1
   12    10    13    1
   13    13    14    1
   14    13    15    1
   15    13    16    1
   16    16    17    1
   17    16    18    1
   18    16    19    1
@<TRIPOS>SUBSTRUCTURE
       1 MOL1            1 RESIDUE      1      MOL     
@<SCITEGIC>MOL_PROPERTY
VConf Rank
SciTegic.value.IntegerValue
537

@<SCITEGIC>MOL_PROPERTY
Conf_Id
SciTegic.value.IntegerValue
42

@<SCITEGIC>MOL_PROPERTY
Delta U+W
SciTegic.value.DoubleValue
-0.344

@<SCITEGIC>MOL_PROPERTY
U+W
SciTegic.value.DoubleValue
-55.236

@<SCITEGIC>MOL_PROPERTY
Grad RMS
SciTegic.value.DoubleValue
0.000000

@<SCITEGIC>MOL_PROPERTY
U
SciTegic.value.DoubleValue
7.244

@<SCITEGIC>MOL_PROPERTY
W
SciTegic.value.DoubleValue
-62.479

@<SCITEGIC>MOL_PROPERTY
W(PB)
SciTegic.value.DoubleValue
-64.610

@<SCITEGIC>MOL_PROPERTY
W(SA)
SciTegic.value.DoubleValue
2.130

@<SCITEGIC>MOL_PROPERTY
Valence
SciTegic.value.DoubleValue
7.174

@<SCITEGIC>MOL_PROPERTY
Coulomb
SciTegic.value.DoubleValue
-0.669

@<SCITEGIC>MOL_PROPERTY
VdW
SciTegic.value.DoubleValue
0.739

@<SCITEGIC>MOL_PROPERTY
VdW6
SciTegic.value.DoubleValue
-5.969

@<SCITEGIC>MOL_PROPERTY
VdW12
SciTegic.value.DoubleValue
6.708

@<SCITEGIC>MOL_PROPERTY
Bond
SciTegic.value.DoubleValue
0.116

@<SCITEGIC>MOL_PROPERTY
Angle
SciTegic.value.DoubleValue
2.481

@<SCITEGIC>MOL_PROPERTY
Pdih
SciTegic.value.DoubleValue
4.576

@<SCITEGIC>MOL_PROPERTY
Idih
SciTegic.value.DoubleValue
0.000

@<SCITEGIC>MOL_PROPERTY
Tether
SciTegic.value.DoubleValue
0.000

@<TRIPOS>MOLECULE
guest-7_confgen4.mol2 : confsearch ligand conformer 538
          19          18           1
SMALL
USER_CHARGES
 
@<TRIPOS>ATOM
       1    C1      19.319279   18.131029   19.262417 C.2        1 MOL1         0.6115
       2    O1      19.788805   17.040689   19.003718 O.co2      1 MOL1        -0.6776
       3    O2      19.219455   19.029919   18.451073 O.co2      1 MOL1        -0.6776
       4    C2      18.846029   18.391786   20.688088 C.3        1 MOL1        -0.2013
       5    H1      18.473797   17.446911   21.102073 H          1 MOL1         0.0727
       6    H2      17.996139   19.083443   20.643634 H          1 MOL1         0.0727
       7    C3      19.959477   18.970142   21.595932 C.3        1 MOL1        -0.1910
       8    H3      20.805660   18.270571   21.609951 H          1 MOL1         0.0729
       9    H4      20.328135   19.910515   21.163463 H          1 MOL1         0.0729
      10    C4      19.453160   19.221088   23.035143 C.3        1 MOL1        -0.1909
      11    H5      19.130230   18.272230   23.485021 H          1 MOL1         0.0729
      12    H6      18.563858   19.864867   22.994137 H          1 MOL1         0.0729
      13    C5      20.504707   19.894145   23.947191 C.3        1 MOL1        -0.1884
      14    H7      20.826112   20.846469   23.503225 H          1 MOL1         0.0729
      15    H8      20.031207   20.143335   24.906850 H          1 MOL1         0.0729
      16    C6      21.737550   19.004877   24.217656 C.3        1 MOL1        -0.2899
      17    H9      22.309993   18.823330   23.299454 H          1 MOL1         0.0741
      18    H10     22.409686   19.489562   24.937557 H          1 MOL1         0.0741
      19    H11     21.438235   18.034647   24.635055 H          1 MOL1         0.0741
@<TRIPOS>BOND
    1     1     2    1
    2     1     3    2
    3     1     4    1
    4     4     5    1
    5     4     6    1
    6     4     7    1
    7     7     8    1
    8     7     9    1
    9     7    10    1
   10    10    11    1
   11    10    12    1
   12    10    13    1
   13    13    14    1
   14    13    15    1
   15    13    16    1
   16    16    17    1
   17    16    18    1
   18    16    19    1
@<TRIPOS>SUBSTRUCTURE
       1 MOL1            1 RESIDUE      1      MOL     
@<SCITEGIC>MOL_PROPERTY
VConf Rank
SciTegic.value.IntegerValue
538

@<SCITEGIC>MOL_PROPERTY
Conf_Id
SciTegic.value.IntegerValue
41

@<SCITEGIC>MOL_PROPERTY
Delta U+W
SciTegic.value.DoubleValue
-0.361

@<SCITEGIC>MOL_PROPERTY
U+W
SciTegic.value.DoubleValue
-55.252

@<SCITEGIC>MOL_PROPERTY
Grad RMS
SciTegic.value.DoubleValue
0.000000

@<SCITEGIC>MOL_PROPERTY
U
SciTegic.value.DoubleValue
7.244

@<SCITEGIC>MOL_PROPERTY
W
SciTegic.value.DoubleValue
-62.496

@<SCITEGIC>MOL_PROPERTY
W(PB)
SciTegic.value.DoubleValue
-64.596

@<SCITEGIC>MOL_PROPERTY
W(SA)
SciTegic.value.DoubleValue
2.099

@<SCITEGIC>MOL_PROPERTY
Valence
SciTegic.value.DoubleValue
7.174

@<SCITEGIC>MOL_PROPERTY
Coulomb
SciTegic.value.DoubleValue
-0.669

@<SCITEGIC>MOL_PROPERTY
VdW
SciTegic.value.DoubleValue
0.739

@<SCITEGIC>MOL_PROPERTY
VdW6
SciTegic.value.DoubleValue
-5.969

@<SCITEGIC>MOL_PROPERTY
VdW12
SciTegic.value.DoubleValue
6.708

@<SCITEGIC>MOL_PROPERTY
Bond
SciTegic.value.DoubleValue
0.116

@<SCITEGIC>MOL_PROPERTY
Angle
SciTegic.value.DoubleValue
2.481

@<SCITEGIC>MOL_PROPERTY
Pdih
SciTegic.value.DoubleValue
4.576

@<SCITEGIC>MOL_PROPERTY
Idih
SciTegic.value.DoubleValue
0.000

@<SCITEGIC>MOL_PROPERTY
Tether
SciTegic.value.DoubleValue
0.000

@<TRIPOS>MOLECULE
guest-7_confgen4.mol2 : confsearch ligand conformer 539
          19          18           1
SMALL
USER_CHARGES
 
@<TRIPOS>ATOM
       1    C1      20.078330   21.187141   20.531071 C.2        1 MOL1         0.6115
       2    O1      18.904361   21.416945   20.317677 O.co2      1 MOL1        -0.6776
       3    O2      20.878490   22.036762   20.869550 O.co2      1 MOL1        -0.6776
       4    C2      20.582149   19.758807   20.342995 C.3        1 MOL1        -0.2013
       5    H1      21.512380   19.812629   19.765168 H          1 MOL1         0.0727
       6    H2      19.858206   19.209914   19.728496 H          1 MOL1         0.0727
       7    C3      20.840829   19.000475   21.670817 C.3        1 MOL1        -0.1910
       8    H3      21.328230   18.042408   21.444803 H          1 MOL1         0.0729
       9    H4      21.545207   19.576111   22.287361 H          1 MOL1         0.0729
      10    C4      19.543203   18.736417   22.466900 C.3        1 MOL1        -0.1909
      11    H5      18.837452   18.172176   21.841938 H          1 MOL1         0.0729
      12    H6      19.058163   19.691501   22.711797 H          1 MOL1         0.0729
      13    C5      19.820210   17.953930   23.767510 C.3        1 MOL1        -0.1884
      14    H7      20.301661   16.995558   23.528432 H          1 MOL1         0.0729
      15    H8      20.524108   18.517296   24.395698 H          1 MOL1         0.0729
      16    C6      18.523607   17.691976   24.559454 C.3        1 MOL1        -0.2899
      17    H9      17.812902   17.102580   23.965386 H          1 MOL1         0.0741
      18    H10     18.738783   17.135394   25.480868 H          1 MOL1         0.0741
      19    H11     18.036947   18.635589   24.839094 H          1 MOL1         0.0741
@<TRIPOS>BOND
    1     1     2    1
    2     1     3    2
    3     1     4    1
    4     4     5    1
    5     4     6    1
    6     4     7    1
    7     7     8    1
    8     7     9    1
    9     7    10    1
   10    10    11    1
   11    10    12    1
   12    10    13    1
   13    13    14    1
   14    13    15    1
   15    13    16    1
   16    16    17    1
   17    16    18    1
   18    16    19    1
@<TRIPOS>SUBSTRUCTURE
       1 MOL1            1 RESIDUE      1      MOL     
@<SCITEGIC>MOL_PROPERTY
VConf Rank
SciTegic.value.IntegerValue
539

@<SCITEGIC>MOL_PROPERTY
Conf_Id
SciTegic.value.IntegerValue
36

@<SCITEGIC>MOL_PROPERTY
Delta U+W
SciTegic.value.DoubleValue
-0.079

@<SCITEGIC>MOL_PROPERTY
U+W
SciTegic.value.DoubleValue
-54.971

@<SCITEGIC>MOL_PROPERTY
Grad RMS
SciTegic.value.DoubleValue
0.000000

@<SCITEGIC>MOL_PROPERTY
U
SciTegic.value.DoubleValue
8.266

@<SCITEGIC>MOL_PROPERTY
W
SciTegic.value.DoubleValue
-63.237

@<SCITEGIC>MOL_PROPERTY
W(PB)
SciTegic.value.DoubleValue
-65.340

@<SCITEGIC>MOL_PROPERTY
W(SA)
SciTegic.value.DoubleValue
2.103

@<SCITEGIC>MOL_PROPERTY
Valence
SciTegic.value.DoubleValue
6.935

@<SCITEGIC>MOL_PROPERTY
Coulomb
SciTegic.value.DoubleValue
0.874

@<SCITEGIC>MOL_PROPERTY
VdW
SciTegic.value.DoubleValue
0.457

@<SCITEGIC>MOL_PROPERTY
VdW6
SciTegic.value.DoubleValue
-6.205

@<SCITEGIC>MOL_PROPERTY
VdW12
SciTegic.value.DoubleValue
6.662

@<SCITEGIC>MOL_PROPERTY
Bond
SciTegic.value.DoubleValue
0.107

@<SCITEGIC>MOL_PROPERTY
Angle
SciTegic.value.DoubleValue
2.420

@<SCITEGIC>MOL_PROPERTY
Pdih
SciTegic.value.DoubleValue
4.407

@<SCITEGIC>MOL_PROPERTY
Idih
SciTegic.value.DoubleValue
0.001

@<SCITEGIC>MOL_PROPERTY
Tether
SciTegic.value.DoubleValue
0.000

@<TRIPOS>MOLECULE
guest-7_confgen4.mol2 : confsearch ligand conformer 540
          19          18           1
SMALL
USER_CHARGES
 
@<TRIPOS>ATOM
       1    C1      21.748728   21.028611   21.196592 C.2        1 MOL1         0.6115
       2    O1      22.683631   21.021591   21.972774 O.co2      1 MOL1        -0.6776
       3    O2      21.139276   22.033613   20.888014 O.co2      1 MOL1        -0.6776
       4    C2      21.329121   19.708001   20.556854 C.3        1 MOL1        -0.2013
       5    H1      22.153375   18.991645   20.658970 H          1 MOL1         0.0727
       6    H2      21.198543   19.890425   19.483644 H          1 MOL1         0.0727
       7    C3      20.023978   19.109157   21.142585 C.3        1 MOL1        -0.1910
       8    H3      19.215023   19.848254   21.059169 H          1 MOL1         0.0729
       9    H4      19.725404   18.243657   20.535708 H          1 MOL1         0.0729
      10    C4      20.180820   18.668781   22.615262 C.3        1 MOL1        -0.1909
      11    H5      20.463023   19.533173   23.232198 H          1 MOL1         0.0729
      12    H6      20.999035   17.939991   22.695385 H          1 MOL1         0.0729
      13    C5      18.880786   18.047677   23.167301 C.3        1 MOL1        -0.1884
      14    H7      18.061108   18.775489   23.090542 H          1 MOL1         0.0729
      15    H8      18.595834   17.179793   22.556554 H          1 MOL1         0.0729
      16    C6      19.040519   17.609334   24.636764 C.3        1 MOL1        -0.2899
      17    H9      19.295261   18.464753   25.276145 H          1 MOL1         0.0741
      18    H10     18.107317   17.170642   25.013287 H          1 MOL1         0.0741
      19    H11     19.833905   16.857231   24.738181 H          1 MOL1         0.0741
@<TRIPOS>BOND
    1     1     2    1
    2     1     3    2
    3     1     4    1
    4     4     5    1
    5     4     6    1
    6     4     7    1
    7     7     8    1
    8     7     9    1
    9     7    10    1
   10    10    11    1
   11    10    12    1
   12    10    13    1
   13    13    14    1
   14    13    15    1
   15    13    16    1
   16    16    17    1
   17    16    18    1
   18    16    19    1
@<TRIPOS>SUBSTRUCTURE
       1 MOL1            1 RESIDUE      1      MOL     
@<SCITEGIC>MOL_PROPERTY
VConf Rank
SciTegic.value.IntegerValue
540

@<SCITEGIC>MOL_PROPERTY
Conf_Id
SciTegic.value.IntegerValue
35

@<SCITEGIC>MOL_PROPERTY
Delta U+W
SciTegic.value.DoubleValue
-0.030

@<SCITEGIC>MOL_PROPERTY
U+W
SciTegic.value.DoubleValue
-54.921

@<SCITEGIC>MOL_PROPERTY
Grad RMS
SciTegic.value.DoubleValue
0.000000

@<SCITEGIC>MOL_PROPERTY
U
SciTegic.value.DoubleValue
8.267

@<SCITEGIC>MOL_PROPERTY
W
SciTegic.value.DoubleValue
-63.188

@<SCITEGIC>MOL_PROPERTY
W(PB)
SciTegic.value.DoubleValue
-65.294

@<SCITEGIC>MOL_PROPERTY
W(SA)
SciTegic.value.DoubleValue
2.106

@<SCITEGIC>MOL_PROPERTY
Valence
SciTegic.value.DoubleValue
6.935

@<SCITEGIC>MOL_PROPERTY
Coulomb
SciTegic.value.DoubleValue
0.875

@<SCITEGIC>MOL_PROPERTY
VdW
SciTegic.value.DoubleValue
0.457

@<SCITEGIC>MOL_PROPERTY
VdW6
SciTegic.value.DoubleValue
-6.205

@<SCITEGIC>MOL_PROPERTY
VdW12
SciTegic.value.DoubleValue
6.662

@<SCITEGIC>MOL_PROPERTY
Bond
SciTegic.value.DoubleValue
0.107

@<SCITEGIC>MOL_PROPERTY
Angle
SciTegic.value.DoubleValue
2.420

@<SCITEGIC>MOL_PROPERTY
Pdih
SciTegic.value.DoubleValue
4.407

@<SCITEGIC>MOL_PROPERTY
Idih
SciTegic.value.DoubleValue
0.001

@<SCITEGIC>MOL_PROPERTY
Tether
SciTegic.value.DoubleValue
0.000

@<TRIPOS>MOLECULE
guest-7_confgen4.mol2 : confsearch ligand conformer 541
          19          18           1
SMALL
USER_CHARGES
 
@<TRIPOS>ATOM
       1    C1      19.051299   20.229806   19.922548 C.2        1 MOL1         0.6115
       2    O1      18.440748   19.488986   19.177483 O.co2      1 MOL1        -0.6776
       3    O2      19.911205   21.001454   19.546032 O.co2      1 MOL1        -0.6776
       4    C2      18.702395   20.203527   21.408164 C.3        1 MOL1        -0.2013
       5    H1      17.609015   20.220214   21.487767 H          1 MOL1         0.0727
       6    H2      19.068293   21.128178   21.870871 H          1 MOL1         0.0727
       7    C3      19.257160   18.969827   22.167072 C.3        1 MOL1        -0.1910
       8    H3      18.828947   18.961153   23.177472 H          1 MOL1         0.0729
       9    H4      18.914863   18.052102   21.669132 H          1 MOL1         0.0729
      10    C4      20.802025   18.973086   22.256884 C.3        1 MOL1        -0.1909
      11    H5      21.140201   19.872704   22.788996 H          1 MOL1         0.0729
      12    H6      21.222384   19.036304   21.243806 H          1 MOL1         0.0729
      13    C5      21.379812   17.715593   22.946596 C.3        1 MOL1        -0.1884
      14    H7      21.044915   16.814059   22.415192 H          1 MOL1         0.0729
      15    H8      22.474852   17.738199   22.859433 H          1 MOL1         0.0729
      16    C6      21.003044   17.608864   24.440140 C.3        1 MOL1        -0.2899
      17    H9      19.923433   17.465251   24.572195 H          1 MOL1         0.0741
      18    H10     21.510659   16.752936   24.903443 H          1 MOL1         0.0741
      19    H11     21.300176   18.513810   24.985972 H          1 MOL1         0.0741
@<TRIPOS>BOND
    1     1     2    1
    2     1     3    2
    3     1     4    1
    4     4     5    1
    5     4     6    1
    6     4     7    1
    7     7     8    1
    8     7     9    1
    9     7    10    1
   10    10    11    1
   11    10    12    1
   12    10    13    1
   13    13    14    1
   14    13    15    1
   15    13    16    1
   16    16    17    1
   17    16    18    1
   18    16    19    1
@<TRIPOS>SUBSTRUCTURE
       1 MOL1            1 RESIDUE      1      MOL     
@<SCITEGIC>MOL_PROPERTY
VConf Rank
SciTegic.value.IntegerValue
541

@<SCITEGIC>MOL_PROPERTY
Conf_Id
SciTegic.value.IntegerValue
74

@<SCITEGIC>MOL_PROPERTY
Delta U+W
SciTegic.value.DoubleValue
0.797

@<SCITEGIC>MOL_PROPERTY
U+W
SciTegic.value.DoubleValue
-54.095

@<SCITEGIC>MOL_PROPERTY
Grad RMS
SciTegic.value.DoubleValue
0.000000

@<SCITEGIC>MOL_PROPERTY
U
SciTegic.value.DoubleValue
8.869

@<SCITEGIC>MOL_PROPERTY
W
SciTegic.value.DoubleValue
-62.964

@<SCITEGIC>MOL_PROPERTY
W(PB)
SciTegic.value.DoubleValue
-65.046

@<SCITEGIC>MOL_PROPERTY
W(SA)
SciTegic.value.DoubleValue
2.082

@<SCITEGIC>MOL_PROPERTY
Valence
SciTegic.value.DoubleValue
7.469

@<SCITEGIC>MOL_PROPERTY
Coulomb
SciTegic.value.DoubleValue
0.762

@<SCITEGIC>MOL_PROPERTY
VdW
SciTegic.value.DoubleValue
0.639

@<SCITEGIC>MOL_PROPERTY
VdW6
SciTegic.value.DoubleValue
-6.782

@<SCITEGIC>MOL_PROPERTY
VdW12
SciTegic.value.DoubleValue
7.421

@<SCITEGIC>MOL_PROPERTY
Bond
SciTegic.value.DoubleValue
0.141

@<SCITEGIC>MOL_PROPERTY
Angle
SciTegic.value.DoubleValue
2.667

@<SCITEGIC>MOL_PROPERTY
Pdih
SciTegic.value.DoubleValue
4.660

@<SCITEGIC>MOL_PROPERTY
Idih
SciTegic.value.DoubleValue
0.001

@<SCITEGIC>MOL_PROPERTY
Tether
SciTegic.value.DoubleValue
0.000

@<TRIPOS>MOLECULE
guest-7_confgen4.mol2 : confsearch ligand conformer 542
          19          18           1
SMALL
USER_CHARGES
 
@<TRIPOS>ATOM
       1    C1      17.992691   16.805334   21.927616 C.2        1 MOL1         0.6115
       2    O1      17.816731   15.793738   22.577334 O.co2      1 MOL1        -0.6776
       3    O2      17.133556   17.320260   21.239822 O.co2      1 MOL1        -0.6776
       4    C2      19.360651   17.475003   21.994297 C.3        1 MOL1        -0.2013
       5    H1      19.550304   17.944164   21.022146 H          1 MOL1         0.0727
       6    H2      20.116880   16.693065   22.132305 H          1 MOL1         0.0727
       7    C3      19.461363   18.523396   23.132419 C.3        1 MOL1        -0.1910
       8    H3      18.725765   19.320927   22.963255 H          1 MOL1         0.0729
       9    H4      19.177042   18.044029   24.079292 H          1 MOL1         0.0729
      10    C4      20.878407   19.129204   23.292769 C.3        1 MOL1        -0.1909
      11    H5      21.579554   18.327629   23.562330 H          1 MOL1         0.0729
      12    H6      20.870546   19.823870   24.143743 H          1 MOL1         0.0729
      13    C5      21.424116   19.870077   22.047293 C.3        1 MOL1        -0.1884
      14    H7      22.433376   20.239761   22.274904 H          1 MOL1         0.0729
      15    H8      21.539791   19.169616   21.209687 H          1 MOL1         0.0729
      16    C6      20.545561   21.062345   21.611365 C.3        1 MOL1        -0.2899
      17    H9      20.397366   21.765365   22.441324 H          1 MOL1         0.0741
      18    H10     21.020596   21.608043   20.785914 H          1 MOL1         0.0741
      19    H11     19.560493   20.725740   21.264083 H          1 MOL1         0.0741
@<TRIPOS>BOND
    1     1     2    1
    2     1     3    2
    3     1     4    1
    4     4     5    1
    5     4     6    1
    6     4     7    1
    7     7     8    1
    8     7     9    1
    9     7    10    1
   10    10    11    1
   11    10    12    1
   12    10    13    1
   13    13    14    1
   14    13    15    1
   15    13    16    1
   16    16    17    1
   17    16    18    1
   18    16    19    1
@<TRIPOS>SUBSTRUCTURE
       1 MOL1            1 RESIDUE      1      MOL     
@<SCITEGIC>MOL_PROPERTY
VConf Rank
SciTegic.value.IntegerValue
542

@<SCITEGIC>MOL_PROPERTY
Conf_Id
SciTegic.value.IntegerValue
67

@<SCITEGIC>MOL_PROPERTY
Delta U+W
SciTegic.value.DoubleValue
0.308

@<SCITEGIC>MOL_PROPERTY
U+W
SciTegic.value.DoubleValue
-54.583

@<SCITEGIC>MOL_PROPERTY
Grad RMS
SciTegic.value.DoubleValue
0.000000

@<SCITEGIC>MOL_PROPERTY
U
SciTegic.value.DoubleValue
8.219

@<SCITEGIC>MOL_PROPERTY
W
SciTegic.value.DoubleValue
-62.802

@<SCITEGIC>MOL_PROPERTY
W(PB)
SciTegic.value.DoubleValue
-64.859

@<SCITEGIC>MOL_PROPERTY
W(SA)
SciTegic.value.DoubleValue
2.057

@<SCITEGIC>MOL_PROPERTY
Valence
SciTegic.value.DoubleValue
7.609

@<SCITEGIC>MOL_PROPERTY
Coulomb
SciTegic.value.DoubleValue
-0.089

@<SCITEGIC>MOL_PROPERTY
VdW
SciTegic.value.DoubleValue
0.699

@<SCITEGIC>MOL_PROPERTY
VdW6
SciTegic.value.DoubleValue
-6.924

@<SCITEGIC>MOL_PROPERTY
VdW12
SciTegic.value.DoubleValue
7.623

@<SCITEGIC>MOL_PROPERTY
Bond
SciTegic.value.DoubleValue
0.163

@<SCITEGIC>MOL_PROPERTY
Angle
SciTegic.value.DoubleValue
2.870

@<SCITEGIC>MOL_PROPERTY
Pdih
SciTegic.value.DoubleValue
4.576

@<SCITEGIC>MOL_PROPERTY
Idih
SciTegic.value.DoubleValue
0.001

@<SCITEGIC>MOL_PROPERTY
Tether
SciTegic.value.DoubleValue
0.000

@<TRIPOS>MOLECULE
guest-7_confgen4.mol2 : confsearch ligand conformer 543
          19          18           1
SMALL
USER_CHARGES
 
@<TRIPOS>ATOM
       1    C1      18.094848   19.121031   24.533213 C.2        1 MOL1         0.6115
       2    O1      16.974510   18.661911   24.635562 O.co2      1 MOL1        -0.6776
       3    O2      18.492676   20.072186   25.176142 O.co2      1 MOL1        -0.6776
       4    C2      19.046472   18.480461   23.529072 C.3        1 MOL1        -0.2013
       5    H1      18.812264   17.410790   23.471573 H          1 MOL1         0.0727
       6    H2      20.063144   18.570699   23.928316 H          1 MOL1         0.0727
       7    C3      18.956496   19.124187   22.121198 C.3        1 MOL1        -0.1910
       8    H3      17.909555   19.099695   21.788764 H          1 MOL1         0.0729
       9    H4      19.229921   20.185788   22.184605 H          1 MOL1         0.0729
      10    C4      19.828221   18.410893   21.057229 C.3        1 MOL1        -0.1909
      11    H5      19.671198   18.900997   20.086703 H          1 MOL1         0.0729
      12    H6      19.470056   17.379326   20.937307 H          1 MOL1         0.0729
      13    C5      21.346194   18.378705   21.361568 C.3        1 MOL1        -0.1884
      14    H7      21.537578   17.801834   22.276008 H          1 MOL1         0.0729
      15    H8      21.853839   17.838601   20.550602 H          1 MOL1         0.0729
      16    C6      21.973737   19.783264   21.491185 C.3        1 MOL1        -0.2899
      17    H9      21.576814   20.318352   22.363195 H          1 MOL1         0.0741
      18    H10     23.061873   19.708027   21.614124 H          1 MOL1         0.0741
      19    H11     21.774867   20.386603   20.595941 H          1 MOL1         0.0741
@<TRIPOS>BOND
    1     1     2    1
    2     1     3    2
    3     1     4    1
    4     4     5    1
    5     4     6    1
    6     4     7    1
    7     7     8    1
    8     7     9    1
    9     7    10    1
   10    10    11    1
   11    10    12    1
   12    10    13    1
   13    13    14    1
   14    13    15    1
   15    13    16    1
   16    16    17    1
   17    16    18    1
   18    16    19    1
@<TRIPOS>SUBSTRUCTURE
       1 MOL1            1 RESIDUE      1      MOL     
@<SCITEGIC>MOL_PROPERTY
VConf Rank
SciTegic.value.IntegerValue
543

@<SCITEGIC>MOL_PROPERTY
Conf_Id
SciTegic.value.IntegerValue
21

@<SCITEGIC>MOL_PROPERTY
Delta U+W
SciTegic.value.DoubleValue
0.319

@<SCITEGIC>MOL_PROPERTY
U+W
SciTegic.value.DoubleValue
-54.572

@<SCITEGIC>MOL_PROPERTY
Grad RMS
SciTegic.value.DoubleValue
0.000000

@<SCITEGIC>MOL_PROPERTY
U
SciTegic.value.DoubleValue
8.220

@<SCITEGIC>MOL_PROPERTY
W
SciTegic.value.DoubleValue
-62.792

@<SCITEGIC>MOL_PROPERTY
W(PB)
SciTegic.value.DoubleValue
-64.830

@<SCITEGIC>MOL_PROPERTY
W(SA)
SciTegic.value.DoubleValue
2.038

@<SCITEGIC>MOL_PROPERTY
Valence
SciTegic.value.DoubleValue
7.609

@<SCITEGIC>MOL_PROPERTY
Coulomb
SciTegic.value.DoubleValue
-0.088

@<SCITEGIC>MOL_PROPERTY
VdW
SciTegic.value.DoubleValue
0.699

@<SCITEGIC>MOL_PROPERTY
VdW6
SciTegic.value.DoubleValue
-6.924

@<SCITEGIC>MOL_PROPERTY
VdW12
SciTegic.value.DoubleValue
7.623

@<SCITEGIC>MOL_PROPERTY
Bond
SciTegic.value.DoubleValue
0.163

@<SCITEGIC>MOL_PROPERTY
Angle
SciTegic.value.DoubleValue
2.870

@<SCITEGIC>MOL_PROPERTY
Pdih
SciTegic.value.DoubleValue
4.576

@<SCITEGIC>MOL_PROPERTY
Idih
SciTegic.value.DoubleValue
0.000

@<SCITEGIC>MOL_PROPERTY
Tether
SciTegic.value.DoubleValue
0.000

@<TRIPOS>MOLECULE
guest-7_confgen4.mol2 : confsearch ligand conformer 544
          19          18           1
SMALL
USER_CHARGES
 
@<TRIPOS>ATOM
       1    C1      22.400927   19.568972   23.776070 C.2        1 MOL1         0.6115
       2    O1      23.017891   18.929482   24.604832 O.co2      1 MOL1        -0.6776
       3    O2      22.893373   20.457572   23.109631 O.co2      1 MOL1        -0.6776
       4    C2      20.933523   19.224718   23.547390 C.3        1 MOL1        -0.2013
       5    H1      20.412345   20.145494   23.267448 H          1 MOL1         0.0727
       6    H2      20.510055   18.896689   24.504185 H          1 MOL1         0.0727
       7    C3      20.735353   18.122669   22.473235 C.3        1 MOL1        -0.1910
       8    H3      21.210164   18.424464   21.529436 H          1 MOL1         0.0729
       9    H4      21.269084   17.223160   22.809999 H          1 MOL1         0.0729
      10    C4      19.248893   17.755882   22.232716 C.3        1 MOL1        -0.1909
      11    H5      18.664943   17.911162   23.150206 H          1 MOL1         0.0729
      12    H6      19.192880   16.679136   22.021876 H          1 MOL1         0.0729
      13    C5      18.583869   18.497105   21.046866 C.3        1 MOL1        -0.1884
      14    H7      19.122670   18.263928   20.118115 H          1 MOL1         0.0729
      15    H8      17.565710   18.104773   20.917939 H          1 MOL1         0.0729
      16    C6      18.504606   20.027760   21.221530 C.3        1 MOL1        -0.2899
      17    H9      17.909752   20.475420   20.414955 H          1 MOL1         0.0741
      18    H10     18.033118   20.291911   22.176989 H          1 MOL1         0.0741
      19    H11     19.502717   20.481984   21.186138 H          1 MOL1         0.0741
@<TRIPOS>BOND
    1     1     2    1
    2     1     3    2
    3     1     4    1
    4     4     5    1
    5     4     6    1
    6     4     7    1
    7     7     8    1
    8     7     9    1
    9     7    10    1
   10    10    11    1
   11    10    12    1
   12    10    13    1
   13    13    14    1
   14    13    15    1
   15    13    16    1
   16    16    17    1
   17    16    18    1
   18    16    19    1
@<TRIPOS>SUBSTRUCTURE
       1 MOL1            1 RESIDUE      1      MOL     
@<SCITEGIC>MOL_PROPERTY
VConf Rank
SciTegic.value.IntegerValue
544

@<SCITEGIC>MOL_PROPERTY
Conf_Id
SciTegic.value.IntegerValue
24

@<SCITEGIC>MOL_PROPERTY
Delta U+W
SciTegic.value.DoubleValue
2.477

@<SCITEGIC>MOL_PROPERTY
U+W
SciTegic.value.DoubleValue
-52.414

@<SCITEGIC>MOL_PROPERTY
Grad RMS
SciTegic.value.DoubleValue
0.000000

@<SCITEGIC>MOL_PROPERTY
U
SciTegic.value.DoubleValue
10.422

@<SCITEGIC>MOL_PROPERTY
W
SciTegic.value.DoubleValue
-62.836

@<SCITEGIC>MOL_PROPERTY
W(PB)
SciTegic.value.DoubleValue
-64.906

@<SCITEGIC>MOL_PROPERTY
W(SA)
SciTegic.value.DoubleValue
2.070

@<SCITEGIC>MOL_PROPERTY
Valence
SciTegic.value.DoubleValue
9.628

@<SCITEGIC>MOL_PROPERTY
Coulomb
SciTegic.value.DoubleValue
0.101

@<SCITEGIC>MOL_PROPERTY
VdW
SciTegic.value.DoubleValue
0.693

@<SCITEGIC>MOL_PROPERTY
VdW6
SciTegic.value.DoubleValue
-6.927

@<SCITEGIC>MOL_PROPERTY
VdW12
SciTegic.value.DoubleValue
7.620

@<SCITEGIC>MOL_PROPERTY
Bond
SciTegic.value.DoubleValue
0.173

@<SCITEGIC>MOL_PROPERTY
Angle
SciTegic.value.DoubleValue
2.989

@<SCITEGIC>MOL_PROPERTY
Pdih
SciTegic.value.DoubleValue
6.465

@<SCITEGIC>MOL_PROPERTY
Idih
SciTegic.value.DoubleValue
0.001

@<SCITEGIC>MOL_PROPERTY
Tether
SciTegic.value.DoubleValue
0.000

@<TRIPOS>MOLECULE
guest-7_confgen4.mol2 : confsearch ligand conformer 545
          19          18           1
SMALL
USER_CHARGES
 
@<TRIPOS>ATOM
       1    C1      21.600558   20.723336   21.408057 C.2        1 MOL1         0.6115
       2    O1      21.271433   20.579925   20.247109 O.co2      1 MOL1        -0.6776
       3    O2      22.046269   21.761721   21.855464 O.co2      1 MOL1        -0.6776
       4    C2      21.476006   19.528906   22.350425 C.3        1 MOL1        -0.2013
       5    H1      22.428258   19.438626   22.885982 H          1 MOL1         0.0727
       6    H2      21.369034   18.622258   21.746456 H          1 MOL1         0.0727
       7    C3      20.318225   19.654524   23.379357 C.3        1 MOL1        -0.1910
       8    H3      20.414440   18.872894   24.144882 H          1 MOL1         0.0729
       9    H4      20.435945   20.610726   23.907897 H          1 MOL1         0.0729
      10    C4      18.900804   19.601814   22.751967 C.3        1 MOL1        -0.1909
      11    H5      18.916367   20.006883   21.730946 H          1 MOL1         0.0729
      12    H6      18.248320   20.272187   23.327855 H          1 MOL1         0.0729
      13    C5      18.245196   18.198932   22.754567 C.3        1 MOL1        -0.1884
      14    H7      18.150732   17.837522   23.787845 H          1 MOL1         0.0729
      15    H8      17.221368   18.292717   22.367095 H          1 MOL1         0.0729
      16    C6      18.997587   17.149079   21.911197 C.3        1 MOL1        -0.2899
      17    H9      19.965389   16.898757   22.362921 H          1 MOL1         0.0741
      18    H10     18.414655   16.221508   21.843526 H          1 MOL1         0.0741
      19    H11     19.172219   17.515547   20.891055 H          1 MOL1         0.0741
@<TRIPOS>BOND
    1     1     2    1
    2     1     3    2
    3     1     4    1
    4     4     5    1
    5     4     6    1
    6     4     7    1
    7     7     8    1
    8     7     9    1
    9     7    10    1
   10    10    11    1
   11    10    12    1
   12    10    13    1
   13    13    14    1
   14    13    15    1
   15    13    16    1
   16    16    17    1
   17    16    18    1
   18    16    19    1
@<TRIPOS>SUBSTRUCTURE
       1 MOL1            1 RESIDUE      1      MOL     
@<SCITEGIC>MOL_PROPERTY
VConf Rank
SciTegic.value.IntegerValue
545

@<SCITEGIC>MOL_PROPERTY
Conf_Id
SciTegic.value.IntegerValue
4

@<SCITEGIC>MOL_PROPERTY
Delta U+W
SciTegic.value.DoubleValue
3.753

@<SCITEGIC>MOL_PROPERTY
U+W
SciTegic.value.DoubleValue
-51.138

@<SCITEGIC>MOL_PROPERTY
Grad RMS
SciTegic.value.DoubleValue
0.000000

@<SCITEGIC>MOL_PROPERTY
U
SciTegic.value.DoubleValue
12.334

@<SCITEGIC>MOL_PROPERTY
W
SciTegic.value.DoubleValue
-63.472

@<SCITEGIC>MOL_PROPERTY
W(PB)
SciTegic.value.DoubleValue
-65.500

@<SCITEGIC>MOL_PROPERTY
W(SA)
SciTegic.value.DoubleValue
2.028

@<SCITEGIC>MOL_PROPERTY
Valence
SciTegic.value.DoubleValue
9.984

@<SCITEGIC>MOL_PROPERTY
Coulomb
SciTegic.value.DoubleValue
1.767

@<SCITEGIC>MOL_PROPERTY
VdW
SciTegic.value.DoubleValue
0.583

@<SCITEGIC>MOL_PROPERTY
VdW6
SciTegic.value.DoubleValue
-7.767

@<SCITEGIC>MOL_PROPERTY
VdW12
SciTegic.value.DoubleValue
8.349

@<SCITEGIC>MOL_PROPERTY
Bond
SciTegic.value.DoubleValue
0.203

@<SCITEGIC>MOL_PROPERTY
Angle
SciTegic.value.DoubleValue
3.191

@<SCITEGIC>MOL_PROPERTY
Pdih
SciTegic.value.DoubleValue
6.589

@<SCITEGIC>MOL_PROPERTY
Idih
SciTegic.value.DoubleValue
0.001

@<SCITEGIC>MOL_PROPERTY
Tether
SciTegic.value.DoubleValue
0.000

@<TRIPOS>MOLECULE
guest-7_confgen4.mol2 : confsearch ligand conformer 546
          19          18           1
SMALL
USER_CHARGES
 
@<TRIPOS>ATOM
       1    C1      20.537118   16.379810   22.132076 C.2        1 MOL1         0.6115
       2    O1      19.834070   15.407400   21.939165 O.co2      1 MOL1        -0.6776
       3    O2      21.595843   16.564992   21.565064 O.co2      1 MOL1        -0.6776
       4    C2      20.077003   17.406816   23.163474 C.3        1 MOL1        -0.2013
       5    H1      20.936073   18.025572   23.441627 H          1 MOL1         0.0727
       6    H2      19.784662   16.853102   24.063304 H          1 MOL1         0.0727
       7    C3      18.885236   18.285368   22.691484 C.3        1 MOL1        -0.1910
       8    H3      18.079510   17.615313   22.360780 H          1 MOL1         0.0729
       9    H4      18.478811   18.848984   23.542008 H          1 MOL1         0.0729
      10    C4      19.231304   19.259126   21.534979 C.3        1 MOL1        -0.1909
      11    H5      18.349175   19.344059   20.885813 H          1 MOL1         0.0729
      12    H6      20.026075   18.839597   20.903204 H          1 MOL1         0.0729
      13    C5      19.615129   20.689300   21.987952 C.3        1 MOL1        -0.1884
      14    H7      19.757638   21.311018   21.093351 H          1 MOL1         0.0729
      15    H8      18.779713   21.137245   22.543495 H          1 MOL1         0.0729
      16    C6      20.895769   20.757489   22.845198 C.3        1 MOL1        -0.2899
      17    H9      21.731352   20.250069   22.345385 H          1 MOL1         0.0741
      18    H10     21.187072   21.801566   23.017893 H          1 MOL1         0.0741
      19    H11     20.740374   20.291390   23.825993 H          1 MOL1         0.0741
@<TRIPOS>BOND
    1     1     2    1
    2     1     3    2
    3     1     4    1
    4     4     5    1
    5     4     6    1
    6     4     7    1
    7     7     8    1
    8     7     9    1
    9     7    10    1
   10    10    11    1
   11    10    12    1
   12    10    13    1
   13    13    14    1
   14    13    15    1
   15    13    16    1
   16    16    17    1
   17    16    18    1
   18    16    19    1
@<TRIPOS>SUBSTRUCTURE
       1 MOL1            1 RESIDUE      1      MOL     
@<SCITEGIC>MOL_PROPERTY
VConf Rank
SciTegic.value.IntegerValue
546

@<SCITEGIC>MOL_PROPERTY
Conf_Id
SciTegic.value.IntegerValue
73

@<SCITEGIC>MOL_PROPERTY
Delta U+W
SciTegic.value.DoubleValue
3.707

@<SCITEGIC>MOL_PROPERTY
U+W
SciTegic.value.DoubleValue
-51.184

@<SCITEGIC>MOL_PROPERTY
Grad RMS
SciTegic.value.DoubleValue
0.000000

@<SCITEGIC>MOL_PROPERTY
U
SciTegic.value.DoubleValue
12.334

@<SCITEGIC>MOL_PROPERTY
W
SciTegic.value.DoubleValue
-63.519

@<SCITEGIC>MOL_PROPERTY
W(PB)
SciTegic.value.DoubleValue
-65.541

@<SCITEGIC>MOL_PROPERTY
W(SA)
SciTegic.value.DoubleValue
2.022

@<SCITEGIC>MOL_PROPERTY
Valence
SciTegic.value.DoubleValue
9.984

@<SCITEGIC>MOL_PROPERTY
Coulomb
SciTegic.value.DoubleValue
1.768

@<SCITEGIC>MOL_PROPERTY
VdW
SciTegic.value.DoubleValue
0.583

@<SCITEGIC>MOL_PROPERTY
VdW6
SciTegic.value.DoubleValue
-7.767

@<SCITEGIC>MOL_PROPERTY
VdW12
SciTegic.value.DoubleValue
8.350

@<SCITEGIC>MOL_PROPERTY
Bond
SciTegic.value.DoubleValue
0.203

@<SCITEGIC>MOL_PROPERTY
Angle
SciTegic.value.DoubleValue
3.192

@<SCITEGIC>MOL_PROPERTY
Pdih
SciTegic.value.DoubleValue
6.589

@<SCITEGIC>MOL_PROPERTY
Idih
SciTegic.value.DoubleValue
0.001

@<SCITEGIC>MOL_PROPERTY
Tether
SciTegic.value.DoubleValue
0.000

@<TRIPOS>MOLECULE
guest-7_confgen4.mol2 : confsearch ligand conformer 547
          19          18           1
SMALL
USER_CHARGES
 
@<TRIPOS>ATOM
       1    C1      19.158382   17.847964   20.195090 C.2        1 MOL1         0.6115
       2    O1      19.988171   18.378315   19.483127 O.co2      1 MOL1        -0.6776
       3    O2      18.766522   16.708669   20.035053 O.co2      1 MOL1        -0.6776
       4    C2      18.550488   18.664502   21.332216 C.3        1 MOL1        -0.2013
       5    H1      17.460886   18.574901   21.252169 H          1 MOL1         0.0727
       6    H2      18.787457   19.722466   21.171421 H          1 MOL1         0.0727
       7    C3      19.000208   18.213562   22.748788 C.3        1 MOL1        -0.1910
       8    H3      18.461730   18.801391   23.503350 H          1 MOL1         0.0729
       9    H4      18.689437   17.170790   22.900967 H          1 MOL1         0.0729
      10    C4      20.526816   18.317260   22.999402 C.3        1 MOL1        -0.1909
      11    H5      21.049089   17.631655   22.318036 H          1 MOL1         0.0729
      12    H6      20.742629   17.956454   24.014211 H          1 MOL1         0.0729
      13    C5      21.127462   19.734641   22.833661 C.3        1 MOL1        -0.1884
      14    H7      22.209045   19.679514   23.018150 H          1 MOL1         0.0729
      15    H8      21.014740   20.073022   21.794798 H          1 MOL1         0.0729
      16    C6      20.512245   20.776282   23.792914 C.3        1 MOL1        -0.2899
      17    H9      19.451990   20.947776   23.568501 H          1 MOL1         0.0741
      18    H10     20.595345   20.446357   24.836588 H          1 MOL1         0.0741
      19    H11     21.031988   21.738526   23.699380 H          1 MOL1         0.0741
@<TRIPOS>BOND
    1     1     2    1
    2     1     3    2
    3     1     4    1
    4     4     5    1
    5     4     6    1
    6     4     7    1
    7     7     8    1
    8     7     9    1
    9     7    10    1
   10    10    11    1
   11    10    12    1
   12    10    13    1
   13    13    14    1
   14    13    15    1
   15    13    16    1
   16    16    17    1
   17    16    18    1
   18    16    19    1
@<TRIPOS>SUBSTRUCTURE
       1 MOL1            1 RESIDUE      1      MOL     
@<SCITEGIC>MOL_PROPERTY
VConf Rank
SciTegic.value.IntegerValue
547

@<SCITEGIC>MOL_PROPERTY
Conf_Id
SciTegic.value.IntegerValue
56

@<SCITEGIC>MOL_PROPERTY
Delta U+W
SciTegic.value.DoubleValue
1.735

@<SCITEGIC>MOL_PROPERTY
U+W
SciTegic.value.DoubleValue
-53.156

@<SCITEGIC>MOL_PROPERTY
Grad RMS
SciTegic.value.DoubleValue
0.000000

@<SCITEGIC>MOL_PROPERTY
U
SciTegic.value.DoubleValue
10.214

@<SCITEGIC>MOL_PROPERTY
W
SciTegic.value.DoubleValue
-63.370

@<SCITEGIC>MOL_PROPERTY
W(PB)
SciTegic.value.DoubleValue
-65.388

@<SCITEGIC>MOL_PROPERTY
W(SA)
SciTegic.value.DoubleValue
2.018

@<SCITEGIC>MOL_PROPERTY
Valence
SciTegic.value.DoubleValue
7.868

@<SCITEGIC>MOL_PROPERTY
Coulomb
SciTegic.value.DoubleValue
1.968

@<SCITEGIC>MOL_PROPERTY
VdW
SciTegic.value.DoubleValue
0.378

@<SCITEGIC>MOL_PROPERTY
VdW6
SciTegic.value.DoubleValue
-8.067

@<SCITEGIC>MOL_PROPERTY
VdW12
SciTegic.value.DoubleValue
8.445

@<SCITEGIC>MOL_PROPERTY
Bond
SciTegic.value.DoubleValue
0.191

@<SCITEGIC>MOL_PROPERTY
Angle
SciTegic.value.DoubleValue
3.117

@<SCITEGIC>MOL_PROPERTY
Pdih
SciTegic.value.DoubleValue
4.559

@<SCITEGIC>MOL_PROPERTY
Idih
SciTegic.value.DoubleValue
0.001

@<SCITEGIC>MOL_PROPERTY
Tether
SciTegic.value.DoubleValue
0.000

@<TRIPOS>MOLECULE
guest-7_confgen4.mol2 : confsearch ligand conformer 548
          19          18           1
SMALL
USER_CHARGES
 
@<TRIPOS>ATOM
       1    C1      20.511672   17.597610   24.831724 C.2        1 MOL1         0.6115
       2    O1      21.387792   17.957526   25.592801 O.co2      1 MOL1        -0.6776
       3    O2      19.918246   16.542939   24.940763 O.co2      1 MOL1        -0.6776
       4    C2      20.152523   18.509519   23.663962 C.3        1 MOL1        -0.2013
       5    H1      20.314593   19.547326   23.978714 H          1 MOL1         0.0727
       6    H2      19.081865   18.387701   23.465565 H          1 MOL1         0.0727
       7    C3      20.974368   18.202135   22.386832 C.3        1 MOL1        -0.1910
       8    H3      22.041275   18.191722   22.649511 H          1 MOL1         0.0729
       9    H4      20.734038   17.188537   22.037467 H          1 MOL1         0.0729
      10    C4      20.763409   19.213700   21.232394 C.3        1 MOL1        -0.1909
      11    H5      21.433082   18.922278   20.411673 H          1 MOL1         0.0729
      12    H6      21.091105   20.215118   21.543485 H          1 MOL1         0.0729
      13    C5      19.318296   19.270468   20.677839 C.3        1 MOL1        -0.1884
      14    H7      19.365460   19.441939   19.593536 H          1 MOL1         0.0729
      15    H8      18.819955   18.300448   20.812089 H          1 MOL1         0.0729
      16    C6      18.469296   20.400230   21.301992 C.3        1 MOL1        -0.2899
      17    H9      17.462529   20.409514   20.864717 H          1 MOL1         0.0741
      18    H10     18.361652   20.280069   22.385779 H          1 MOL1         0.0741
      19    H11     18.925668   21.380720   21.113592 H          1 MOL1         0.0741
@<TRIPOS>BOND
    1     1     2    1
    2     1     3    2
    3     1     4    1
    4     4     5    1
    5     4     6    1
    6     4     7    1
    7     7     8    1
    8     7     9    1
    9     7    10    1
   10    10    11    1
   11    10    12    1
   12    10    13    1
   13    13    14    1
   14    13    15    1
   15    13    16    1
   16    16    17    1
   17    16    18    1
   18    16    19    1
@<TRIPOS>SUBSTRUCTURE
       1 MOL1            1 RESIDUE      1      MOL     
@<SCITEGIC>MOL_PROPERTY
VConf Rank
SciTegic.value.IntegerValue
548

@<SCITEGIC>MOL_PROPERTY
Conf_Id
SciTegic.value.IntegerValue
53

@<SCITEGIC>MOL_PROPERTY
Delta U+W
SciTegic.value.DoubleValue
2.279

@<SCITEGIC>MOL_PROPERTY
U+W
SciTegic.value.DoubleValue
-52.612

@<SCITEGIC>MOL_PROPERTY
Grad RMS
SciTegic.value.DoubleValue
0.000000

@<SCITEGIC>MOL_PROPERTY
U
SciTegic.value.DoubleValue
10.231

@<SCITEGIC>MOL_PROPERTY
W
SciTegic.value.DoubleValue
-62.843

@<SCITEGIC>MOL_PROPERTY
W(PB)
SciTegic.value.DoubleValue
-64.893

@<SCITEGIC>MOL_PROPERTY
W(SA)
SciTegic.value.DoubleValue
2.050

@<SCITEGIC>MOL_PROPERTY
Valence
SciTegic.value.DoubleValue
9.644

@<SCITEGIC>MOL_PROPERTY
Coulomb
SciTegic.value.DoubleValue
-0.164

@<SCITEGIC>MOL_PROPERTY
VdW
SciTegic.value.DoubleValue
0.751

@<SCITEGIC>MOL_PROPERTY
VdW6
SciTegic.value.DoubleValue
-6.881

@<SCITEGIC>MOL_PROPERTY
VdW12
SciTegic.value.DoubleValue
7.631

@<SCITEGIC>MOL_PROPERTY
Bond
SciTegic.value.DoubleValue
0.163

@<SCITEGIC>MOL_PROPERTY
Angle
SciTegic.value.DoubleValue
2.998

@<SCITEGIC>MOL_PROPERTY
Pdih
SciTegic.value.DoubleValue
6.482

@<SCITEGIC>MOL_PROPERTY
Idih
SciTegic.value.DoubleValue
0.001

@<SCITEGIC>MOL_PROPERTY
Tether
SciTegic.value.DoubleValue
0.000

@<TRIPOS>MOLECULE
guest-7_confgen4.mol2 : confsearch ligand conformer 549
          19          18           1
SMALL
USER_CHARGES
 
@<TRIPOS>ATOM
       1    C1      22.480028   18.838956   23.200397 C.2        1 MOL1         0.6115
       2    O1      23.088749   19.113348   22.185004 O.co2      1 MOL1        -0.6776
       3    O2      22.661644   17.818282   23.834815 O.co2      1 MOL1        -0.6776
       4    C2      21.486005   19.863837   23.743553 C.3        1 MOL1        -0.2013
       5    H1      21.484621   20.742325   23.086910 H          1 MOL1         0.0727
       6    H2      21.882564   20.195712   24.710105 H          1 MOL1         0.0727
       7    C3      20.036000   19.340427   23.945179 C.3        1 MOL1        -0.1910
       8    H3      20.057794   18.351883   24.424605 H          1 MOL1         0.0729
       9    H4      19.530161   20.009002   24.654793 H          1 MOL1         0.0729
      10    C4      19.179569   19.286738   22.655869 C.3        1 MOL1        -0.1909
      11    H5      19.156102   20.279375   22.185809 H          1 MOL1         0.0729
      12    H6      18.144219   19.056528   22.942334 H          1 MOL1         0.0729
      13    C5      19.654215   18.236524   21.627601 C.3        1 MOL1        -0.1884
      14    H7      20.636037   18.518785   21.226650 H          1 MOL1         0.0729
      15    H8      19.775924   17.261728   22.119899 H          1 MOL1         0.0729
      16    C6      18.659236   18.100998   20.457352 C.3        1 MOL1        -0.2899
      17    H9      18.539382   19.057447   19.931806 H          1 MOL1         0.0741
      18    H10     19.015079   17.357845   19.731994 H          1 MOL1         0.0741
      19    H11     17.672267   17.779617   20.815019 H          1 MOL1         0.0741
@<TRIPOS>BOND
    1     1     2    1
    2     1     3    2
    3     1     4    1
    4     4     5    1
    5     4     6    1
    6     4     7    1
    7     7     8    1
    8     7     9    1
    9     7    10    1
   10    10    11    1
   11    10    12    1
   12    10    13    1
   13    13    14    1
   14    13    15    1
   15    13    16    1
   16    16    17    1
   17    16    18    1
   18    16    19    1
@<TRIPOS>SUBSTRUCTURE
       1 MOL1            1 RESIDUE      1      MOL     
@<SCITEGIC>MOL_PROPERTY
VConf Rank
SciTegic.value.IntegerValue
549

@<SCITEGIC>MOL_PROPERTY
Conf_Id
SciTegic.value.IntegerValue
25

@<SCITEGIC>MOL_PROPERTY
Delta U+W
SciTegic.value.DoubleValue
2.065

@<SCITEGIC>MOL_PROPERTY
U+W
SciTegic.value.DoubleValue
-52.826

@<SCITEGIC>MOL_PROPERTY
Grad RMS
SciTegic.value.DoubleValue
0.000000

@<SCITEGIC>MOL_PROPERTY
U
SciTegic.value.DoubleValue
10.967

@<SCITEGIC>MOL_PROPERTY
W
SciTegic.value.DoubleValue
-63.794

@<SCITEGIC>MOL_PROPERTY
W(PB)
SciTegic.value.DoubleValue
-65.830

@<SCITEGIC>MOL_PROPERTY
W(SA)
SciTegic.value.DoubleValue
2.036

@<SCITEGIC>MOL_PROPERTY
Valence
SciTegic.value.DoubleValue
8.609

@<SCITEGIC>MOL_PROPERTY
Coulomb
SciTegic.value.DoubleValue
1.892

@<SCITEGIC>MOL_PROPERTY
VdW
SciTegic.value.DoubleValue
0.467

@<SCITEGIC>MOL_PROPERTY
VdW6
SciTegic.value.DoubleValue
-7.569

@<SCITEGIC>MOL_PROPERTY
VdW12
SciTegic.value.DoubleValue
8.036

@<SCITEGIC>MOL_PROPERTY
Bond
SciTegic.value.DoubleValue
0.170

@<SCITEGIC>MOL_PROPERTY
Angle
SciTegic.value.DoubleValue
3.195

@<SCITEGIC>MOL_PROPERTY
Pdih
SciTegic.value.DoubleValue
5.237

@<SCITEGIC>MOL_PROPERTY
Idih
SciTegic.value.DoubleValue
0.007

@<SCITEGIC>MOL_PROPERTY
Tether
SciTegic.value.DoubleValue
0.000

@<TRIPOS>MOLECULE
guest-7_confgen4.mol2 : confsearch ligand conformer 550
          19          18           1
SMALL
USER_CHARGES
 
@<TRIPOS>ATOM
       1    C1      18.493507   17.597346   21.214118 C.2        1 MOL1         0.6115
       2    O1      17.633962   18.364387   20.826718 O.co2      1 MOL1        -0.6776
       3    O2      18.262568   16.631533   21.914635 O.co2      1 MOL1        -0.6776
       4    C2      19.928921   17.816487   20.739726 C.3        1 MOL1        -0.2013
       5    H1      19.914350   17.701276   19.649708 H          1 MOL1         0.0727
       6    H2      20.561230   17.010615   21.131746 H          1 MOL1         0.0727
       7    C3      20.541092   19.201178   21.093287 C.3        1 MOL1        -0.1910
       8    H3      21.385235   19.381699   20.414132 H          1 MOL1         0.0729
       9    H4      19.811885   19.996918   20.886892 H          1 MOL1         0.0729
      10    C4      21.068287   19.327046   22.544114 C.3        1 MOL1        -0.1909
      11    H5      21.612210   20.277801   22.629098 H          1 MOL1         0.0729
      12    H6      21.801790   18.533361   22.741281 H          1 MOL1         0.0729
      13    C5      19.962267   19.291077   23.621612 C.3        1 MOL1        -0.1884
      14    H7      19.174969   20.015676   23.371584 H          1 MOL1         0.0729
      15    H8      19.491215   18.300134   23.645034 H          1 MOL1         0.0729
      16    C6      20.526199   19.607025   25.021609 C.3        1 MOL1        -0.2899
      17    H9      19.729934   19.568990   25.776301 H          1 MOL1         0.0741
      18    H10     21.298350   18.880389   25.306463 H          1 MOL1         0.0741
      19    H11     20.971573   20.610113   25.049413 H          1 MOL1         0.0741
@<TRIPOS>BOND
    1     1     2    1
    2     1     3    2
    3     1     4    1
    4     4     5    1
    5     4     6    1
    6     4     7    1
    7     7     8    1
    8     7     9    1
    9     7    10    1
   10    10    11    1
   11    10    12    1
   12    10    13    1
   13    13    14    1
   14    13    15    1
   15    13    16    1
   16    16    17    1
   17    16    18    1
   18    16    19    1
@<TRIPOS>SUBSTRUCTURE
       1 MOL1            1 RESIDUE      1      MOL     
@<SCITEGIC>MOL_PROPERTY
VConf Rank
SciTegic.value.IntegerValue
550

@<SCITEGIC>MOL_PROPERTY
Conf_Id
SciTegic.value.IntegerValue
52

@<SCITEGIC>MOL_PROPERTY
Delta U+W
SciTegic.value.DoubleValue
2.070

@<SCITEGIC>MOL_PROPERTY
U+W
SciTegic.value.DoubleValue
-52.822

@<SCITEGIC>MOL_PROPERTY
Grad RMS
SciTegic.value.DoubleValue
0.000000

@<SCITEGIC>MOL_PROPERTY
U
SciTegic.value.DoubleValue
10.967

@<SCITEGIC>MOL_PROPERTY
W
SciTegic.value.DoubleValue
-63.789

@<SCITEGIC>MOL_PROPERTY
W(PB)
SciTegic.value.DoubleValue
-65.837

@<SCITEGIC>MOL_PROPERTY
W(SA)
SciTegic.value.DoubleValue
2.048

@<SCITEGIC>MOL_PROPERTY
Valence
SciTegic.value.DoubleValue
8.609

@<SCITEGIC>MOL_PROPERTY
Coulomb
SciTegic.value.DoubleValue
1.892

@<SCITEGIC>MOL_PROPERTY
VdW
SciTegic.value.DoubleValue
0.467

@<SCITEGIC>MOL_PROPERTY
VdW6
SciTegic.value.DoubleValue
-7.569

@<SCITEGIC>MOL_PROPERTY
VdW12
SciTegic.value.DoubleValue
8.035

@<SCITEGIC>MOL_PROPERTY
Bond
SciTegic.value.DoubleValue
0.170

@<SCITEGIC>MOL_PROPERTY
Angle
SciTegic.value.DoubleValue
3.196

@<SCITEGIC>MOL_PROPERTY
Pdih
SciTegic.value.DoubleValue
5.237

@<SCITEGIC>MOL_PROPERTY
Idih
SciTegic.value.DoubleValue
0.007

@<SCITEGIC>MOL_PROPERTY
Tether
SciTegic.value.DoubleValue
0.000

@<TRIPOS>MOLECULE
guest-7_confgen4.mol2 : confsearch ligand conformer 551
          19          18           1
SMALL
USER_CHARGES
 
@<TRIPOS>ATOM
       1    C1      20.511995   20.840861   23.170671 C.2        1 MOL1         0.6115
       2    O1      20.057431   21.635111   22.370262 O.co2      1 MOL1        -0.6776
       3    O2      20.393349   20.967053   24.373458 O.co2      1 MOL1        -0.6776
       4    C2      21.383149   19.694776   22.653987 C.3        1 MOL1        -0.2013
       5    H1      21.580301   18.996822   23.476501 H          1 MOL1         0.0727
       6    H2      22.346972   20.143599   22.387757 H          1 MOL1         0.0727
       7    C3      20.828674   18.927627   21.419722 C.3        1 MOL1        -0.1910
       8    H3      20.386692   19.635529   20.705015 H          1 MOL1         0.0729
       9    H4      21.679464   18.470060   20.897088 H          1 MOL1         0.0729
      10    C4      19.816043   17.798017   21.738687 C.3        1 MOL1        -0.1909
      11    H5      20.290582   17.036775   22.373006 H          1 MOL1         0.0729
      12    H6      19.580641   17.290127   20.793383 H          1 MOL1         0.0729
      13    C5      18.485219   18.271824   22.371461 C.3        1 MOL1        -0.1884
      14    H7      18.303520   19.329824   22.136992 H          1 MOL1         0.0729
      15    H8      17.656755   17.712757   21.915127 H          1 MOL1         0.0729
      16    C6      18.434827   18.043943   23.897453 C.3        1 MOL1        -0.2899
      17    H9      18.515726   16.975649   24.136493 H          1 MOL1         0.0741
      18    H10     19.250431   18.568038   24.409161 H          1 MOL1         0.0741
      19    H11     17.486960   18.411836   24.310758 H          1 MOL1         0.0741
@<TRIPOS>BOND
    1     1     2    1
    2     1     3    2
    3     1     4    1
    4     4     5    1
    5     4     6    1
    6     4     7    1
    7     7     8    1
    8     7     9    1
    9     7    10    1
   10    10    11    1
   11    10    12    1
   12    10    13    1
   13    13    14    1
   14    13    15    1
   15    13    16    1
   16    16    17    1
   17    16    18    1
   18    16    19    1
@<TRIPOS>SUBSTRUCTURE
       1 MOL1            1 RESIDUE      1      MOL     
@<SCITEGIC>MOL_PROPERTY
VConf Rank
SciTegic.value.IntegerValue
551

@<SCITEGIC>MOL_PROPERTY
Conf_Id
SciTegic.value.IntegerValue
66

@<SCITEGIC>MOL_PROPERTY
Delta U+W
SciTegic.value.DoubleValue
5.819

@<SCITEGIC>MOL_PROPERTY
U+W
SciTegic.value.DoubleValue
-49.072

@<SCITEGIC>MOL_PROPERTY
Grad RMS
SciTegic.value.DoubleValue
0.000000

@<SCITEGIC>MOL_PROPERTY
U
SciTegic.value.DoubleValue
15.324

@<SCITEGIC>MOL_PROPERTY
W
SciTegic.value.DoubleValue
-64.396

@<SCITEGIC>MOL_PROPERTY
W(PB)
SciTegic.value.DoubleValue
-66.382

@<SCITEGIC>MOL_PROPERTY
W(SA)
SciTegic.value.DoubleValue
1.986

@<SCITEGIC>MOL_PROPERTY
Valence
SciTegic.value.DoubleValue
11.748

@<SCITEGIC>MOL_PROPERTY
Coulomb
SciTegic.value.DoubleValue
3.201

@<SCITEGIC>MOL_PROPERTY
VdW
SciTegic.value.DoubleValue
0.375

@<SCITEGIC>MOL_PROPERTY
VdW6
SciTegic.value.DoubleValue
-8.854

@<SCITEGIC>MOL_PROPERTY
VdW12
SciTegic.value.DoubleValue
9.229

@<SCITEGIC>MOL_PROPERTY
Bond
SciTegic.value.DoubleValue
0.216

@<SCITEGIC>MOL_PROPERTY
Angle
SciTegic.value.DoubleValue
3.812

@<SCITEGIC>MOL_PROPERTY
Pdih
SciTegic.value.DoubleValue
7.699

@<SCITEGIC>MOL_PROPERTY
Idih
SciTegic.value.DoubleValue
0.022

@<SCITEGIC>MOL_PROPERTY
Tether
SciTegic.value.DoubleValue
0.000

@<TRIPOS>MOLECULE
guest-7_confgen4.mol2 : confsearch ligand conformer 552
          19          18           1
SMALL
USER_CHARGES
 
@<TRIPOS>ATOM
       1    C1      21.694596   16.783679   24.188943 C.2        1 MOL1         0.6115
       2    O1      21.680403   16.341628   25.320337 O.co2      1 MOL1        -0.6776
       3    O2      22.535793   16.475865   23.366883 O.co2      1 MOL1        -0.6776
       4    C2      20.589596   17.771689   23.811470 C.3        1 MOL1        -0.2013
       5    H1      20.643900   18.608656   24.517577 H          1 MOL1         0.0727
       6    H2      19.629827   17.269872   23.981980 H          1 MOL1         0.0727
       7    C3      20.648949   18.308739   22.356655 C.3        1 MOL1        -0.1910
       8    H3      21.615105   18.805157   22.190585 H          1 MOL1         0.0729
       9    H4      20.600024   17.464964   21.654431 H          1 MOL1         0.0729
      10    C4      19.499690   19.297033   22.062138 C.3        1 MOL1        -0.1909
      11    H5      19.550402   20.139651   22.765397 H          1 MOL1         0.0729
      12    H6      18.534781   18.798746   22.228904 H          1 MOL1         0.0729
      13    C5      19.560564   19.829744   20.615450 C.3        1 MOL1        -0.1884
      14    H7      20.523698   20.330623   20.445197 H          1 MOL1         0.0729
      15    H8      19.508078   18.989897   19.908770 H          1 MOL1         0.0729
      16    C6      18.411828   20.816159   20.324965 C.3        1 MOL1        -0.2899
      17    H9      18.458673   21.682693   20.997532 H          1 MOL1         0.0741
      18    H10     18.470359   21.184853   19.292615 H          1 MOL1         0.0741
      19    H11     17.435390   20.331873   20.457084 H          1 MOL1         0.0741
@<TRIPOS>BOND
    1     1     2    1
    2     1     3    2
    3     1     4    1
    4     4     5    1
    5     4     6    1
    6     4     7    1
    7     7     8    1
    8     7     9    1
    9     7    10    1
   10    10    11    1
   11    10    12    1
   12    10    13    1
   13    13    14    1
   14    13    15    1
   15    13    16    1
   16    16    17    1
   17    16    18    1
   18    16    19    1
@<TRIPOS>SUBSTRUCTURE
       1 MOL1            1 RESIDUE      1      MOL     
@<SCITEGIC>MOL_PROPERTY
VConf Rank
SciTegic.value.IntegerValue
552

@<SCITEGIC>MOL_PROPERTY
Conf_Id
SciTegic.value.IntegerValue
0

@<SCITEGIC>MOL_PROPERTY
Delta U+W
SciTegic.value.DoubleValue
0.000

@<SCITEGIC>MOL_PROPERTY
U+W
SciTegic.value.DoubleValue
-54.891

@<SCITEGIC>MOL_PROPERTY
Grad RMS
SciTegic.value.DoubleValue
0.000000

@<SCITEGIC>MOL_PROPERTY
U
SciTegic.value.DoubleValue
6.966

@<SCITEGIC>MOL_PROPERTY
W
SciTegic.value.DoubleValue
-61.857

@<SCITEGIC>MOL_PROPERTY
W(PB)
SciTegic.value.DoubleValue
-63.965

@<SCITEGIC>MOL_PROPERTY
W(SA)
SciTegic.value.DoubleValue
2.108

@<SCITEGIC>MOL_PROPERTY
Valence
SciTegic.value.DoubleValue
7.175

@<SCITEGIC>MOL_PROPERTY
Coulomb
SciTegic.value.DoubleValue
-1.360

@<SCITEGIC>MOL_PROPERTY
VdW
SciTegic.value.DoubleValue
1.151

@<SCITEGIC>MOL_PROPERTY
VdW6
SciTegic.value.DoubleValue
-5.641

@<SCITEGIC>MOL_PROPERTY
VdW12
SciTegic.value.DoubleValue
6.792

@<SCITEGIC>MOL_PROPERTY
Bond
SciTegic.value.DoubleValue
0.119

@<SCITEGIC>MOL_PROPERTY
Angle
SciTegic.value.DoubleValue
2.715

@<SCITEGIC>MOL_PROPERTY
Pdih
SciTegic.value.DoubleValue
4.340

@<SCITEGIC>MOL_PROPERTY
Idih
SciTegic.value.DoubleValue
0.000

@<SCITEGIC>MOL_PROPERTY
Tether
SciTegic.value.DoubleValue
0.000

@<TRIPOS>MOLECULE
guest-7_confgen4.mol2 : confsearch ligand conformer 553
          19          18           1
SMALL
USER_CHARGES
 
@<TRIPOS>ATOM
       1    C1      21.411700   16.344036   20.530737 C.2        1 MOL1         0.6115
       2    O1      22.225952   16.664210   19.687729 O.co2      1 MOL1        -0.6776
       3    O2      21.473664   15.311275   21.167720 O.co2      1 MOL1        -0.6776
       4    C2      20.260096   17.300438   20.819656 C.3        1 MOL1        -0.2013
       5    H1      19.385727   16.704162   21.107190 H          1 MOL1         0.0727
       6    H2      20.006048   17.819531   19.887591 H          1 MOL1         0.0727
       7    C3      20.594410   18.327713   21.929184 C.3        1 MOL1        -0.1910
       8    H3      20.858763   17.792274   22.851666 H          1 MOL1         0.0729
       9    H4      21.479261   18.907623   21.632043 H          1 MOL1         0.0729
      10    C4      19.413114   19.283530   22.202280 C.3        1 MOL1        -0.1909
      11    H5      18.529791   18.700748   22.497740 H          1 MOL1         0.0729
      12    H6      19.150451   19.816327   21.277982 H          1 MOL1         0.0729
      13    C5      19.748955   20.305715   23.308047 C.3        1 MOL1        -0.1884
      14    H7      20.010430   19.776566   24.234937 H          1 MOL1         0.0729
      15    H8      20.630964   20.892091   23.015273 H          1 MOL1         0.0729
      16    C6      18.567257   21.258387   23.578164 C.3        1 MOL1        -0.2899
      17    H9      18.823069   21.978110   24.366622 H          1 MOL1         0.0741
      18    H10     18.304599   21.824383   22.674791 H          1 MOL1         0.0741
      19    H11     17.679405   20.700481   23.903560 H          1 MOL1         0.0741
@<TRIPOS>BOND
    1     1     2    1
    2     1     3    2
    3     1     4    1
    4     4     5    1
    5     4     6    1
    6     4     7    1
    7     7     8    1
    8     7     9    1
    9     7    10    1
   10    10    11    1
   11    10    12    1
   12    10    13    1
   13    13    14    1
   14    13    15    1
   15    13    16    1
   16    16    17    1
   17    16    18    1
   18    16    19    1
@<TRIPOS>SUBSTRUCTURE
       1 MOL1            1 RESIDUE      1      MOL     
@<SCITEGIC>MOL_PROPERTY
VConf Rank
SciTegic.value.IntegerValue
553

@<SCITEGIC>MOL_PROPERTY
Conf_Id
SciTegic.value.IntegerValue
18

@<SCITEGIC>MOL_PROPERTY
Delta U+W
SciTegic.value.DoubleValue
-1.199

@<SCITEGIC>MOL_PROPERTY
U+W
SciTegic.value.DoubleValue
-56.090

@<SCITEGIC>MOL_PROPERTY
Grad RMS
SciTegic.value.DoubleValue
0.000000

@<SCITEGIC>MOL_PROPERTY
U
SciTegic.value.DoubleValue
5.975

@<SCITEGIC>MOL_PROPERTY
W
SciTegic.value.DoubleValue
-62.066

@<SCITEGIC>MOL_PROPERTY
W(PB)
SciTegic.value.DoubleValue
-64.219

@<SCITEGIC>MOL_PROPERTY
W(SA)
SciTegic.value.DoubleValue
2.153

@<SCITEGIC>MOL_PROPERTY
Valence
SciTegic.value.DoubleValue
6.673

@<SCITEGIC>MOL_PROPERTY
Coulomb
SciTegic.value.DoubleValue
-1.307

@<SCITEGIC>MOL_PROPERTY
VdW
SciTegic.value.DoubleValue
0.610

@<SCITEGIC>MOL_PROPERTY
VdW6
SciTegic.value.DoubleValue
-5.351

@<SCITEGIC>MOL_PROPERTY
VdW12
SciTegic.value.DoubleValue
5.961

@<SCITEGIC>MOL_PROPERTY
Bond
SciTegic.value.DoubleValue
0.086

@<SCITEGIC>MOL_PROPERTY
Angle
SciTegic.value.DoubleValue
2.253

@<SCITEGIC>MOL_PROPERTY
Pdih
SciTegic.value.DoubleValue
4.333

@<SCITEGIC>MOL_PROPERTY
Idih
SciTegic.value.DoubleValue
0.001

@<SCITEGIC>MOL_PROPERTY
Tether
SciTegic.value.DoubleValue
0.000

@<TRIPOS>MOLECULE
guest-7_confgen4.mol2 : confsearch ligand conformer 554
          19          18           1
SMALL
USER_CHARGES
 
@<TRIPOS>ATOM
       1    C1      20.336733   20.678909   19.518432 C.2        1 MOL1         0.6115
       2    O1      20.520045   20.200904   18.416526 O.co2      1 MOL1        -0.6776
       3    O2      19.952163   21.816717   19.702173 O.co2      1 MOL1        -0.6776
       4    C2      20.582347   19.795670   20.736596 C.3        1 MOL1        -0.2013
       5    H1      20.939981   20.439206   21.548262 H          1 MOL1         0.0727
       6    H2      21.392491   19.097858   20.493212 H          1 MOL1         0.0727
       7    C3      19.317137   19.013771   21.175979 C.3        1 MOL1        -0.1910
       8    H3      18.527440   19.723150   21.459654 H          1 MOL1         0.0729
       9    H4      18.933429   18.451146   20.313631 H          1 MOL1         0.0729
      10    C4      19.574233   18.025246   22.337983 C.3        1 MOL1        -0.1909
      11    H5      20.358144   17.312198   22.048064 H          1 MOL1         0.0729
      12    H6      18.662271   17.434865   22.501655 H          1 MOL1         0.0729
      13    C5      19.966158   18.720736   23.660934 C.3        1 MOL1        -0.1884
      14    H7      20.917253   19.255729   23.540264 H          1 MOL1         0.0729
      15    H8      19.207316   19.470319   23.924660 H          1 MOL1         0.0729
      16    C6      20.104954   17.705682   24.813180 C.3        1 MOL1        -0.2899
      17    H9      20.386310   18.214051   25.744571 H          1 MOL1         0.0741
      18    H10     19.158482   17.177529   24.988200 H          1 MOL1         0.0741
      19    H11     20.877760   16.959172   24.587575 H          1 MOL1         0.0741
@<TRIPOS>BOND
    1     1     2    1
    2     1     3    2
    3     1     4    1
    4     4     5    1
    5     4     6    1
    6     4     7    1
    7     7     8    1
    8     7     9    1
    9     7    10    1
   10    10    11    1
   11    10    12    1
   12    10    13    1
   13    13    14    1
   14    13    15    1
   15    13    16    1
   16    16    17    1
   17    16    18    1
   18    16    19    1
@<TRIPOS>SUBSTRUCTURE
       1 MOL1            1 RESIDUE      1      MOL     
@<SCITEGIC>MOL_PROPERTY
VConf Rank
SciTegic.value.IntegerValue
554

@<SCITEGIC>MOL_PROPERTY
Conf_Id
SciTegic.value.IntegerValue
34

@<SCITEGIC>MOL_PROPERTY
Delta U+W
SciTegic.value.DoubleValue
-0.563

@<SCITEGIC>MOL_PROPERTY
U+W
SciTegic.value.DoubleValue
-55.455

@<SCITEGIC>MOL_PROPERTY
Grad RMS
SciTegic.value.DoubleValue
0.000000

@<SCITEGIC>MOL_PROPERTY
U
SciTegic.value.DoubleValue
6.914

@<SCITEGIC>MOL_PROPERTY
W
SciTegic.value.DoubleValue
-62.369

@<SCITEGIC>MOL_PROPERTY
W(PB)
SciTegic.value.DoubleValue
-64.446

@<SCITEGIC>MOL_PROPERTY
W(SA)
SciTegic.value.DoubleValue
2.077

@<SCITEGIC>MOL_PROPERTY
Valence
SciTegic.value.DoubleValue
7.196

@<SCITEGIC>MOL_PROPERTY
Coulomb
SciTegic.value.DoubleValue
-1.020

@<SCITEGIC>MOL_PROPERTY
VdW
SciTegic.value.DoubleValue
0.738

@<SCITEGIC>MOL_PROPERTY
VdW6
SciTegic.value.DoubleValue
-6.010

@<SCITEGIC>MOL_PROPERTY
VdW12
SciTegic.value.DoubleValue
6.748

@<SCITEGIC>MOL_PROPERTY
Bond
SciTegic.value.DoubleValue
0.126

@<SCITEGIC>MOL_PROPERTY
Angle
SciTegic.value.DoubleValue
2.499

@<SCITEGIC>MOL_PROPERTY
Pdih
SciTegic.value.DoubleValue
4.570

@<SCITEGIC>MOL_PROPERTY
Idih
SciTegic.value.DoubleValue
0.001

@<SCITEGIC>MOL_PROPERTY
Tether
SciTegic.value.DoubleValue
0.000

@<TRIPOS>MOLECULE
guest-7_confgen4.mol2 : confsearch ligand conformer 555
          19          18           1
SMALL
USER_CHARGES
 
@<TRIPOS>ATOM
       1    C1      22.608654   19.670274   20.503561 C.2        1 MOL1         0.6115
       2    O1      22.617356   19.819965   19.297822 O.co2      1 MOL1        -0.6776
       3    O2      23.608937   19.469012   21.163251 O.co2      1 MOL1        -0.6776
       4    C2      21.266474   19.715615   21.225265 C.3        1 MOL1        -0.2013
       5    H1      20.612574   20.410200   20.684453 H          1 MOL1         0.0727
       6    H2      21.437815   20.138773   22.221470 H          1 MOL1         0.0727
       7    C3      20.594739   18.321822   21.331531 C.3        1 MOL1        -0.1910
       8    H3      20.521363   17.888316   20.324500 H          1 MOL1         0.0729
       9    H4      21.238482   17.647610   21.913204 H          1 MOL1         0.0729
      10    C4      19.180464   18.363650   21.957310 C.3        1 MOL1        -0.1909
      11    H5      18.737043   17.361143   21.884019 H          1 MOL1         0.0729
      12    H6      18.537039   19.031810   21.368604 H          1 MOL1         0.0729
      13    C5      19.176400   18.807367   23.437382 C.3        1 MOL1        -0.1884
      14    H7      19.859329   18.171065   24.017034 H          1 MOL1         0.0729
      15    H8      19.545734   19.837557   23.524931 H          1 MOL1         0.0729
      16    C6      17.762319   18.728564   24.046831 C.3        1 MOL1        -0.2899
      17    H9      17.063704   19.377504   23.502570 H          1 MOL1         0.0741
      18    H10     17.375371   17.701728   24.011236 H          1 MOL1         0.0741
      19    H11     17.775249   19.049365   25.096597 H          1 MOL1         0.0741
@<TRIPOS>BOND
    1     1     2    1
    2     1     3    2
    3     1     4    1
    4     4     5    1
    5     4     6    1
    6     4     7    1
    7     7     8    1
    8     7     9    1
    9     7    10    1
   10    10    11    1
   11    10    12    1
   12    10    13    1
   13    13    14    1
   14    13    15    1
   15    13    16    1
   16    16    17    1
   17    16    18    1
   18    16    19    1
@<TRIPOS>SUBSTRUCTURE
       1 MOL1            1 RESIDUE      1      MOL     
@<SCITEGIC>MOL_PROPERTY
VConf Rank
SciTegic.value.IntegerValue
555

@<SCITEGIC>MOL_PROPERTY
Conf_Id
SciTegic.value.IntegerValue
33

@<SCITEGIC>MOL_PROPERTY
Delta U+W
SciTegic.value.DoubleValue
-0.526

@<SCITEGIC>MOL_PROPERTY
U+W
SciTegic.value.DoubleValue
-55.418

@<SCITEGIC>MOL_PROPERTY
Grad RMS
SciTegic.value.DoubleValue
0.000000

@<SCITEGIC>MOL_PROPERTY
U
SciTegic.value.DoubleValue
6.914

@<SCITEGIC>MOL_PROPERTY
W
SciTegic.value.DoubleValue
-62.332

@<SCITEGIC>MOL_PROPERTY
W(PB)
SciTegic.value.DoubleValue
-64.421

@<SCITEGIC>MOL_PROPERTY
W(SA)
SciTegic.value.DoubleValue
2.090

@<SCITEGIC>MOL_PROPERTY
Valence
SciTegic.value.DoubleValue
7.196

@<SCITEGIC>MOL_PROPERTY
Coulomb
SciTegic.value.DoubleValue
-1.020

@<SCITEGIC>MOL_PROPERTY
VdW
SciTegic.value.DoubleValue
0.738

@<SCITEGIC>MOL_PROPERTY
VdW6
SciTegic.value.DoubleValue
-6.010

@<SCITEGIC>MOL_PROPERTY
VdW12
SciTegic.value.DoubleValue
6.748

@<SCITEGIC>MOL_PROPERTY
Bond
SciTegic.value.DoubleValue
0.126

@<SCITEGIC>MOL_PROPERTY
Angle
SciTegic.value.DoubleValue
2.499

@<SCITEGIC>MOL_PROPERTY
Pdih
SciTegic.value.DoubleValue
4.570

@<SCITEGIC>MOL_PROPERTY
Idih
SciTegic.value.DoubleValue
0.001

@<SCITEGIC>MOL_PROPERTY
Tether
SciTegic.value.DoubleValue
0.000

@<TRIPOS>MOLECULE
guest-7_confgen4.mol2 : confsearch ligand conformer 556
          19          18           1
SMALL
USER_CHARGES
 
@<TRIPOS>ATOM
       1    C1      21.635674   18.838082   19.583503 C.2        1 MOL1         0.6115
       2    O1      21.695501   17.693090   19.181465 O.co2      1 MOL1        -0.6776
       3    O2      21.595697   19.806747   18.851154 O.co2      1 MOL1        -0.6776
       4    C2      21.590589   19.071425   21.089497 C.3        1 MOL1        -0.2013
       5    H1      22.097421   20.020358   21.302396 H          1 MOL1         0.0727
       6    H2      22.171053   18.277729   21.575126 H          1 MOL1         0.0727
       7    C3      20.147870   19.097604   21.651918 C.3        1 MOL1        -0.1910
       8    H3      19.577013   19.890625   21.149445 H          1 MOL1         0.0729
       9    H4      19.655205   18.146396   21.410869 H          1 MOL1         0.0729
      10    C4      20.132417   19.332116   23.180128 C.3        1 MOL1        -0.1909
      11    H5      20.691345   20.250434   23.406589 H          1 MOL1         0.0729
      12    H6      20.661396   18.512836   23.686061 H          1 MOL1         0.0729
      13    C5      18.707987   19.467395   23.766035 C.3        1 MOL1        -0.1884
      14    H7      18.787709   19.748047   24.825338 H          1 MOL1         0.0729
      15    H8      18.177517   20.289678   23.266257 H          1 MOL1         0.0729
      16    C6      17.876857   18.170801   23.656872 C.3        1 MOL1        -0.2899
      17    H9      18.401286   17.327361   24.124570 H          1 MOL1         0.0741
      18    H10     16.910515   18.290734   24.163567 H          1 MOL1         0.0741
      19    H11     17.672937   17.912356   22.610274 H          1 MOL1         0.0741
@<TRIPOS>BOND
    1     1     2    1
    2     1     3    2
    3     1     4    1
    4     4     5    1
    5     4     6    1
    6     4     7    1
    7     7     8    1
    8     7     9    1
    9     7    10    1
   10    10    11    1
   11    10    12    1
   12    10    13    1
   13    13    14    1
   14    13    15    1
   15    13    16    1
   16    16    17    1
   17    16    18    1
   18    16    19    1
@<TRIPOS>SUBSTRUCTURE
       1 MOL1            1 RESIDUE      1      MOL     
@<SCITEGIC>MOL_PROPERTY
VConf Rank
SciTegic.value.IntegerValue
556

@<SCITEGIC>MOL_PROPERTY
Conf_Id
SciTegic.value.IntegerValue
42

@<SCITEGIC>MOL_PROPERTY
Delta U+W
SciTegic.value.DoubleValue
-0.344

@<SCITEGIC>MOL_PROPERTY
U+W
SciTegic.value.DoubleValue
-55.236

@<SCITEGIC>MOL_PROPERTY
Grad RMS
SciTegic.value.DoubleValue
0.000000

@<SCITEGIC>MOL_PROPERTY
U
SciTegic.value.DoubleValue
7.244

@<SCITEGIC>MOL_PROPERTY
W
SciTegic.value.DoubleValue
-62.479

@<SCITEGIC>MOL_PROPERTY
W(PB)
SciTegic.value.DoubleValue
-64.610

@<SCITEGIC>MOL_PROPERTY
W(SA)
SciTegic.value.DoubleValue
2.130

@<SCITEGIC>MOL_PROPERTY
Valence
SciTegic.value.DoubleValue
7.174

@<SCITEGIC>MOL_PROPERTY
Coulomb
SciTegic.value.DoubleValue
-0.669

@<SCITEGIC>MOL_PROPERTY
VdW
SciTegic.value.DoubleValue
0.739

@<SCITEGIC>MOL_PROPERTY
VdW6
SciTegic.value.DoubleValue
-5.969

@<SCITEGIC>MOL_PROPERTY
VdW12
SciTegic.value.DoubleValue
6.708

@<SCITEGIC>MOL_PROPERTY
Bond
SciTegic.value.DoubleValue
0.116

@<SCITEGIC>MOL_PROPERTY
Angle
SciTegic.value.DoubleValue
2.481

@<SCITEGIC>MOL_PROPERTY
Pdih
SciTegic.value.DoubleValue
4.576

@<SCITEGIC>MOL_PROPERTY
Idih
SciTegic.value.DoubleValue
0.000

@<SCITEGIC>MOL_PROPERTY
Tether
SciTegic.value.DoubleValue
0.000

@<TRIPOS>MOLECULE
guest-7_confgen4.mol2 : confsearch ligand conformer 557
          19          18           1
SMALL
USER_CHARGES
 
@<TRIPOS>ATOM
       1    C1      18.458123   16.972875   20.336489 C.2        1 MOL1         0.6115
       2    O1      17.831356   16.175092   21.005015 O.co2      1 MOL1        -0.6776
       3    O2      18.962875   16.702506   19.264868 O.co2      1 MOL1        -0.6776
       4    C2      18.636575   18.385872   20.880636 C.3        1 MOL1        -0.2013
       5    H1      17.746322   18.639895   21.468556 H          1 MOL1         0.0727
       6    H2      18.671081   19.076686   20.029600 H          1 MOL1         0.0727
       7    C3      19.910526   18.540946   21.747495 C.3        1 MOL1        -0.1910
       8    H3      19.862205   17.827729   22.580926 H          1 MOL1         0.0729
       9    H4      20.791847   18.274215   21.148022 H          1 MOL1         0.0729
      10    C4      20.064122   19.981237   22.288448 C.3        1 MOL1        -0.1909
      11    H5      19.206221   20.230269   22.927976 H          1 MOL1         0.0729
      12    H6      20.038270   20.684631   21.444909 H          1 MOL1         0.0729
      13    C5      21.376796   20.205119   23.074167 C.3        1 MOL1        -0.1884
      14    H7      22.237572   19.962381   22.435833 H          1 MOL1         0.0729
      15    H8      21.463375   21.272728   23.319035 H          1 MOL1         0.0729
      16    C6      21.453030   19.387779   24.381835 C.3        1 MOL1        -0.2899
      17    H9      21.485494   18.309936   24.179486 H          1 MOL1         0.0741
      18    H10     22.359231   19.647428   24.944262 H          1 MOL1         0.0741
      19    H11     20.586498   19.592230   25.024080 H          1 MOL1         0.0741
@<TRIPOS>BOND
    1     1     2    1
    2     1     3    2
    3     1     4    1
    4     4     5    1
    5     4     6    1
    6     4     7    1
    7     7     8    1
    8     7     9    1
    9     7    10    1
   10    10    11    1
   11    10    12    1
   12    10    13    1
   13    13    14    1
   14    13    15    1
   15    13    16    1
   16    16    17    1
   17    16    18    1
   18    16    19    1
@<TRIPOS>SUBSTRUCTURE
       1 MOL1            1 RESIDUE      1      MOL     
@<SCITEGIC>MOL_PROPERTY
VConf Rank
SciTegic.value.IntegerValue
557

@<SCITEGIC>MOL_PROPERTY
Conf_Id
SciTegic.value.IntegerValue
41

@<SCITEGIC>MOL_PROPERTY
Delta U+W
SciTegic.value.DoubleValue
-0.361

@<SCITEGIC>MOL_PROPERTY
U+W
SciTegic.value.DoubleValue
-55.252

@<SCITEGIC>MOL_PROPERTY
Grad RMS
SciTegic.value.DoubleValue
0.000000

@<SCITEGIC>MOL_PROPERTY
U
SciTegic.value.DoubleValue
7.244

@<SCITEGIC>MOL_PROPERTY
W
SciTegic.value.DoubleValue
-62.496

@<SCITEGIC>MOL_PROPERTY
W(PB)
SciTegic.value.DoubleValue
-64.596

@<SCITEGIC>MOL_PROPERTY
W(SA)
SciTegic.value.DoubleValue
2.099

@<SCITEGIC>MOL_PROPERTY
Valence
SciTegic.value.DoubleValue
7.174

@<SCITEGIC>MOL_PROPERTY
Coulomb
SciTegic.value.DoubleValue
-0.669

@<SCITEGIC>MOL_PROPERTY
VdW
SciTegic.value.DoubleValue
0.739

@<SCITEGIC>MOL_PROPERTY
VdW6
SciTegic.value.DoubleValue
-5.969

@<SCITEGIC>MOL_PROPERTY
VdW12
SciTegic.value.DoubleValue
6.708

@<SCITEGIC>MOL_PROPERTY
Bond
SciTegic.value.DoubleValue
0.116

@<SCITEGIC>MOL_PROPERTY
Angle
SciTegic.value.DoubleValue
2.481

@<SCITEGIC>MOL_PROPERTY
Pdih
SciTegic.value.DoubleValue
4.576

@<SCITEGIC>MOL_PROPERTY
Idih
SciTegic.value.DoubleValue
0.000

@<SCITEGIC>MOL_PROPERTY
Tether
SciTegic.value.DoubleValue
0.000

@<TRIPOS>MOLECULE
guest-7_confgen4.mol2 : confsearch ligand conformer 558
          19          18           1
SMALL
USER_CHARGES
 
@<TRIPOS>ATOM
       1    C1      19.727360   21.681611   23.297385 C.2        1 MOL1         0.6115
       2    O1      20.449734   21.586435   24.269840 O.co2      1 MOL1        -0.6776
       3    O2      19.864238   22.531191   22.439388 O.co2      1 MOL1        -0.6776
       4    C2      18.571299   20.695390   23.155141 C.3        1 MOL1        -0.2013
       5    H1      17.677581   21.273493   22.892127 H          1 MOL1         0.0727
       6    H2      18.377507   20.239128   24.133535 H          1 MOL1         0.0727
       7    C3      18.807974   19.594556   22.088725 C.3        1 MOL1        -0.1910
       8    H3      17.880362   19.021337   21.956478 H          1 MOL1         0.0729
       9    H4      19.028847   20.066615   21.121251 H          1 MOL1         0.0729
      10    C4      19.952056   18.630180   22.473907 C.3        1 MOL1        -0.1909
      11    H5      19.732888   18.170831   23.447557 H          1 MOL1         0.0729
      12    H6      20.887847   19.194005   22.591460 H          1 MOL1         0.0729
      13    C5      20.148850   17.525493   21.414877 C.3        1 MOL1        -0.1884
      14    H7      19.217055   16.955353   21.296014 H          1 MOL1         0.0729
      15    H8      20.370632   17.982198   20.440348 H          1 MOL1         0.0729
      16    C6      21.290921   16.564914   21.802093 C.3        1 MOL1        -0.2899
      17    H9      21.080249   16.069983   22.759207 H          1 MOL1         0.0741
      18    H10     21.417409   15.786485   21.038460 H          1 MOL1         0.0741
      19    H11     22.242413   17.104409   21.897224 H          1 MOL1         0.0741
@<TRIPOS>BOND
    1     1     2    1
    2     1     3    2
    3     1     4    1
    4     4     5    1
    5     4     6    1
    6     4     7    1
    7     7     8    1
    8     7     9    1
    9     7    10    1
   10    10    11    1
   11    10    12    1
   12    10    13    1
   13    13    14    1
   14    13    15    1
   15    13    16    1
   16    16    17    1
   17    16    18    1
   18    16    19    1
@<TRIPOS>SUBSTRUCTURE
       1 MOL1            1 RESIDUE      1      MOL     
@<SCITEGIC>MOL_PROPERTY
VConf Rank
SciTegic.value.IntegerValue
558

@<SCITEGIC>MOL_PROPERTY
Conf_Id
SciTegic.value.IntegerValue
36

@<SCITEGIC>MOL_PROPERTY
Delta U+W
SciTegic.value.DoubleValue
-0.079

@<SCITEGIC>MOL_PROPERTY
U+W
SciTegic.value.DoubleValue
-54.971

@<SCITEGIC>MOL_PROPERTY
Grad RMS
SciTegic.value.DoubleValue
0.000000

@<SCITEGIC>MOL_PROPERTY
U
SciTegic.value.DoubleValue
8.266

@<SCITEGIC>MOL_PROPERTY
W
SciTegic.value.DoubleValue
-63.237

@<SCITEGIC>MOL_PROPERTY
W(PB)
SciTegic.value.DoubleValue
-65.340

@<SCITEGIC>MOL_PROPERTY
W(SA)
SciTegic.value.DoubleValue
2.103

@<SCITEGIC>MOL_PROPERTY
Valence
SciTegic.value.DoubleValue
6.935

@<SCITEGIC>MOL_PROPERTY
Coulomb
SciTegic.value.DoubleValue
0.874

@<SCITEGIC>MOL_PROPERTY
VdW
SciTegic.value.DoubleValue
0.457

@<SCITEGIC>MOL_PROPERTY
VdW6
SciTegic.value.DoubleValue
-6.205

@<SCITEGIC>MOL_PROPERTY
VdW12
SciTegic.value.DoubleValue
6.662

@<SCITEGIC>MOL_PROPERTY
Bond
SciTegic.value.DoubleValue
0.107

@<SCITEGIC>MOL_PROPERTY
Angle
SciTegic.value.DoubleValue
2.420

@<SCITEGIC>MOL_PROPERTY
Pdih
SciTegic.value.DoubleValue
4.407

@<SCITEGIC>MOL_PROPERTY
Idih
SciTegic.value.DoubleValue
0.001

@<SCITEGIC>MOL_PROPERTY
Tether
SciTegic.value.DoubleValue
0.000

@<TRIPOS>MOLECULE
guest-7_confgen4.mol2 : confsearch ligand conformer 559
          19          18           1
SMALL
USER_CHARGES
 
@<TRIPOS>ATOM
       1    C1      18.315000   21.109495   22.816244 C.2        1 MOL1         0.6115
       2    O1      17.361849   20.486828   23.240910 O.co2      1 MOL1        -0.6776
       3    O2      18.239835   21.920610   21.914510 O.co2      1 MOL1        -0.6776
       4    C2      19.677625   20.877622   23.463418 C.3        1 MOL1        -0.2013
       5    H1      19.525236   20.404886   24.441317 H          1 MOL1         0.0727
       6    H2      20.122457   21.861699   23.652695 H          1 MOL1         0.0727
       7    C3      20.648655   20.027466   22.603518 C.3        1 MOL1        -0.1910
       8    H3      20.768882   20.498044   21.617753 H          1 MOL1         0.0729
       9    H4      21.639391   20.029414   23.077832 H          1 MOL1         0.0729
      10    C4      20.168907   18.568770   22.432173 C.3        1 MOL1        -0.1909
      11    H5      19.185258   18.557559   21.942548 H          1 MOL1         0.0729
      12    H6      20.037718   18.106952   23.420375 H          1 MOL1         0.0729
      13    C5      21.164885   17.733826   21.600609 C.3        1 MOL1        -0.1884
      14    H7      21.296165   18.192289   20.610634 H          1 MOL1         0.0729
      15    H8      22.149770   17.737902   22.087863 H          1 MOL1         0.0729
      16    C6      20.683395   16.278993   21.431471 C.3        1 MOL1        -0.2899
      17    H9      19.713535   16.243622   20.918086 H          1 MOL1         0.0741
      18    H10     21.402619   15.699959   20.837735 H          1 MOL1         0.0741
      19    H11     20.573504   15.785881   22.406238 H          1 MOL1         0.0741
@<TRIPOS>BOND
    1     1     2    1
    2     1     3    2
    3     1     4    1
    4     4     5    1
    5     4     6    1
    6     4     7    1
    7     7     8    1
    8     7     9    1
    9     7    10    1
   10    10    11    1
   11    10    12    1
   12    10    13    1
   13    13    14    1
   14    13    15    1
   15    13    16    1
   16    16    17    1
   17    16    18    1
   18    16    19    1
@<TRIPOS>SUBSTRUCTURE
       1 MOL1            1 RESIDUE      1      MOL     
@<SCITEGIC>MOL_PROPERTY
VConf Rank
SciTegic.value.IntegerValue
559

@<SCITEGIC>MOL_PROPERTY
Conf_Id
SciTegic.value.IntegerValue
35

@<SCITEGIC>MOL_PROPERTY
Delta U+W
SciTegic.value.DoubleValue
-0.030

@<SCITEGIC>MOL_PROPERTY
U+W
SciTegic.value.DoubleValue
-54.921

@<SCITEGIC>MOL_PROPERTY
Grad RMS
SciTegic.value.DoubleValue
0.000000

@<SCITEGIC>MOL_PROPERTY
U
SciTegic.value.DoubleValue
8.267

@<SCITEGIC>MOL_PROPERTY
W
SciTegic.value.DoubleValue
-63.188

@<SCITEGIC>MOL_PROPERTY
W(PB)
SciTegic.value.DoubleValue
-65.294

@<SCITEGIC>MOL_PROPERTY
W(SA)
SciTegic.value.DoubleValue
2.106

@<SCITEGIC>MOL_PROPERTY
Valence
SciTegic.value.DoubleValue
6.935

@<SCITEGIC>MOL_PROPERTY
Coulomb
SciTegic.value.DoubleValue
0.875

@<SCITEGIC>MOL_PROPERTY
VdW
SciTegic.value.DoubleValue
0.457

@<SCITEGIC>MOL_PROPERTY
VdW6
SciTegic.value.DoubleValue
-6.205

@<SCITEGIC>MOL_PROPERTY
VdW12
SciTegic.value.DoubleValue
6.662

@<SCITEGIC>MOL_PROPERTY
Bond
SciTegic.value.DoubleValue
0.107

@<SCITEGIC>MOL_PROPERTY
Angle
SciTegic.value.DoubleValue
2.420

@<SCITEGIC>MOL_PROPERTY
Pdih
SciTegic.value.DoubleValue
4.407

@<SCITEGIC>MOL_PROPERTY
Idih
SciTegic.value.DoubleValue
0.001

@<SCITEGIC>MOL_PROPERTY
Tether
SciTegic.value.DoubleValue
0.000

@<TRIPOS>MOLECULE
guest-7_confgen4.mol2 : confsearch ligand conformer 560
          19          18           1
SMALL
USER_CHARGES
 
@<TRIPOS>ATOM
       1    C1      18.349979   16.914303   21.004826 C.2        1 MOL1         0.6115
       2    O1      17.787244   16.175476   21.788518 O.co2      1 MOL1        -0.6776
       3    O2      18.933042   16.522913   20.013112 O.co2      1 MOL1        -0.6776
       4    C2      18.302044   18.416444   21.270821 C.3        1 MOL1        -0.2013
       5    H1      17.266733   18.670404   21.527195 H          1 MOL1         0.0727
       6    H2      18.537024   18.945370   20.339166 H          1 MOL1         0.0727
       7    C3      19.246611   18.888713   22.406813 C.3        1 MOL1        -0.1910
       8    H3      19.029234   19.942045   22.624961 H          1 MOL1         0.0729
       9    H4      19.026059   18.322649   23.322376 H          1 MOL1         0.0729
      10    C4      20.741718   18.731321   22.039978 C.3        1 MOL1        -0.1909
      11    H5      20.968739   19.328756   21.146473 H          1 MOL1         0.0729
      12    H6      20.939121   17.684605   21.770828 H          1 MOL1         0.0729
      13    C5      21.700481   19.128888   23.186078 C.3        1 MOL1        -0.1884
      14    H7      21.477151   18.531342   24.080714 H          1 MOL1         0.0729
      15    H8      22.727346   18.873033   22.890601 H          1 MOL1         0.0729
      16    C6      21.644994   20.631426   23.537245 C.3        1 MOL1        -0.2899
      17    H9      20.667882   20.910954   23.950450 H          1 MOL1         0.0741
      18    H10     22.405879   20.877849   24.289087 H          1 MOL1         0.0741
      19    H11     21.834146   21.249561   22.649958 H          1 MOL1         0.0741
@<TRIPOS>BOND
    1     1     2    1
    2     1     3    2
    3     1     4    1
    4     4     5    1
    5     4     6    1
    6     4     7    1
    7     7     8    1
    8     7     9    1
    9     7    10    1
   10    10    11    1
   11    10    12    1
   12    10    13    1
   13    13    14    1
   14    13    15    1
   15    13    16    1
   16    16    17    1
   17    16    18    1
   18    16    19    1
@<TRIPOS>SUBSTRUCTURE
       1 MOL1            1 RESIDUE      1      MOL     
@<SCITEGIC>MOL_PROPERTY
VConf Rank
SciTegic.value.IntegerValue
560

@<SCITEGIC>MOL_PROPERTY
Conf_Id
SciTegic.value.IntegerValue
74

@<SCITEGIC>MOL_PROPERTY
Delta U+W
SciTegic.value.DoubleValue
0.797

@<SCITEGIC>MOL_PROPERTY
U+W
SciTegic.value.DoubleValue
-54.095

@<SCITEGIC>MOL_PROPERTY
Grad RMS
SciTegic.value.DoubleValue
0.000000

@<SCITEGIC>MOL_PROPERTY
U
SciTegic.value.DoubleValue
8.869

@<SCITEGIC>MOL_PROPERTY
W
SciTegic.value.DoubleValue
-62.964

@<SCITEGIC>MOL_PROPERTY
W(PB)
SciTegic.value.DoubleValue
-65.046

@<SCITEGIC>MOL_PROPERTY
W(SA)
SciTegic.value.DoubleValue
2.082

@<SCITEGIC>MOL_PROPERTY
Valence
SciTegic.value.DoubleValue
7.469

@<SCITEGIC>MOL_PROPERTY
Coulomb
SciTegic.value.DoubleValue
0.762

@<SCITEGIC>MOL_PROPERTY
VdW
SciTegic.value.DoubleValue
0.639

@<SCITEGIC>MOL_PROPERTY
VdW6
SciTegic.value.DoubleValue
-6.782

@<SCITEGIC>MOL_PROPERTY
VdW12
SciTegic.value.DoubleValue
7.421

@<SCITEGIC>MOL_PROPERTY
Bond
SciTegic.value.DoubleValue
0.141

@<SCITEGIC>MOL_PROPERTY
Angle
SciTegic.value.DoubleValue
2.667

@<SCITEGIC>MOL_PROPERTY
Pdih
SciTegic.value.DoubleValue
4.660

@<SCITEGIC>MOL_PROPERTY
Idih
SciTegic.value.DoubleValue
0.001

@<SCITEGIC>MOL_PROPERTY
Tether
SciTegic.value.DoubleValue
0.000

@<TRIPOS>MOLECULE
guest-7_confgen4.mol2 : confsearch ligand conformer 561
          19          18           1
SMALL
USER_CHARGES
 
@<TRIPOS>ATOM
       1    C1      17.215397   19.198857   21.360551 C.2        1 MOL1         0.6115
       2    O1      16.768852   19.901626   20.475602 O.co2      1 MOL1        -0.6776
       3    O2      16.666500   18.191167   21.760043 O.co2      1 MOL1        -0.6776
       4    C2      18.546420   19.593252   21.990670 C.3        1 MOL1        -0.2013
       5    H1      18.524452   19.279897   23.040663 H          1 MOL1         0.0727
       6    H2      18.618902   20.687301   21.978118 H          1 MOL1         0.0727
       7    C3      19.764398   18.968078   21.262469 C.3        1 MOL1        -0.1910
       8    H3      19.701016   17.873063   21.314465 H          1 MOL1         0.0729
       9    H4      19.707254   19.225152   20.195770 H          1 MOL1         0.0729
      10    C4      21.129862   19.450666   21.813235 C.3        1 MOL1        -0.1909
      11    H5      21.213155   20.534913   21.657458 H          1 MOL1         0.0729
      12    H6      21.931610   18.996110   21.215439 H          1 MOL1         0.0729
      13    C5      21.384532   19.141537   23.309057 C.3        1 MOL1        -0.1884
      14    H7      22.369663   19.541558   23.585790 H          1 MOL1         0.0729
      15    H8      20.655290   19.671969   23.935521 H          1 MOL1         0.0729
      16    C6      21.351891   17.633047   23.635844 C.3        1 MOL1        -0.2899
      17    H9      22.058150   17.078806   23.004144 H          1 MOL1         0.0741
      18    H10     21.628008   17.460989   24.684162 H          1 MOL1         0.0741
      19    H11     20.349435   17.213578   23.482895 H          1 MOL1         0.0741
@<TRIPOS>BOND
    1     1     2    1
    2     1     3    2
    3     1     4    1
    4     4     5    1
    5     4     6    1
    6     4     7    1
    7     7     8    1
    8     7     9    1
    9     7    10    1
   10    10    11    1
   11    10    12    1
   12    10    13    1
   13    13    14    1
   14    13    15    1
   15    13    16    1
   16    16    17    1
   17    16    18    1
   18    16    19    1
@<TRIPOS>SUBSTRUCTURE
       1 MOL1            1 RESIDUE      1      MOL     
@<SCITEGIC>MOL_PROPERTY
VConf Rank
SciTegic.value.IntegerValue
561

@<SCITEGIC>MOL_PROPERTY
Conf_Id
SciTegic.value.IntegerValue
67

@<SCITEGIC>MOL_PROPERTY
Delta U+W
SciTegic.value.DoubleValue
0.308

@<SCITEGIC>MOL_PROPERTY
U+W
SciTegic.value.DoubleValue
-54.583

@<SCITEGIC>MOL_PROPERTY
Grad RMS
SciTegic.value.DoubleValue
0.000000

@<SCITEGIC>MOL_PROPERTY
U
SciTegic.value.DoubleValue
8.219

@<SCITEGIC>MOL_PROPERTY
W
SciTegic.value.DoubleValue
-62.802

@<SCITEGIC>MOL_PROPERTY
W(PB)
SciTegic.value.DoubleValue
-64.859

@<SCITEGIC>MOL_PROPERTY
W(SA)
SciTegic.value.DoubleValue
2.057

@<SCITEGIC>MOL_PROPERTY
Valence
SciTegic.value.DoubleValue
7.609

@<SCITEGIC>MOL_PROPERTY
Coulomb
SciTegic.value.DoubleValue
-0.089

@<SCITEGIC>MOL_PROPERTY
VdW
SciTegic.value.DoubleValue
0.699

@<SCITEGIC>MOL_PROPERTY
VdW6
SciTegic.value.DoubleValue
-6.924

@<SCITEGIC>MOL_PROPERTY
VdW12
SciTegic.value.DoubleValue
7.623

@<SCITEGIC>MOL_PROPERTY
Bond
SciTegic.value.DoubleValue
0.163

@<SCITEGIC>MOL_PROPERTY
Angle
SciTegic.value.DoubleValue
2.870

@<SCITEGIC>MOL_PROPERTY
Pdih
SciTegic.value.DoubleValue
4.576

@<SCITEGIC>MOL_PROPERTY
Idih
SciTegic.value.DoubleValue
0.001

@<SCITEGIC>MOL_PROPERTY
Tether
SciTegic.value.DoubleValue
0.000

@<TRIPOS>MOLECULE
guest-7_confgen4.mol2 : confsearch ligand conformer 562
          19          18           1
SMALL
USER_CHARGES
 
@<TRIPOS>ATOM
       1    C1      21.927104   19.051380   20.110784 C.2        1 MOL1         0.6115
       2    O1      21.890454   19.701286   19.084772 O.co2      1 MOL1        -0.6776
       3    O2      22.584993   18.038247   20.241425 O.co2      1 MOL1        -0.6776
       4    C2      21.086303   19.522639   21.291963 C.3        1 MOL1        -0.2013
       5    H1      21.034559   20.617429   21.258624 H          1 MOL1         0.0727
       6    H2      21.618111   19.249111   22.210398 H          1 MOL1         0.0727
       7    C3      19.657806   18.919330   21.291085 C.3        1 MOL1        -0.1910
       8    H3      19.185674   19.132872   20.322225 H          1 MOL1         0.0729
       9    H4      19.721071   17.825450   21.363211 H          1 MOL1         0.0729
      10    C4      18.749338   19.476955   22.415569 C.3        1 MOL1        -0.1909
      11    H5      17.749918   19.032340   22.314303 H          1 MOL1         0.0729
      12    H6      18.617431   20.556912   22.263622 H          1 MOL1         0.0729
      13    C5      19.260388   19.235740   23.857285 C.3        1 MOL1        -0.1884
      14    H7      20.212044   19.760190   24.015115 H          1 MOL1         0.0729
      15    H8      18.546270   19.685119   24.560971 H          1 MOL1         0.0729
      16    C6      19.425891   17.740768   24.205231 C.3        1 MOL1        -0.2899
      17    H9      20.215832   17.276029   23.601675 H          1 MOL1         0.0741
      18    H10     19.699792   17.620142   25.261281 H          1 MOL1         0.0741
      19    H11     18.491283   17.191410   24.032769 H          1 MOL1         0.0741
@<TRIPOS>BOND
    1     1     2    1
    2     1     3    2
    3     1     4    1
    4     4     5    1
    5     4     6    1
    6     4     7    1
    7     7     8    1
    8     7     9    1
    9     7    10    1
   10    10    11    1
   11    10    12    1
   12    10    13    1
   13    13    14    1
   14    13    15    1
   15    13    16    1
   16    16    17    1
   17    16    18    1
   18    16    19    1
@<TRIPOS>SUBSTRUCTURE
       1 MOL1            1 RESIDUE      1      MOL     
@<SCITEGIC>MOL_PROPERTY
VConf Rank
SciTegic.value.IntegerValue
562

@<SCITEGIC>MOL_PROPERTY
Conf_Id
SciTegic.value.IntegerValue
21

@<SCITEGIC>MOL_PROPERTY
Delta U+W
SciTegic.value.DoubleValue
0.319

@<SCITEGIC>MOL_PROPERTY
U+W
SciTegic.value.DoubleValue
-54.572

@<SCITEGIC>MOL_PROPERTY
Grad RMS
SciTegic.value.DoubleValue
0.000000

@<SCITEGIC>MOL_PROPERTY
U
SciTegic.value.DoubleValue
8.220

@<SCITEGIC>MOL_PROPERTY
W
SciTegic.value.DoubleValue
-62.792

@<SCITEGIC>MOL_PROPERTY
W(PB)
SciTegic.value.DoubleValue
-64.830

@<SCITEGIC>MOL_PROPERTY
W(SA)
SciTegic.value.DoubleValue
2.038

@<SCITEGIC>MOL_PROPERTY
Valence
SciTegic.value.DoubleValue
7.609

@<SCITEGIC>MOL_PROPERTY
Coulomb
SciTegic.value.DoubleValue
-0.088

@<SCITEGIC>MOL_PROPERTY
VdW
SciTegic.value.DoubleValue
0.699

@<SCITEGIC>MOL_PROPERTY
VdW6
SciTegic.value.DoubleValue
-6.924

@<SCITEGIC>MOL_PROPERTY
VdW12
SciTegic.value.DoubleValue
7.623

@<SCITEGIC>MOL_PROPERTY
Bond
SciTegic.value.DoubleValue
0.163

@<SCITEGIC>MOL_PROPERTY
Angle
SciTegic.value.DoubleValue
2.870

@<SCITEGIC>MOL_PROPERTY
Pdih
SciTegic.value.DoubleValue
4.576

@<SCITEGIC>MOL_PROPERTY
Idih
SciTegic.value.DoubleValue
0.000

@<SCITEGIC>MOL_PROPERTY
Tether
SciTegic.value.DoubleValue
0.000

@<TRIPOS>MOLECULE
guest-7_confgen4.mol2 : confsearch ligand conformer 563
          19          18           1
SMALL
USER_CHARGES
 
@<TRIPOS>ATOM
       1    C1      19.125156   16.911894   24.219476 C.2        1 MOL1         0.6115
       2    O1      19.743701   16.336748   25.093002 O.co2      1 MOL1        -0.6776
       3    O2      17.916259   17.033630   24.220650 O.co2      1 MOL1        -0.6776
       4    C2      19.911037   17.530284   23.068795 C.3        1 MOL1        -0.2013
       5    H1      19.286445   17.481817   22.171377 H          1 MOL1         0.0727
       6    H2      20.788456   16.899923   22.881267 H          1 MOL1         0.0727
       7    C3      20.356704   18.987642   23.360481 C.3        1 MOL1        -0.1910
       8    H3      19.483891   19.608240   23.606119 H          1 MOL1         0.0729
       9    H4      20.985664   18.974405   24.261386 H          1 MOL1         0.0729
      10    C4      21.162751   19.629612   22.202851 C.3        1 MOL1        -0.1909
      11    H5      21.714008   18.857703   21.648622 H          1 MOL1         0.0729
      12    H6      21.927244   20.285214   22.641839 H          1 MOL1         0.0729
      13    C5      20.320433   20.486635   21.226161 C.3        1 MOL1        -0.1884
      14    H7      19.843793   21.309975   21.775872 H          1 MOL1         0.0729
      15    H8      20.998920   20.954706   20.499691 H          1 MOL1         0.0729
      16    C6      19.243398   19.694608   20.456498 C.3        1 MOL1        -0.2899
      17    H9      18.775025   20.327729   19.691907 H          1 MOL1         0.0741
      18    H10     19.679665   18.822068   19.953188 H          1 MOL1         0.0741
      19    H11     18.449324   19.349446   21.130373 H          1 MOL1         0.0741
@<TRIPOS>BOND
    1     1     2    1
    2     1     3    2
    3     1     4    1
    4     4     5    1
    5     4     6    1
    6     4     7    1
    7     7     8    1
    8     7     9    1
    9     7    10    1
   10    10    11    1
   11    10    12    1
   12    10    13    1
   13    13    14    1
   14    13    15    1
   15    13    16    1
   16    16    17    1
   17    16    18    1
   18    16    19    1
@<TRIPOS>SUBSTRUCTURE
       1 MOL1            1 RESIDUE      1      MOL     
@<SCITEGIC>MOL_PROPERTY
VConf Rank
SciTegic.value.IntegerValue
563

@<SCITEGIC>MOL_PROPERTY
Conf_Id
SciTegic.value.IntegerValue
24

@<SCITEGIC>MOL_PROPERTY
Delta U+W
SciTegic.value.DoubleValue
2.477

@<SCITEGIC>MOL_PROPERTY
U+W
SciTegic.value.DoubleValue
-52.414

@<SCITEGIC>MOL_PROPERTY
Grad RMS
SciTegic.value.DoubleValue
0.000000

@<SCITEGIC>MOL_PROPERTY
U
SciTegic.value.DoubleValue
10.422

@<SCITEGIC>MOL_PROPERTY
W
SciTegic.value.DoubleValue
-62.836

@<SCITEGIC>MOL_PROPERTY
W(PB)
SciTegic.value.DoubleValue
-64.906

@<SCITEGIC>MOL_PROPERTY
W(SA)
SciTegic.value.DoubleValue
2.070

@<SCITEGIC>MOL_PROPERTY
Valence
SciTegic.value.DoubleValue
9.628

@<SCITEGIC>MOL_PROPERTY
Coulomb
SciTegic.value.DoubleValue
0.101

@<SCITEGIC>MOL_PROPERTY
VdW
SciTegic.value.DoubleValue
0.693

@<SCITEGIC>MOL_PROPERTY
VdW6
SciTegic.value.DoubleValue
-6.927

@<SCITEGIC>MOL_PROPERTY
VdW12
SciTegic.value.DoubleValue
7.620

@<SCITEGIC>MOL_PROPERTY
Bond
SciTegic.value.DoubleValue
0.173

@<SCITEGIC>MOL_PROPERTY
Angle
SciTegic.value.DoubleValue
2.989

@<SCITEGIC>MOL_PROPERTY
Pdih
SciTegic.value.DoubleValue
6.465

@<SCITEGIC>MOL_PROPERTY
Idih
SciTegic.value.DoubleValue
0.001

@<SCITEGIC>MOL_PROPERTY
Tether
SciTegic.value.DoubleValue
0.000

@<TRIPOS>MOLECULE
guest-7_confgen4.mol2 : confsearch ligand conformer 564
          19          18           1
SMALL
USER_CHARGES
 
@<TRIPOS>ATOM
       1    C1      20.447038   16.723515   21.354218 C.2        1 MOL1         0.6115
       2    O1      20.127999   17.009999   20.217191 O.co2      1 MOL1        -0.6776
       3    O2      21.322061   15.924428   21.624162 O.co2      1 MOL1        -0.6776
       4    C2      19.690700   17.378695   22.507008 C.3        1 MOL1        -0.2013
       5    H1      19.399298   16.579511   23.198489 H          1 MOL1         0.0727
       6    H2      18.763038   17.805729   22.112903 H          1 MOL1         0.0727
       7    C3      20.515222   18.447912   23.276343 C.3        1 MOL1        -0.1910
       8    H3      19.994103   18.723713   24.202951 H          1 MOL1         0.0729
       9    H4      21.462306   17.986357   23.588646 H          1 MOL1         0.0729
      10    C4      20.829212   19.723689   22.452159 C.3        1 MOL1        -0.1909
      11    H5      20.905254   19.482437   21.383131 H          1 MOL1         0.0729
      12    H6      21.824335   20.083445   22.747268 H          1 MOL1         0.0729
      13    C5      19.831886   20.889597   22.661700 C.3        1 MOL1        -0.1884
      14    H7      19.827439   21.185935   23.719701 H          1 MOL1         0.0729
      15    H8      20.193421   21.761833   22.099871 H          1 MOL1         0.0729
      16    C6      18.390293   20.575661   22.211358 C.3        1 MOL1        -0.2899
      17    H9      17.928423   19.821849   22.860820 H          1 MOL1         0.0741
      18    H10     17.768025   21.478614   22.258645 H          1 MOL1         0.0741
      19    H11     18.372754   20.204942   21.178041 H          1 MOL1         0.0741
@<TRIPOS>BOND
    1     1     2    1
    2     1     3    2
    3     1     4    1
    4     4     5    1
    5     4     6    1
    6     4     7    1
    7     7     8    1
    8     7     9    1
    9     7    10    1
   10    10    11    1
   11    10    12    1
   12    10    13    1
   13    13    14    1
   14    13    15    1
   15    13    16    1
   16    16    17    1
   17    16    18    1
   18    16    19    1
@<TRIPOS>SUBSTRUCTURE
       1 MOL1            1 RESIDUE      1      MOL     
@<SCITEGIC>MOL_PROPERTY
VConf Rank
SciTegic.value.IntegerValue
564

@<SCITEGIC>MOL_PROPERTY
Conf_Id
SciTegic.value.IntegerValue
4

@<SCITEGIC>MOL_PROPERTY
Delta U+W
SciTegic.value.DoubleValue
3.753

@<SCITEGIC>MOL_PROPERTY
U+W
SciTegic.value.DoubleValue
-51.138

@<SCITEGIC>MOL_PROPERTY
Grad RMS
SciTegic.value.DoubleValue
0.000000

@<SCITEGIC>MOL_PROPERTY
U
SciTegic.value.DoubleValue
12.334

@<SCITEGIC>MOL_PROPERTY
W
SciTegic.value.DoubleValue
-63.472

@<SCITEGIC>MOL_PROPERTY
W(PB)
SciTegic.value.DoubleValue
-65.500

@<SCITEGIC>MOL_PROPERTY
W(SA)
SciTegic.value.DoubleValue
2.028

@<SCITEGIC>MOL_PROPERTY
Valence
SciTegic.value.DoubleValue
9.984

@<SCITEGIC>MOL_PROPERTY
Coulomb
SciTegic.value.DoubleValue
1.767

@<SCITEGIC>MOL_PROPERTY
VdW
SciTegic.value.DoubleValue
0.583

@<SCITEGIC>MOL_PROPERTY
VdW6
SciTegic.value.DoubleValue
-7.767

@<SCITEGIC>MOL_PROPERTY
VdW12
SciTegic.value.DoubleValue
8.349

@<SCITEGIC>MOL_PROPERTY
Bond
SciTegic.value.DoubleValue
0.203

@<SCITEGIC>MOL_PROPERTY
Angle
SciTegic.value.DoubleValue
3.191

@<SCITEGIC>MOL_PROPERTY
Pdih
SciTegic.value.DoubleValue
6.589

@<SCITEGIC>MOL_PROPERTY
Idih
SciTegic.value.DoubleValue
0.001

@<SCITEGIC>MOL_PROPERTY
Tether
SciTegic.value.DoubleValue
0.000

@<TRIPOS>MOLECULE
guest-7_confgen4.mol2 : confsearch ligand conformer 565
          19          18           1
SMALL
USER_CHARGES
 
@<TRIPOS>ATOM
       1    C1      19.645572   16.455740   23.285631 C.2        1 MOL1         0.6115
       2    O1      20.184824   15.423160   22.939134 O.co2      1 MOL1        -0.6776
       3    O2      19.446486   16.751226   24.447416 O.co2      1 MOL1        -0.6776
       4    C2      19.167961   17.417085   22.200304 C.3        1 MOL1        -0.2013
       5    H1      18.448723   18.111425   22.646192 H          1 MOL1         0.0727
       6    H2      18.615273   16.823574   21.462716 H          1 MOL1         0.0727
       7    C3      20.315698   18.183808   21.486320 C.3        1 MOL1        -0.1910
       8    H3      21.040871   17.444396   21.118994 H          1 MOL1         0.0729
       9    H4      19.925081   18.692029   20.594489 H          1 MOL1         0.0729
      10    C4      21.056765   19.204593   22.388701 C.3        1 MOL1        -0.1909
      11    H5      22.115015   19.214203   22.094088 H          1 MOL1         0.0729
      12    H6      21.042761   18.873806   23.436169 H          1 MOL1         0.0729
      13    C5      20.531891   20.657804   22.285814 C.3        1 MOL1        -0.1884
      14    H7      21.176145   21.304442   22.897327 H          1 MOL1         0.0729
      15    H8      20.632201   21.014151   21.251330 H          1 MOL1         0.0729
      16    C6      19.071556   20.835771   22.749828 C.3        1 MOL1        -0.2899
      17    H9      18.924547   20.419370   23.755057 H          1 MOL1         0.0741
      18    H10     18.805637   21.900235   22.781125 H          1 MOL1         0.0741
      19    H11     18.374920   20.341397   22.061607 H          1 MOL1         0.0741
@<TRIPOS>BOND
    1     1     2    1
    2     1     3    2
    3     1     4    1
    4     4     5    1
    5     4     6    1
    6     4     7    1
    7     7     8    1
    8     7     9    1
    9     7    10    1
   10    10    11    1
   11    10    12    1
   12    10    13    1
   13    13    14    1
   14    13    15    1
   15    13    16    1
   16    16    17    1
   17    16    18    1
   18    16    19    1
@<TRIPOS>SUBSTRUCTURE
       1 MOL1            1 RESIDUE      1      MOL     
@<SCITEGIC>MOL_PROPERTY
VConf Rank
SciTegic.value.IntegerValue
565

@<SCITEGIC>MOL_PROPERTY
Conf_Id
SciTegic.value.IntegerValue
73

@<SCITEGIC>MOL_PROPERTY
Delta U+W
SciTegic.value.DoubleValue
3.707

@<SCITEGIC>MOL_PROPERTY
U+W
SciTegic.value.DoubleValue
-51.184

@<SCITEGIC>MOL_PROPERTY
Grad RMS
SciTegic.value.DoubleValue
0.000000

@<SCITEGIC>MOL_PROPERTY
U
SciTegic.value.DoubleValue
12.334

@<SCITEGIC>MOL_PROPERTY
W
SciTegic.value.DoubleValue
-63.519

@<SCITEGIC>MOL_PROPERTY
W(PB)
SciTegic.value.DoubleValue
-65.541

@<SCITEGIC>MOL_PROPERTY
W(SA)
SciTegic.value.DoubleValue
2.022

@<SCITEGIC>MOL_PROPERTY
Valence
SciTegic.value.DoubleValue
9.984

@<SCITEGIC>MOL_PROPERTY
Coulomb
SciTegic.value.DoubleValue
1.768

@<SCITEGIC>MOL_PROPERTY
VdW
SciTegic.value.DoubleValue
0.583

@<SCITEGIC>MOL_PROPERTY
VdW6
SciTegic.value.DoubleValue
-7.767

@<SCITEGIC>MOL_PROPERTY
VdW12
SciTegic.value.DoubleValue
8.350

@<SCITEGIC>MOL_PROPERTY
Bond
SciTegic.value.DoubleValue
0.203

@<SCITEGIC>MOL_PROPERTY
Angle
SciTegic.value.DoubleValue
3.192

@<SCITEGIC>MOL_PROPERTY
Pdih
SciTegic.value.DoubleValue
6.589

@<SCITEGIC>MOL_PROPERTY
Idih
SciTegic.value.DoubleValue
0.001

@<SCITEGIC>MOL_PROPERTY
Tether
SciTegic.value.DoubleValue
0.000

@<TRIPOS>MOLECULE
guest-7_confgen4.mol2 : confsearch ligand conformer 566
          19          18           1
SMALL
USER_CHARGES
 
@<TRIPOS>ATOM
       1    C1      20.329464   20.870157   20.652458 C.2        1 MOL1         0.6115
       2    O1      20.676568   21.725274   21.443032 O.co2      1 MOL1        -0.6776
       3    O2      20.799778   20.756401   19.537548 O.co2      1 MOL1        -0.6776
       4    C2      19.221262   19.906244   21.067289 C.3        1 MOL1        -0.2013
       5    H1      18.473280   19.904488   20.265922 H          1 MOL1         0.0727
       6    H2      18.721765   20.306364   21.957066 H          1 MOL1         0.0727
       7    C3      19.705918   18.452565   21.320658 C.3        1 MOL1        -0.1910
       8    H3      18.839342   17.815487   21.539842 H          1 MOL1         0.0729
       9    H4      20.141149   18.060068   20.391341 H          1 MOL1         0.0729
      10    C4      20.753808   18.315346   22.455202 C.3        1 MOL1        -0.1909
      11    H5      21.664740   18.858917   22.169169 H          1 MOL1         0.0729
      12    H6      21.046201   17.259853   22.539064 H          1 MOL1         0.0729
      13    C5      20.291270   18.818644   23.844435 C.3        1 MOL1        -0.1884
      14    H7      21.117259   18.686675   24.556631 H          1 MOL1         0.0729
      15    H8      20.093191   19.898395   23.807750 H          1 MOL1         0.0729
      16    C6      19.048537   18.076661   24.381791 C.3        1 MOL1        -0.2899
      17    H9      18.166378   18.274047   23.759903 H          1 MOL1         0.0741
      18    H10     19.218415   16.992424   24.405959 H          1 MOL1         0.0741
      19    H11     18.816307   18.406035   25.402760 H          1 MOL1         0.0741
@<TRIPOS>BOND
    1     1     2    1
    2     1     3    2
    3     1     4    1
    4     4     5    1
    5     4     6    1
    6     4     7    1
    7     7     8    1
    8     7     9    1
    9     7    10    1
   10    10    11    1
   11    10    12    1
   12    10    13    1
   13    13    14    1
   14    13    15    1
   15    13    16    1
   16    16    17    1
   17    16    18    1
   18    16    19    1
@<TRIPOS>SUBSTRUCTURE
       1 MOL1            1 RESIDUE      1      MOL     
@<SCITEGIC>MOL_PROPERTY
VConf Rank
SciTegic.value.IntegerValue
566

@<SCITEGIC>MOL_PROPERTY
Conf_Id
SciTegic.value.IntegerValue
56

@<SCITEGIC>MOL_PROPERTY
Delta U+W
SciTegic.value.DoubleValue
1.735

@<SCITEGIC>MOL_PROPERTY
U+W
SciTegic.value.DoubleValue
-53.156

@<SCITEGIC>MOL_PROPERTY
Grad RMS
SciTegic.value.DoubleValue
0.000000

@<SCITEGIC>MOL_PROPERTY
U
SciTegic.value.DoubleValue
10.214

@<SCITEGIC>MOL_PROPERTY
W
SciTegic.value.DoubleValue
-63.370

@<SCITEGIC>MOL_PROPERTY
W(PB)
SciTegic.value.DoubleValue
-65.388

@<SCITEGIC>MOL_PROPERTY
W(SA)
SciTegic.value.DoubleValue
2.018

@<SCITEGIC>MOL_PROPERTY
Valence
SciTegic.value.DoubleValue
7.868

@<SCITEGIC>MOL_PROPERTY
Coulomb
SciTegic.value.DoubleValue
1.968

@<SCITEGIC>MOL_PROPERTY
VdW
SciTegic.value.DoubleValue
0.378

@<SCITEGIC>MOL_PROPERTY
VdW6
SciTegic.value.DoubleValue
-8.067

@<SCITEGIC>MOL_PROPERTY
VdW12
SciTegic.value.DoubleValue
8.445

@<SCITEGIC>MOL_PROPERTY
Bond
SciTegic.value.DoubleValue
0.191

@<SCITEGIC>MOL_PROPERTY
Angle
SciTegic.value.DoubleValue
3.117

@<SCITEGIC>MOL_PROPERTY
Pdih
SciTegic.value.DoubleValue
4.559

@<SCITEGIC>MOL_PROPERTY
Idih
SciTegic.value.DoubleValue
0.001

@<SCITEGIC>MOL_PROPERTY
Tether
SciTegic.value.DoubleValue
0.000

@<TRIPOS>MOLECULE
guest-7_confgen4.mol2 : confsearch ligand conformer 567
          19          18           1
SMALL
USER_CHARGES
 
@<TRIPOS>ATOM
       1    C1      17.978219   19.205906   20.138673 C.2        1 MOL1         0.6115
       2    O1      18.262680   19.591743   19.022171 O.co2      1 MOL1        -0.6776
       3    O2      16.836794   19.082517   20.536540 O.co2      1 MOL1        -0.6776
       4    C2      19.115890   18.879432   21.099586 C.3        1 MOL1        -0.2013
       5    H1      19.964026   18.509139   20.511430 H          1 MOL1         0.0727
       6    H2      18.779325   18.061009   21.745664 H          1 MOL1         0.0727
       7    C3      19.547746   20.097014   21.955139 C.3        1 MOL1        -0.1910
       8    H3      19.742426   20.945948   21.285205 H          1 MOL1         0.0729
       9    H4      18.711759   20.400234   22.600413 H          1 MOL1         0.0729
      10    C4      20.810525   19.854852   22.819570 C.3        1 MOL1        -0.1909
      11    H5      21.044859   20.797469   23.332924 H          1 MOL1         0.0729
      12    H6      21.674526   19.643616   22.174682 H          1 MOL1         0.0729
      13    C5      20.658079   18.747463   23.891744 C.3        1 MOL1        -0.1884
      14    H7      21.224022   19.044622   24.785469 H          1 MOL1         0.0729
      15    H8      19.609101   18.664872   24.208177 H          1 MOL1         0.0729
      16    C6      21.187995   17.372343   23.428105 C.3        1 MOL1        -0.2899
      17    H9      21.073826   16.628267   24.226974 H          1 MOL1         0.0741
      18    H10     20.650604   17.002409   22.547776 H          1 MOL1         0.0741
      19    H11     22.254420   17.430642   23.174193 H          1 MOL1         0.0741
@<TRIPOS>BOND
    1     1     2    1
    2     1     3    2
    3     1     4    1
    4     4     5    1
    5     4     6    1
    6     4     7    1
    7     7     8    1
    8     7     9    1
    9     7    10    1
   10    10    11    1
   11    10    12    1
   12    10    13    1
   13    13    14    1
   14    13    15    1
   15    13    16    1
   16    16    17    1
   17    16    18    1
   18    16    19    1
@<TRIPOS>SUBSTRUCTURE
       1 MOL1            1 RESIDUE      1      MOL     
@<SCITEGIC>MOL_PROPERTY
VConf Rank
SciTegic.value.IntegerValue
567

@<SCITEGIC>MOL_PROPERTY
Conf_Id
SciTegic.value.IntegerValue
53

@<SCITEGIC>MOL_PROPERTY
Delta U+W
SciTegic.value.DoubleValue
2.279

@<SCITEGIC>MOL_PROPERTY
U+W
SciTegic.value.DoubleValue
-52.612

@<SCITEGIC>MOL_PROPERTY
Grad RMS
SciTegic.value.DoubleValue
0.000000

@<SCITEGIC>MOL_PROPERTY
U
SciTegic.value.DoubleValue
10.231

@<SCITEGIC>MOL_PROPERTY
W
SciTegic.value.DoubleValue
-62.843

@<SCITEGIC>MOL_PROPERTY
W(PB)
SciTegic.value.DoubleValue
-64.893

@<SCITEGIC>MOL_PROPERTY
W(SA)
SciTegic.value.DoubleValue
2.050

@<SCITEGIC>MOL_PROPERTY
Valence
SciTegic.value.DoubleValue
9.644

@<SCITEGIC>MOL_PROPERTY
Coulomb
SciTegic.value.DoubleValue
-0.164

@<SCITEGIC>MOL_PROPERTY
VdW
SciTegic.value.DoubleValue
0.751

@<SCITEGIC>MOL_PROPERTY
VdW6
SciTegic.value.DoubleValue
-6.881

@<SCITEGIC>MOL_PROPERTY
VdW12
SciTegic.value.DoubleValue
7.631

@<SCITEGIC>MOL_PROPERTY
Bond
SciTegic.value.DoubleValue
0.163

@<SCITEGIC>MOL_PROPERTY
Angle
SciTegic.value.DoubleValue
2.998

@<SCITEGIC>MOL_PROPERTY
Pdih
SciTegic.value.DoubleValue
6.482

@<SCITEGIC>MOL_PROPERTY
Idih
SciTegic.value.DoubleValue
0.001

@<SCITEGIC>MOL_PROPERTY
Tether
SciTegic.value.DoubleValue
0.000

@<TRIPOS>MOLECULE
guest-7_confgen4.mol2 : confsearch ligand conformer 568
          19          18           1
SMALL
USER_CHARGES
 
@<TRIPOS>ATOM
       1    C1      18.488972   17.183170   22.220416 C.2        1 MOL1         0.6115
       2    O1      19.042388   16.365285   21.512144 O.co2      1 MOL1        -0.6776
       3    O2      17.434333   17.714086   21.932126 O.co2      1 MOL1        -0.6776
       4    C2      19.117937   17.506510   23.574423 C.3        1 MOL1        -0.2013
       5    H1      20.026857   16.905316   23.698330 H          1 MOL1         0.0727
       6    H2      18.407719   17.161103   24.334624 H          1 MOL1         0.0727
       7    C3      19.429443   19.009777   23.819937 C.3        1 MOL1        -0.1910
       8    H3      18.579644   19.626330   23.495520 H          1 MOL1         0.0729
       9    H4      19.518442   19.164645   24.903686 H          1 MOL1         0.0729
      10    C4      20.736258   19.518225   23.162370 C.3        1 MOL1        -0.1909
      11    H5      21.582355   18.902308   23.496437 H          1 MOL1         0.0729
      12    H6      20.930888   20.535117   23.529873 H          1 MOL1         0.0729
      13    C5      20.694131   19.548983   21.618721 C.3        1 MOL1        -0.1884
      14    H7      20.633162   18.527142   21.223080 H          1 MOL1         0.0729
      15    H8      19.792680   20.078946   21.281194 H          1 MOL1         0.0729
      16    C6      21.944196   20.235643   21.032487 C.3        1 MOL1        -0.2899
      17    H9      22.858882   19.708874   21.334515 H          1 MOL1         0.0741
      18    H10     21.902884   20.241586   19.935535 H          1 MOL1         0.0741
      19    H11     22.018426   21.276311   21.374275 H          1 MOL1         0.0741
@<TRIPOS>BOND
    1     1     2    1
    2     1     3    2
    3     1     4    1
    4     4     5    1
    5     4     6    1
    6     4     7    1
    7     7     8    1
    8     7     9    1
    9     7    10    1
   10    10    11    1
   11    10    12    1
   12    10    13    1
   13    13    14    1
   14    13    15    1
   15    13    16    1
   16    16    17    1
   17    16    18    1
   18    16    19    1
@<TRIPOS>SUBSTRUCTURE
       1 MOL1            1 RESIDUE      1      MOL     
@<SCITEGIC>MOL_PROPERTY
VConf Rank
SciTegic.value.IntegerValue
568

@<SCITEGIC>MOL_PROPERTY
Conf_Id
SciTegic.value.IntegerValue
25

@<SCITEGIC>MOL_PROPERTY
Delta U+W
SciTegic.value.DoubleValue
2.065

@<SCITEGIC>MOL_PROPERTY
U+W
SciTegic.value.DoubleValue
-52.826

@<SCITEGIC>MOL_PROPERTY
Grad RMS
SciTegic.value.DoubleValue
0.000000

@<SCITEGIC>MOL_PROPERTY
U
SciTegic.value.DoubleValue
10.967

@<SCITEGIC>MOL_PROPERTY
W
SciTegic.value.DoubleValue
-63.794

@<SCITEGIC>MOL_PROPERTY
W(PB)
SciTegic.value.DoubleValue
-65.830

@<SCITEGIC>MOL_PROPERTY
W(SA)
SciTegic.value.DoubleValue
2.036

@<SCITEGIC>MOL_PROPERTY
Valence
SciTegic.value.DoubleValue
8.609

@<SCITEGIC>MOL_PROPERTY
Coulomb
SciTegic.value.DoubleValue
1.892

@<SCITEGIC>MOL_PROPERTY
VdW
SciTegic.value.DoubleValue
0.467

@<SCITEGIC>MOL_PROPERTY
VdW6
SciTegic.value.DoubleValue
-7.569

@<SCITEGIC>MOL_PROPERTY
VdW12
SciTegic.value.DoubleValue
8.036

@<SCITEGIC>MOL_PROPERTY
Bond
SciTegic.value.DoubleValue
0.170

@<SCITEGIC>MOL_PROPERTY
Angle
SciTegic.value.DoubleValue
3.195

@<SCITEGIC>MOL_PROPERTY
Pdih
SciTegic.value.DoubleValue
5.237

@<SCITEGIC>MOL_PROPERTY
Idih
SciTegic.value.DoubleValue
0.007

@<SCITEGIC>MOL_PROPERTY
Tether
SciTegic.value.DoubleValue
0.000

@<TRIPOS>MOLECULE
guest-7_confgen4.mol2 : confsearch ligand conformer 569
          19          18           1
SMALL
USER_CHARGES
 
@<TRIPOS>ATOM
       1    C1      18.659936   19.953747   20.917424 C.2        1 MOL1         0.6115
       2    O1      17.944393   19.117300   20.402058 O.co2      1 MOL1        -0.6776
       3    O2      19.419429   20.664205   20.288718 O.co2      1 MOL1        -0.6776
       4    C2      18.549575   20.173627   22.425057 C.3        1 MOL1        -0.2013
       5    H1      17.526353   20.519556   22.612071 H          1 MOL1         0.0727
       6    H2      19.216149   20.994705   22.715632 H          1 MOL1         0.0727
       7    C3      18.826991   18.919565   23.301127 C.3        1 MOL1        -0.1910
       8    H3      18.372948   19.087914   24.286988 H          1 MOL1         0.0729
       9    H4      18.313352   18.045419   22.877350 H          1 MOL1         0.0729
      10    C4      20.326281   18.599642   23.521255 C.3        1 MOL1        -0.1909
      11    H5      20.398934   17.801152   24.272351 H          1 MOL1         0.0729
      12    H6      20.831935   19.474836   23.951587 H          1 MOL1         0.0729
      13    C5      21.068025   18.147426   22.244191 C.3        1 MOL1        -0.1884
      14    H7      20.508911   17.337311   21.755826 H          1 MOL1         0.0729
      15    H8      21.124031   18.976624   21.527462 H          1 MOL1         0.0729
      16    C6      22.498416   17.666563   22.561348 C.3        1 MOL1        -0.2899
      17    H9      23.014321   17.357146   21.643116 H          1 MOL1         0.0741
      18    H10     23.087040   18.467533   23.027530 H          1 MOL1         0.0741
      19    H11     22.482525   16.808777   23.246380 H          1 MOL1         0.0741
@<TRIPOS>BOND
    1     1     2    1
    2     1     3    2
    3     1     4    1
    4     4     5    1
    5     4     6    1
    6     4     7    1
    7     7     8    1
    8     7     9    1
    9     7    10    1
   10    10    11    1
   11    10    12    1
   12    10    13    1
   13    13    14    1
   14    13    15    1
   15    13    16    1
   16    16    17    1
   17    16    18    1
   18    16    19    1
@<TRIPOS>SUBSTRUCTURE
       1 MOL1            1 RESIDUE      1      MOL     
@<SCITEGIC>MOL_PROPERTY
VConf Rank
SciTegic.value.IntegerValue
569

@<SCITEGIC>MOL_PROPERTY
Conf_Id
SciTegic.value.IntegerValue
52

@<SCITEGIC>MOL_PROPERTY
Delta U+W
SciTegic.value.DoubleValue
2.070

@<SCITEGIC>MOL_PROPERTY
U+W
SciTegic.value.DoubleValue
-52.822

@<SCITEGIC>MOL_PROPERTY
Grad RMS
SciTegic.value.DoubleValue
0.000000

@<SCITEGIC>MOL_PROPERTY
U
SciTegic.value.DoubleValue
10.967

@<SCITEGIC>MOL_PROPERTY
W
SciTegic.value.DoubleValue
-63.789

@<SCITEGIC>MOL_PROPERTY
W(PB)
SciTegic.value.DoubleValue
-65.837

@<SCITEGIC>MOL_PROPERTY
W(SA)
SciTegic.value.DoubleValue
2.048

@<SCITEGIC>MOL_PROPERTY
Valence
SciTegic.value.DoubleValue
8.609

@<SCITEGIC>MOL_PROPERTY
Coulomb
SciTegic.value.DoubleValue
1.892

@<SCITEGIC>MOL_PROPERTY
VdW
SciTegic.value.DoubleValue
0.467

@<SCITEGIC>MOL_PROPERTY
VdW6
SciTegic.value.DoubleValue
-7.569

@<SCITEGIC>MOL_PROPERTY
VdW12
SciTegic.value.DoubleValue
8.035

@<SCITEGIC>MOL_PROPERTY
Bond
SciTegic.value.DoubleValue
0.170

@<SCITEGIC>MOL_PROPERTY
Angle
SciTegic.value.DoubleValue
3.196

@<SCITEGIC>MOL_PROPERTY
Pdih
SciTegic.value.DoubleValue
5.237

@<SCITEGIC>MOL_PROPERTY
Idih
SciTegic.value.DoubleValue
0.007

@<SCITEGIC>MOL_PROPERTY
Tether
SciTegic.value.DoubleValue
0.000

@<TRIPOS>MOLECULE
guest-7_confgen4.mol2 : confsearch ligand conformer 570
          19          18           1
SMALL
USER_CHARGES
 
@<TRIPOS>ATOM
       1    C1      18.616576   17.935928   24.094162 C.2        1 MOL1         0.6115
       2    O1      18.276284   18.786736   24.893189 O.co2      1 MOL1        -0.6776
       3    O2      17.831841   17.190247   23.542030 O.co2      1 MOL1        -0.6776
       4    C2      20.110166   17.701649   23.862464 C.3        1 MOL1        -0.2013
       5    H1      20.237440   17.018758   23.013937 H          1 MOL1         0.0727
       6    H2      20.474017   17.169325   24.748759 H          1 MOL1         0.0727
       7    C3      20.971065   18.980635   23.656512 C.3        1 MOL1        -0.1910
       8    H3      20.648704   19.766562   24.353421 H          1 MOL1         0.0729
       9    H4      22.005096   18.739905   23.937913 H          1 MOL1         0.0729
      10    C4      20.999763   19.537116   22.209900 C.3        1 MOL1        -0.1909
      11    H5      21.417250   18.784819   21.526679 H          1 MOL1         0.0729
      12    H6      21.708380   20.376504   22.193908 H          1 MOL1         0.0729
      13    C5      19.639095   20.049600   21.678928 C.3        1 MOL1        -0.1884
      14    H7      18.971800   20.303692   22.514099 H          1 MOL1         0.0729
      15    H8      19.803641   20.984683   21.126033 H          1 MOL1         0.0729
      16    C6      18.951801   19.045195   20.729234 C.3        1 MOL1        -0.2899
      17    H9      19.569346   18.861431   19.840524 H          1 MOL1         0.0741
      18    H10     18.773918   18.082646   21.222778 H          1 MOL1         0.0741
      19    H11     17.982549   19.434794   20.392512 H          1 MOL1         0.0741
@<TRIPOS>BOND
    1     1     2    1
    2     1     3    2
    3     1     4    1
    4     4     5    1
    5     4     6    1
    6     4     7    1
    7     7     8    1
    8     7     9    1
    9     7    10    1
   10    10    11    1
   11    10    12    1
   12    10    13    1
   13    13    14    1
   14    13    15    1
   15    13    16    1
   16    16    17    1
   17    16    18    1
   18    16    19    1
@<TRIPOS>SUBSTRUCTURE
       1 MOL1            1 RESIDUE      1      MOL     
@<SCITEGIC>MOL_PROPERTY
VConf Rank
SciTegic.value.IntegerValue
570

@<SCITEGIC>MOL_PROPERTY
Conf_Id
SciTegic.value.IntegerValue
66

@<SCITEGIC>MOL_PROPERTY
Delta U+W
SciTegic.value.DoubleValue
5.819

@<SCITEGIC>MOL_PROPERTY
U+W
SciTegic.value.DoubleValue
-49.072

@<SCITEGIC>MOL_PROPERTY
Grad RMS
SciTegic.value.DoubleValue
0.000000

@<SCITEGIC>MOL_PROPERTY
U
SciTegic.value.DoubleValue
15.324

@<SCITEGIC>MOL_PROPERTY
W
SciTegic.value.DoubleValue
-64.396

@<SCITEGIC>MOL_PROPERTY
W(PB)
SciTegic.value.DoubleValue
-66.382

@<SCITEGIC>MOL_PROPERTY
W(SA)
SciTegic.value.DoubleValue
1.986

@<SCITEGIC>MOL_PROPERTY
Valence
SciTegic.value.DoubleValue
11.748

@<SCITEGIC>MOL_PROPERTY
Coulomb
SciTegic.value.DoubleValue
3.201

@<SCITEGIC>MOL_PROPERTY
VdW
SciTegic.value.DoubleValue
0.375

@<SCITEGIC>MOL_PROPERTY
VdW6
SciTegic.value.DoubleValue
-8.854

@<SCITEGIC>MOL_PROPERTY
VdW12
SciTegic.value.DoubleValue
9.229

@<SCITEGIC>MOL_PROPERTY
Bond
SciTegic.value.DoubleValue
0.216

@<SCITEGIC>MOL_PROPERTY
Angle
SciTegic.value.DoubleValue
3.812

@<SCITEGIC>MOL_PROPERTY
Pdih
SciTegic.value.DoubleValue
7.699

@<SCITEGIC>MOL_PROPERTY
Idih
SciTegic.value.DoubleValue
0.022

@<SCITEGIC>MOL_PROPERTY
Tether
SciTegic.value.DoubleValue
0.000

@<TRIPOS>MOLECULE
guest-7_confgen4.mol2 : confsearch ligand conformer 571
          19          18           1
SMALL
USER_CHARGES
 
@<TRIPOS>ATOM
       1    C1      21.008902   18.792916   18.872978 C.2        1 MOL1         0.6115
       2    O1      21.735527   18.164548   18.129451 O.co2      1 MOL1        -0.6776
       3    O2      20.342071   19.740396   18.504519 O.co2      1 MOL1        -0.6776
       4    C2      20.952164   18.347035   20.335048 C.3        1 MOL1        -0.2013
       5    H1      21.975026   18.383429   20.728087 H          1 MOL1         0.0727
       6    H2      20.642059   17.295468   20.344564 H          1 MOL1         0.0727
       7    C3      20.010830   19.179230   21.245968 C.3        1 MOL1        -0.1910
       8    H3      20.323317   20.232547   21.227455 H          1 MOL1         0.0729
       9    H4      18.988965   19.143487   20.843497 H          1 MOL1         0.0729
      10    C4      20.014584   18.661734   22.700769 C.3        1 MOL1        -0.1909
      11    H5      21.037118   18.698171   23.101078 H          1 MOL1         0.0729
      12    H6      19.702011   17.608555   22.716934 H          1 MOL1         0.0729
      13    C5      19.078230   19.490396   23.604625 C.3        1 MOL1        -0.1884
      14    H7      19.388794   20.544388   23.592622 H          1 MOL1         0.0729
      15    H8      18.053833   19.454805   23.208599 H          1 MOL1         0.0729
      16    C6      19.084542   18.971044   25.056253 C.3        1 MOL1        -0.2899
      17    H9      20.092425   19.024949   25.488329 H          1 MOL1         0.0741
      18    H10     18.413832   19.571282   25.684720 H          1 MOL1         0.0741
      19    H11     18.747425   17.927141   25.101416 H          1 MOL1         0.0741
@<TRIPOS>BOND
    1     1     2    1
    2     1     3    2
    3     1     4    1
    4     4     5    1
    5     4     6    1
    6     4     7    1
    7     7     8    1
    8     7     9    1
    9     7    10    1
   10    10    11    1
   11    10    12    1
   12    10    13    1
   13    13    14    1
   14    13    15    1
   15    13    16    1
   16    16    17    1
   17    16    18    1
   18    16    19    1
@<TRIPOS>SUBSTRUCTURE
       1 MOL1            1 RESIDUE      1      MOL     
@<SCITEGIC>MOL_PROPERTY
VConf Rank
SciTegic.value.IntegerValue
571

@<SCITEGIC>MOL_PROPERTY
Conf_Id
SciTegic.value.IntegerValue
0

@<SCITEGIC>MOL_PROPERTY
Delta U+W
SciTegic.value.DoubleValue
0.000

@<SCITEGIC>MOL_PROPERTY
U+W
SciTegic.value.DoubleValue
-54.891

@<SCITEGIC>MOL_PROPERTY
Grad RMS
SciTegic.value.DoubleValue
0.000000

@<SCITEGIC>MOL_PROPERTY
U
SciTegic.value.DoubleValue
6.966

@<SCITEGIC>MOL_PROPERTY
W
SciTegic.value.DoubleValue
-61.857

@<SCITEGIC>MOL_PROPERTY
W(PB)
SciTegic.value.DoubleValue
-63.965

@<SCITEGIC>MOL_PROPERTY
W(SA)
SciTegic.value.DoubleValue
2.108

@<SCITEGIC>MOL_PROPERTY
Valence
SciTegic.value.DoubleValue
7.175

@<SCITEGIC>MOL_PROPERTY
Coulomb
SciTegic.value.DoubleValue
-1.360

@<SCITEGIC>MOL_PROPERTY
VdW
SciTegic.value.DoubleValue
1.151

@<SCITEGIC>MOL_PROPERTY
VdW6
SciTegic.value.DoubleValue
-5.641

@<SCITEGIC>MOL_PROPERTY
VdW12
SciTegic.value.DoubleValue
6.792

@<SCITEGIC>MOL_PROPERTY
Bond
SciTegic.value.DoubleValue
0.119

@<SCITEGIC>MOL_PROPERTY
Angle
SciTegic.value.DoubleValue
2.715

@<SCITEGIC>MOL_PROPERTY
Pdih
SciTegic.value.DoubleValue
4.340

@<SCITEGIC>MOL_PROPERTY
Idih
SciTegic.value.DoubleValue
0.000

@<SCITEGIC>MOL_PROPERTY
Tether
SciTegic.value.DoubleValue
0.000

@<TRIPOS>MOLECULE
guest-7_confgen4.mol2 : confsearch ligand conformer 572
          19          18           1
SMALL
USER_CHARGES
 
@<TRIPOS>ATOM
       1    C1      19.812986   15.603950   22.784811 C.2        1 MOL1         0.6115
       2    O1      20.178561   15.284484   23.898578 O.co2      1 MOL1        -0.6776
       3    O2      18.986141   14.985002   22.144956 O.co2      1 MOL1        -0.6776
       4    C2      20.409554   16.862285   22.164271 C.3        1 MOL1        -0.2013
       5    H1      20.458041   16.716805   21.078349 H          1 MOL1         0.0727
       6    H2      21.440591   16.963891   22.523968 H          1 MOL1         0.0727
       7    C3      19.599586   18.139674   22.496449 C.3        1 MOL1        -0.1910
       8    H3      18.566909   18.017059   22.141353 H          1 MOL1         0.0729
       9    H4      19.549383   18.264070   23.587115 H          1 MOL1         0.0729
      10    C4      20.224007   19.398593   21.857035 C.3        1 MOL1        -0.1909
      11    H5      20.274062   19.270584   20.766943 H          1 MOL1         0.0729
      12    H6      21.256627   19.517688   22.212989 H          1 MOL1         0.0729
      13    C5      19.415017   20.669555   22.189547 C.3        1 MOL1        -0.1884
      14    H7      18.381829   20.555046   21.833312 H          1 MOL1         0.0729
      15    H8      19.364366   20.802179   23.279197 H          1 MOL1         0.0729
      16    C6      20.041260   21.924578   21.549474 C.3        1 MOL1        -0.2899
      17    H9      19.453749   22.818572   21.795877 H          1 MOL1         0.0741
      18    H10     21.065431   22.081299   21.912705 H          1 MOL1         0.0741
      19    H11     20.075560   21.832286   20.455980 H          1 MOL1         0.0741
@<TRIPOS>BOND
    1     1     2    1
    2     1     3    2
    3     1     4    1
    4     4     5    1
    5     4     6    1
    6     4     7    1
    7     7     8    1
    8     7     9    1
    9     7    10    1
   10    10    11    1
   11    10    12    1
   12    10    13    1
   13    13    14    1
   14    13    15    1
   15    13    16    1
   16    16    17    1
   17    16    18    1
   18    16    19    1
@<TRIPOS>SUBSTRUCTURE
       1 MOL1            1 RESIDUE      1      MOL     
@<SCITEGIC>MOL_PROPERTY
VConf Rank
SciTegic.value.IntegerValue
572

@<SCITEGIC>MOL_PROPERTY
Conf_Id
SciTegic.value.IntegerValue
18

@<SCITEGIC>MOL_PROPERTY
Delta U+W
SciTegic.value.DoubleValue
-1.199

@<SCITEGIC>MOL_PROPERTY
U+W
SciTegic.value.DoubleValue
-56.090

@<SCITEGIC>MOL_PROPERTY
Grad RMS
SciTegic.value.DoubleValue
0.000000

@<SCITEGIC>MOL_PROPERTY
U
SciTegic.value.DoubleValue
5.975

@<SCITEGIC>MOL_PROPERTY
W
SciTegic.value.DoubleValue
-62.066

@<SCITEGIC>MOL_PROPERTY
W(PB)
SciTegic.value.DoubleValue
-64.219

@<SCITEGIC>MOL_PROPERTY
W(SA)
SciTegic.value.DoubleValue
2.153

@<SCITEGIC>MOL_PROPERTY
Valence
SciTegic.value.DoubleValue
6.673

@<SCITEGIC>MOL_PROPERTY
Coulomb
SciTegic.value.DoubleValue
-1.307

@<SCITEGIC>MOL_PROPERTY
VdW
SciTegic.value.DoubleValue
0.610

@<SCITEGIC>MOL_PROPERTY
VdW6
SciTegic.value.DoubleValue
-5.351

@<SCITEGIC>MOL_PROPERTY
VdW12
SciTegic.value.DoubleValue
5.961

@<SCITEGIC>MOL_PROPERTY
Bond
SciTegic.value.DoubleValue
0.086

@<SCITEGIC>MOL_PROPERTY
Angle
SciTegic.value.DoubleValue
2.253

@<SCITEGIC>MOL_PROPERTY
Pdih
SciTegic.value.DoubleValue
4.333

@<SCITEGIC>MOL_PROPERTY
Idih
SciTegic.value.DoubleValue
0.001

@<SCITEGIC>MOL_PROPERTY
Tether
SciTegic.value.DoubleValue
0.000

@<TRIPOS>MOLECULE
guest-7_confgen4.mol2 : confsearch ligand conformer 573
          19          18           1
SMALL
USER_CHARGES
 
@<TRIPOS>ATOM
       1    C1      18.144028   16.287317   22.152684 C.2        1 MOL1         0.6115
       2    O1      18.584292   15.157527   22.230339 O.co2      1 MOL1        -0.6776
       3    O2      16.983909   16.573381   22.373035 O.co2      1 MOL1        -0.6776
       4    C2      19.104774   17.410580   21.779045 C.3        1 MOL1        -0.2013
       5    H1      18.539551   18.157071   21.209732 H          1 MOL1         0.0727
       6    H2      19.866805   16.997309   21.107460 H          1 MOL1         0.0727
       7    C3      19.777873   18.060884   23.015663 C.3        1 MOL1        -0.1910
       8    H3      19.008306   18.510116   23.658521 H          1 MOL1         0.0729
       9    H4      20.257661   17.271943   23.611314 H          1 MOL1         0.0729
      10    C4      20.841703   19.123854   22.652491 C.3        1 MOL1        -0.1909
      11    H5      21.614044   18.669495   22.016840 H          1 MOL1         0.0729
      12    H6      21.346141   19.441670   23.575285 H          1 MOL1         0.0729
      13    C5      20.252815   20.366958   21.948634 C.3        1 MOL1        -0.1884
      14    H7      19.809367   20.082292   20.985472 H          1 MOL1         0.0729
      15    H8      19.445380   20.791874   22.560813 H          1 MOL1         0.0729
      16    C6      21.330838   21.442174   21.705639 C.3        1 MOL1        -0.2899
      17    H9      20.898171   22.316847   21.202812 H          1 MOL1         0.0741
      18    H10     21.770557   21.779481   22.653403 H          1 MOL1         0.0741
      19    H11     22.138433   21.052086   21.072372 H          1 MOL1         0.0741
@<TRIPOS>BOND
    1     1     2    1
    2     1     3    2
    3     1     4    1
    4     4     5    1
    5     4     6    1
    6     4     7    1
    7     7     8    1
    8     7     9    1
    9     7    10    1
   10    10    11    1
   11    10    12    1
   12    10    13    1
   13    13    14    1
   14    13    15    1
   15    13    16    1
   16    16    17    1
   17    16    18    1
   18    16    19    1
@<TRIPOS>SUBSTRUCTURE
       1 MOL1            1 RESIDUE      1      MOL     
@<SCITEGIC>MOL_PROPERTY
VConf Rank
SciTegic.value.IntegerValue
573

@<SCITEGIC>MOL_PROPERTY
Conf_Id
SciTegic.value.IntegerValue
34

@<SCITEGIC>MOL_PROPERTY
Delta U+W
SciTegic.value.DoubleValue
-0.563

@<SCITEGIC>MOL_PROPERTY
U+W
SciTegic.value.DoubleValue
-55.455

@<SCITEGIC>MOL_PROPERTY
Grad RMS
SciTegic.value.DoubleValue
0.000000

@<SCITEGIC>MOL_PROPERTY
U
SciTegic.value.DoubleValue
6.914

@<SCITEGIC>MOL_PROPERTY
W
SciTegic.value.DoubleValue
-62.369

@<SCITEGIC>MOL_PROPERTY
W(PB)
SciTegic.value.DoubleValue
-64.446

@<SCITEGIC>MOL_PROPERTY
W(SA)
SciTegic.value.DoubleValue
2.077

@<SCITEGIC>MOL_PROPERTY
Valence
SciTegic.value.DoubleValue
7.196

@<SCITEGIC>MOL_PROPERTY
Coulomb
SciTegic.value.DoubleValue
-1.020

@<SCITEGIC>MOL_PROPERTY
VdW
SciTegic.value.DoubleValue
0.738

@<SCITEGIC>MOL_PROPERTY
VdW6
SciTegic.value.DoubleValue
-6.010

@<SCITEGIC>MOL_PROPERTY
VdW12
SciTegic.value.DoubleValue
6.748

@<SCITEGIC>MOL_PROPERTY
Bond
SciTegic.value.DoubleValue
0.126

@<SCITEGIC>MOL_PROPERTY
Angle
SciTegic.value.DoubleValue
2.499

@<SCITEGIC>MOL_PROPERTY
Pdih
SciTegic.value.DoubleValue
4.570

@<SCITEGIC>MOL_PROPERTY
Idih
SciTegic.value.DoubleValue
0.001

@<SCITEGIC>MOL_PROPERTY
Tether
SciTegic.value.DoubleValue
0.000

@<TRIPOS>MOLECULE
guest-7_confgen4.mol2 : confsearch ligand conformer 574
          19          18           1
SMALL
USER_CHARGES
 
@<TRIPOS>ATOM
       1    C1      18.255752   19.241749   19.488961 C.2        1 MOL1         0.6115
       2    O1      17.598980   20.228742   19.222902 O.co2      1 MOL1        -0.6776
       3    O2      18.095786   18.163192   18.952876 O.co2      1 MOL1        -0.6776
       4    C2      19.324226   19.357622   20.570301 C.3        1 MOL1        -0.2013
       5    H1      19.725435   20.377852   20.544354 H          1 MOL1         0.0727
       6    H2      20.142651   18.679204   20.304265 H          1 MOL1         0.0727
       7    C3      18.782672   19.031906   21.986566 C.3        1 MOL1        -0.1910
       8    H3      17.907729   19.666705   22.183867 H          1 MOL1         0.0729
       9    H4      18.424545   17.993457   22.012631 H          1 MOL1         0.0729
      10    C4      19.820912   19.255443   23.111561 C.3        1 MOL1        -0.1909
      11    H5      19.320794   19.117281   24.079965 H          1 MOL1         0.0729
      12    H6      20.170604   20.296681   23.088189 H          1 MOL1         0.0729
      13    C5      21.030740   18.297731   23.030224 C.3        1 MOL1        -0.1884
      14    H7      20.678686   17.257281   23.002105 H          1 MOL1         0.0729
      15    H8      21.590243   18.472333   22.101873 H          1 MOL1         0.0729
      16    C6      21.980581   18.484347   24.230325 C.3        1 MOL1        -0.2899
      17    H9      22.369734   19.510321   24.266959 H          1 MOL1         0.0741
      18    H10     21.463313   18.279631   25.176851 H          1 MOL1         0.0741
      19    H11     22.835664   17.799863   24.156796 H          1 MOL1         0.0741
@<TRIPOS>BOND
    1     1     2    1
    2     1     3    2
    3     1     4    1
    4     4     5    1
    5     4     6    1
    6     4     7    1
    7     7     8    1
    8     7     9    1
    9     7    10    1
   10    10    11    1
   11    10    12    1
   12    10    13    1
   13    13    14    1
   14    13    15    1
   15    13    16    1
   16    16    17    1
   17    16    18    1
   18    16    19    1
@<TRIPOS>SUBSTRUCTURE
       1 MOL1            1 RESIDUE      1      MOL     
@<SCITEGIC>MOL_PROPERTY
VConf Rank
SciTegic.value.IntegerValue
574

@<SCITEGIC>MOL_PROPERTY
Conf_Id
SciTegic.value.IntegerValue
33

@<SCITEGIC>MOL_PROPERTY
Delta U+W
SciTegic.value.DoubleValue
-0.526

@<SCITEGIC>MOL_PROPERTY
U+W
SciTegic.value.DoubleValue
-55.418

@<SCITEGIC>MOL_PROPERTY
Grad RMS
SciTegic.value.DoubleValue
0.000000

@<SCITEGIC>MOL_PROPERTY
U
SciTegic.value.DoubleValue
6.914

@<SCITEGIC>MOL_PROPERTY
W
SciTegic.value.DoubleValue
-62.332

@<SCITEGIC>MOL_PROPERTY
W(PB)
SciTegic.value.DoubleValue
-64.421

@<SCITEGIC>MOL_PROPERTY
W(SA)
SciTegic.value.DoubleValue
2.090

@<SCITEGIC>MOL_PROPERTY
Valence
SciTegic.value.DoubleValue
7.196

@<SCITEGIC>MOL_PROPERTY
Coulomb
SciTegic.value.DoubleValue
-1.020

@<SCITEGIC>MOL_PROPERTY
VdW
SciTegic.value.DoubleValue
0.738

@<SCITEGIC>MOL_PROPERTY
VdW6
SciTegic.value.DoubleValue
-6.010

@<SCITEGIC>MOL_PROPERTY
VdW12
SciTegic.value.DoubleValue
6.748

@<SCITEGIC>MOL_PROPERTY
Bond
SciTegic.value.DoubleValue
0.126

@<SCITEGIC>MOL_PROPERTY
Angle
SciTegic.value.DoubleValue
2.499

@<SCITEGIC>MOL_PROPERTY
Pdih
SciTegic.value.DoubleValue
4.570

@<SCITEGIC>MOL_PROPERTY
Idih
SciTegic.value.DoubleValue
0.001

@<SCITEGIC>MOL_PROPERTY
Tether
SciTegic.value.DoubleValue
0.000

@<TRIPOS>MOLECULE
guest-7_confgen4.mol2 : confsearch ligand conformer 575
          19          18           1
SMALL
USER_CHARGES
 
@<TRIPOS>ATOM
       1    C1      19.363287   16.193635   23.694517 C.2        1 MOL1         0.6115
       2    O1      19.592927   16.304044   24.882496 O.co2      1 MOL1        -0.6776
       3    O2      18.481684   15.490272   23.242519 O.co2      1 MOL1        -0.6776
       4    C2      20.216890   16.995275   22.718179 C.3        1 MOL1        -0.2013
       5    H1      20.311811   16.414671   21.792670 H          1 MOL1         0.0727
       6    H2      21.222602   17.092376   23.144608 H          1 MOL1         0.0727
       7    C3      19.629149   18.395326   22.413451 C.3        1 MOL1        -0.1910
       8    H3      18.619068   18.281718   21.996235 H          1 MOL1         0.0729
       9    H4      19.526144   18.950155   23.355351 H          1 MOL1         0.0729
      10    C4      20.516010   19.186592   21.424494 C.3        1 MOL1        -0.1909
      11    H5      20.665765   18.584325   20.517940 H          1 MOL1         0.0729
      12    H6      21.511342   19.342619   21.862648 H          1 MOL1         0.0729
      13    C5      19.912450   20.549628   21.014085 C.3        1 MOL1        -0.1884
      14    H7      20.539706   20.990251   20.226911 H          1 MOL1         0.0729
      15    H8      18.918946   20.397185   20.570194 H          1 MOL1         0.0729
      16    C6      19.809941   21.549965   22.185695 C.3        1 MOL1        -0.2899
      17    H9      20.787064   21.696028   22.664289 H          1 MOL1         0.0741
      18    H10     19.460092   22.526570   21.826823 H          1 MOL1         0.0741
      19    H11     19.101113   21.203178   22.947958 H          1 MOL1         0.0741
@<TRIPOS>BOND
    1     1     2    1
    2     1     3    2
    3     1     4    1
    4     4     5    1
    5     4     6    1
    6     4     7    1
    7     7     8    1
    8     7     9    1
    9     7    10    1
   10    10    11    1
   11    10    12    1
   12    10    13    1
   13    13    14    1
   14    13    15    1
   15    13    16    1
   16    16    17    1
   17    16    18    1
   18    16    19    1
@<TRIPOS>SUBSTRUCTURE
       1 MOL1            1 RESIDUE      1      MOL     
@<SCITEGIC>MOL_PROPERTY
VConf Rank
SciTegic.value.IntegerValue
575

@<SCITEGIC>MOL_PROPERTY
Conf_Id
SciTegic.value.IntegerValue
42

@<SCITEGIC>MOL_PROPERTY
Delta U+W
SciTegic.value.DoubleValue
-0.344

@<SCITEGIC>MOL_PROPERTY
U+W
SciTegic.value.DoubleValue
-55.236

@<SCITEGIC>MOL_PROPERTY
Grad RMS
SciTegic.value.DoubleValue
0.000000

@<SCITEGIC>MOL_PROPERTY
U
SciTegic.value.DoubleValue
7.244

@<SCITEGIC>MOL_PROPERTY
W
SciTegic.value.DoubleValue
-62.479

@<SCITEGIC>MOL_PROPERTY
W(PB)
SciTegic.value.DoubleValue
-64.610

@<SCITEGIC>MOL_PROPERTY
W(SA)
SciTegic.value.DoubleValue
2.130

@<SCITEGIC>MOL_PROPERTY
Valence
SciTegic.value.DoubleValue
7.174

@<SCITEGIC>MOL_PROPERTY
Coulomb
SciTegic.value.DoubleValue
-0.669

@<SCITEGIC>MOL_PROPERTY
VdW
SciTegic.value.DoubleValue
0.739

@<SCITEGIC>MOL_PROPERTY
VdW6
SciTegic.value.DoubleValue
-5.969

@<SCITEGIC>MOL_PROPERTY
VdW12
SciTegic.value.DoubleValue
6.708

@<SCITEGIC>MOL_PROPERTY
Bond
SciTegic.value.DoubleValue
0.116

@<SCITEGIC>MOL_PROPERTY
Angle
SciTegic.value.DoubleValue
2.481

@<SCITEGIC>MOL_PROPERTY
Pdih
SciTegic.value.DoubleValue
4.576

@<SCITEGIC>MOL_PROPERTY
Idih
SciTegic.value.DoubleValue
0.000

@<SCITEGIC>MOL_PROPERTY
Tether
SciTegic.value.DoubleValue
0.000

@<TRIPOS>MOLECULE
guest-7_confgen4.mol2 : confsearch ligand conformer 576
          19          18           1
SMALL
USER_CHARGES
 
@<TRIPOS>ATOM
       1    C1      21.278515   17.623286   24.848508 C.2        1 MOL1         0.6115
       2    O1      22.358027   18.122877   25.096060 O.co2      1 MOL1        -0.6776
       3    O2      21.014357   16.455672   25.056221 O.co2      1 MOL1        -0.6776
       4    C2      20.202045   18.505572   24.226187 C.3        1 MOL1        -0.2013
       5    H1      20.336169   19.525909   24.605199 H          1 MOL1         0.0727
       6    H2      19.225970   18.153523   24.581178 H          1 MOL1         0.0727
       7    C3      20.241266   18.502064   22.677996 C.3        1 MOL1        -0.1910
       8    H3      21.232248   18.839615   22.346885 H          1 MOL1         0.0729
       9    H4      20.115109   17.472964   22.314297 H          1 MOL1         0.0729
      10    C4      19.142297   19.406935   22.074561 C.3        1 MOL1        -0.1909
      11    H5      19.297579   20.445009   22.399052 H          1 MOL1         0.0729
      12    H6      18.166261   19.098610   22.473663 H          1 MOL1         0.0729
      13    C5      19.080917   19.351665   20.530615 C.3        1 MOL1        -0.1884
      14    H7      18.920050   18.315486   20.202314 H          1 MOL1         0.0729
      15    H8      18.206196   19.923820   20.191873 H          1 MOL1         0.0729
      16    C6      20.342688   19.922760   19.848239 C.3        1 MOL1        -0.2899
      17    H9      21.227630   19.312067   20.066589 H          1 MOL1         0.0741
      18    H10     20.213709   19.942616   18.758325 H          1 MOL1         0.0741
      19    H11     20.540484   20.949102   20.183879 H          1 MOL1         0.0741
@<TRIPOS>BOND
    1     1     2    1
    2     1     3    2
    3     1     4    1
    4     4     5    1
    5     4     6    1
    6     4     7    1
    7     7     8    1
    8     7     9    1
    9     7    10    1
   10    10    11    1
   11    10    12    1
   12    10    13    1
   13    13    14    1
   14    13    15    1
   15    13    16    1
   16    16    17    1
   17    16    18    1
   18    16    19    1
@<TRIPOS>SUBSTRUCTURE
       1 MOL1            1 RESIDUE      1      MOL     
@<SCITEGIC>MOL_PROPERTY
VConf Rank
SciTegic.value.IntegerValue
576

@<SCITEGIC>MOL_PROPERTY
Conf_Id
SciTegic.value.IntegerValue
41

@<SCITEGIC>MOL_PROPERTY
Delta U+W
SciTegic.value.DoubleValue
-0.361

@<SCITEGIC>MOL_PROPERTY
U+W
SciTegic.value.DoubleValue
-55.252

@<SCITEGIC>MOL_PROPERTY
Grad RMS
SciTegic.value.DoubleValue
0.000000

@<SCITEGIC>MOL_PROPERTY
U
SciTegic.value.DoubleValue
7.244

@<SCITEGIC>MOL_PROPERTY
W
SciTegic.value.DoubleValue
-62.496

@<SCITEGIC>MOL_PROPERTY
W(PB)
SciTegic.value.DoubleValue
-64.596

@<SCITEGIC>MOL_PROPERTY
W(SA)
SciTegic.value.DoubleValue
2.099

@<SCITEGIC>MOL_PROPERTY
Valence
SciTegic.value.DoubleValue
7.174

@<SCITEGIC>MOL_PROPERTY
Coulomb
SciTegic.value.DoubleValue
-0.669

@<SCITEGIC>MOL_PROPERTY
VdW
SciTegic.value.DoubleValue
0.739

@<SCITEGIC>MOL_PROPERTY
VdW6
SciTegic.value.DoubleValue
-5.969

@<SCITEGIC>MOL_PROPERTY
VdW12
SciTegic.value.DoubleValue
6.708

@<SCITEGIC>MOL_PROPERTY
Bond
SciTegic.value.DoubleValue
0.116

@<SCITEGIC>MOL_PROPERTY
Angle
SciTegic.value.DoubleValue
2.481

@<SCITEGIC>MOL_PROPERTY
Pdih
SciTegic.value.DoubleValue
4.576

@<SCITEGIC>MOL_PROPERTY
Idih
SciTegic.value.DoubleValue
0.000

@<SCITEGIC>MOL_PROPERTY
Tether
SciTegic.value.DoubleValue
0.000

@<TRIPOS>MOLECULE
guest-7_confgen4.mol2 : confsearch ligand conformer 577
          19          18           1
SMALL
USER_CHARGES
 
@<TRIPOS>ATOM
       1    C1      18.034018   18.328070   20.207765 C.2        1 MOL1         0.6115
       2    O1      18.156604   17.119203   20.194996 O.co2      1 MOL1        -0.6776
       3    O2      16.959572   18.893936   20.252956 O.co2      1 MOL1        -0.6776
       4    C2      19.295670   19.184311   20.141205 C.3        1 MOL1        -0.2013
       5    H1      19.122446   19.965804   19.391956 H          1 MOL1         0.0727
       6    H2      20.120435   18.564709   19.768591 H          1 MOL1         0.0727
       7    C3      19.686190   19.839412   21.491549 C.3        1 MOL1        -0.1910
       8    H3      20.514195   20.540739   21.321011 H          1 MOL1         0.0729
       9    H4      18.840667   20.433167   21.865951 H          1 MOL1         0.0729
      10    C4      20.108737   18.801584   22.555352 C.3        1 MOL1        -0.1909
      11    H5      20.945480   18.202054   22.171351 H          1 MOL1         0.0729
      12    H6      19.279234   18.106106   22.744183 H          1 MOL1         0.0729
      13    C5      20.522843   19.476942   23.879366 C.3        1 MOL1        -0.1884
      14    H7      21.355223   20.170807   23.697367 H          1 MOL1         0.0729
      15    H8      19.686764   20.075437   24.266984 H          1 MOL1         0.0729
      16    C6      20.943955   18.438880   24.938642 C.3        1 MOL1        -0.2899
      17    H9      21.799682   17.846333   24.589320 H          1 MOL1         0.0741
      18    H10     21.234632   18.935905   25.873286 H          1 MOL1         0.0741
      19    H11     20.118873   17.750212   25.163184 H          1 MOL1         0.0741
@<TRIPOS>BOND
    1     1     2    1
    2     1     3    2
    3     1     4    1
    4     4     5    1
    5     4     6    1
    6     4     7    1
    7     7     8    1
    8     7     9    1
    9     7    10    1
   10    10    11    1
   11    10    12    1
   12    10    13    1
   13    13    14    1
   14    13    15    1
   15    13    16    1
   16    16    17    1
   17    16    18    1
   18    16    19    1
@<TRIPOS>SUBSTRUCTURE
       1 MOL1            1 RESIDUE      1      MOL     
@<SCITEGIC>MOL_PROPERTY
VConf Rank
SciTegic.value.IntegerValue
577

@<SCITEGIC>MOL_PROPERTY
Conf_Id
SciTegic.value.IntegerValue
36

@<SCITEGIC>MOL_PROPERTY
Delta U+W
SciTegic.value.DoubleValue
-0.079

@<SCITEGIC>MOL_PROPERTY
U+W
SciTegic.value.DoubleValue
-54.971

@<SCITEGIC>MOL_PROPERTY
Grad RMS
SciTegic.value.DoubleValue
0.000000

@<SCITEGIC>MOL_PROPERTY
U
SciTegic.value.DoubleValue
8.266

@<SCITEGIC>MOL_PROPERTY
W
SciTegic.value.DoubleValue
-63.237

@<SCITEGIC>MOL_PROPERTY
W(PB)
SciTegic.value.DoubleValue
-65.340

@<SCITEGIC>MOL_PROPERTY
W(SA)
SciTegic.value.DoubleValue
2.103

@<SCITEGIC>MOL_PROPERTY
Valence
SciTegic.value.DoubleValue
6.935

@<SCITEGIC>MOL_PROPERTY
Coulomb
SciTegic.value.DoubleValue
0.874

@<SCITEGIC>MOL_PROPERTY
VdW
SciTegic.value.DoubleValue
0.457

@<SCITEGIC>MOL_PROPERTY
VdW6
SciTegic.value.DoubleValue
-6.205

@<SCITEGIC>MOL_PROPERTY
VdW12
SciTegic.value.DoubleValue
6.662

@<SCITEGIC>MOL_PROPERTY
Bond
SciTegic.value.DoubleValue
0.107

@<SCITEGIC>MOL_PROPERTY
Angle
SciTegic.value.DoubleValue
2.420

@<SCITEGIC>MOL_PROPERTY
Pdih
SciTegic.value.DoubleValue
4.407

@<SCITEGIC>MOL_PROPERTY
Idih
SciTegic.value.DoubleValue
0.001

@<SCITEGIC>MOL_PROPERTY
Tether
SciTegic.value.DoubleValue
0.000

@<TRIPOS>MOLECULE
guest-7_confgen4.mol2 : confsearch ligand conformer 578
          19          18           1
SMALL
USER_CHARGES
 
@<TRIPOS>ATOM
       1    C1      19.541327   21.387184   20.955942 C.2        1 MOL1         0.6115
       2    O1      20.020499   22.192361   21.729658 O.co2      1 MOL1        -0.6776
       3    O2      18.407488   21.461945   20.525244 O.co2      1 MOL1        -0.6776
       4    C2      20.416258   20.230243   20.481255 C.3        1 MOL1        -0.2013
       5    H1      21.466168   20.483545   20.672341 H          1 MOL1         0.0727
       6    H2      20.300651   20.156571   19.393451 H          1 MOL1         0.0727
       7    C3      20.067716   18.866509   21.132286 C.3        1 MOL1        -0.1910
       8    H3      19.006729   18.640187   20.957021 H          1 MOL1         0.0729
       9    H4      20.646032   18.076120   20.634924 H          1 MOL1         0.0729
      10    C4      20.365473   18.838270   22.648153 C.3        1 MOL1        -0.1909
      11    H5      19.777382   19.615494   23.155592 H          1 MOL1         0.0729
      12    H6      21.423990   19.077876   22.818915 H          1 MOL1         0.0729
      13    C5      20.041160   17.463271   23.268480 C.3        1 MOL1        -0.1884
      14    H7      18.982226   17.222146   23.101172 H          1 MOL1         0.0729
      15    H8      20.629807   16.682216   22.767603 H          1 MOL1         0.0729
      16    C6      20.339315   17.438332   24.780915 C.3        1 MOL1        -0.2899
      17    H9      19.739968   18.189694   25.311653 H          1 MOL1         0.0741
      18    H10     20.102760   16.454127   25.205731 H          1 MOL1         0.0741
      19    H11     21.399737   17.645724   24.975594 H          1 MOL1         0.0741
@<TRIPOS>BOND
    1     1     2    1
    2     1     3    2
    3     1     4    1
    4     4     5    1
    5     4     6    1
    6     4     7    1
    7     7     8    1
    8     7     9    1
    9     7    10    1
   10    10    11    1
   11    10    12    1
   12    10    13    1
   13    13    14    1
   14    13    15    1
   15    13    16    1
   16    16    17    1
   17    16    18    1
   18    16    19    1
@<TRIPOS>SUBSTRUCTURE
       1 MOL1            1 RESIDUE      1      MOL     
@<SCITEGIC>MOL_PROPERTY
VConf Rank
SciTegic.value.IntegerValue
578

@<SCITEGIC>MOL_PROPERTY
Conf_Id
SciTegic.value.IntegerValue
35

@<SCITEGIC>MOL_PROPERTY
Delta U+W
SciTegic.value.DoubleValue
-0.030

@<SCITEGIC>MOL_PROPERTY
U+W
SciTegic.value.DoubleValue
-54.921

@<SCITEGIC>MOL_PROPERTY
Grad RMS
SciTegic.value.DoubleValue
0.000000

@<SCITEGIC>MOL_PROPERTY
U
SciTegic.value.DoubleValue
8.267

@<SCITEGIC>MOL_PROPERTY
W
SciTegic.value.DoubleValue
-63.188

@<SCITEGIC>MOL_PROPERTY
W(PB)
SciTegic.value.DoubleValue
-65.294

@<SCITEGIC>MOL_PROPERTY
W(SA)
SciTegic.value.DoubleValue
2.106

@<SCITEGIC>MOL_PROPERTY
Valence
SciTegic.value.DoubleValue
6.935

@<SCITEGIC>MOL_PROPERTY
Coulomb
SciTegic.value.DoubleValue
0.875

@<SCITEGIC>MOL_PROPERTY
VdW
SciTegic.value.DoubleValue
0.457

@<SCITEGIC>MOL_PROPERTY
VdW6
SciTegic.value.DoubleValue
-6.205

@<SCITEGIC>MOL_PROPERTY
VdW12
SciTegic.value.DoubleValue
6.662

@<SCITEGIC>MOL_PROPERTY
Bond
SciTegic.value.DoubleValue
0.107

@<SCITEGIC>MOL_PROPERTY
Angle
SciTegic.value.DoubleValue
2.420

@<SCITEGIC>MOL_PROPERTY
Pdih
SciTegic.value.DoubleValue
4.407

@<SCITEGIC>MOL_PROPERTY
Idih
SciTegic.value.DoubleValue
0.001

@<SCITEGIC>MOL_PROPERTY
Tether
SciTegic.value.DoubleValue
0.000

@<TRIPOS>MOLECULE
guest-7_confgen4.mol2 : confsearch ligand conformer 579
          19          18           1
SMALL
USER_CHARGES
 
@<TRIPOS>ATOM
       1    C1      22.240725   16.903371   22.240881 C.2        1 MOL1         0.6115
       2    O1      21.848280   15.770079   22.045063 O.co2      1 MOL1        -0.6776
       3    O2      23.026558   17.199644   23.119138 O.co2      1 MOL1        -0.6776
       4    C2      21.734711   18.009451   21.318917 C.3        1 MOL1        -0.2013
       5    H1      21.806598   17.636461   20.290421 H          1 MOL1         0.0727
       6    H2      22.414572   18.866866   21.393657 H          1 MOL1         0.0727
       7    C3      20.277341   18.455831   21.606214 C.3        1 MOL1        -0.1910
       8    H3      19.956382   19.133359   20.804783 H          1 MOL1         0.0729
       9    H4      19.614215   17.580594   21.566810 H          1 MOL1         0.0729
      10    C4      20.131730   19.163237   22.974811 C.3        1 MOL1        -0.1909
      11    H5      20.766527   20.059518   22.997869 H          1 MOL1         0.0729
      12    H6      20.505290   18.498909   23.766104 H          1 MOL1         0.0729
      13    C5      18.673981   19.552300   23.313083 C.3        1 MOL1        -0.1884
      14    H7      18.036896   18.657299   23.292862 H          1 MOL1         0.0729
      15    H8      18.641355   19.933018   24.343234 H          1 MOL1         0.0729
      16    C6      18.092033   20.626183   22.368557 C.3        1 MOL1        -0.2899
      17    H9      17.994794   20.248337   21.343179 H          1 MOL1         0.0741
      18    H10     17.093175   20.932439   22.705343 H          1 MOL1         0.0741
      19    H11     18.730262   21.519155   22.348273 H          1 MOL1         0.0741
@<TRIPOS>BOND
    1     1     2    1
    2     1     3    2
    3     1     4    1
    4     4     5    1
    5     4     6    1
    6     4     7    1
    7     7     8    1
    8     7     9    1
    9     7    10    1
   10    10    11    1
   11    10    12    1
   12    10    13    1
   13    13    14    1
   14    13    15    1
   15    13    16    1
   16    16    17    1
   17    16    18    1
   18    16    19    1
@<TRIPOS>SUBSTRUCTURE
       1 MOL1            1 RESIDUE      1      MOL     
@<SCITEGIC>MOL_PROPERTY
VConf Rank
SciTegic.value.IntegerValue
579

@<SCITEGIC>MOL_PROPERTY
Conf_Id
SciTegic.value.IntegerValue
74

@<SCITEGIC>MOL_PROPERTY
Delta U+W
SciTegic.value.DoubleValue
0.797

@<SCITEGIC>MOL_PROPERTY
U+W
SciTegic.value.DoubleValue
-54.095

@<SCITEGIC>MOL_PROPERTY
Grad RMS
SciTegic.value.DoubleValue
0.000000

@<SCITEGIC>MOL_PROPERTY
U
SciTegic.value.DoubleValue
8.869

@<SCITEGIC>MOL_PROPERTY
W
SciTegic.value.DoubleValue
-62.964

@<SCITEGIC>MOL_PROPERTY
W(PB)
SciTegic.value.DoubleValue
-65.046

@<SCITEGIC>MOL_PROPERTY
W(SA)
SciTegic.value.DoubleValue
2.082

@<SCITEGIC>MOL_PROPERTY
Valence
SciTegic.value.DoubleValue
7.469

@<SCITEGIC>MOL_PROPERTY
Coulomb
SciTegic.value.DoubleValue
0.762

@<SCITEGIC>MOL_PROPERTY
VdW
SciTegic.value.DoubleValue
0.639

@<SCITEGIC>MOL_PROPERTY
VdW6
SciTegic.value.DoubleValue
-6.782

@<SCITEGIC>MOL_PROPERTY
VdW12
SciTegic.value.DoubleValue
7.421

@<SCITEGIC>MOL_PROPERTY
Bond
SciTegic.value.DoubleValue
0.141

@<SCITEGIC>MOL_PROPERTY
Angle
SciTegic.value.DoubleValue
2.667

@<SCITEGIC>MOL_PROPERTY
Pdih
SciTegic.value.DoubleValue
4.660

@<SCITEGIC>MOL_PROPERTY
Idih
SciTegic.value.DoubleValue
0.001

@<SCITEGIC>MOL_PROPERTY
Tether
SciTegic.value.DoubleValue
0.000

@<TRIPOS>MOLECULE
guest-7_confgen4.mol2 : confsearch ligand conformer 580
          19          18           1
SMALL
USER_CHARGES
 
@<TRIPOS>ATOM
       1    C1      20.285595   19.703670   19.490612 C.2        1 MOL1         0.6115
       2    O1      21.297032   19.792624   18.823151 O.co2      1 MOL1        -0.6776
       3    O2      19.179031   19.541704   19.015632 O.co2      1 MOL1        -0.6776
       4    C2      20.415033   19.780728   21.007690 C.3        1 MOL1        -0.2013
       5    H1      19.504011   20.249387   21.396993 H          1 MOL1         0.0727
       6    H2      21.252230   20.447854   21.245173 H          1 MOL1         0.0727
       7    C3      20.634633   18.392625   21.663080 C.3        1 MOL1        -0.1910
       8    H3      19.773058   17.745796   21.450763 H          1 MOL1         0.0729
       9    H4      21.500161   17.911255   21.187326 H          1 MOL1         0.0729
      10    C4      20.886938   18.461764   23.190264 C.3        1 MOL1        -0.1909
      11    H5      21.810611   19.027667   23.372958 H          1 MOL1         0.0729
      12    H6      21.075352   17.445629   23.562758 H          1 MOL1         0.0729
      13    C5      19.742911   19.094607   24.020092 C.3        1 MOL1        -0.1884
      14    H7      20.040971   19.101972   25.077535 H          1 MOL1         0.0729
      15    H8      19.605750   20.146491   23.736656 H          1 MOL1         0.0729
      16    C6      18.402214   18.340682   23.887707 C.3        1 MOL1        -0.2899
      17    H9      18.520840   17.280048   24.144639 H          1 MOL1         0.0741
      18    H10     17.651262   18.770841   24.562873 H          1 MOL1         0.0741
      19    H11     18.007154   18.406221   22.865994 H          1 MOL1         0.0741
@<TRIPOS>BOND
    1     1     2    1
    2     1     3    2
    3     1     4    1
    4     4     5    1
    5     4     6    1
    6     4     7    1
    7     7     8    1
    8     7     9    1
    9     7    10    1
   10    10    11    1
   11    10    12    1
   12    10    13    1
   13    13    14    1
   14    13    15    1
   15    13    16    1
   16    16    17    1
   17    16    18    1
   18    16    19    1
@<TRIPOS>SUBSTRUCTURE
       1 MOL1            1 RESIDUE      1      MOL     
@<SCITEGIC>MOL_PROPERTY
VConf Rank
SciTegic.value.IntegerValue
580

@<SCITEGIC>MOL_PROPERTY
Conf_Id
SciTegic.value.IntegerValue
67

@<SCITEGIC>MOL_PROPERTY
Delta U+W
SciTegic.value.DoubleValue
0.308

@<SCITEGIC>MOL_PROPERTY
U+W
SciTegic.value.DoubleValue
-54.583

@<SCITEGIC>MOL_PROPERTY
Grad RMS
SciTegic.value.DoubleValue
0.000000

@<SCITEGIC>MOL_PROPERTY
U
SciTegic.value.DoubleValue
8.219

@<SCITEGIC>MOL_PROPERTY
W
SciTegic.value.DoubleValue
-62.802

@<SCITEGIC>MOL_PROPERTY
W(PB)
SciTegic.value.DoubleValue
-64.859

@<SCITEGIC>MOL_PROPERTY
W(SA)
SciTegic.value.DoubleValue
2.057

@<SCITEGIC>MOL_PROPERTY
Valence
SciTegic.value.DoubleValue
7.609

@<SCITEGIC>MOL_PROPERTY
Coulomb
SciTegic.value.DoubleValue
-0.089

@<SCITEGIC>MOL_PROPERTY
VdW
SciTegic.value.DoubleValue
0.699

@<SCITEGIC>MOL_PROPERTY
VdW6
SciTegic.value.DoubleValue
-6.924

@<SCITEGIC>MOL_PROPERTY
VdW12
SciTegic.value.DoubleValue
7.623

@<SCITEGIC>MOL_PROPERTY
Bond
SciTegic.value.DoubleValue
0.163

@<SCITEGIC>MOL_PROPERTY
Angle
SciTegic.value.DoubleValue
2.870

@<SCITEGIC>MOL_PROPERTY
Pdih
SciTegic.value.DoubleValue
4.576

@<SCITEGIC>MOL_PROPERTY
Idih
SciTegic.value.DoubleValue
0.001

@<SCITEGIC>MOL_PROPERTY
Tether
SciTegic.value.DoubleValue
0.000

@<TRIPOS>MOLECULE
guest-7_confgen4.mol2 : confsearch ligand conformer 581
          19          18           1
SMALL
USER_CHARGES
 
@<TRIPOS>ATOM
       1    C1      21.824814   16.651131   22.194089 C.2        1 MOL1         0.6115
       2    O1      22.897239   16.554462   21.631076 O.co2      1 MOL1        -0.6776
       3    O2      21.134034   15.697140   22.492491 O.co2      1 MOL1        -0.6776
       4    C2      21.309401   18.046865   22.526494 C.3        1 MOL1        -0.2013
       5    H1      22.173532   18.689074   22.734339 H          1 MOL1         0.0727
       6    H2      20.726006   17.975651   23.451556 H          1 MOL1         0.0727
       7    C3      20.450933   18.657001   21.388357 C.3        1 MOL1        -0.1910
       8    H3      21.031446   18.630035   20.455900 H          1 MOL1         0.0729
       9    H4      19.568998   18.026189   21.215024 H          1 MOL1         0.0729
      10    C4      20.016685   20.119979   21.656399 C.3        1 MOL1        -0.1909
      11    H5      19.454513   20.485819   20.786397 H          1 MOL1         0.0729
      12    H6      20.913681   20.750486   21.724614 H          1 MOL1         0.0729
      13    C5      19.161289   20.331632   22.929742 C.3        1 MOL1        -0.1884
      14    H7      19.741715   20.070262   23.824393 H          1 MOL1         0.0729
      15    H8      18.929109   21.401613   23.020917 H          1 MOL1         0.0729
      16    C6      17.838250   19.536147   22.916765 C.3        1 MOL1        -0.2899
      17    H9      18.022993   18.454720   22.942336 H          1 MOL1         0.0741
      18    H10     17.228599   19.790209   23.793459 H          1 MOL1         0.0741
      19    H11     17.251026   19.764934   22.017958 H          1 MOL1         0.0741
@<TRIPOS>BOND
    1     1     2    1
    2     1     3    2
    3     1     4    1
    4     4     5    1
    5     4     6    1
    6     4     7    1
    7     7     8    1
    8     7     9    1
    9     7    10    1
   10    10    11    1
   11    10    12    1
   12    10    13    1
   13    13    14    1
   14    13    15    1
   15    13    16    1
   16    16    17    1
   17    16    18    1
   18    16    19    1
@<TRIPOS>SUBSTRUCTURE
       1 MOL1            1 RESIDUE      1      MOL     
@<SCITEGIC>MOL_PROPERTY
VConf Rank
SciTegic.value.IntegerValue
581

@<SCITEGIC>MOL_PROPERTY
Conf_Id
SciTegic.value.IntegerValue
21

@<SCITEGIC>MOL_PROPERTY
Delta U+W
SciTegic.value.DoubleValue
0.319

@<SCITEGIC>MOL_PROPERTY
U+W
SciTegic.value.DoubleValue
-54.572

@<SCITEGIC>MOL_PROPERTY
Grad RMS
SciTegic.value.DoubleValue
0.000000

@<SCITEGIC>MOL_PROPERTY
U
SciTegic.value.DoubleValue
8.220

@<SCITEGIC>MOL_PROPERTY
W
SciTegic.value.DoubleValue
-62.792

@<SCITEGIC>MOL_PROPERTY
W(PB)
SciTegic.value.DoubleValue
-64.830

@<SCITEGIC>MOL_PROPERTY
W(SA)
SciTegic.value.DoubleValue
2.038

@<SCITEGIC>MOL_PROPERTY
Valence
SciTegic.value.DoubleValue
7.609

@<SCITEGIC>MOL_PROPERTY
Coulomb
SciTegic.value.DoubleValue
-0.088

@<SCITEGIC>MOL_PROPERTY
VdW
SciTegic.value.DoubleValue
0.699

@<SCITEGIC>MOL_PROPERTY
VdW6
SciTegic.value.DoubleValue
-6.924

@<SCITEGIC>MOL_PROPERTY
VdW12
SciTegic.value.DoubleValue
7.623

@<SCITEGIC>MOL_PROPERTY
Bond
SciTegic.value.DoubleValue
0.163

@<SCITEGIC>MOL_PROPERTY
Angle
SciTegic.value.DoubleValue
2.870

@<SCITEGIC>MOL_PROPERTY
Pdih
SciTegic.value.DoubleValue
4.576

@<SCITEGIC>MOL_PROPERTY
Idih
SciTegic.value.DoubleValue
0.000

@<SCITEGIC>MOL_PROPERTY
Tether
SciTegic.value.DoubleValue
0.000

@<TRIPOS>MOLECULE
guest-7_confgen4.mol2 : confsearch ligand conformer 582
          19          18           1
SMALL
USER_CHARGES
 
@<TRIPOS>ATOM
       1    C1      20.644721   19.805161   24.996509 C.2        1 MOL1         0.6115
       2    O1      21.724147   20.013456   25.514091 O.co2      1 MOL1        -0.6776
       3    O2      19.605344   20.297924   25.387833 O.co2      1 MOL1        -0.6776
       4    C2      20.595104   18.889956   23.778305 C.3        1 MOL1        -0.2013
       5    H1      19.632380   18.369492   23.788390 H          1 MOL1         0.0727
       6    H2      21.372259   18.125648   23.897674 H          1 MOL1         0.0727
       7    C3      20.802369   19.654201   22.443928 C.3        1 MOL1        -0.1910
       8    H3      20.060264   20.458977   22.349602 H          1 MOL1         0.0729
       9    H4      21.783735   20.146701   22.485892 H          1 MOL1         0.0729
      10    C4      20.761129   18.737322   21.195097 C.3        1 MOL1        -0.1909
      11    H5      21.111509   17.728209   21.451654 H          1 MOL1         0.0729
      12    H6      21.481467   19.126110   20.462342 H          1 MOL1         0.0729
      13    C5      19.381935   18.659815   20.495293 C.3        1 MOL1        -0.1884
      14    H7      19.080842   19.662833   20.162796 H          1 MOL1         0.0729
      15    H8      19.486869   18.053273   19.585189 H          1 MOL1         0.0729
      16    C6      18.263181   18.052733   21.366806 C.3        1 MOL1        -0.2899
      17    H9      17.351805   17.905561   20.773048 H          1 MOL1         0.0741
      18    H10     18.564196   17.078255   21.772713 H          1 MOL1         0.0741
      19    H11     18.008619   18.716651   22.202394 H          1 MOL1         0.0741
@<TRIPOS>BOND
    1     1     2    1
    2     1     3    2
    3     1     4    1
    4     4     5    1
    5     4     6    1
    6     4     7    1
    7     7     8    1
    8     7     9    1
    9     7    10    1
   10    10    11    1
   11    10    12    1
   12    10    13    1
   13    13    14    1
   14    13    15    1
   15    13    16    1
   16    16    17    1
   17    16    18    1
   18    16    19    1
@<TRIPOS>SUBSTRUCTURE
       1 MOL1            1 RESIDUE      1      MOL     
@<SCITEGIC>MOL_PROPERTY
VConf Rank
SciTegic.value.IntegerValue
582

@<SCITEGIC>MOL_PROPERTY
Conf_Id
SciTegic.value.IntegerValue
24

@<SCITEGIC>MOL_PROPERTY
Delta U+W
SciTegic.value.DoubleValue
2.477

@<SCITEGIC>MOL_PROPERTY
U+W
SciTegic.value.DoubleValue
-52.414

@<SCITEGIC>MOL_PROPERTY
Grad RMS
SciTegic.value.DoubleValue
0.000000

@<SCITEGIC>MOL_PROPERTY
U
SciTegic.value.DoubleValue
10.422

@<SCITEGIC>MOL_PROPERTY
W
SciTegic.value.DoubleValue
-62.836

@<SCITEGIC>MOL_PROPERTY
W(PB)
SciTegic.value.DoubleValue
-64.906

@<SCITEGIC>MOL_PROPERTY
W(SA)
SciTegic.value.DoubleValue
2.070

@<SCITEGIC>MOL_PROPERTY
Valence
SciTegic.value.DoubleValue
9.628

@<SCITEGIC>MOL_PROPERTY
Coulomb
SciTegic.value.DoubleValue
0.101

@<SCITEGIC>MOL_PROPERTY
VdW
SciTegic.value.DoubleValue
0.693

@<SCITEGIC>MOL_PROPERTY
VdW6
SciTegic.value.DoubleValue
-6.927

@<SCITEGIC>MOL_PROPERTY
VdW12
SciTegic.value.DoubleValue
7.620

@<SCITEGIC>MOL_PROPERTY
Bond
SciTegic.value.DoubleValue
0.173

@<SCITEGIC>MOL_PROPERTY
Angle
SciTegic.value.DoubleValue
2.989

@<SCITEGIC>MOL_PROPERTY
Pdih
SciTegic.value.DoubleValue
6.465

@<SCITEGIC>MOL_PROPERTY
Idih
SciTegic.value.DoubleValue
0.001

@<SCITEGIC>MOL_PROPERTY
Tether
SciTegic.value.DoubleValue
0.000

@<TRIPOS>MOLECULE
guest-7_confgen4.mol2 : confsearch ligand conformer 583
          19          18           1
SMALL
USER_CHARGES
 
@<TRIPOS>ATOM
       1    C1      17.303874   18.599230   22.467653 C.2        1 MOL1         0.6115
       2    O1      16.972741   19.761320   22.596451 O.co2      1 MOL1        -0.6776
       3    O2      16.626374   17.768267   21.895318 O.co2      1 MOL1        -0.6776
       4    C2      18.627180   18.149501   23.081524 C.3        1 MOL1        -0.2013
       5    H1      18.425235   17.235187   23.651615 H          1 MOL1         0.0727
       6    H2      18.946774   18.905902   23.805367 H          1 MOL1         0.0727
       7    C3      19.743804   17.867805   22.038098 C.3        1 MOL1        -0.1910
       8    H3      20.587024   17.358672   22.523893 H          1 MOL1         0.0729
       9    H4      19.347089   17.157238   21.299691 H          1 MOL1         0.0729
      10    C4      20.252241   19.129901   21.293730 C.3        1 MOL1        -0.1909
      11    H5      19.450715   19.876435   21.209772 H          1 MOL1         0.0729
      12    H6      20.498737   18.841134   20.262887 H          1 MOL1         0.0729
      13    C5      21.516258   19.777947   21.910335 C.3        1 MOL1        -0.1884
      14    H7      22.341247   19.052279   21.908876 H          1 MOL1         0.0729
      15    H8      21.834246   20.605912   21.261867 H          1 MOL1         0.0729
      16    C6      21.313757   20.320806   23.339969 C.3        1 MOL1        -0.2899
      17    H9      21.160642   19.503402   24.055345 H          1 MOL1         0.0741
      18    H10     22.197894   20.883805   23.665718 H          1 MOL1         0.0741
      19    H11     20.446972   20.993118   23.386496 H          1 MOL1         0.0741
@<TRIPOS>BOND
    1     1     2    1
    2     1     3    2
    3     1     4    1
    4     4     5    1
    5     4     6    1
    6     4     7    1
    7     7     8    1
    8     7     9    1
    9     7    10    1
   10    10    11    1
   11    10    12    1
   12    10    13    1
   13    13    14    1
   14    13    15    1
   15    13    16    1
   16    16    17    1
   17    16    18    1
   18    16    19    1
@<TRIPOS>SUBSTRUCTURE
       1 MOL1            1 RESIDUE      1      MOL     
@<SCITEGIC>MOL_PROPERTY
VConf Rank
SciTegic.value.IntegerValue
583

@<SCITEGIC>MOL_PROPERTY
Conf_Id
SciTegic.value.IntegerValue
4

@<SCITEGIC>MOL_PROPERTY
Delta U+W
SciTegic.value.DoubleValue
3.753

@<SCITEGIC>MOL_PROPERTY
U+W
SciTegic.value.DoubleValue
-51.138

@<SCITEGIC>MOL_PROPERTY
Grad RMS
SciTegic.value.DoubleValue
0.000000

@<SCITEGIC>MOL_PROPERTY
U
SciTegic.value.DoubleValue
12.334

@<SCITEGIC>MOL_PROPERTY
W
SciTegic.value.DoubleValue
-63.472

@<SCITEGIC>MOL_PROPERTY
W(PB)
SciTegic.value.DoubleValue
-65.500

@<SCITEGIC>MOL_PROPERTY
W(SA)
SciTegic.value.DoubleValue
2.028

@<SCITEGIC>MOL_PROPERTY
Valence
SciTegic.value.DoubleValue
9.984

@<SCITEGIC>MOL_PROPERTY
Coulomb
SciTegic.value.DoubleValue
1.767

@<SCITEGIC>MOL_PROPERTY
VdW
SciTegic.value.DoubleValue
0.583

@<SCITEGIC>MOL_PROPERTY
VdW6
SciTegic.value.DoubleValue
-7.767

@<SCITEGIC>MOL_PROPERTY
VdW12
SciTegic.value.DoubleValue
8.349

@<SCITEGIC>MOL_PROPERTY
Bond
SciTegic.value.DoubleValue
0.203

@<SCITEGIC>MOL_PROPERTY
Angle
SciTegic.value.DoubleValue
3.191

@<SCITEGIC>MOL_PROPERTY
Pdih
SciTegic.value.DoubleValue
6.589

@<SCITEGIC>MOL_PROPERTY
Idih
SciTegic.value.DoubleValue
0.001

@<SCITEGIC>MOL_PROPERTY
Tether
SciTegic.value.DoubleValue
0.000

@<TRIPOS>MOLECULE
guest-7_confgen4.mol2 : confsearch ligand conformer 584
          19          18           1
SMALL
USER_CHARGES
 
@<TRIPOS>ATOM
       1    C1      21.300736   18.467615   24.586295 C.2        1 MOL1         0.6115
       2    O1      22.199393   19.107262   25.096531 O.co2      1 MOL1        -0.6776
       3    O2      20.395843   17.960076   25.218961 O.co2      1 MOL1        -0.6776
       4    C2      21.328945   18.268411   23.073102 C.3        1 MOL1        -0.2013
       5    H1      20.661354   17.438162   22.821631 H          1 MOL1         0.0727
       6    H2      22.342935   17.947095   22.807892 H          1 MOL1         0.0727
       7    C3      20.965555   19.542912   22.261602 C.3        1 MOL1        -0.1910
       8    H3      21.617876   20.359308   22.601469 H          1 MOL1         0.0729
       9    H4      21.203314   19.388667   21.200512 H          1 MOL1         0.0729
      10    C4      19.487808   19.990550   22.407741 C.3        1 MOL1        -0.1909
      11    H5      19.460117   21.088369   22.379305 H          1 MOL1         0.0729
      12    H6      19.095916   19.708732   23.394557 H          1 MOL1         0.0729
      13    C5      18.543046   19.472291   21.295655 C.3        1 MOL1        -0.1884
      14    H7      17.548885   19.913803   21.450135 H          1 MOL1         0.0729
      15    H8      18.890919   19.833170   20.317927 H          1 MOL1         0.0729
      16    C6      18.399881   17.936934   21.253929 C.3        1 MOL1        -0.2899
      17    H9      18.124819   17.540421   22.240136 H          1 MOL1         0.0741
      18    H10     17.619314   17.643345   20.540278 H          1 MOL1         0.0741
      19    H11     19.335270   17.461093   20.934586 H          1 MOL1         0.0741
@<TRIPOS>BOND
    1     1     2    1
    2     1     3    2
    3     1     4    1
    4     4     5    1
    5     4     6    1
    6     4     7    1
    7     7     8    1
    8     7     9    1
    9     7    10    1
   10    10    11    1
   11    10    12    1
   12    10    13    1
   13    13    14    1
   14    13    15    1
   15    13    16    1
   16    16    17    1
   17    16    18    1
   18    16    19    1
@<TRIPOS>SUBSTRUCTURE
       1 MOL1            1 RESIDUE      1      MOL     
@<SCITEGIC>MOL_PROPERTY
VConf Rank
SciTegic.value.IntegerValue
584

@<SCITEGIC>MOL_PROPERTY
Conf_Id
SciTegic.value.IntegerValue
73

@<SCITEGIC>MOL_PROPERTY
Delta U+W
SciTegic.value.DoubleValue
3.707

@<SCITEGIC>MOL_PROPERTY
U+W
SciTegic.value.DoubleValue
-51.184

@<SCITEGIC>MOL_PROPERTY
Grad RMS
SciTegic.value.DoubleValue
0.000000

@<SCITEGIC>MOL_PROPERTY
U
SciTegic.value.DoubleValue
12.334

@<SCITEGIC>MOL_PROPERTY
W
SciTegic.value.DoubleValue
-63.519

@<SCITEGIC>MOL_PROPERTY
W(PB)
SciTegic.value.DoubleValue
-65.541

@<SCITEGIC>MOL_PROPERTY
W(SA)
SciTegic.value.DoubleValue
2.022

@<SCITEGIC>MOL_PROPERTY
Valence
SciTegic.value.DoubleValue
9.984

@<SCITEGIC>MOL_PROPERTY
Coulomb
SciTegic.value.DoubleValue
1.768

@<SCITEGIC>MOL_PROPERTY
VdW
SciTegic.value.DoubleValue
0.583

@<SCITEGIC>MOL_PROPERTY
VdW6
SciTegic.value.DoubleValue
-7.767

@<SCITEGIC>MOL_PROPERTY
VdW12
SciTegic.value.DoubleValue
8.350

@<SCITEGIC>MOL_PROPERTY
Bond
SciTegic.value.DoubleValue
0.203

@<SCITEGIC>MOL_PROPERTY
Angle
SciTegic.value.DoubleValue
3.192

@<SCITEGIC>MOL_PROPERTY
Pdih
SciTegic.value.DoubleValue
6.589

@<SCITEGIC>MOL_PROPERTY
Idih
SciTegic.value.DoubleValue
0.001

@<SCITEGIC>MOL_PROPERTY
Tether
SciTegic.value.DoubleValue
0.000

@<TRIPOS>MOLECULE
guest-7_confgen4.mol2 : confsearch ligand conformer 585
          19          18           1
SMALL
USER_CHARGES
 
@<TRIPOS>ATOM
       1    C1      18.218695   17.182172   21.586291 C.2        1 MOL1         0.6115
       2    O1      18.471045   17.277364   20.401398 O.co2      1 MOL1        -0.6776
       3    O2      17.930928   16.133426   22.128953 O.co2      1 MOL1        -0.6776
       4    C2      18.231622   18.450930   22.434471 C.3        1 MOL1        -0.2013
       5    H1      17.287633   18.481203   22.990922 H          1 MOL1         0.0727
       6    H2      18.226419   19.320351   21.767105 H          1 MOL1         0.0727
       7    C3      19.418885   18.535753   23.432209 C.3        1 MOL1        -0.1910
       8    H3      19.309447   19.437313   24.048714 H          1 MOL1         0.0729
       9    H4      19.356084   17.686495   24.126419 H          1 MOL1         0.0729
      10    C4      20.818325   18.527660   22.764679 C.3        1 MOL1        -0.1909
      11    H5      20.964365   17.567841   22.250381 H          1 MOL1         0.0729
      12    H6      21.584121   18.568016   23.551140 H          1 MOL1         0.0729
      13    C5      21.074780   19.674677   21.756810 C.3        1 MOL1        -0.1884
      14    H7      22.084196   19.554540   21.340225 H          1 MOL1         0.0729
      15    H8      20.384709   19.590929   20.906379 H          1 MOL1         0.0729
      16    C6      20.961101   21.079765   22.386475 C.3        1 MOL1        -0.2899
      17    H9      19.935199   21.287446   22.715572 H          1 MOL1         0.0741
      18    H10     21.628063   21.176991   23.252917 H          1 MOL1         0.0741
      19    H11     21.239014   21.851178   21.656761 H          1 MOL1         0.0741
@<TRIPOS>BOND
    1     1     2    1
    2     1     3    2
    3     1     4    1
    4     4     5    1
    5     4     6    1
    6     4     7    1
    7     7     8    1
    8     7     9    1
    9     7    10    1
   10    10    11    1
   11    10    12    1
   12    10    13    1
   13    13    14    1
   14    13    15    1
   15    13    16    1
   16    16    17    1
   17    16    18    1
   18    16    19    1
@<TRIPOS>SUBSTRUCTURE
       1 MOL1            1 RESIDUE      1      MOL     
@<SCITEGIC>MOL_PROPERTY
VConf Rank
SciTegic.value.IntegerValue
585

@<SCITEGIC>MOL_PROPERTY
Conf_Id
SciTegic.value.IntegerValue
56

@<SCITEGIC>MOL_PROPERTY
Delta U+W
SciTegic.value.DoubleValue
1.735

@<SCITEGIC>MOL_PROPERTY
U+W
SciTegic.value.DoubleValue
-53.156

@<SCITEGIC>MOL_PROPERTY
Grad RMS
SciTegic.value.DoubleValue
0.000000

@<SCITEGIC>MOL_PROPERTY
U
SciTegic.value.DoubleValue
10.214

@<SCITEGIC>MOL_PROPERTY
W
SciTegic.value.DoubleValue
-63.370

@<SCITEGIC>MOL_PROPERTY
W(PB)
SciTegic.value.DoubleValue
-65.388

@<SCITEGIC>MOL_PROPERTY
W(SA)
SciTegic.value.DoubleValue
2.018

@<SCITEGIC>MOL_PROPERTY
Valence
SciTegic.value.DoubleValue
7.868

@<SCITEGIC>MOL_PROPERTY
Coulomb
SciTegic.value.DoubleValue
1.968

@<SCITEGIC>MOL_PROPERTY
VdW
SciTegic.value.DoubleValue
0.378

@<SCITEGIC>MOL_PROPERTY
VdW6
SciTegic.value.DoubleValue
-8.067

@<SCITEGIC>MOL_PROPERTY
VdW12
SciTegic.value.DoubleValue
8.445

@<SCITEGIC>MOL_PROPERTY
Bond
SciTegic.value.DoubleValue
0.191

@<SCITEGIC>MOL_PROPERTY
Angle
SciTegic.value.DoubleValue
3.117

@<SCITEGIC>MOL_PROPERTY
Pdih
SciTegic.value.DoubleValue
4.559

@<SCITEGIC>MOL_PROPERTY
Idih
SciTegic.value.DoubleValue
0.001

@<SCITEGIC>MOL_PROPERTY
Tether
SciTegic.value.DoubleValue
0.000

@<TRIPOS>MOLECULE
guest-7_confgen4.mol2 : confsearch ligand conformer 586
          19          18           1
SMALL
USER_CHARGES
 
@<TRIPOS>ATOM
       1    C1      18.984258   16.326292   23.180225 C.2        1 MOL1         0.6115
       2    O1      18.027250   16.190970   23.916557 O.co2      1 MOL1        -0.6776
       3    O2      19.750825   15.425521   22.902086 O.co2      1 MOL1        -0.6776
       4    C2      19.249777   17.706830   22.590436 C.3        1 MOL1        -0.2013
       5    H1      18.285814   18.211839   22.455829 H          1 MOL1         0.0727
       6    H2      19.689481   17.563779   21.597104 H          1 MOL1         0.0727
       7    C3      20.187079   18.567656   23.474415 C.3        1 MOL1        -0.1910
       8    H3      19.793720   18.574993   24.500385 H          1 MOL1         0.0729
       9    H4      21.174576   18.088865   23.527367 H          1 MOL1         0.0729
      10    C4      20.344924   20.033869   22.999234 C.3        1 MOL1        -0.1909
      11    H5      20.982822   20.550605   23.729331 H          1 MOL1         0.0729
      12    H6      19.374808   20.548337   23.033868 H          1 MOL1         0.0729
      13    C5      20.987585   20.194656   21.599148 C.3        1 MOL1        -0.1884
      14    H7      21.619315   21.093671   21.604616 H          1 MOL1         0.0729
      15    H8      21.659222   19.350907   21.388680 H          1 MOL1         0.0729
      16    C6      19.949474   20.349172   20.465491 C.3        1 MOL1        -0.2899
      17    H9      20.453566   20.477182   19.498858 H          1 MOL1         0.0741
      18    H10     19.295246   19.473643   20.387682 H          1 MOL1         0.0741
      19    H11     19.317081   21.230711   20.633120 H          1 MOL1         0.0741
@<TRIPOS>BOND
    1     1     2    1
    2     1     3    2
    3     1     4    1
    4     4     5    1
    5     4     6    1
    6     4     7    1
    7     7     8    1
    8     7     9    1
    9     7    10    1
   10    10    11    1
   11    10    12    1
   12    10    13    1
   13    13    14    1
   14    13    15    1
   15    13    16    1
   16    16    17    1
   17    16    18    1
   18    16    19    1
@<TRIPOS>SUBSTRUCTURE
       1 MOL1            1 RESIDUE      1      MOL     
@<SCITEGIC>MOL_PROPERTY
VConf Rank
SciTegic.value.IntegerValue
586

@<SCITEGIC>MOL_PROPERTY
Conf_Id
SciTegic.value.IntegerValue
53

@<SCITEGIC>MOL_PROPERTY
Delta U+W
SciTegic.value.DoubleValue
2.279

@<SCITEGIC>MOL_PROPERTY
U+W
SciTegic.value.DoubleValue
-52.612

@<SCITEGIC>MOL_PROPERTY
Grad RMS
SciTegic.value.DoubleValue
0.000000

@<SCITEGIC>MOL_PROPERTY
U
SciTegic.value.DoubleValue
10.231

@<SCITEGIC>MOL_PROPERTY
W
SciTegic.value.DoubleValue
-62.843

@<SCITEGIC>MOL_PROPERTY
W(PB)
SciTegic.value.DoubleValue
-64.893

@<SCITEGIC>MOL_PROPERTY
W(SA)
SciTegic.value.DoubleValue
2.050

@<SCITEGIC>MOL_PROPERTY
Valence
SciTegic.value.DoubleValue
9.644

@<SCITEGIC>MOL_PROPERTY
Coulomb
SciTegic.value.DoubleValue
-0.164

@<SCITEGIC>MOL_PROPERTY
VdW
SciTegic.value.DoubleValue
0.751

@<SCITEGIC>MOL_PROPERTY
VdW6
SciTegic.value.DoubleValue
-6.881

@<SCITEGIC>MOL_PROPERTY
VdW12
SciTegic.value.DoubleValue
7.631

@<SCITEGIC>MOL_PROPERTY
Bond
SciTegic.value.DoubleValue
0.163

@<SCITEGIC>MOL_PROPERTY
Angle
SciTegic.value.DoubleValue
2.998

@<SCITEGIC>MOL_PROPERTY
Pdih
SciTegic.value.DoubleValue
6.482

@<SCITEGIC>MOL_PROPERTY
Idih
SciTegic.value.DoubleValue
0.001

@<SCITEGIC>MOL_PROPERTY
Tether
SciTegic.value.DoubleValue
0.000

@<TRIPOS>MOLECULE
guest-7_confgen4.mol2 : confsearch ligand conformer 587
          19          18           1
SMALL
USER_CHARGES
 
@<TRIPOS>ATOM
       1    C1      20.635606   21.251943   22.139882 C.2        1 MOL1         0.6115
       2    O1      21.308076   21.251395   21.127638 O.co2      1 MOL1        -0.6776
       3    O2      21.007825   21.736065   23.190751 O.co2      1 MOL1        -0.6776
       4    C2      19.222498   20.676462   22.066206 C.3        1 MOL1        -0.2013
       5    H1      19.028923   20.335799   21.041804 H          1 MOL1         0.0727
       6    H2      18.538903   21.512839   22.252739 H          1 MOL1         0.0727
       7    C3      18.915632   19.537572   23.079068 C.3        1 MOL1        -0.1910
       8    H3      19.303022   19.804858   24.072059 H          1 MOL1         0.0729
       9    H4      17.825089   19.467146   23.189398 H          1 MOL1         0.0729
      10    C4      19.438436   18.140228   22.663396 C.3        1 MOL1        -0.1909
      11    H5      19.041765   17.876314   21.673529 H          1 MOL1         0.0729
      12    H6      19.031820   17.399985   23.366043 H          1 MOL1         0.0729
      13    C5      20.978320   18.020874   22.654247 C.3        1 MOL1        -0.1884
      14    H7      21.400744   18.656232   21.865397 H          1 MOL1         0.0729
      15    H8      21.385463   18.380445   23.609412 H          1 MOL1         0.0729
      16    C6      21.431337   16.566086   22.417176 C.3        1 MOL1        -0.2899
      17    H9      21.058241   16.191050   21.455144 H          1 MOL1         0.0741
      18    H10     22.527019   16.499924   22.404959 H          1 MOL1         0.0741
      19    H11     21.060878   15.904141   23.210844 H          1 MOL1         0.0741
@<TRIPOS>BOND
    1     1     2    1
    2     1     3    2
    3     1     4    1
    4     4     5    1
    5     4     6    1
    6     4     7    1
    7     7     8    1
    8     7     9    1
    9     7    10    1
   10    10    11    1
   11    10    12    1
   12    10    13    1
   13    13    14    1
   14    13    15    1
   15    13    16    1
   16    16    17    1
   17    16    18    1
   18    16    19    1
@<TRIPOS>SUBSTRUCTURE
       1 MOL1            1 RESIDUE      1      MOL     
@<SCITEGIC>MOL_PROPERTY
VConf Rank
SciTegic.value.IntegerValue
587

@<SCITEGIC>MOL_PROPERTY
Conf_Id
SciTegic.value.IntegerValue
25

@<SCITEGIC>MOL_PROPERTY
Delta U+W
SciTegic.value.DoubleValue
2.065

@<SCITEGIC>MOL_PROPERTY
U+W
SciTegic.value.DoubleValue
-52.826

@<SCITEGIC>MOL_PROPERTY
Grad RMS
SciTegic.value.DoubleValue
0.000000

@<SCITEGIC>MOL_PROPERTY
U
SciTegic.value.DoubleValue
10.967

@<SCITEGIC>MOL_PROPERTY
W
SciTegic.value.DoubleValue
-63.794

@<SCITEGIC>MOL_PROPERTY
W(PB)
SciTegic.value.DoubleValue
-65.830

@<SCITEGIC>MOL_PROPERTY
W(SA)
SciTegic.value.DoubleValue
2.036

@<SCITEGIC>MOL_PROPERTY
Valence
SciTegic.value.DoubleValue
8.609

@<SCITEGIC>MOL_PROPERTY
Coulomb
SciTegic.value.DoubleValue
1.892

@<SCITEGIC>MOL_PROPERTY
VdW
SciTegic.value.DoubleValue
0.467

@<SCITEGIC>MOL_PROPERTY
VdW6
SciTegic.value.DoubleValue
-7.569

@<SCITEGIC>MOL_PROPERTY
VdW12
SciTegic.value.DoubleValue
8.036

@<SCITEGIC>MOL_PROPERTY
Bond
SciTegic.value.DoubleValue
0.170

@<SCITEGIC>MOL_PROPERTY
Angle
SciTegic.value.DoubleValue
3.195

@<SCITEGIC>MOL_PROPERTY
Pdih
SciTegic.value.DoubleValue
5.237

@<SCITEGIC>MOL_PROPERTY
Idih
SciTegic.value.DoubleValue
0.007

@<SCITEGIC>MOL_PROPERTY
Tether
SciTegic.value.DoubleValue
0.000

@<TRIPOS>MOLECULE
guest-7_confgen4.mol2 : confsearch ligand conformer 588
          19          18           1
SMALL
USER_CHARGES
 
@<TRIPOS>ATOM
       1    C1      20.047187   18.108872   20.201039 C.2        1 MOL1         0.6115
       2    O1      19.636642   16.965189   20.174754 O.co2      1 MOL1        -0.6776
       3    O2      21.133355   18.440386   19.768386 O.co2      1 MOL1        -0.6776
       4    C2      19.123666   19.199102   20.741401 C.3        1 MOL1        -0.2013
       5    H1      18.253348   19.223919   20.075402 H          1 MOL1         0.0727
       6    H2      19.622407   20.170842   20.641896 H          1 MOL1         0.0727
       7    C3      18.635704   18.991839   22.202929 C.3        1 MOL1        -0.1910
       8    H3      17.730327   19.596836   22.346756 H          1 MOL1         0.0729
       9    H4      18.327627   17.947399   22.350500 H          1 MOL1         0.0729
      10    C4      19.655852   19.403828   23.292994 C.3        1 MOL1        -0.1909
      11    H5      19.150317   19.362829   24.267552 H          1 MOL1         0.0729
      12    H6      19.953925   20.450618   23.143930 H          1 MOL1         0.0729
      13    C5      20.913472   18.508955   23.349290 C.3        1 MOL1        -0.1884
      14    H7      20.616735   17.452023   23.396587 H          1 MOL1         0.0729
      15    H8      21.507058   18.635404   22.434919 H          1 MOL1         0.0729
      16    C6      21.796303   18.850221   24.566657 C.3        1 MOL1        -0.2899
      17    H9      22.689175   18.211942   24.587258 H          1 MOL1         0.0741
      18    H10     22.127974   19.896157   24.529615 H          1 MOL1         0.0741
      19    H11     21.248472   18.696690   25.505607 H          1 MOL1         0.0741
@<TRIPOS>BOND
    1     1     2    1
    2     1     3    2
    3     1     4    1
    4     4     5    1
    5     4     6    1
    6     4     7    1
    7     7     8    1
    8     7     9    1
    9     7    10    1
   10    10    11    1
   11    10    12    1
   12    10    13    1
   13    13    14    1
   14    13    15    1
   15    13    16    1
   16    16    17    1
   17    16    18    1
   18    16    19    1
@<TRIPOS>SUBSTRUCTURE
       1 MOL1            1 RESIDUE      1      MOL     
@<SCITEGIC>MOL_PROPERTY
VConf Rank
SciTegic.value.IntegerValue
588

@<SCITEGIC>MOL_PROPERTY
Conf_Id
SciTegic.value.IntegerValue
52

@<SCITEGIC>MOL_PROPERTY
Delta U+W
SciTegic.value.DoubleValue
2.070

@<SCITEGIC>MOL_PROPERTY
U+W
SciTegic.value.DoubleValue
-52.822

@<SCITEGIC>MOL_PROPERTY
Grad RMS
SciTegic.value.DoubleValue
0.000000

@<SCITEGIC>MOL_PROPERTY
U
SciTegic.value.DoubleValue
10.967

@<SCITEGIC>MOL_PROPERTY
W
SciTegic.value.DoubleValue
-63.789

@<SCITEGIC>MOL_PROPERTY
W(PB)
SciTegic.value.DoubleValue
-65.837

@<SCITEGIC>MOL_PROPERTY
W(SA)
SciTegic.value.DoubleValue
2.048

@<SCITEGIC>MOL_PROPERTY
Valence
SciTegic.value.DoubleValue
8.609

@<SCITEGIC>MOL_PROPERTY
Coulomb
SciTegic.value.DoubleValue
1.892

@<SCITEGIC>MOL_PROPERTY
VdW
SciTegic.value.DoubleValue
0.467

@<SCITEGIC>MOL_PROPERTY
VdW6
SciTegic.value.DoubleValue
-7.569

@<SCITEGIC>MOL_PROPERTY
VdW12
SciTegic.value.DoubleValue
8.035

@<SCITEGIC>MOL_PROPERTY
Bond
SciTegic.value.DoubleValue
0.170

@<SCITEGIC>MOL_PROPERTY
Angle
SciTegic.value.DoubleValue
3.196

@<SCITEGIC>MOL_PROPERTY
Pdih
SciTegic.value.DoubleValue
5.237

@<SCITEGIC>MOL_PROPERTY
Idih
SciTegic.value.DoubleValue
0.007

@<SCITEGIC>MOL_PROPERTY
Tether
SciTegic.value.DoubleValue
0.000

@<TRIPOS>MOLECULE
guest-7_confgen4.mol2 : confsearch ligand conformer 589
          19          18           1
SMALL
USER_CHARGES
 
@<TRIPOS>ATOM
       1    C1      19.147972   16.858042   22.433924 C.2        1 MOL1         0.6115
       2    O1      18.160476   16.861693   21.724732 O.co2      1 MOL1        -0.6776
       3    O2      20.101709   16.129784   22.242285 O.co2      1 MOL1        -0.6776
       4    C2      19.145479   17.715330   23.700587 C.3        1 MOL1        -0.2013
       5    H1      20.152469   17.714447   24.134761 H          1 MOL1         0.0727
       6    H2      18.496831   17.196614   24.415755 H          1 MOL1         0.0727
       7    C3      18.636171   19.174849   23.528018 C.3        1 MOL1        -0.1910
       8    H3      17.762326   19.191410   22.862133 H          1 MOL1         0.0729
       9    H4      18.272375   19.522592   24.504277 H          1 MOL1         0.0729
      10    C4      19.694681   20.194682   23.035397 C.3        1 MOL1        -0.1909
      11    H5      20.523355   20.252292   23.754437 H          1 MOL1         0.0729
      12    H6      19.224967   21.187774   23.045582 H          1 MOL1         0.0729
      13    C5      20.237411   19.936831   21.608882 C.3        1 MOL1        -0.1884
      14    H7      19.525784   19.331344   21.030670 H          1 MOL1         0.0729
      15    H8      20.318290   20.897169   21.081286 H          1 MOL1         0.0729
      16    C6      21.630474   19.271630   21.610902 C.3        1 MOL1        -0.2899
      17    H9      22.371482   19.916729   22.100484 H          1 MOL1         0.0741
      18    H10     21.616337   18.311078   22.138984 H          1 MOL1         0.0741
      19    H11     21.970143   19.085936   20.583886 H          1 MOL1         0.0741
@<TRIPOS>BOND
    1     1     2    1
    2     1     3    2
    3     1     4    1
    4     4     5    1
    5     4     6    1
    6     4     7    1
    7     7     8    1
    8     7     9    1
    9     7    10    1
   10    10    11    1
   11    10    12    1
   12    10    13    1
   13    13    14    1
   14    13    15    1
   15    13    16    1
   16    16    17    1
   17    16    18    1
   18    16    19    1
@<TRIPOS>SUBSTRUCTURE
       1 MOL1            1 RESIDUE      1      MOL     
@<SCITEGIC>MOL_PROPERTY
VConf Rank
SciTegic.value.IntegerValue
589

@<SCITEGIC>MOL_PROPERTY
Conf_Id
SciTegic.value.IntegerValue
66

@<SCITEGIC>MOL_PROPERTY
Delta U+W
SciTegic.value.DoubleValue
5.819

@<SCITEGIC>MOL_PROPERTY
U+W
SciTegic.value.DoubleValue
-49.072

@<SCITEGIC>MOL_PROPERTY
Grad RMS
SciTegic.value.DoubleValue
0.000000

@<SCITEGIC>MOL_PROPERTY
U
SciTegic.value.DoubleValue
15.324

@<SCITEGIC>MOL_PROPERTY
W
SciTegic.value.DoubleValue
-64.396

@<SCITEGIC>MOL_PROPERTY
W(PB)
SciTegic.value.DoubleValue
-66.382

@<SCITEGIC>MOL_PROPERTY
W(SA)
SciTegic.value.DoubleValue
1.986

@<SCITEGIC>MOL_PROPERTY
Valence
SciTegic.value.DoubleValue
11.748

@<SCITEGIC>MOL_PROPERTY
Coulomb
SciTegic.value.DoubleValue
3.201

@<SCITEGIC>MOL_PROPERTY
VdW
SciTegic.value.DoubleValue
0.375

@<SCITEGIC>MOL_PROPERTY
VdW6
SciTegic.value.DoubleValue
-8.854

@<SCITEGIC>MOL_PROPERTY
VdW12
SciTegic.value.DoubleValue
9.229

@<SCITEGIC>MOL_PROPERTY
Bond
SciTegic.value.DoubleValue
0.216

@<SCITEGIC>MOL_PROPERTY
Angle
SciTegic.value.DoubleValue
3.812

@<SCITEGIC>MOL_PROPERTY
Pdih
SciTegic.value.DoubleValue
7.699

@<SCITEGIC>MOL_PROPERTY
Idih
SciTegic.value.DoubleValue
0.022

@<SCITEGIC>MOL_PROPERTY
Tether
SciTegic.value.DoubleValue
0.000

@<TRIPOS>MOLECULE
guest-7_confgen4.mol2 : confsearch ligand conformer 590
          19          18           1
SMALL
USER_CHARGES
 
@<TRIPOS>ATOM
       1    C1      22.596318   16.853661   22.918221 C.2        1 MOL1         0.6115
       2    O1      22.995665   15.718867   22.749617 O.co2      1 MOL1        -0.6776
       3    O2      23.208141   17.683431   23.562660 O.co2      1 MOL1        -0.6776
       4    C2      21.257997   17.225276   22.277539 C.3        1 MOL1        -0.2013
       5    H1      20.505952   16.526225   22.661993 H          1 MOL1         0.0727
       6    H2      21.347976   17.039440   21.200776 H          1 MOL1         0.0727
       7    C3      20.789345   18.684722   22.520062 C.3        1 MOL1        -0.1910
       8    H3      20.706808   18.866154   23.600682 H          1 MOL1         0.0729
       9    H4      21.549743   19.379903   22.137981 H          1 MOL1         0.0729
      10    C4      19.433407   18.972858   21.839862 C.3        1 MOL1        -0.1909
      11    H5      18.674766   18.276654   22.223156 H          1 MOL1         0.0729
      12    H6      19.518149   18.790730   20.759677 H          1 MOL1         0.0729
      13    C5      18.969325   20.424162   22.082218 C.3        1 MOL1        -0.1884
      14    H7      18.881514   20.609774   23.161723 H          1 MOL1         0.0729
      15    H8      19.724732   21.123786   21.698315 H          1 MOL1         0.0729
      16    C6      17.615313   20.708259   21.401828 C.3        1 MOL1        -0.2899
      17    H9      16.833199   20.042879   21.790399 H          1 MOL1         0.0741
      18    H10     17.300549   21.743998   21.584244 H          1 MOL1         0.0741
      19    H11     17.682758   20.560742   20.315959 H          1 MOL1         0.0741
@<TRIPOS>BOND
    1     1     2    1
    2     1     3    2
    3     1     4    1
    4     4     5    1
    5     4     6    1
    6     4     7    1
    7     7     8    1
    8     7     9    1
    9     7    10    1
   10    10    11    1
   11    10    12    1
   12    10    13    1
   13    13    14    1
   14    13    15    1
   15    13    16    1
   16    16    17    1
   17    16    18    1
   18    16    19    1
@<TRIPOS>SUBSTRUCTURE
       1 MOL1            1 RESIDUE      1      MOL     
@<SCITEGIC>MOL_PROPERTY
VConf Rank
SciTegic.value.IntegerValue
590

@<SCITEGIC>MOL_PROPERTY
Conf_Id
SciTegic.value.IntegerValue
0

@<SCITEGIC>MOL_PROPERTY
Delta U+W
SciTegic.value.DoubleValue
0.000

@<SCITEGIC>MOL_PROPERTY
U+W
SciTegic.value.DoubleValue
-54.891

@<SCITEGIC>MOL_PROPERTY
Grad RMS
SciTegic.value.DoubleValue
0.000000

@<SCITEGIC>MOL_PROPERTY
U
SciTegic.value.DoubleValue
6.966

@<SCITEGIC>MOL_PROPERTY
W
SciTegic.value.DoubleValue
-61.857

@<SCITEGIC>MOL_PROPERTY
W(PB)
SciTegic.value.DoubleValue
-63.965

@<SCITEGIC>MOL_PROPERTY
W(SA)
SciTegic.value.DoubleValue
2.108

@<SCITEGIC>MOL_PROPERTY
Valence
SciTegic.value.DoubleValue
7.175

@<SCITEGIC>MOL_PROPERTY
Coulomb
SciTegic.value.DoubleValue
-1.360

@<SCITEGIC>MOL_PROPERTY
VdW
SciTegic.value.DoubleValue
1.151

@<SCITEGIC>MOL_PROPERTY
VdW6
SciTegic.value.DoubleValue
-5.641

@<SCITEGIC>MOL_PROPERTY
VdW12
SciTegic.value.DoubleValue
6.792

@<SCITEGIC>MOL_PROPERTY
Bond
SciTegic.value.DoubleValue
0.119

@<SCITEGIC>MOL_PROPERTY
Angle
SciTegic.value.DoubleValue
2.715

@<SCITEGIC>MOL_PROPERTY
Pdih
SciTegic.value.DoubleValue
4.340

@<SCITEGIC>MOL_PROPERTY
Idih
SciTegic.value.DoubleValue
0.000

@<SCITEGIC>MOL_PROPERTY
Tether
SciTegic.value.DoubleValue
0.000

@<TRIPOS>MOLECULE
guest-7_confgen4.mol2 : confsearch ligand conformer 591
          19          18           1
SMALL
USER_CHARGES
 
@<TRIPOS>ATOM
       1    C1      21.067863   15.756179   21.811176 C.2        1 MOL1         0.6115
       2    O1      21.367882   15.433827   20.678808 O.co2      1 MOL1        -0.6776
       3    O2      21.595844   15.295668   22.803823 O.co2      1 MOL1        -0.6776
       4    C2      19.983398   16.811688   21.996130 C.3        1 MOL1        -0.2013
       5    H1      19.449455   16.592099   22.928560 H          1 MOL1         0.0727
       6    H2      19.261854   16.706286   21.176979 H          1 MOL1         0.0727
       7    C3      20.546338   18.253934   22.029862 C.3        1 MOL1        -0.1910
       8    H3      21.276158   18.339527   22.846922 H          1 MOL1         0.0729
       9    H4      21.088708   18.453667   21.095256 H          1 MOL1         0.0729
      10    C4      19.429033   19.302719   22.217765 C.3        1 MOL1        -0.1909
      11    H5      18.887867   19.099536   23.152136 H          1 MOL1         0.0729
      12    H6      18.700458   19.213765   21.400173 H          1 MOL1         0.0729
      13    C5      19.992733   20.738514   22.251078 C.3        1 MOL1        -0.1884
      14    H7      20.720636   20.832041   23.068943 H          1 MOL1         0.0729
      15    H8      20.533165   20.946294   21.317133 H          1 MOL1         0.0729
      16    C6      18.874431   21.783065   22.438883 C.3        1 MOL1        -0.2899
      17    H9      19.292625   22.797836   22.460339 H          1 MOL1         0.0741
      18    H10     18.148178   21.733050   21.617008 H          1 MOL1         0.0741
      19    H11     18.337033   21.617907   23.381936 H          1 MOL1         0.0741
@<TRIPOS>BOND
    1     1     2    1
    2     1     3    2
    3     1     4    1
    4     4     5    1
    5     4     6    1
    6     4     7    1
    7     7     8    1
    8     7     9    1
    9     7    10    1
   10    10    11    1
   11    10    12    1
   12    10    13    1
   13    13    14    1
   14    13    15    1
   15    13    16    1
   16    16    17    1
   17    16    18    1
   18    16    19    1
@<TRIPOS>SUBSTRUCTURE
       1 MOL1            1 RESIDUE      1      MOL     
@<SCITEGIC>MOL_PROPERTY
VConf Rank
SciTegic.value.IntegerValue
591

@<SCITEGIC>MOL_PROPERTY
Conf_Id
SciTegic.value.IntegerValue
18

@<SCITEGIC>MOL_PROPERTY
Delta U+W
SciTegic.value.DoubleValue
-1.199

@<SCITEGIC>MOL_PROPERTY
U+W
SciTegic.value.DoubleValue
-56.090

@<SCITEGIC>MOL_PROPERTY
Grad RMS
SciTegic.value.DoubleValue
0.000000

@<SCITEGIC>MOL_PROPERTY
U
SciTegic.value.DoubleValue
5.975

@<SCITEGIC>MOL_PROPERTY
W
SciTegic.value.DoubleValue
-62.066

@<SCITEGIC>MOL_PROPERTY
W(PB)
SciTegic.value.DoubleValue
-64.219

@<SCITEGIC>MOL_PROPERTY
W(SA)
SciTegic.value.DoubleValue
2.153

@<SCITEGIC>MOL_PROPERTY
Valence
SciTegic.value.DoubleValue
6.673

@<SCITEGIC>MOL_PROPERTY
Coulomb
SciTegic.value.DoubleValue
-1.307

@<SCITEGIC>MOL_PROPERTY
VdW
SciTegic.value.DoubleValue
0.610

@<SCITEGIC>MOL_PROPERTY
VdW6
SciTegic.value.DoubleValue
-5.351

@<SCITEGIC>MOL_PROPERTY
VdW12
SciTegic.value.DoubleValue
5.961

@<SCITEGIC>MOL_PROPERTY
Bond
SciTegic.value.DoubleValue
0.086

@<SCITEGIC>MOL_PROPERTY
Angle
SciTegic.value.DoubleValue
2.253

@<SCITEGIC>MOL_PROPERTY
Pdih
SciTegic.value.DoubleValue
4.333

@<SCITEGIC>MOL_PROPERTY
Idih
SciTegic.value.DoubleValue
0.001

@<SCITEGIC>MOL_PROPERTY
Tether
SciTegic.value.DoubleValue
0.000

@<TRIPOS>MOLECULE
guest-7_confgen4.mol2 : confsearch ligand conformer 592
          19          18           1
SMALL
USER_CHARGES
 
@<TRIPOS>ATOM
       1    C1      17.022559   19.762303   23.101576 C.2        1 MOL1         0.6115
       2    O1      16.754388   20.178931   24.210988 O.co2      1 MOL1        -0.6776
       3    O2      16.301525   19.911298   22.135050 O.co2      1 MOL1        -0.6776
       4    C2      18.346206   19.031149   22.907328 C.3        1 MOL1        -0.2013
       5    H1      18.196558   18.271112   22.132220 H          1 MOL1         0.0727
       6    H2      18.583610   18.503794   23.839018 H          1 MOL1         0.0727
       7    C3      19.507330   19.984116   22.521548 C.3        1 MOL1        -0.1910
       8    H3      19.278198   20.473121   21.564635 H          1 MOL1         0.0729
       9    H4      19.570196   20.784630   23.271647 H          1 MOL1         0.0729
      10    C4      20.881632   19.279176   22.432741 C.3        1 MOL1        -0.1909
      11    H5      21.111590   18.798548   23.393534 H          1 MOL1         0.0729
      12    H6      21.655489   20.042732   22.274177 H          1 MOL1         0.0729
      13    C5      20.964893   18.236372   21.295578 C.3        1 MOL1        -0.1884
      14    H7      20.250119   17.422556   21.474917 H          1 MOL1         0.0729
      15    H8      20.685414   18.704839   20.341797 H          1 MOL1         0.0729
      16    C6      22.382368   17.641315   21.177516 C.3        1 MOL1        -0.2899
      17    H9      22.424733   16.900848   20.368194 H          1 MOL1         0.0741
      18    H10     23.120619   18.424110   20.959336 H          1 MOL1         0.0741
      19    H11     22.677220   17.141910   22.109752 H          1 MOL1         0.0741
@<TRIPOS>BOND
    1     1     2    1
    2     1     3    2
    3     1     4    1
    4     4     5    1
    5     4     6    1
    6     4     7    1
    7     7     8    1
    8     7     9    1
    9     7    10    1
   10    10    11    1
   11    10    12    1
   12    10    13    1
   13    13    14    1
   14    13    15    1
   15    13    16    1
   16    16    17    1
   17    16    18    1
   18    16    19    1
@<TRIPOS>SUBSTRUCTURE
       1 MOL1            1 RESIDUE      1      MOL     
@<SCITEGIC>MOL_PROPERTY
VConf Rank
SciTegic.value.IntegerValue
592

@<SCITEGIC>MOL_PROPERTY
Conf_Id
SciTegic.value.IntegerValue
34

@<SCITEGIC>MOL_PROPERTY
Delta U+W
SciTegic.value.DoubleValue
-0.563

@<SCITEGIC>MOL_PROPERTY
U+W
SciTegic.value.DoubleValue
-55.455

@<SCITEGIC>MOL_PROPERTY
Grad RMS
SciTegic.value.DoubleValue
0.000000

@<SCITEGIC>MOL_PROPERTY
U
SciTegic.value.DoubleValue
6.914

@<SCITEGIC>MOL_PROPERTY
W
SciTegic.value.DoubleValue
-62.369

@<SCITEGIC>MOL_PROPERTY
W(PB)
SciTegic.value.DoubleValue
-64.446

@<SCITEGIC>MOL_PROPERTY
W(SA)
SciTegic.value.DoubleValue
2.077

@<SCITEGIC>MOL_PROPERTY
Valence
SciTegic.value.DoubleValue
7.196

@<SCITEGIC>MOL_PROPERTY
Coulomb
SciTegic.value.DoubleValue
-1.020

@<SCITEGIC>MOL_PROPERTY
VdW
SciTegic.value.DoubleValue
0.738

@<SCITEGIC>MOL_PROPERTY
VdW6
SciTegic.value.DoubleValue
-6.010

@<SCITEGIC>MOL_PROPERTY
VdW12
SciTegic.value.DoubleValue
6.748

@<SCITEGIC>MOL_PROPERTY
Bond
SciTegic.value.DoubleValue
0.126

@<SCITEGIC>MOL_PROPERTY
Angle
SciTegic.value.DoubleValue
2.499

@<SCITEGIC>MOL_PROPERTY
Pdih
SciTegic.value.DoubleValue
4.570

@<SCITEGIC>MOL_PROPERTY
Idih
SciTegic.value.DoubleValue
0.001

@<SCITEGIC>MOL_PROPERTY
Tether
SciTegic.value.DoubleValue
0.000

@<TRIPOS>MOLECULE
guest-7_confgen4.mol2 : confsearch ligand conformer 593
          19          18           1
SMALL
USER_CHARGES
 
@<TRIPOS>ATOM
       1    C1      18.705102   16.819720   20.112405 C.2        1 MOL1         0.6115
       2    O1      19.355269   16.218897   19.280190 O.co2      1 MOL1        -0.6776
       3    O2      17.498073   16.947894   20.058400 O.co2      1 MOL1        -0.6776
       4    C2      19.447149   17.466888   21.276407 C.3        1 MOL1        -0.2013
       5    H1      20.324741   16.850514   21.505377 H          1 MOL1         0.0727
       6    H2      18.788518   17.433236   22.151573 H          1 MOL1         0.0727
       7    C3      19.881646   18.924811   20.974987 C.3        1 MOL1        -0.1910
       8    H3      20.463199   18.933593   20.042709 H          1 MOL1         0.0729
       9    H4      18.991647   19.542384   20.791101 H          1 MOL1         0.0729
      10    C4      20.735811   19.559651   22.097887 C.3        1 MOL1        -0.1909
      11    H5      21.095591   20.538146   21.751305 H          1 MOL1         0.0729
      12    H6      21.629015   18.944520   22.273410 H          1 MOL1         0.0729
      13    C5      19.965037   19.749003   23.423619 C.3        1 MOL1        -0.1884
      14    H7      19.045166   20.320925   23.239197 H          1 MOL1         0.0729
      15    H8      19.661319   18.774388   23.827653 H          1 MOL1         0.0729
      16    C6      20.821515   20.482450   24.475174 C.3        1 MOL1        -0.2899
      17    H9      21.736169   19.918014   24.699283 H          1 MOL1         0.0741
      18    H10     21.112226   21.479643   24.119534 H          1 MOL1         0.0741
      19    H11     20.261854   20.606663   25.411358 H          1 MOL1         0.0741
@<TRIPOS>BOND
    1     1     2    1
    2     1     3    2
    3     1     4    1
    4     4     5    1
    5     4     6    1
    6     4     7    1
    7     7     8    1
    8     7     9    1
    9     7    10    1
   10    10    11    1
   11    10    12    1
   12    10    13    1
   13    13    14    1
   14    13    15    1
   15    13    16    1
   16    16    17    1
   17    16    18    1
   18    16    19    1
@<TRIPOS>SUBSTRUCTURE
       1 MOL1            1 RESIDUE      1      MOL     
@<SCITEGIC>MOL_PROPERTY
VConf Rank
SciTegic.value.IntegerValue
593

@<SCITEGIC>MOL_PROPERTY
Conf_Id
SciTegic.value.IntegerValue
33

@<SCITEGIC>MOL_PROPERTY
Delta U+W
SciTegic.value.DoubleValue
-0.526

@<SCITEGIC>MOL_PROPERTY
U+W
SciTegic.value.DoubleValue
-55.418

@<SCITEGIC>MOL_PROPERTY
Grad RMS
SciTegic.value.DoubleValue
0.000000

@<SCITEGIC>MOL_PROPERTY
U
SciTegic.value.DoubleValue
6.914

@<SCITEGIC>MOL_PROPERTY
W
SciTegic.value.DoubleValue
-62.332

@<SCITEGIC>MOL_PROPERTY
W(PB)
SciTegic.value.DoubleValue
-64.421

@<SCITEGIC>MOL_PROPERTY
W(SA)
SciTegic.value.DoubleValue
2.090

@<SCITEGIC>MOL_PROPERTY
Valence
SciTegic.value.DoubleValue
7.196

@<SCITEGIC>MOL_PROPERTY
Coulomb
SciTegic.value.DoubleValue
-1.020

@<SCITEGIC>MOL_PROPERTY
VdW
SciTegic.value.DoubleValue
0.738

@<SCITEGIC>MOL_PROPERTY
VdW6
SciTegic.value.DoubleValue
-6.010

@<SCITEGIC>MOL_PROPERTY
VdW12
SciTegic.value.DoubleValue
6.748

@<SCITEGIC>MOL_PROPERTY
Bond
SciTegic.value.DoubleValue
0.126

@<SCITEGIC>MOL_PROPERTY
Angle
SciTegic.value.DoubleValue
2.499

@<SCITEGIC>MOL_PROPERTY
Pdih
SciTegic.value.DoubleValue
4.570

@<SCITEGIC>MOL_PROPERTY
Idih
SciTegic.value.DoubleValue
0.001

@<SCITEGIC>MOL_PROPERTY
Tether
SciTegic.value.DoubleValue
0.000

@<TRIPOS>MOLECULE
guest-7_confgen4.mol2 : confsearch ligand conformer 594
          19          18           1
SMALL
USER_CHARGES
 
@<TRIPOS>ATOM
       1    C1      19.353224   15.868650   22.700976 C.2        1 MOL1         0.6115
       2    O1      20.407498   15.271400   22.790518 O.co2      1 MOL1        -0.6776
       3    O2      18.356311   15.571029   23.328536 O.co2      1 MOL1        -0.6776
       4    C2      19.282239   17.068297   21.762728 C.3        1 MOL1        -0.2013
       5    H1      18.264943   17.123448   21.356838 H          1 MOL1         0.0727
       6    H2      19.958161   16.882164   20.919395 H          1 MOL1         0.0727
       7    C3      19.653063   18.400668   22.459662 C.3        1 MOL1        -0.1910
       8    H3      18.973904   18.568091   23.306982 H          1 MOL1         0.0729
       9    H4      20.666506   18.315175   22.873480 H          1 MOL1         0.0729
      10    C4      19.576038   19.598408   21.484907 C.3        1 MOL1        -0.1909
      11    H5      18.577271   19.623828   21.027948 H          1 MOL1         0.0729
      12    H6      20.290851   19.453948   20.663213 H          1 MOL1         0.0729
      13    C5      19.839297   20.961572   22.165396 C.3        1 MOL1        -0.1884
      14    H7      19.650277   21.761763   21.436556 H          1 MOL1         0.0729
      15    H8      19.122523   21.112225   22.984460 H          1 MOL1         0.0729
      16    C6      21.279560   21.108453   22.701980 C.3        1 MOL1        -0.2899
      17    H9      22.015155   20.932965   21.906203 H          1 MOL1         0.0741
      18    H10     21.441369   22.120731   23.094474 H          1 MOL1         0.0741
      19    H11     21.477800   20.400999   23.516812 H          1 MOL1         0.0741
@<TRIPOS>BOND
    1     1     2    1
    2     1     3    2
    3     1     4    1
    4     4     5    1
    5     4     6    1
    6     4     7    1
    7     7     8    1
    8     7     9    1
    9     7    10    1
   10    10    11    1
   11    10    12    1
   12    10    13    1
   13    13    14    1
   14    13    15    1
   15    13    16    1
   16    16    17    1
   17    16    18    1
   18    16    19    1
@<TRIPOS>SUBSTRUCTURE
       1 MOL1            1 RESIDUE      1      MOL     
@<SCITEGIC>MOL_PROPERTY
VConf Rank
SciTegic.value.IntegerValue
594

@<SCITEGIC>MOL_PROPERTY
Conf_Id
SciTegic.value.IntegerValue
42

@<SCITEGIC>MOL_PROPERTY
Delta U+W
SciTegic.value.DoubleValue
-0.344

@<SCITEGIC>MOL_PROPERTY
U+W
SciTegic.value.DoubleValue
-55.236

@<SCITEGIC>MOL_PROPERTY
Grad RMS
SciTegic.value.DoubleValue
0.000000

@<SCITEGIC>MOL_PROPERTY
U
SciTegic.value.DoubleValue
7.244

@<SCITEGIC>MOL_PROPERTY
W
SciTegic.value.DoubleValue
-62.479

@<SCITEGIC>MOL_PROPERTY
W(PB)
SciTegic.value.DoubleValue
-64.610

@<SCITEGIC>MOL_PROPERTY
W(SA)
SciTegic.value.DoubleValue
2.130

@<SCITEGIC>MOL_PROPERTY
Valence
SciTegic.value.DoubleValue
7.174

@<SCITEGIC>MOL_PROPERTY
Coulomb
SciTegic.value.DoubleValue
-0.669

@<SCITEGIC>MOL_PROPERTY
VdW
SciTegic.value.DoubleValue
0.739

@<SCITEGIC>MOL_PROPERTY
VdW6
SciTegic.value.DoubleValue
-5.969

@<SCITEGIC>MOL_PROPERTY
VdW12
SciTegic.value.DoubleValue
6.708

@<SCITEGIC>MOL_PROPERTY
Bond
SciTegic.value.DoubleValue
0.116

@<SCITEGIC>MOL_PROPERTY
Angle
SciTegic.value.DoubleValue
2.481

@<SCITEGIC>MOL_PROPERTY
Pdih
SciTegic.value.DoubleValue
4.576

@<SCITEGIC>MOL_PROPERTY
Idih
SciTegic.value.DoubleValue
0.000

@<SCITEGIC>MOL_PROPERTY
Tether
SciTegic.value.DoubleValue
0.000

@<TRIPOS>MOLECULE
guest-7_confgen4.mol2 : confsearch ligand conformer 595
          19          18           1
SMALL
USER_CHARGES
 
@<TRIPOS>ATOM
       1    C1      20.404332   18.282464   25.317104 C.2        1 MOL1         0.6115
       2    O1      19.813727   19.109552   25.982935 O.co2      1 MOL1        -0.6776
       3    O2      21.447781   17.763265   25.660459 O.co2      1 MOL1        -0.6776
       4    C2      19.813123   17.887763   23.968333 C.3        1 MOL1        -0.2013
       5    H1      18.720887   17.952935   24.042500 H          1 MOL1         0.0727
       6    H2      20.063252   16.836492   23.781400 H          1 MOL1         0.0727
       7    C3      20.322690   18.773908   22.804919 C.3        1 MOL1        -0.1910
       8    H3      20.077896   19.821853   23.022886 H          1 MOL1         0.0729
       9    H4      21.417898   18.705387   22.749584 H          1 MOL1         0.0729
      10    C4      19.704755   18.354021   21.451217 C.3        1 MOL1        -0.1909
      11    H5      18.612909   18.469461   21.490630 H          1 MOL1         0.0729
      12    H6      19.899141   17.285489   21.285551 H          1 MOL1         0.0729
      13    C5      20.265317   19.147172   20.248191 C.3        1 MOL1        -0.1884
      14    H7      21.356818   19.029572   20.202105 H          1 MOL1         0.0729
      15    H8      19.866851   18.710922   19.321824 H          1 MOL1         0.0729
      16    C6      19.905738   20.648234   20.285148 C.3        1 MOL1        -0.2899
      17    H9      20.379704   21.153084   21.136164 H          1 MOL1         0.0741
      18    H10     20.248873   21.147576   19.369802 H          1 MOL1         0.0741
      19    H11     18.819825   20.790405   20.360888 H          1 MOL1         0.0741
@<TRIPOS>BOND
    1     1     2    1
    2     1     3    2
    3     1     4    1
    4     4     5    1
    5     4     6    1
    6     4     7    1
    7     7     8    1
    8     7     9    1
    9     7    10    1
   10    10    11    1
   11    10    12    1
   12    10    13    1
   13    13    14    1
   14    13    15    1
   15    13    16    1
   16    16    17    1
   17    16    18    1
   18    16    19    1
@<TRIPOS>SUBSTRUCTURE
       1 MOL1            1 RESIDUE      1      MOL     
@<SCITEGIC>MOL_PROPERTY
VConf Rank
SciTegic.value.IntegerValue
595

@<SCITEGIC>MOL_PROPERTY
Conf_Id
SciTegic.value.IntegerValue
41

@<SCITEGIC>MOL_PROPERTY
Delta U+W
SciTegic.value.DoubleValue
-0.361

@<SCITEGIC>MOL_PROPERTY
U+W
SciTegic.value.DoubleValue
-55.252

@<SCITEGIC>MOL_PROPERTY
Grad RMS
SciTegic.value.DoubleValue
0.000000

@<SCITEGIC>MOL_PROPERTY
U
SciTegic.value.DoubleValue
7.244

@<SCITEGIC>MOL_PROPERTY
W
SciTegic.value.DoubleValue
-62.496

@<SCITEGIC>MOL_PROPERTY
W(PB)
SciTegic.value.DoubleValue
-64.596

@<SCITEGIC>MOL_PROPERTY
W(SA)
SciTegic.value.DoubleValue
2.099

@<SCITEGIC>MOL_PROPERTY
Valence
SciTegic.value.DoubleValue
7.174

@<SCITEGIC>MOL_PROPERTY
Coulomb
SciTegic.value.DoubleValue
-0.669

@<SCITEGIC>MOL_PROPERTY
VdW
SciTegic.value.DoubleValue
0.739

@<SCITEGIC>MOL_PROPERTY
VdW6
SciTegic.value.DoubleValue
-5.969

@<SCITEGIC>MOL_PROPERTY
VdW12
SciTegic.value.DoubleValue
6.708

@<SCITEGIC>MOL_PROPERTY
Bond
SciTegic.value.DoubleValue
0.116

@<SCITEGIC>MOL_PROPERTY
Angle
SciTegic.value.DoubleValue
2.481

@<SCITEGIC>MOL_PROPERTY
Pdih
SciTegic.value.DoubleValue
4.576

@<SCITEGIC>MOL_PROPERTY
Idih
SciTegic.value.DoubleValue
0.000

@<SCITEGIC>MOL_PROPERTY
Tether
SciTegic.value.DoubleValue
0.000

@<TRIPOS>MOLECULE
guest-7_confgen4.mol2 : confsearch ligand conformer 596
          19          18           1
SMALL
USER_CHARGES
 
@<TRIPOS>ATOM
       1    C1      22.133917   19.361915   23.998783 C.2        1 MOL1         0.6115
       2    O1      22.367326   18.207963   24.299556 O.co2      1 MOL1        -0.6776
       3    O2      22.968335   20.119828   23.544915 O.co2      1 MOL1        -0.6776
       4    C2      20.722289   19.897054   24.223007 C.3        1 MOL1        -0.2013
       5    H1      20.815683   20.872785   24.714270 H          1 MOL1         0.0727
       6    H2      20.204458   19.235196   24.927835 H          1 MOL1         0.0727
       7    C3      19.890915   20.049725   22.922777 C.3        1 MOL1        -0.1910
       8    H3      18.950829   20.566150   23.159580 H          1 MOL1         0.0729
       9    H4      20.435190   20.691596   22.216096 H          1 MOL1         0.0729
      10    C4      19.572543   18.691741   22.258073 C.3        1 MOL1        -0.1909
      11    H5      19.040117   18.049089   22.972602 H          1 MOL1         0.0729
      12    H6      20.508585   18.176081   22.002452 H          1 MOL1         0.0729
      13    C5      18.718742   18.865297   20.984689 C.3        1 MOL1        -0.1884
      14    H7      17.779059   19.376922   21.235018 H          1 MOL1         0.0729
      15    H8      19.250097   19.505837   20.267162 H          1 MOL1         0.0729
      16    C6      18.402715   17.508664   20.323895 C.3        1 MOL1        -0.2899
      17    H9      17.843370   16.858722   21.009544 H          1 MOL1         0.0741
      18    H10     17.795748   17.650504   19.420258 H          1 MOL1         0.0741
      19    H11     19.325302   16.988541   20.034505 H          1 MOL1         0.0741
@<TRIPOS>BOND
    1     1     2    1
    2     1     3    2
    3     1     4    1
    4     4     5    1
    5     4     6    1
    6     4     7    1
    7     7     8    1
    8     7     9    1
    9     7    10    1
   10    10    11    1
   11    10    12    1
   12    10    13    1
   13    13    14    1
   14    13    15    1
   15    13    16    1
   16    16    17    1
   17    16    18    1
   18    16    19    1
@<TRIPOS>SUBSTRUCTURE
       1 MOL1            1 RESIDUE      1      MOL     
@<SCITEGIC>MOL_PROPERTY
VConf Rank
SciTegic.value.IntegerValue
596

@<SCITEGIC>MOL_PROPERTY
Conf_Id
SciTegic.value.IntegerValue
36

@<SCITEGIC>MOL_PROPERTY
Delta U+W
SciTegic.value.DoubleValue
-0.079

@<SCITEGIC>MOL_PROPERTY
U+W
SciTegic.value.DoubleValue
-54.971

@<SCITEGIC>MOL_PROPERTY
Grad RMS
SciTegic.value.DoubleValue
0.000000

@<SCITEGIC>MOL_PROPERTY
U
SciTegic.value.DoubleValue
8.266

@<SCITEGIC>MOL_PROPERTY
W
SciTegic.value.DoubleValue
-63.237

@<SCITEGIC>MOL_PROPERTY
W(PB)
SciTegic.value.DoubleValue
-65.340

@<SCITEGIC>MOL_PROPERTY
W(SA)
SciTegic.value.DoubleValue
2.103

@<SCITEGIC>MOL_PROPERTY
Valence
SciTegic.value.DoubleValue
6.935

@<SCITEGIC>MOL_PROPERTY
Coulomb
SciTegic.value.DoubleValue
0.874

@<SCITEGIC>MOL_PROPERTY
VdW
SciTegic.value.DoubleValue
0.457

@<SCITEGIC>MOL_PROPERTY
VdW6
SciTegic.value.DoubleValue
-6.205

@<SCITEGIC>MOL_PROPERTY
VdW12
SciTegic.value.DoubleValue
6.662

@<SCITEGIC>MOL_PROPERTY
Bond
SciTegic.value.DoubleValue
0.107

@<SCITEGIC>MOL_PROPERTY
Angle
SciTegic.value.DoubleValue
2.420

@<SCITEGIC>MOL_PROPERTY
Pdih
SciTegic.value.DoubleValue
4.407

@<SCITEGIC>MOL_PROPERTY
Idih
SciTegic.value.DoubleValue
0.001

@<SCITEGIC>MOL_PROPERTY
Tether
SciTegic.value.DoubleValue
0.000

@<TRIPOS>MOLECULE
guest-7_confgen4.mol2 : confsearch ligand conformer 597
          19          18           1
SMALL
USER_CHARGES
 
@<TRIPOS>ATOM
       1    C1      22.020007   17.924787   20.441834 C.2        1 MOL1         0.6115
       2    O1      23.011137   18.546489   20.770011 O.co2      1 MOL1        -0.6776
       3    O2      21.609851   17.868671   19.299335 O.co2      1 MOL1        -0.6776
       4    C2      21.259646   17.154268   21.517706 C.3        1 MOL1        -0.2013
       5    H1      21.917448   17.022617   22.385434 H          1 MOL1         0.0727
       6    H2      21.054157   16.153151   21.120658 H          1 MOL1         0.0727
       7    C3      19.928910   17.822211   21.951395 C.3        1 MOL1        -0.1910
       8    H3      19.292881   17.973467   21.068094 H          1 MOL1         0.0729
       9    H4      19.387109   17.137352   22.617696 H          1 MOL1         0.0729
      10    C4      20.148496   19.169510   22.675188 C.3        1 MOL1        -0.1909
      11    H5      20.675274   19.866397   22.008649 H          1 MOL1         0.0729
      12    H6      20.795359   19.015304   23.549728 H          1 MOL1         0.0729
      13    C5      18.814253   19.800316   23.125168 C.3        1 MOL1        -0.1884
      14    H7      18.166130   19.957868   22.251905 H          1 MOL1         0.0729
      15    H8      18.284738   19.109329   23.795677 H          1 MOL1         0.0729
      16    C6      19.036728   21.144373   23.846969 C.3        1 MOL1        -0.2899
      17    H9      19.537394   21.865769   23.187906 H          1 MOL1         0.0741
      18    H10     18.078333   21.579009   24.159472 H          1 MOL1         0.0741
      19    H11     19.656836   21.010929   24.743107 H          1 MOL1         0.0741
@<TRIPOS>BOND
    1     1     2    1
    2     1     3    2
    3     1     4    1
    4     4     5    1
    5     4     6    1
    6     4     7    1
    7     7     8    1
    8     7     9    1
    9     7    10    1
   10    10    11    1
   11    10    12    1
   12    10    13    1
   13    13    14    1
   14    13    15    1
   15    13    16    1
   16    16    17    1
   17    16    18    1
   18    16    19    1
@<TRIPOS>SUBSTRUCTURE
       1 MOL1            1 RESIDUE      1      MOL     
@<SCITEGIC>MOL_PROPERTY
VConf Rank
SciTegic.value.IntegerValue
597

@<SCITEGIC>MOL_PROPERTY
Conf_Id
SciTegic.value.IntegerValue
35

@<SCITEGIC>MOL_PROPERTY
Delta U+W
SciTegic.value.DoubleValue
-0.030

@<SCITEGIC>MOL_PROPERTY
U+W
SciTegic.value.DoubleValue
-54.921

@<SCITEGIC>MOL_PROPERTY
Grad RMS
SciTegic.value.DoubleValue
0.000000

@<SCITEGIC>MOL_PROPERTY
U
SciTegic.value.DoubleValue
8.267

@<SCITEGIC>MOL_PROPERTY
W
SciTegic.value.DoubleValue
-63.188

@<SCITEGIC>MOL_PROPERTY
W(PB)
SciTegic.value.DoubleValue
-65.294

@<SCITEGIC>MOL_PROPERTY
W(SA)
SciTegic.value.DoubleValue
2.106

@<SCITEGIC>MOL_PROPERTY
Valence
SciTegic.value.DoubleValue
6.935

@<SCITEGIC>MOL_PROPERTY
Coulomb
SciTegic.value.DoubleValue
0.875

@<SCITEGIC>MOL_PROPERTY
VdW
SciTegic.value.DoubleValue
0.457

@<SCITEGIC>MOL_PROPERTY
VdW6
SciTegic.value.DoubleValue
-6.205

@<SCITEGIC>MOL_PROPERTY
VdW12
SciTegic.value.DoubleValue
6.662

@<SCITEGIC>MOL_PROPERTY
Bond
SciTegic.value.DoubleValue
0.107

@<SCITEGIC>MOL_PROPERTY
Angle
SciTegic.value.DoubleValue
2.420

@<SCITEGIC>MOL_PROPERTY
Pdih
SciTegic.value.DoubleValue
4.407

@<SCITEGIC>MOL_PROPERTY
Idih
SciTegic.value.DoubleValue
0.001

@<SCITEGIC>MOL_PROPERTY
Tether
SciTegic.value.DoubleValue
0.000

@<TRIPOS>MOLECULE
guest-7_confgen4.mol2 : confsearch ligand conformer 598
          19          18           1
SMALL
USER_CHARGES
 
@<TRIPOS>ATOM
       1    C1      22.439249   19.668241   20.757559 C.2        1 MOL1         0.6115
       2    O1      22.166144   20.287448   19.748250 O.co2      1 MOL1        -0.6776
       3    O2      23.214227   18.732594   20.782456 O.co2      1 MOL1        -0.6776
       4    C2      21.789189   20.104834   22.067630 C.3        1 MOL1        -0.2013
       5    H1      21.870331   21.196714   22.125143 H          1 MOL1         0.0727
       6    H2      22.374149   19.698885   22.901888 H          1 MOL1         0.0727
       7    C3      20.301278   19.689092   22.205472 C.3        1 MOL1        -0.1910
       8    H3      19.885094   20.175398   23.096903 H          1 MOL1         0.0729
       9    H4      19.735929   20.068961   21.343260 H          1 MOL1         0.0729
      10    C4      20.120814   18.156234   22.317111 C.3        1 MOL1        -0.1909
      11    H5      20.655246   17.783827   23.201708 H          1 MOL1         0.0729
      12    H6      20.587535   17.673526   21.447520 H          1 MOL1         0.0729
      13    C5      18.640251   17.715281   22.382881 C.3        1 MOL1        -0.1884
      14    H7      18.103493   18.084610   21.498122 H          1 MOL1         0.0729
      15    H8      18.597335   16.618376   22.336207 H          1 MOL1         0.0729
      16    C6      17.917551   18.186074   23.663536 C.3        1 MOL1        -0.2899
      17    H9      17.831256   19.279273   23.696555 H          1 MOL1         0.0741
      18    H10     16.901897   17.771750   23.705006 H          1 MOL1         0.0741
      19    H11     18.454459   17.854933   24.561992 H          1 MOL1         0.0741
@<TRIPOS>BOND
    1     1     2    1
    2     1     3    2
    3     1     4    1
    4     4     5    1
    5     4     6    1
    6     4     7    1
    7     7     8    1
    8     7     9    1
    9     7    10    1
   10    10    11    1
   11    10    12    1
   12    10    13    1
   13    13    14    1
   14    13    15    1
   15    13    16    1
   16    16    17    1
   17    16    18    1
   18    16    19    1
@<TRIPOS>SUBSTRUCTURE
       1 MOL1            1 RESIDUE      1      MOL     
@<SCITEGIC>MOL_PROPERTY
VConf Rank
SciTegic.value.IntegerValue
598

@<SCITEGIC>MOL_PROPERTY
Conf_Id
SciTegic.value.IntegerValue
74

@<SCITEGIC>MOL_PROPERTY
Delta U+W
SciTegic.value.DoubleValue
0.797

@<SCITEGIC>MOL_PROPERTY
U+W
SciTegic.value.DoubleValue
-54.095

@<SCITEGIC>MOL_PROPERTY
Grad RMS
SciTegic.value.DoubleValue
0.000000

@<SCITEGIC>MOL_PROPERTY
U
SciTegic.value.DoubleValue
8.869

@<SCITEGIC>MOL_PROPERTY
W
SciTegic.value.DoubleValue
-62.964

@<SCITEGIC>MOL_PROPERTY
W(PB)
SciTegic.value.DoubleValue
-65.046

@<SCITEGIC>MOL_PROPERTY
W(SA)
SciTegic.value.DoubleValue
2.082

@<SCITEGIC>MOL_PROPERTY
Valence
SciTegic.value.DoubleValue
7.469

@<SCITEGIC>MOL_PROPERTY
Coulomb
SciTegic.value.DoubleValue
0.762

@<SCITEGIC>MOL_PROPERTY
VdW
SciTegic.value.DoubleValue
0.639

@<SCITEGIC>MOL_PROPERTY
VdW6
SciTegic.value.DoubleValue
-6.782

@<SCITEGIC>MOL_PROPERTY
VdW12
SciTegic.value.DoubleValue
7.421

@<SCITEGIC>MOL_PROPERTY
Bond
SciTegic.value.DoubleValue
0.141

@<SCITEGIC>MOL_PROPERTY
Angle
SciTegic.value.DoubleValue
2.667

@<SCITEGIC>MOL_PROPERTY
Pdih
SciTegic.value.DoubleValue
4.660

@<SCITEGIC>MOL_PROPERTY
Idih
SciTegic.value.DoubleValue
0.001

@<SCITEGIC>MOL_PROPERTY
Tether
SciTegic.value.DoubleValue
0.000

@<TRIPOS>MOLECULE
guest-7_confgen4.mol2 : confsearch ligand conformer 599
          19          18           1
SMALL
USER_CHARGES
 
@<TRIPOS>ATOM
       1    C1      21.634059   17.670646   20.235063 C.2        1 MOL1         0.6115
       2    O1      21.450599   17.605307   19.035690 O.co2      1 MOL1        -0.6776
       3    O2      22.727735   17.567465   20.754245 O.co2      1 MOL1        -0.6776
       4    C2      20.428286   17.914173   21.135632 C.3        1 MOL1        -0.2013
       5    H1      20.612005   17.399646   22.085721 H          1 MOL1         0.0727
       6    H2      19.554847   17.440644   20.671703 H          1 MOL1         0.0727
       7    C3      20.154159   19.421063   21.377963 C.3        1 MOL1        -0.1910
       8    H3      21.019865   19.876213   21.877133 H          1 MOL1         0.0729
       9    H4      20.065599   19.924036   20.405144 H          1 MOL1         0.0729
      10    C4      18.864378   19.692748   22.192444 C.3        1 MOL1        -0.1909
      11    H5      18.000510   19.319515   21.625678 H          1 MOL1         0.0729
      12    H6      18.724068   20.778882   22.278505 H          1 MOL1         0.0729
      13    C5      18.836029   19.070819   23.610295 C.3        1 MOL1        -0.1884
      14    H7      17.874055   19.316750   24.080618 H          1 MOL1         0.0729
      15    H8      18.869902   17.975300   23.544714 H          1 MOL1         0.0729
      16    C6      19.976608   19.573337   24.521311 C.3        1 MOL1        -0.2899
      17    H9      19.976043   20.669324   24.583302 H          1 MOL1         0.0741
      18    H10     19.859424   19.176489   25.537970 H          1 MOL1         0.0741
      19    H11     20.956617   19.249209   24.148767 H          1 MOL1         0.0741
@<TRIPOS>BOND
    1     1     2    1
    2     1     3    2
    3     1     4    1
    4     4     5    1
    5     4     6    1
    6     4     7    1
    7     7     8    1
    8     7     9    1
    9     7    10    1
   10    10    11    1
   11    10    12    1
   12    10    13    1
   13    13    14    1
   14    13    15    1
   15    13    16    1
   16    16    17    1
   17    16    18    1
   18    16    19    1
@<TRIPOS>SUBSTRUCTURE
       1 MOL1            1 RESIDUE      1      MOL     
@<SCITEGIC>MOL_PROPERTY
VConf Rank
SciTegic.value.IntegerValue
599

@<SCITEGIC>MOL_PROPERTY
Conf_Id
SciTegic.value.IntegerValue
67

@<SCITEGIC>MOL_PROPERTY
Delta U+W
SciTegic.value.DoubleValue
0.308

@<SCITEGIC>MOL_PROPERTY
U+W
SciTegic.value.DoubleValue
-54.583

@<SCITEGIC>MOL_PROPERTY
Grad RMS
SciTegic.value.DoubleValue
0.000000

@<SCITEGIC>MOL_PROPERTY
U
SciTegic.value.DoubleValue
8.219

@<SCITEGIC>MOL_PROPERTY
W
SciTegic.value.DoubleValue
-62.802

@<SCITEGIC>MOL_PROPERTY
W(PB)
SciTegic.value.DoubleValue
-64.859

@<SCITEGIC>MOL_PROPERTY
W(SA)
SciTegic.value.DoubleValue
2.057

@<SCITEGIC>MOL_PROPERTY
Valence
SciTegic.value.DoubleValue
7.609

@<SCITEGIC>MOL_PROPERTY
Coulomb
SciTegic.value.DoubleValue
-0.089

@<SCITEGIC>MOL_PROPERTY
VdW
SciTegic.value.DoubleValue
0.699

@<SCITEGIC>MOL_PROPERTY
VdW6
SciTegic.value.DoubleValue
-6.924

@<SCITEGIC>MOL_PROPERTY
VdW12
SciTegic.value.DoubleValue
7.623

@<SCITEGIC>MOL_PROPERTY
Bond
SciTegic.value.DoubleValue
0.163

@<SCITEGIC>MOL_PROPERTY
Angle
SciTegic.value.DoubleValue
2.870

@<SCITEGIC>MOL_PROPERTY
Pdih
SciTegic.value.DoubleValue
4.576

@<SCITEGIC>MOL_PROPERTY
Idih
SciTegic.value.DoubleValue
0.001

@<SCITEGIC>MOL_PROPERTY
Tether
SciTegic.value.DoubleValue
0.000

@<TRIPOS>MOLECULE
guest-7_confgen4.mol2 : confsearch ligand conformer 600
          19          18           1
SMALL
USER_CHARGES
 
@<TRIPOS>ATOM
       1    C1      17.962390   20.548156   20.928427 C.2        1 MOL1         0.6115
       2    O1      18.064472   21.207851   19.913141 O.co2      1 MOL1        -0.6776
       3    O2      17.116461   20.747884   21.777446 O.co2      1 MOL1        -0.6776
       4    C2      18.962743   19.420897   21.158201 C.3        1 MOL1        -0.2013
       5    H1      19.241477   19.007810   20.181461 H          1 MOL1         0.0727
       6    H2      18.449678   18.627426   21.713474 H          1 MOL1         0.0727
       7    C3      20.228626   19.887715   21.922537 C.3        1 MOL1        -0.1910
       8    H3      20.667398   20.742108   21.388974 H          1 MOL1         0.0729
       9    H4      19.941516   20.263825   22.913439 H          1 MOL1         0.0729
      10    C4      21.309255   18.786124   22.062040 C.3        1 MOL1        -0.1909
      11    H5      22.183244   19.212428   22.573107 H          1 MOL1         0.0729
      12    H6      21.654882   18.497915   21.059907 H          1 MOL1         0.0729
      13    C5      20.859210   17.512378   22.818960 C.3        1 MOL1        -0.1884
      14    H7      20.052501   17.009646   22.269332 H          1 MOL1         0.0729
      15    H8      21.698596   16.803830   22.840653 H          1 MOL1         0.0729
      16    C6      20.406891   17.790315   24.268635 C.3        1 MOL1        -0.2899
      17    H9      19.497214   18.403683   24.291787 H          1 MOL1         0.0741
      18    H10     20.186986   16.849505   24.789532 H          1 MOL1         0.0741
      19    H11     21.190724   18.313854   24.831256 H          1 MOL1         0.0741
@<TRIPOS>BOND
    1     1     2    1
    2     1     3    2
    3     1     4    1
    4     4     5    1
    5     4     6    1
    6     4     7    1
    7     7     8    1
    8     7     9    1
    9     7    10    1
   10    10    11    1
   11    10    12    1
   12    10    13    1
   13    13    14    1
   14    13    15    1
   15    13    16    1
   16    16    17    1
   17    16    18    1
   18    16    19    1
@<TRIPOS>SUBSTRUCTURE
       1 MOL1            1 RESIDUE      1      MOL     
@<SCITEGIC>MOL_PROPERTY
VConf Rank
SciTegic.value.IntegerValue
600

@<SCITEGIC>MOL_PROPERTY
Conf_Id
SciTegic.value.IntegerValue
21

@<SCITEGIC>MOL_PROPERTY
Delta U+W
SciTegic.value.DoubleValue
0.319

@<SCITEGIC>MOL_PROPERTY
U+W
SciTegic.value.DoubleValue
-54.572

@<SCITEGIC>MOL_PROPERTY
Grad RMS
SciTegic.value.DoubleValue
0.000000

@<SCITEGIC>MOL_PROPERTY
U
SciTegic.value.DoubleValue
8.220

@<SCITEGIC>MOL_PROPERTY
W
SciTegic.value.DoubleValue
-62.792

@<SCITEGIC>MOL_PROPERTY
W(PB)
SciTegic.value.DoubleValue
-64.830

@<SCITEGIC>MOL_PROPERTY
W(SA)
SciTegic.value.DoubleValue
2.038

@<SCITEGIC>MOL_PROPERTY
Valence
SciTegic.value.DoubleValue
7.609

@<SCITEGIC>MOL_PROPERTY
Coulomb
SciTegic.value.DoubleValue
-0.088

@<SCITEGIC>MOL_PROPERTY
VdW
SciTegic.value.DoubleValue
0.699

@<SCITEGIC>MOL_PROPERTY
VdW6
SciTegic.value.DoubleValue
-6.924

@<SCITEGIC>MOL_PROPERTY
VdW12
SciTegic.value.DoubleValue
7.623

@<SCITEGIC>MOL_PROPERTY
Bond
SciTegic.value.DoubleValue
0.163

@<SCITEGIC>MOL_PROPERTY
Angle
SciTegic.value.DoubleValue
2.870

@<SCITEGIC>MOL_PROPERTY
Pdih
SciTegic.value.DoubleValue
4.576

@<SCITEGIC>MOL_PROPERTY
Idih
SciTegic.value.DoubleValue
0.000

@<SCITEGIC>MOL_PROPERTY
Tether
SciTegic.value.DoubleValue
0.000

@<TRIPOS>MOLECULE
guest-7_confgen4.mol2 : confsearch ligand conformer 601
          19          18           1
SMALL
USER_CHARGES
 
@<TRIPOS>ATOM
       1    C1      18.933133   20.498515   20.135986 C.2        1 MOL1         0.6115
       2    O1      17.979645   21.250547   20.094182 O.co2      1 MOL1        -0.6776
       3    O2      19.868113   20.554885   19.362108 O.co2      1 MOL1        -0.6776
       4    C2      18.966271   19.438266   21.230909 C.3        1 MOL1        -0.2013
       5    H1      19.491771   18.563493   20.835378 H          1 MOL1         0.0727
       6    H2      17.934192   19.126801   21.431375 H          1 MOL1         0.0727
       7    C3      19.631425   19.945054   22.537940 C.3        1 MOL1        -0.1910
       8    H3      20.645671   20.312170   22.328625 H          1 MOL1         0.0729
       9    H4      19.059302   20.813309   22.893192 H          1 MOL1         0.0729
      10    C4      19.667777   18.881107   23.664279 C.3        1 MOL1        -0.1909
      11    H5      18.815308   18.194902   23.567764 H          1 MOL1         0.0729
      12    H6      19.529181   19.396082   24.624782 H          1 MOL1         0.0729
      13    C5      20.989256   18.078808   23.753274 C.3        1 MOL1        -0.1884
      14    H7      21.825769   18.766538   23.939099 H          1 MOL1         0.0729
      15    H8      20.936182   17.416401   24.628256 H          1 MOL1         0.0729
      16    C6      21.296640   17.225056   22.505750 C.3        1 MOL1        -0.2899
      17    H9      22.170423   16.585305   22.684739 H          1 MOL1         0.0741
      18    H10     20.447955   16.576472   22.252671 H          1 MOL1         0.0741
      19    H11     21.523859   17.858569   21.639246 H          1 MOL1         0.0741
@<TRIPOS>BOND
    1     1     2    1
    2     1     3    2
    3     1     4    1
    4     4     5    1
    5     4     6    1
    6     4     7    1
    7     7     8    1
    8     7     9    1
    9     7    10    1
   10    10    11    1
   11    10    12    1
   12    10    13    1
   13    13    14    1
   14    13    15    1
   15    13    16    1
   16    16    17    1
   17    16    18    1
   18    16    19    1
@<TRIPOS>SUBSTRUCTURE
       1 MOL1            1 RESIDUE      1      MOL     
@<SCITEGIC>MOL_PROPERTY
VConf Rank
SciTegic.value.IntegerValue
601

@<SCITEGIC>MOL_PROPERTY
Conf_Id
SciTegic.value.IntegerValue
24

@<SCITEGIC>MOL_PROPERTY
Delta U+W
SciTegic.value.DoubleValue
2.477

@<SCITEGIC>MOL_PROPERTY
U+W
SciTegic.value.DoubleValue
-52.414

@<SCITEGIC>MOL_PROPERTY
Grad RMS
SciTegic.value.DoubleValue
0.000000

@<SCITEGIC>MOL_PROPERTY
U
SciTegic.value.DoubleValue
10.422

@<SCITEGIC>MOL_PROPERTY
W
SciTegic.value.DoubleValue
-62.836

@<SCITEGIC>MOL_PROPERTY
W(PB)
SciTegic.value.DoubleValue
-64.906

@<SCITEGIC>MOL_PROPERTY
W(SA)
SciTegic.value.DoubleValue
2.070

@<SCITEGIC>MOL_PROPERTY
Valence
SciTegic.value.DoubleValue
9.628

@<SCITEGIC>MOL_PROPERTY
Coulomb
SciTegic.value.DoubleValue
0.101

@<SCITEGIC>MOL_PROPERTY
VdW
SciTegic.value.DoubleValue
0.693

@<SCITEGIC>MOL_PROPERTY
VdW6
SciTegic.value.DoubleValue
-6.927

@<SCITEGIC>MOL_PROPERTY
VdW12
SciTegic.value.DoubleValue
7.620

@<SCITEGIC>MOL_PROPERTY
Bond
SciTegic.value.DoubleValue
0.173

@<SCITEGIC>MOL_PROPERTY
Angle
SciTegic.value.DoubleValue
2.989

@<SCITEGIC>MOL_PROPERTY
Pdih
SciTegic.value.DoubleValue
6.465

@<SCITEGIC>MOL_PROPERTY
Idih
SciTegic.value.DoubleValue
0.001

@<SCITEGIC>MOL_PROPERTY
Tether
SciTegic.value.DoubleValue
0.000

@<TRIPOS>MOLECULE
guest-7_confgen4.mol2 : confsearch ligand conformer 602
          19          18           1
SMALL
USER_CHARGES
 
@<TRIPOS>ATOM
       1    C1      20.820037   17.478806   24.263932 C.2        1 MOL1         0.6115
       2    O1      21.958676   17.443875   23.840883 O.co2      1 MOL1        -0.6776
       3    O2      20.539493   17.387547   25.442933 O.co2      1 MOL1        -0.6776
       4    C2      19.677247   17.615292   23.261119 C.3        1 MOL1        -0.2013
       5    H1      18.935808   16.846774   23.508918 H          1 MOL1         0.0727
       6    H2      20.060693   17.371200   22.265317 H          1 MOL1         0.0727
       7    C3      18.992983   19.010515   23.269699 C.3        1 MOL1        -0.1910
       8    H3      18.064454   18.973068   22.684323 H          1 MOL1         0.0729
       9    H4      18.690067   19.233792   24.302135 H          1 MOL1         0.0729
      10    C4      19.892250   20.163502   22.752576 C.3        1 MOL1        -0.1909
      11    H5      20.949383   19.951248   22.962877 H          1 MOL1         0.0729
      12    H6      19.650549   21.067927   23.327361 H          1 MOL1         0.0729
      13    C5      19.708958   20.502478   21.252775 C.3        1 MOL1        -0.1884
      14    H7      18.668141   20.801030   21.066311 H          1 MOL1         0.0729
      15    H8      20.327181   21.379416   21.016272 H          1 MOL1         0.0729
      16    C6      20.092585   19.355682   20.295045 C.3        1 MOL1        -0.2899
      17    H9      19.389556   18.517866   20.379730 H          1 MOL1         0.0741
      18    H10     20.070575   19.701601   19.253587 H          1 MOL1         0.0741
      19    H11     21.104169   18.986242   20.508812 H          1 MOL1         0.0741
@<TRIPOS>BOND
    1     1     2    1
    2     1     3    2
    3     1     4    1
    4     4     5    1
    5     4     6    1
    6     4     7    1
    7     7     8    1
    8     7     9    1
    9     7    10    1
   10    10    11    1
   11    10    12    1
   12    10    13    1
   13    13    14    1
   14    13    15    1
   15    13    16    1
   16    16    17    1
   17    16    18    1
   18    16    19    1
@<TRIPOS>SUBSTRUCTURE
       1 MOL1            1 RESIDUE      1      MOL     
@<SCITEGIC>MOL_PROPERTY
VConf Rank
SciTegic.value.IntegerValue
602

@<SCITEGIC>MOL_PROPERTY
Conf_Id
SciTegic.value.IntegerValue
4

@<SCITEGIC>MOL_PROPERTY
Delta U+W
SciTegic.value.DoubleValue
3.753

@<SCITEGIC>MOL_PROPERTY
U+W
SciTegic.value.DoubleValue
-51.138

@<SCITEGIC>MOL_PROPERTY
Grad RMS
SciTegic.value.DoubleValue
0.000000

@<SCITEGIC>MOL_PROPERTY
U
SciTegic.value.DoubleValue
12.334

@<SCITEGIC>MOL_PROPERTY
W
SciTegic.value.DoubleValue
-63.472

@<SCITEGIC>MOL_PROPERTY
W(PB)
SciTegic.value.DoubleValue
-65.500

@<SCITEGIC>MOL_PROPERTY
W(SA)
SciTegic.value.DoubleValue
2.028

@<SCITEGIC>MOL_PROPERTY
Valence
SciTegic.value.DoubleValue
9.984

@<SCITEGIC>MOL_PROPERTY
Coulomb
SciTegic.value.DoubleValue
1.767

@<SCITEGIC>MOL_PROPERTY
VdW
SciTegic.value.DoubleValue
0.583

@<SCITEGIC>MOL_PROPERTY
VdW6
SciTegic.value.DoubleValue
-7.767

@<SCITEGIC>MOL_PROPERTY
VdW12
SciTegic.value.DoubleValue
8.349

@<SCITEGIC>MOL_PROPERTY
Bond
SciTegic.value.DoubleValue
0.203

@<SCITEGIC>MOL_PROPERTY
Angle
SciTegic.value.DoubleValue
3.191

@<SCITEGIC>MOL_PROPERTY
Pdih
SciTegic.value.DoubleValue
6.589

@<SCITEGIC>MOL_PROPERTY
Idih
SciTegic.value.DoubleValue
0.001

@<SCITEGIC>MOL_PROPERTY
Tether
SciTegic.value.DoubleValue
0.000

@<TRIPOS>MOLECULE
guest-7_confgen4.mol2 : confsearch ligand conformer 603
          19          18           1
SMALL
USER_CHARGES
 
@<TRIPOS>ATOM
       1    C1      19.414323   16.362734   22.077468 C.2        1 MOL1         0.6115
       2    O1      18.458535   15.804015   21.576093 O.co2      1 MOL1        -0.6776
       3    O2      20.565284   16.021138   21.889597 O.co2      1 MOL1        -0.6776
       4    C2      19.150021   17.537536   23.015666 C.3        1 MOL1        -0.2013
       5    H1      20.052370   17.715071   23.609363 H          1 MOL1         0.0727
       6    H2      18.369589   17.221701   23.717756 H          1 MOL1         0.0727
       7    C3      18.694180   18.834315   22.290745 C.3        1 MOL1        -0.1910
       8    H3      17.830765   18.584341   21.658635 H          1 MOL1         0.0729
       9    H4      18.328365   19.562903   23.026661 H          1 MOL1         0.0729
      10    C4      19.788320   19.487132   21.406347 C.3        1 MOL1        -0.1909
      11    H5      19.297853   19.928153   20.527869 H          1 MOL1         0.0729
      12    H6      20.471990   18.722675   21.012638 H          1 MOL1         0.0729
      13    C5      20.595386   20.610915   22.101804 C.3        1 MOL1        -0.1884
      14    H7      21.278855   21.055230   21.365185 H          1 MOL1         0.0729
      15    H8      19.914933   21.415178   22.413806 H          1 MOL1         0.0729
      16    C6      21.419657   20.136946   23.316501 C.3        1 MOL1        -0.2899
      17    H9      22.055926   19.282440   23.051044 H          1 MOL1         0.0741
      18    H10     22.069222   20.944348   23.678366 H          1 MOL1         0.0741
      19    H11     20.766352   19.841445   24.146698 H          1 MOL1         0.0741
@<TRIPOS>BOND
    1     1     2    1
    2     1     3    2
    3     1     4    1
    4     4     5    1
    5     4     6    1
    6     4     7    1
    7     7     8    1
    8     7     9    1
    9     7    10    1
   10    10    11    1
   11    10    12    1
   12    10    13    1
   13    13    14    1
   14    13    15    1
   15    13    16    1
   16    16    17    1
   17    16    18    1
   18    16    19    1
@<TRIPOS>SUBSTRUCTURE
       1 MOL1            1 RESIDUE      1      MOL     
@<SCITEGIC>MOL_PROPERTY
VConf Rank
SciTegic.value.IntegerValue
603

@<SCITEGIC>MOL_PROPERTY
Conf_Id
SciTegic.value.IntegerValue
73

@<SCITEGIC>MOL_PROPERTY
Delta U+W
SciTegic.value.DoubleValue
3.707

@<SCITEGIC>MOL_PROPERTY
U+W
SciTegic.value.DoubleValue
-51.184

@<SCITEGIC>MOL_PROPERTY
Grad RMS
SciTegic.value.DoubleValue
0.000000

@<SCITEGIC>MOL_PROPERTY
U
SciTegic.value.DoubleValue
12.334

@<SCITEGIC>MOL_PROPERTY
W
SciTegic.value.DoubleValue
-63.519

@<SCITEGIC>MOL_PROPERTY
W(PB)
SciTegic.value.DoubleValue
-65.541

@<SCITEGIC>MOL_PROPERTY
W(SA)
SciTegic.value.DoubleValue
2.022

@<SCITEGIC>MOL_PROPERTY
Valence
SciTegic.value.DoubleValue
9.984

@<SCITEGIC>MOL_PROPERTY
Coulomb
SciTegic.value.DoubleValue
1.768

@<SCITEGIC>MOL_PROPERTY
VdW
SciTegic.value.DoubleValue
0.583

@<SCITEGIC>MOL_PROPERTY
VdW6
SciTegic.value.DoubleValue
-7.767

@<SCITEGIC>MOL_PROPERTY
VdW12
SciTegic.value.DoubleValue
8.350

@<SCITEGIC>MOL_PROPERTY
Bond
SciTegic.value.DoubleValue
0.203

@<SCITEGIC>MOL_PROPERTY
Angle
SciTegic.value.DoubleValue
3.192

@<SCITEGIC>MOL_PROPERTY
Pdih
SciTegic.value.DoubleValue
6.589

@<SCITEGIC>MOL_PROPERTY
Idih
SciTegic.value.DoubleValue
0.001

@<SCITEGIC>MOL_PROPERTY
Tether
SciTegic.value.DoubleValue
0.000

@<TRIPOS>MOLECULE
guest-7_confgen4.mol2 : confsearch ligand conformer 604
          19          18           1
SMALL
USER_CHARGES
 
@<TRIPOS>ATOM
       1    C1      18.938259   18.178769   20.124879 C.2        1 MOL1         0.6115
       2    O1      18.006838   17.539023   20.571972 O.co2      1 MOL1        -0.6776
       3    O2      18.900812   18.763936   19.060296 O.co2      1 MOL1        -0.6776
       4    C2      20.236670   18.225097   20.925697 C.3        1 MOL1        -0.2013
       5    H1      21.051447   17.959580   20.242098 H          1 MOL1         0.0727
       6    H2      20.206058   17.441285   21.691202 H          1 MOL1         0.0727
       7    C3      20.536399   19.606085   21.570138 C.3        1 MOL1        -0.1910
       8    H3      21.517765   19.570919   22.060596 H          1 MOL1         0.0729
       9    H4      20.625446   20.354990   20.771187 H          1 MOL1         0.0729
      10    C4      19.464814   20.086582   22.582521 C.3        1 MOL1        -0.1909
      11    H5      18.513316   20.234933   22.053629 H          1 MOL1         0.0729
      12    H6      19.756509   21.075404   22.961650 H          1 MOL1         0.0729
      13    C5      19.222258   19.141133   23.784399 C.3        1 MOL1        -0.1884
      14    H7      18.436693   19.575570   24.417683 H          1 MOL1         0.0729
      15    H8      18.829085   18.177586   23.433065 H          1 MOL1         0.0729
      16    C6      20.482839   18.909358   24.645149 C.3        1 MOL1        -0.2899
      17    H9      21.256799   18.372531   24.082374 H          1 MOL1         0.0741
      18    H10     20.904503   19.862829   24.988812 H          1 MOL1         0.0741
      19    H11     20.238121   18.308437   25.530475 H          1 MOL1         0.0741
@<TRIPOS>BOND
    1     1     2    1
    2     1     3    2
    3     1     4    1
    4     4     5    1
    5     4     6    1
    6     4     7    1
    7     7     8    1
    8     7     9    1
    9     7    10    1
   10    10    11    1
   11    10    12    1
   12    10    13    1
   13    13    14    1
   14    13    15    1
   15    13    16    1
   16    16    17    1
   17    16    18    1
   18    16    19    1
@<TRIPOS>SUBSTRUCTURE
       1 MOL1            1 RESIDUE      1      MOL     
@<SCITEGIC>MOL_PROPERTY
VConf Rank
SciTegic.value.IntegerValue
604

@<SCITEGIC>MOL_PROPERTY
Conf_Id
SciTegic.value.IntegerValue
56

@<SCITEGIC>MOL_PROPERTY
Delta U+W
SciTegic.value.DoubleValue
1.735

@<SCITEGIC>MOL_PROPERTY
U+W
SciTegic.value.DoubleValue
-53.156

@<SCITEGIC>MOL_PROPERTY
Grad RMS
SciTegic.value.DoubleValue
0.000000

@<SCITEGIC>MOL_PROPERTY
U
SciTegic.value.DoubleValue
10.214

@<SCITEGIC>MOL_PROPERTY
W
SciTegic.value.DoubleValue
-63.370

@<SCITEGIC>MOL_PROPERTY
W(PB)
SciTegic.value.DoubleValue
-65.388

@<SCITEGIC>MOL_PROPERTY
W(SA)
SciTegic.value.DoubleValue
2.018

@<SCITEGIC>MOL_PROPERTY
Valence
SciTegic.value.DoubleValue
7.868

@<SCITEGIC>MOL_PROPERTY
Coulomb
SciTegic.value.DoubleValue
1.968

@<SCITEGIC>MOL_PROPERTY
VdW
SciTegic.value.DoubleValue
0.378

@<SCITEGIC>MOL_PROPERTY
VdW6
SciTegic.value.DoubleValue
-8.067

@<SCITEGIC>MOL_PROPERTY
VdW12
SciTegic.value.DoubleValue
8.445

@<SCITEGIC>MOL_PROPERTY
Bond
SciTegic.value.DoubleValue
0.191

@<SCITEGIC>MOL_PROPERTY
Angle
SciTegic.value.DoubleValue
3.117

@<SCITEGIC>MOL_PROPERTY
Pdih
SciTegic.value.DoubleValue
4.559

@<SCITEGIC>MOL_PROPERTY
Idih
SciTegic.value.DoubleValue
0.001

@<SCITEGIC>MOL_PROPERTY
Tether
SciTegic.value.DoubleValue
0.000

@<TRIPOS>MOLECULE
guest-7_confgen4.mol2 : confsearch ligand conformer 605
          19          18           1
SMALL
USER_CHARGES
 
@<TRIPOS>ATOM
       1    C1      22.572443   18.688765   20.995420 C.2        1 MOL1         0.6115
       2    O1      22.707038   18.553342   19.795458 O.co2      1 MOL1        -0.6776
       3    O2      23.474222   18.532562   21.794651 O.co2      1 MOL1        -0.6776
       4    C2      21.191583   19.053514   21.528729 C.3        1 MOL1        -0.2013
       5    H1      20.684641   19.665916   20.773512 H          1 MOL1         0.0727
       6    H2      21.334070   19.676907   22.418441 H          1 MOL1         0.0727
       7    C3      20.333670   17.810496   21.874952 C.3        1 MOL1        -0.1910
       8    H3      20.327025   17.135495   21.007930 H          1 MOL1         0.0729
       9    H4      20.814324   17.255778   22.692543 H          1 MOL1         0.0729
      10    C4      18.867096   18.132605   22.256921 C.3        1 MOL1        -0.1909
      11    H5      18.352519   17.176798   22.426080 H          1 MOL1         0.0729
      12    H6      18.350918   18.603286   21.408971 H          1 MOL1         0.0729
      13    C5      18.705557   18.998665   23.530872 C.3        1 MOL1        -0.1884
      14    H7      17.807699   18.665570   24.069609 H          1 MOL1         0.0729
      15    H8      19.550235   18.833477   24.213909 H          1 MOL1         0.0729
      16    C6      18.547606   20.505384   23.228257 C.3        1 MOL1        -0.2899
      17    H9      18.419186   21.072071   24.159520 H          1 MOL1         0.0741
      18    H10     19.421839   20.911987   22.707671 H          1 MOL1         0.0741
      19    H11     17.665151   20.686882   22.600990 H          1 MOL1         0.0741
@<TRIPOS>BOND
    1     1     2    1
    2     1     3    2
    3     1     4    1
    4     4     5    1
    5     4     6    1
    6     4     7    1
    7     7     8    1
    8     7     9    1
    9     7    10    1
   10    10    11    1
   11    10    12    1
   12    10    13    1
   13    13    14    1
   14    13    15    1
   15    13    16    1
   16    16    17    1
   17    16    18    1
   18    16    19    1
@<TRIPOS>SUBSTRUCTURE
       1 MOL1            1 RESIDUE      1      MOL     
@<SCITEGIC>MOL_PROPERTY
VConf Rank
SciTegic.value.IntegerValue
605

@<SCITEGIC>MOL_PROPERTY
Conf_Id
SciTegic.value.IntegerValue
53

@<SCITEGIC>MOL_PROPERTY
Delta U+W
SciTegic.value.DoubleValue
2.279

@<SCITEGIC>MOL_PROPERTY
U+W
SciTegic.value.DoubleValue
-52.612

@<SCITEGIC>MOL_PROPERTY
Grad RMS
SciTegic.value.DoubleValue
0.000000

@<SCITEGIC>MOL_PROPERTY
U
SciTegic.value.DoubleValue
10.231

@<SCITEGIC>MOL_PROPERTY
W
SciTegic.value.DoubleValue
-62.843

@<SCITEGIC>MOL_PROPERTY
W(PB)
SciTegic.value.DoubleValue
-64.893

@<SCITEGIC>MOL_PROPERTY
W(SA)
SciTegic.value.DoubleValue
2.050

@<SCITEGIC>MOL_PROPERTY
Valence
SciTegic.value.DoubleValue
9.644

@<SCITEGIC>MOL_PROPERTY
Coulomb
SciTegic.value.DoubleValue
-0.164

@<SCITEGIC>MOL_PROPERTY
VdW
SciTegic.value.DoubleValue
0.751

@<SCITEGIC>MOL_PROPERTY
VdW6
SciTegic.value.DoubleValue
-6.881

@<SCITEGIC>MOL_PROPERTY
VdW12
SciTegic.value.DoubleValue
7.631

@<SCITEGIC>MOL_PROPERTY
Bond
SciTegic.value.DoubleValue
0.163

@<SCITEGIC>MOL_PROPERTY
Angle
SciTegic.value.DoubleValue
2.998

@<SCITEGIC>MOL_PROPERTY
Pdih
SciTegic.value.DoubleValue
6.482

@<SCITEGIC>MOL_PROPERTY
Idih
SciTegic.value.DoubleValue
0.001

@<SCITEGIC>MOL_PROPERTY
Tether
SciTegic.value.DoubleValue
0.000

@<TRIPOS>MOLECULE
guest-7_confgen4.mol2 : confsearch ligand conformer 606
          19          18           1
SMALL
USER_CHARGES
 
@<TRIPOS>ATOM
       1    C1      19.041027   17.450294   24.071358 C.2        1 MOL1         0.6115
       2    O1      18.469811   16.651699   23.355249 O.co2      1 MOL1        -0.6776
       3    O2      18.470706   18.138856   24.894682 O.co2      1 MOL1        -0.6776
       4    C2      20.563106   17.540763   23.978768 C.3        1 MOL1        -0.2013
       5    H1      20.918721   16.819413   23.233037 H          1 MOL1         0.0727
       6    H2      20.951320   17.206661   24.947937 H          1 MOL1         0.0727
       7    C3      21.126627   18.956383   23.669594 C.3        1 MOL1        -0.1910
       8    H3      20.610569   19.707409   24.283748 H          1 MOL1         0.0729
       9    H4      22.178281   18.978788   23.985726 H          1 MOL1         0.0729
      10    C4      21.074611   19.364433   22.176454 C.3        1 MOL1        -0.1909
      11    H5      21.598284   18.613442   21.569318 H          1 MOL1         0.0729
      12    H6      21.635075   20.301953   22.058365 H          1 MOL1         0.0729
      13    C5      19.645039   19.569597   21.628909 C.3        1 MOL1        -0.1884
      14    H7      19.106714   18.613369   21.613425 H          1 MOL1         0.0729
      15    H8      19.085179   20.243235   22.292359 H          1 MOL1         0.0729
      16    C6      19.664482   20.152689   20.201513 C.3        1 MOL1        -0.2899
      17    H9      20.197018   19.484422   19.512177 H          1 MOL1         0.0741
      18    H10     18.642074   20.284235   19.824123 H          1 MOL1         0.0741
      19    H11     20.160955   21.131714   20.182951 H          1 MOL1         0.0741
@<TRIPOS>BOND
    1     1     2    1
    2     1     3    2
    3     1     4    1
    4     4     5    1
    5     4     6    1
    6     4     7    1
    7     7     8    1
    8     7     9    1
    9     7    10    1
   10    10    11    1
   11    10    12    1
   12    10    13    1
   13    13    14    1
   14    13    15    1
   15    13    16    1
   16    16    17    1
   17    16    18    1
   18    16    19    1
@<TRIPOS>SUBSTRUCTURE
       1 MOL1            1 RESIDUE      1      MOL     
@<SCITEGIC>MOL_PROPERTY
VConf Rank
SciTegic.value.IntegerValue
606

@<SCITEGIC>MOL_PROPERTY
Conf_Id
SciTegic.value.IntegerValue
25

@<SCITEGIC>MOL_PROPERTY
Delta U+W
SciTegic.value.DoubleValue
2.065

@<SCITEGIC>MOL_PROPERTY
U+W
SciTegic.value.DoubleValue
-52.826

@<SCITEGIC>MOL_PROPERTY
Grad RMS
SciTegic.value.DoubleValue
0.000000

@<SCITEGIC>MOL_PROPERTY
U
SciTegic.value.DoubleValue
10.967

@<SCITEGIC>MOL_PROPERTY
W
SciTegic.value.DoubleValue
-63.794

@<SCITEGIC>MOL_PROPERTY
W(PB)
SciTegic.value.DoubleValue
-65.830

@<SCITEGIC>MOL_PROPERTY
W(SA)
SciTegic.value.DoubleValue
2.036

@<SCITEGIC>MOL_PROPERTY
Valence
SciTegic.value.DoubleValue
8.609

@<SCITEGIC>MOL_PROPERTY
Coulomb
SciTegic.value.DoubleValue
1.892

@<SCITEGIC>MOL_PROPERTY
VdW
SciTegic.value.DoubleValue
0.467

@<SCITEGIC>MOL_PROPERTY
VdW6
SciTegic.value.DoubleValue
-7.569

@<SCITEGIC>MOL_PROPERTY
VdW12
SciTegic.value.DoubleValue
8.036

@<SCITEGIC>MOL_PROPERTY
Bond
SciTegic.value.DoubleValue
0.170

@<SCITEGIC>MOL_PROPERTY
Angle
SciTegic.value.DoubleValue
3.195

@<SCITEGIC>MOL_PROPERTY
Pdih
SciTegic.value.DoubleValue
5.237

@<SCITEGIC>MOL_PROPERTY
Idih
SciTegic.value.DoubleValue
0.007

@<SCITEGIC>MOL_PROPERTY
Tether
SciTegic.value.DoubleValue
0.000

@<TRIPOS>MOLECULE
guest-7_confgen4.mol2 : confsearch ligand conformer 607
          19          18           1
SMALL
USER_CHARGES
 
@<TRIPOS>ATOM
       1    C1      21.915480   17.267437   22.838526 C.2        1 MOL1         0.6115
       2    O1      22.061441   16.626862   21.815977 O.co2      1 MOL1        -0.6776
       3    O2      21.650638   16.763476   23.912180 O.co2      1 MOL1        -0.6776
       4    C2      22.145329   18.776785   22.788289 C.3        1 MOL1        -0.2013
       5    H1      23.195958   18.919542   22.510040 H          1 MOL1         0.0727
       6    H2      22.029594   19.189135   23.797990 H          1 MOL1         0.0727
       7    C3      21.246848   19.552285   21.784068 C.3        1 MOL1        -0.1910
       8    H3      21.732092   20.513661   21.567941 H          1 MOL1         0.0729
       9    H4      21.203529   19.013945   20.827064 H          1 MOL1         0.0729
      10    C4      19.814144   19.850975   22.290843 C.3        1 MOL1        -0.1909
      11    H5      19.332026   20.529124   21.573425 H          1 MOL1         0.0729
      12    H6      19.864834   20.395339   23.243699 H          1 MOL1         0.0729
      13    C5      18.930062   18.595399   22.456692 C.3        1 MOL1        -0.1884
      14    H7      18.958754   17.995460   21.536559 H          1 MOL1         0.0729
      15    H8      19.320753   17.963577   23.264509 H          1 MOL1         0.0729
      16    C6      17.469900   18.970696   22.780597 C.3        1 MOL1        -0.2899
      17    H9      16.857383   18.068084   22.903725 H          1 MOL1         0.0741
      18    H10     17.411152   19.549921   23.711406 H          1 MOL1         0.0741
      19    H11     17.029629   19.571349   21.973941 H          1 MOL1         0.0741
@<TRIPOS>BOND
    1     1     2    1
    2     1     3    2
    3     1     4    1
    4     4     5    1
    5     4     6    1
    6     4     7    1
    7     7     8    1
    8     7     9    1
    9     7    10    1
   10    10    11    1
   11    10    12    1
   12    10    13    1
   13    13    14    1
   14    13    15    1
   15    13    16    1
   16    16    17    1
   17    16    18    1
   18    16    19    1
@<TRIPOS>SUBSTRUCTURE
       1 MOL1            1 RESIDUE      1      MOL     
@<SCITEGIC>MOL_PROPERTY
VConf Rank
SciTegic.value.IntegerValue
607

@<SCITEGIC>MOL_PROPERTY
Conf_Id
SciTegic.value.IntegerValue
52

@<SCITEGIC>MOL_PROPERTY
Delta U+W
SciTegic.value.DoubleValue
2.070

@<SCITEGIC>MOL_PROPERTY
U+W
SciTegic.value.DoubleValue
-52.822

@<SCITEGIC>MOL_PROPERTY
Grad RMS
SciTegic.value.DoubleValue
0.000000

@<SCITEGIC>MOL_PROPERTY
U
SciTegic.value.DoubleValue
10.967

@<SCITEGIC>MOL_PROPERTY
W
SciTegic.value.DoubleValue
-63.789

@<SCITEGIC>MOL_PROPERTY
W(PB)
SciTegic.value.DoubleValue
-65.837

@<SCITEGIC>MOL_PROPERTY
W(SA)
SciTegic.value.DoubleValue
2.048

@<SCITEGIC>MOL_PROPERTY
Valence
SciTegic.value.DoubleValue
8.609

@<SCITEGIC>MOL_PROPERTY
Coulomb
SciTegic.value.DoubleValue
1.892

@<SCITEGIC>MOL_PROPERTY
VdW
SciTegic.value.DoubleValue
0.467

@<SCITEGIC>MOL_PROPERTY
VdW6
SciTegic.value.DoubleValue
-7.569

@<SCITEGIC>MOL_PROPERTY
VdW12
SciTegic.value.DoubleValue
8.035

@<SCITEGIC>MOL_PROPERTY
Bond
SciTegic.value.DoubleValue
0.170

@<SCITEGIC>MOL_PROPERTY
Angle
SciTegic.value.DoubleValue
3.196

@<SCITEGIC>MOL_PROPERTY
Pdih
SciTegic.value.DoubleValue
5.237

@<SCITEGIC>MOL_PROPERTY
Idih
SciTegic.value.DoubleValue
0.007

@<SCITEGIC>MOL_PROPERTY
Tether
SciTegic.value.DoubleValue
0.000

@<TRIPOS>MOLECULE
guest-7_confgen4.mol2 : confsearch ligand conformer 608
          19          18           1
SMALL
USER_CHARGES
 
@<TRIPOS>ATOM
       1    C1      21.227464   17.407593   23.322921 C.2        1 MOL1         0.6115
       2    O1      20.940039   16.344364   22.808094 O.co2      1 MOL1        -0.6776
       3    O2      22.348305   17.876483   23.299351 O.co2      1 MOL1        -0.6776
       4    C2      20.165068   18.134418   24.149009 C.3        1 MOL1        -0.2013
       5    H1      20.535957   19.133082   24.409106 H          1 MOL1         0.0727
       6    H2      20.080332   17.578236   25.089624 H          1 MOL1         0.0727
       7    C3      18.756144   18.237335   23.498077 C.3        1 MOL1        -0.1910
       8    H3      18.501384   17.290405   23.002394 H          1 MOL1         0.0729
       9    H4      18.020235   18.357922   24.304460 H          1 MOL1         0.0729
      10    C4      18.563842   19.417864   22.511898 C.3        1 MOL1        -0.1909
      11    H5      18.720435   20.371962   23.033638 H          1 MOL1         0.0729
      12    H6      17.509792   19.419913   22.202158 H          1 MOL1         0.0729
      13    C5      19.437330   19.353154   21.235645 C.3        1 MOL1        -0.1884
      14    H7      19.752417   18.319278   21.037717 H          1 MOL1         0.0729
      15    H8      18.827747   19.655541   20.373022 H          1 MOL1         0.0729
      16    C6      20.666268   20.284834   21.304969 C.3        1 MOL1        -0.2899
      17    H9      20.357266   21.333592   21.402751 H          1 MOL1         0.0741
      18    H10     21.308407   20.040086   22.159068 H          1 MOL1         0.0741
      19    H11     21.270300   20.194165   20.393079 H          1 MOL1         0.0741
@<TRIPOS>BOND
    1     1     2    1
    2     1     3    2
    3     1     4    1
    4     4     5    1
    5     4     6    1
    6     4     7    1
    7     7     8    1
    8     7     9    1
    9     7    10    1
   10    10    11    1
   11    10    12    1
   12    10    13    1
   13    13    14    1
   14    13    15    1
   15    13    16    1
   16    16    17    1
   17    16    18    1
   18    16    19    1
@<TRIPOS>SUBSTRUCTURE
       1 MOL1            1 RESIDUE      1      MOL     
@<SCITEGIC>MOL_PROPERTY
VConf Rank
SciTegic.value.IntegerValue
608

@<SCITEGIC>MOL_PROPERTY
Conf_Id
SciTegic.value.IntegerValue
66

@<SCITEGIC>MOL_PROPERTY
Delta U+W
SciTegic.value.DoubleValue
5.819

@<SCITEGIC>MOL_PROPERTY
U+W
SciTegic.value.DoubleValue
-49.072

@<SCITEGIC>MOL_PROPERTY
Grad RMS
SciTegic.value.DoubleValue
0.000000

@<SCITEGIC>MOL_PROPERTY
U
SciTegic.value.DoubleValue
15.324

@<SCITEGIC>MOL_PROPERTY
W
SciTegic.value.DoubleValue
-64.396

@<SCITEGIC>MOL_PROPERTY
W(PB)
SciTegic.value.DoubleValue
-66.382

@<SCITEGIC>MOL_PROPERTY
W(SA)
SciTegic.value.DoubleValue
1.986

@<SCITEGIC>MOL_PROPERTY
Valence
SciTegic.value.DoubleValue
11.748

@<SCITEGIC>MOL_PROPERTY
Coulomb
SciTegic.value.DoubleValue
3.201

@<SCITEGIC>MOL_PROPERTY
VdW
SciTegic.value.DoubleValue
0.375

@<SCITEGIC>MOL_PROPERTY
VdW6
SciTegic.value.DoubleValue
-8.854

@<SCITEGIC>MOL_PROPERTY
VdW12
SciTegic.value.DoubleValue
9.229

@<SCITEGIC>MOL_PROPERTY
Bond
SciTegic.value.DoubleValue
0.216

@<SCITEGIC>MOL_PROPERTY
Angle
SciTegic.value.DoubleValue
3.812

@<SCITEGIC>MOL_PROPERTY
Pdih
SciTegic.value.DoubleValue
7.699

@<SCITEGIC>MOL_PROPERTY
Idih
SciTegic.value.DoubleValue
0.022

@<SCITEGIC>MOL_PROPERTY
Tether
SciTegic.value.DoubleValue
0.000

@<TRIPOS>MOLECULE
guest-7_confgen4.mol2 : confsearch ligand conformer 609
          19          18           1
SMALL
USER_CHARGES
 
@<TRIPOS>ATOM
       1    C1      22.734986   19.520025   20.203551 C.2        1 MOL1         0.6115
       2    O1      23.946828   19.439599   20.228670 O.co2      1 MOL1        -0.6776
       3    O2      22.117738   19.940810   19.244336 O.co2      1 MOL1        -0.6776
       4    C2      21.978904   19.063127   21.452254 C.3        1 MOL1        -0.2013
       5    H1      22.353913   19.653981   22.296238 H          1 MOL1         0.0727
       6    H2      22.259253   18.020155   21.641104 H          1 MOL1         0.0727
       7    C3      20.433752   19.184336   21.373211 C.3        1 MOL1        -0.1910
       8    H3      20.159781   20.230444   21.178104 H          1 MOL1         0.0729
       9    H4      20.065032   18.594948   20.522250 H          1 MOL1         0.0729
      10    C4      19.752840   18.702683   22.672684 C.3        1 MOL1        -0.1909
      11    H5      20.123029   19.293105   23.522103 H          1 MOL1         0.0729
      12    H6      20.028178   17.656732   22.865882 H          1 MOL1         0.0729
      13    C5      18.216885   18.824056   22.592033 C.3        1 MOL1        -0.1884
      14    H7      17.937287   19.869384   22.400703 H          1 MOL1         0.0729
      15    H8      17.842436   18.233116   21.744643 H          1 MOL1         0.0729
      16    C6      17.540428   18.342435   23.891047 C.3        1 MOL1        -0.2899
      17    H9      17.873385   18.937785   24.751349 H          1 MOL1         0.0741
      18    H10     16.449166   18.435616   23.816389 H          1 MOL1         0.0741
      19    H11     17.777836   17.289187   24.090364 H          1 MOL1         0.0741
@<TRIPOS>BOND
    1     1     2    1
    2     1     3    2
    3     1     4    1
    4     4     5    1
    5     4     6    1
    6     4     7    1
    7     7     8    1
    8     7     9    1
    9     7    10    1
   10    10    11    1
   11    10    12    1
   12    10    13    1
   13    13    14    1
   14    13    15    1
   15    13    16    1
   16    16    17    1
   17    16    18    1
   18    16    19    1
@<TRIPOS>SUBSTRUCTURE
       1 MOL1            1 RESIDUE      1      MOL     
@<SCITEGIC>MOL_PROPERTY
VConf Rank
SciTegic.value.IntegerValue
609

@<SCITEGIC>MOL_PROPERTY
Conf_Id
SciTegic.value.IntegerValue
0

@<SCITEGIC>MOL_PROPERTY
Delta U+W
SciTegic.value.DoubleValue
0.000

@<SCITEGIC>MOL_PROPERTY
U+W
SciTegic.value.DoubleValue
-54.891

@<SCITEGIC>MOL_PROPERTY
Grad RMS
SciTegic.value.DoubleValue
0.000000

@<SCITEGIC>MOL_PROPERTY
U
SciTegic.value.DoubleValue
6.966

@<SCITEGIC>MOL_PROPERTY
W
SciTegic.value.DoubleValue
-61.857

@<SCITEGIC>MOL_PROPERTY
W(PB)
SciTegic.value.DoubleValue
-63.965

@<SCITEGIC>MOL_PROPERTY
W(SA)
SciTegic.value.DoubleValue
2.108

@<SCITEGIC>MOL_PROPERTY
Valence
SciTegic.value.DoubleValue
7.175

@<SCITEGIC>MOL_PROPERTY
Coulomb
SciTegic.value.DoubleValue
-1.360

@<SCITEGIC>MOL_PROPERTY
VdW
SciTegic.value.DoubleValue
1.151

@<SCITEGIC>MOL_PROPERTY
VdW6
SciTegic.value.DoubleValue
-5.641

@<SCITEGIC>MOL_PROPERTY
VdW12
SciTegic.value.DoubleValue
6.792

@<SCITEGIC>MOL_PROPERTY
Bond
SciTegic.value.DoubleValue
0.119

@<SCITEGIC>MOL_PROPERTY
Angle
SciTegic.value.DoubleValue
2.715

@<SCITEGIC>MOL_PROPERTY
Pdih
SciTegic.value.DoubleValue
4.340

@<SCITEGIC>MOL_PROPERTY
Idih
SciTegic.value.DoubleValue
0.000

@<SCITEGIC>MOL_PROPERTY
Tether
SciTegic.value.DoubleValue
0.000

@<TRIPOS>MOLECULE
guest-7_confgen4.mol2 : confsearch ligand conformer 610
          19          18           1
SMALL
USER_CHARGES
 
@<TRIPOS>ATOM
       1    C1      22.909679   20.395850   21.473561 C.2        1 MOL1         0.6115
       2    O1      23.181308   20.492617   20.293292 O.co2      1 MOL1        -0.6776
       3    O2      23.298451   21.176593   22.319422 O.co2      1 MOL1        -0.6776
       4    C2      22.014865   19.242916   21.914493 C.3        1 MOL1        -0.2013
       5    H1      22.311147   18.950183   22.929020 H          1 MOL1         0.0727
       6    H2      22.214244   18.386655   21.258896 H          1 MOL1         0.0727
       7    C3      20.508970   19.602420   21.880569 C.3        1 MOL1        -0.1910
       8    H3      20.328057   20.468910   22.531734 H          1 MOL1         0.0729
       9    H4      20.231179   19.905516   20.861494 H          1 MOL1         0.0729
      10    C4      19.625360   18.419192   22.330936 C.3        1 MOL1        -0.1909
      11    H5      19.906400   18.117675   23.349414 H          1 MOL1         0.0729
      12    H6      19.809428   17.554246   21.678878 H          1 MOL1         0.0729
      13    C5      18.125748   18.780207   22.296224 C.3        1 MOL1        -0.1884
      14    H7      17.937245   19.643947   22.948844 H          1 MOL1         0.0729
      15    H8      17.840258   19.080488   21.278471 H          1 MOL1         0.0729
      16    C6      17.246468   17.596558   22.746557 C.3        1 MOL1        -0.2899
      17    H9      16.183852   17.870445   22.715894 H          1 MOL1         0.0741
      18    H10     17.391625   16.727759   22.091163 H          1 MOL1         0.0741
      19    H11     17.489376   17.295423   23.774047 H          1 MOL1         0.0741
@<TRIPOS>BOND
    1     1     2    1
    2     1     3    2
    3     1     4    1
    4     4     5    1
    5     4     6    1
    6     4     7    1
    7     7     8    1
    8     7     9    1
    9     7    10    1
   10    10    11    1
   11    10    12    1
   12    10    13    1
   13    13    14    1
   14    13    15    1
   15    13    16    1
   16    16    17    1
   17    16    18    1
   18    16    19    1
@<TRIPOS>SUBSTRUCTURE
       1 MOL1            1 RESIDUE      1      MOL     
@<SCITEGIC>MOL_PROPERTY
VConf Rank
SciTegic.value.IntegerValue
610

@<SCITEGIC>MOL_PROPERTY
Conf_Id
SciTegic.value.IntegerValue
18

@<SCITEGIC>MOL_PROPERTY
Delta U+W
SciTegic.value.DoubleValue
-1.199

@<SCITEGIC>MOL_PROPERTY
U+W
SciTegic.value.DoubleValue
-56.090

@<SCITEGIC>MOL_PROPERTY
Grad RMS
SciTegic.value.DoubleValue
0.000000

@<SCITEGIC>MOL_PROPERTY
U
SciTegic.value.DoubleValue
5.975

@<SCITEGIC>MOL_PROPERTY
W
SciTegic.value.DoubleValue
-62.066

@<SCITEGIC>MOL_PROPERTY
W(PB)
SciTegic.value.DoubleValue
-64.219

@<SCITEGIC>MOL_PROPERTY
W(SA)
SciTegic.value.DoubleValue
2.153

@<SCITEGIC>MOL_PROPERTY
Valence
SciTegic.value.DoubleValue
6.673

@<SCITEGIC>MOL_PROPERTY
Coulomb
SciTegic.value.DoubleValue
-1.307

@<SCITEGIC>MOL_PROPERTY
VdW
SciTegic.value.DoubleValue
0.610

@<SCITEGIC>MOL_PROPERTY
VdW6
SciTegic.value.DoubleValue
-5.351

@<SCITEGIC>MOL_PROPERTY
VdW12
SciTegic.value.DoubleValue
5.961

@<SCITEGIC>MOL_PROPERTY
Bond
SciTegic.value.DoubleValue
0.086

@<SCITEGIC>MOL_PROPERTY
Angle
SciTegic.value.DoubleValue
2.253

@<SCITEGIC>MOL_PROPERTY
Pdih
SciTegic.value.DoubleValue
4.333

@<SCITEGIC>MOL_PROPERTY
Idih
SciTegic.value.DoubleValue
0.001

@<SCITEGIC>MOL_PROPERTY
Tether
SciTegic.value.DoubleValue
0.000

@<TRIPOS>MOLECULE
guest-7_confgen4.mol2 : confsearch ligand conformer 611
          19          18           1
SMALL
USER_CHARGES
 
@<TRIPOS>ATOM
       1    C1      23.107643   18.267191   22.567796 C.2        1 MOL1         0.6115
       2    O1      23.994863   18.853995   21.980610 O.co2      1 MOL1        -0.6776
       3    O2      23.287266   17.610804   23.574351 O.co2      1 MOL1        -0.6776
       4    C2      21.687791   18.378200   22.023681 C.3        1 MOL1        -0.2013
       5    H1      21.173501   17.434873   22.239282 H          1 MOL1         0.0727
       6    H2      21.747880   18.474475   20.932980 H          1 MOL1         0.0727
       7    C3      20.906911   19.576141   22.623968 C.3        1 MOL1        -0.1910
       8    H3      20.814642   19.446292   23.711137 H          1 MOL1         0.0729
       9    H4      21.493857   20.492190   22.469786 H          1 MOL1         0.0729
      10    C4      19.505155   19.774868   22.000173 C.3        1 MOL1        -0.1909
      11    H5      19.601562   19.912875   20.914509 H          1 MOL1         0.0729
      12    H6      19.076761   20.706329   22.394979 H          1 MOL1         0.0729
      13    C5      18.531808   18.611069   22.292880 C.3        1 MOL1        -0.1884
      14    H7      18.904443   17.682768   21.840374 H          1 MOL1         0.0729
      15    H8      18.474370   18.439488   23.376637 H          1 MOL1         0.0729
      16    C6      17.120426   18.903870   21.745580 C.3        1 MOL1        -0.2899
      17    H9      16.441934   18.067561   21.958475 H          1 MOL1         0.0741
      18    H10     16.699519   19.807180   22.206291 H          1 MOL1         0.0741
      19    H11     17.144314   19.052692   20.658065 H          1 MOL1         0.0741
@<TRIPOS>BOND
    1     1     2    1
    2     1     3    2
    3     1     4    1
    4     4     5    1
    5     4     6    1
    6     4     7    1
    7     7     8    1
    8     7     9    1
    9     7    10    1
   10    10    11    1
   11    10    12    1
   12    10    13    1
   13    13    14    1
   14    13    15    1
   15    13    16    1
   16    16    17    1
   17    16    18    1
   18    16    19    1
@<TRIPOS>SUBSTRUCTURE
       1 MOL1            1 RESIDUE      1      MOL     
@<SCITEGIC>MOL_PROPERTY
VConf Rank
SciTegic.value.IntegerValue
611

@<SCITEGIC>MOL_PROPERTY
Conf_Id
SciTegic.value.IntegerValue
34

@<SCITEGIC>MOL_PROPERTY
Delta U+W
SciTegic.value.DoubleValue
-0.563

@<SCITEGIC>MOL_PROPERTY
U+W
SciTegic.value.DoubleValue
-55.455

@<SCITEGIC>MOL_PROPERTY
Grad RMS
SciTegic.value.DoubleValue
0.000000

@<SCITEGIC>MOL_PROPERTY
U
SciTegic.value.DoubleValue
6.914

@<SCITEGIC>MOL_PROPERTY
W
SciTegic.value.DoubleValue
-62.369

@<SCITEGIC>MOL_PROPERTY
W(PB)
SciTegic.value.DoubleValue
-64.446

@<SCITEGIC>MOL_PROPERTY
W(SA)
SciTegic.value.DoubleValue
2.077

@<SCITEGIC>MOL_PROPERTY
Valence
SciTegic.value.DoubleValue
7.196

@<SCITEGIC>MOL_PROPERTY
Coulomb
SciTegic.value.DoubleValue
-1.020

@<SCITEGIC>MOL_PROPERTY
VdW
SciTegic.value.DoubleValue
0.738

@<SCITEGIC>MOL_PROPERTY
VdW6
SciTegic.value.DoubleValue
-6.010

@<SCITEGIC>MOL_PROPERTY
VdW12
SciTegic.value.DoubleValue
6.748

@<SCITEGIC>MOL_PROPERTY
Bond
SciTegic.value.DoubleValue
0.126

@<SCITEGIC>MOL_PROPERTY
Angle
SciTegic.value.DoubleValue
2.499

@<SCITEGIC>MOL_PROPERTY
Pdih
SciTegic.value.DoubleValue
4.570

@<SCITEGIC>MOL_PROPERTY
Idih
SciTegic.value.DoubleValue
0.001

@<SCITEGIC>MOL_PROPERTY
Tether
SciTegic.value.DoubleValue
0.000

@<TRIPOS>MOLECULE
guest-7_confgen4.mol2 : confsearch ligand conformer 612
          19          18           1
SMALL
USER_CHARGES
 
@<TRIPOS>ATOM
       1    C1      20.486468   20.298171   19.326827 C.2        1 MOL1         0.6115
       2    O1      21.340471   19.928942   18.545394 O.co2      1 MOL1        -0.6776
       3    O2      19.956520   21.390381   19.276896 O.co2      1 MOL1        -0.6776
       4    C2      20.073145   19.347049   20.444365 C.3        1 MOL1        -0.2013
       5    H1      20.164612   18.320767   20.069010 H          1 MOL1         0.0727
       6    H2      19.012461   19.522735   20.656325 H          1 MOL1         0.0727
       7    C3      20.923956   19.524409   21.728827 C.3        1 MOL1        -0.1910
       8    H3      21.986242   19.432144   21.463389 H          1 MOL1         0.0729
       9    H4      20.789464   20.542181   22.120442 H          1 MOL1         0.0729
      10    C4      20.597688   18.491624   22.833558 C.3        1 MOL1        -0.1909
      11    H5      21.321758   18.614664   23.650624 H          1 MOL1         0.0729
      12    H6      20.741318   17.475424   22.441491 H          1 MOL1         0.0729
      13    C5      19.168554   18.632737   23.403800 C.3        1 MOL1        -0.1884
      14    H7      19.007431   19.663170   23.749510 H          1 MOL1         0.0729
      15    H8      18.426487   18.438072   22.618431 H          1 MOL1         0.0729
      16    C6      18.928114   17.657097   24.573235 C.3        1 MOL1        -0.2899
      17    H9      19.055929   16.616141   24.248458 H          1 MOL1         0.0741
      18    H10     19.629761   17.848476   25.395703 H          1 MOL1         0.0741
      19    H11     17.908667   17.767158   24.965286 H          1 MOL1         0.0741
@<TRIPOS>BOND
    1     1     2    1
    2     1     3    2
    3     1     4    1
    4     4     5    1
    5     4     6    1
    6     4     7    1
    7     7     8    1
    8     7     9    1
    9     7    10    1
   10    10    11    1
   11    10    12    1
   12    10    13    1
   13    13    14    1
   14    13    15    1
   15    13    16    1
   16    16    17    1
   17    16    18    1
   18    16    19    1
@<TRIPOS>SUBSTRUCTURE
       1 MOL1            1 RESIDUE      1      MOL     
@<SCITEGIC>MOL_PROPERTY
VConf Rank
SciTegic.value.IntegerValue
612

@<SCITEGIC>MOL_PROPERTY
Conf_Id
SciTegic.value.IntegerValue
33

@<SCITEGIC>MOL_PROPERTY
Delta U+W
SciTegic.value.DoubleValue
-0.526

@<SCITEGIC>MOL_PROPERTY
U+W
SciTegic.value.DoubleValue
-55.418

@<SCITEGIC>MOL_PROPERTY
Grad RMS
SciTegic.value.DoubleValue
0.000000

@<SCITEGIC>MOL_PROPERTY
U
SciTegic.value.DoubleValue
6.914

@<SCITEGIC>MOL_PROPERTY
W
SciTegic.value.DoubleValue
-62.332

@<SCITEGIC>MOL_PROPERTY
W(PB)
SciTegic.value.DoubleValue
-64.421

@<SCITEGIC>MOL_PROPERTY
W(SA)
SciTegic.value.DoubleValue
2.090

@<SCITEGIC>MOL_PROPERTY
Valence
SciTegic.value.DoubleValue
7.196

@<SCITEGIC>MOL_PROPERTY
Coulomb
SciTegic.value.DoubleValue
-1.020

@<SCITEGIC>MOL_PROPERTY
VdW
SciTegic.value.DoubleValue
0.738

@<SCITEGIC>MOL_PROPERTY
VdW6
SciTegic.value.DoubleValue
-6.010

@<SCITEGIC>MOL_PROPERTY
VdW12
SciTegic.value.DoubleValue
6.748

@<SCITEGIC>MOL_PROPERTY
Bond
SciTegic.value.DoubleValue
0.126

@<SCITEGIC>MOL_PROPERTY
Angle
SciTegic.value.DoubleValue
2.499

@<SCITEGIC>MOL_PROPERTY
Pdih
SciTegic.value.DoubleValue
4.570

@<SCITEGIC>MOL_PROPERTY
Idih
SciTegic.value.DoubleValue
0.001

@<SCITEGIC>MOL_PROPERTY
Tether
SciTegic.value.DoubleValue
0.000

@<TRIPOS>MOLECULE
guest-7_confgen4.mol2 : confsearch ligand conformer 613
          19          18           1
SMALL
USER_CHARGES
 
@<TRIPOS>ATOM
       1    C1      22.893355   19.105468   21.191962 C.2        1 MOL1         0.6115
       2    O1      23.470263   18.066551   21.445039 O.co2      1 MOL1        -0.6776
       3    O2      23.099535   19.762596   20.191004 O.co2      1 MOL1        -0.6776
       4    C2      21.840252   19.602903   22.175848 C.3        1 MOL1        -0.2013
       5    H1      21.845048   20.699349   22.154342 H          1 MOL1         0.0727
       6    H2      22.144130   19.297053   23.184233 H          1 MOL1         0.0727
       7    C3      20.421441   19.067898   21.860906 C.3        1 MOL1        -0.1910
       8    H3      20.135516   19.374112   20.845171 H          1 MOL1         0.0729
       9    H4      20.445547   17.970191   21.869708 H          1 MOL1         0.0729
      10    C4      19.375453   19.584927   22.875426 C.3        1 MOL1        -0.1909
      11    H5      19.416951   20.682409   22.903792 H          1 MOL1         0.0729
      12    H6      19.634941   19.237292   23.884794 H          1 MOL1         0.0729
      13    C5      17.928661   19.157027   22.537370 C.3        1 MOL1        -0.1884
      14    H7      17.241132   19.659091   23.231977 H          1 MOL1         0.0729
      15    H8      17.663423   19.507840   21.530441 H          1 MOL1         0.0729
      16    C6      17.704661   17.632322   22.631961 C.3        1 MOL1        -0.2899
      17    H9      17.991125   17.253749   23.621799 H          1 MOL1         0.0741
      18    H10     16.646455   17.389276   22.470493 H          1 MOL1         0.0741
      19    H11     18.288100   17.093763   21.874798 H          1 MOL1         0.0741
@<TRIPOS>BOND
    1     1     2    1
    2     1     3    2
    3     1     4    1
    4     4     5    1
    5     4     6    1
    6     4     7    1
    7     7     8    1
    8     7     9    1
    9     7    10    1
   10    10    11    1
   11    10    12    1
   12    10    13    1
   13    13    14    1
   14    13    15    1
   15    13    16    1
   16    16    17    1
   17    16    18    1
   18    16    19    1
@<TRIPOS>SUBSTRUCTURE
       1 MOL1            1 RESIDUE      1      MOL     
@<SCITEGIC>MOL_PROPERTY
VConf Rank
SciTegic.value.IntegerValue
613

@<SCITEGIC>MOL_PROPERTY
Conf_Id
SciTegic.value.IntegerValue
42

@<SCITEGIC>MOL_PROPERTY
Delta U+W
SciTegic.value.DoubleValue
-0.344

@<SCITEGIC>MOL_PROPERTY
U+W
SciTegic.value.DoubleValue
-55.236

@<SCITEGIC>MOL_PROPERTY
Grad RMS
SciTegic.value.DoubleValue
0.000000

@<SCITEGIC>MOL_PROPERTY
U
SciTegic.value.DoubleValue
7.244

@<SCITEGIC>MOL_PROPERTY
W
SciTegic.value.DoubleValue
-62.479

@<SCITEGIC>MOL_PROPERTY
W(PB)
SciTegic.value.DoubleValue
-64.610

@<SCITEGIC>MOL_PROPERTY
W(SA)
SciTegic.value.DoubleValue
2.130

@<SCITEGIC>MOL_PROPERTY
Valence
SciTegic.value.DoubleValue
7.174

@<SCITEGIC>MOL_PROPERTY
Coulomb
SciTegic.value.DoubleValue
-0.669

@<SCITEGIC>MOL_PROPERTY
VdW
SciTegic.value.DoubleValue
0.739

@<SCITEGIC>MOL_PROPERTY
VdW6
SciTegic.value.DoubleValue
-5.969

@<SCITEGIC>MOL_PROPERTY
VdW12
SciTegic.value.DoubleValue
6.708

@<SCITEGIC>MOL_PROPERTY
Bond
SciTegic.value.DoubleValue
0.116

@<SCITEGIC>MOL_PROPERTY
Angle
SciTegic.value.DoubleValue
2.481

@<SCITEGIC>MOL_PROPERTY
Pdih
SciTegic.value.DoubleValue
4.576

@<SCITEGIC>MOL_PROPERTY
Idih
SciTegic.value.DoubleValue
0.000

@<SCITEGIC>MOL_PROPERTY
Tether
SciTegic.value.DoubleValue
0.000

@<TRIPOS>MOLECULE
guest-7_confgen4.mol2 : confsearch ligand conformer 614
          19          18           1
SMALL
USER_CHARGES
 
@<TRIPOS>ATOM
       1    C1      17.252857   18.452266   20.847848 C.2        1 MOL1         0.6115
       2    O1      16.817071   19.502725   20.420243 O.co2      1 MOL1        -0.6776
       3    O2      16.553334   17.570577   21.305601 O.co2      1 MOL1        -0.6776
       4    C2      18.761899   18.235938   20.825566 C.3        1 MOL1        -0.2013
       5    H1      19.169090   18.762487   19.953976 H          1 MOL1         0.0727
       6    H2      18.950364   17.166094   20.675260 H          1 MOL1         0.0727
       7    C3      19.459613   18.725528   22.118602 C.3        1 MOL1        -0.1910
       8    H3      19.241634   19.792645   22.257767 H          1 MOL1         0.0729
       9    H4      19.034797   18.196235   22.982673 H          1 MOL1         0.0729
      10    C4      20.987990   18.497362   22.067013 C.3        1 MOL1        -0.1909
      11    H5      21.419559   19.066283   21.232098 H          1 MOL1         0.0729
      12    H6      21.184295   17.437233   21.855865 H          1 MOL1         0.0729
      13    C5      21.710163   18.878229   23.380023 C.3        1 MOL1        -0.1884
      14    H7      21.284949   18.306960   24.216786 H          1 MOL1         0.0729
      15    H8      22.764088   18.577369   23.302750 H          1 MOL1         0.0729
      16    C6      21.646509   20.388091   23.696437 C.3        1 MOL1        -0.2899
      17    H9      20.617633   20.712813   23.895723 H          1 MOL1         0.0741
      18    H10     22.245864   20.619126   24.586571 H          1 MOL1         0.0741
      19    H11     22.039807   20.981594   22.860837 H          1 MOL1         0.0741
@<TRIPOS>BOND
    1     1     2    1
    2     1     3    2
    3     1     4    1
    4     4     5    1
    5     4     6    1
    6     4     7    1
    7     7     8    1
    8     7     9    1
    9     7    10    1
   10    10    11    1
   11    10    12    1
   12    10    13    1
   13    13    14    1
   14    13    15    1
   15    13    16    1
   16    16    17    1
   17    16    18    1
   18    16    19    1
@<TRIPOS>SUBSTRUCTURE
       1 MOL1            1 RESIDUE      1      MOL     
@<SCITEGIC>MOL_PROPERTY
VConf Rank
SciTegic.value.IntegerValue
614

@<SCITEGIC>MOL_PROPERTY
Conf_Id
SciTegic.value.IntegerValue
41

@<SCITEGIC>MOL_PROPERTY
Delta U+W
SciTegic.value.DoubleValue
-0.361

@<SCITEGIC>MOL_PROPERTY
U+W
SciTegic.value.DoubleValue
-55.252

@<SCITEGIC>MOL_PROPERTY
Grad RMS
SciTegic.value.DoubleValue
0.000000

@<SCITEGIC>MOL_PROPERTY
U
SciTegic.value.DoubleValue
7.244

@<SCITEGIC>MOL_PROPERTY
W
SciTegic.value.DoubleValue
-62.496

@<SCITEGIC>MOL_PROPERTY
W(PB)
SciTegic.value.DoubleValue
-64.596

@<SCITEGIC>MOL_PROPERTY
W(SA)
SciTegic.value.DoubleValue
2.099

@<SCITEGIC>MOL_PROPERTY
Valence
SciTegic.value.DoubleValue
7.174

@<SCITEGIC>MOL_PROPERTY
Coulomb
SciTegic.value.DoubleValue
-0.669

@<SCITEGIC>MOL_PROPERTY
VdW
SciTegic.value.DoubleValue
0.739

@<SCITEGIC>MOL_PROPERTY
VdW6
SciTegic.value.DoubleValue
-5.969

@<SCITEGIC>MOL_PROPERTY
VdW12
SciTegic.value.DoubleValue
6.708

@<SCITEGIC>MOL_PROPERTY
Bond
SciTegic.value.DoubleValue
0.116

@<SCITEGIC>MOL_PROPERTY
Angle
SciTegic.value.DoubleValue
2.481

@<SCITEGIC>MOL_PROPERTY
Pdih
SciTegic.value.DoubleValue
4.576

@<SCITEGIC>MOL_PROPERTY
Idih
SciTegic.value.DoubleValue
0.000

@<SCITEGIC>MOL_PROPERTY
Tether
SciTegic.value.DoubleValue
0.000

@<TRIPOS>MOLECULE
guest-7_confgen4.mol2 : confsearch ligand conformer 615
          19          18           1
SMALL
USER_CHARGES
 
@<TRIPOS>ATOM
       1    C1      22.086902   19.102786   20.586213 C.2        1 MOL1         0.6115
       2    O1      21.918174   20.205117   20.103568 O.co2      1 MOL1        -0.6776
       3    O2      23.136111   18.738816   21.079535 O.co2      1 MOL1        -0.6776
       4    C2      20.926214   18.112335   20.552245 C.3        1 MOL1        -0.2013
       5    H1      21.324318   17.152509   20.202447 H          1 MOL1         0.0727
       6    H2      20.201083   18.447873   19.800856 H          1 MOL1         0.0727
       7    C3      20.225212   17.913833   21.921290 C.3        1 MOL1        -0.1910
       8    H3      19.502913   17.090737   21.835674 H          1 MOL1         0.0729
       9    H4      20.968734   17.605756   22.669552 H          1 MOL1         0.0729
      10    C4      19.492921   19.185875   22.403959 C.3        1 MOL1        -0.1909
      11    H5      18.760121   19.497221   21.646926 H          1 MOL1         0.0729
      12    H6      20.212133   20.010020   22.508560 H          1 MOL1         0.0729
      13    C5      18.776981   18.956298   23.751300 C.3        1 MOL1        -0.1884
      14    H7      18.053133   18.135606   23.651614 H          1 MOL1         0.0729
      15    H8      19.508148   18.647066   24.511066 H          1 MOL1         0.0729
      16    C6      18.047250   20.227200   24.230128 C.3        1 MOL1        -0.2899
      17    H9      17.287375   20.541373   23.502603 H          1 MOL1         0.0741
      18    H10     17.544347   20.046517   25.189049 H          1 MOL1         0.0741
      19    H11     18.753149   21.056671   24.368428 H          1 MOL1         0.0741
@<TRIPOS>BOND
    1     1     2    1
    2     1     3    2
    3     1     4    1
    4     4     5    1
    5     4     6    1
    6     4     7    1
    7     7     8    1
    8     7     9    1
    9     7    10    1
   10    10    11    1
   11    10    12    1
   12    10    13    1
   13    13    14    1
   14    13    15    1
   15    13    16    1
   16    16    17    1
   17    16    18    1
   18    16    19    1
@<TRIPOS>SUBSTRUCTURE
       1 MOL1            1 RESIDUE      1      MOL     
@<SCITEGIC>MOL_PROPERTY
VConf Rank
SciTegic.value.IntegerValue
615

@<SCITEGIC>MOL_PROPERTY
Conf_Id
SciTegic.value.IntegerValue
36

@<SCITEGIC>MOL_PROPERTY
Delta U+W
SciTegic.value.DoubleValue
-0.079

@<SCITEGIC>MOL_PROPERTY
U+W
SciTegic.value.DoubleValue
-54.971

@<SCITEGIC>MOL_PROPERTY
Grad RMS
SciTegic.value.DoubleValue
0.000000

@<SCITEGIC>MOL_PROPERTY
U
SciTegic.value.DoubleValue
8.266

@<SCITEGIC>MOL_PROPERTY
W
SciTegic.value.DoubleValue
-63.237

@<SCITEGIC>MOL_PROPERTY
W(PB)
SciTegic.value.DoubleValue
-65.340

@<SCITEGIC>MOL_PROPERTY
W(SA)
SciTegic.value.DoubleValue
2.103

@<SCITEGIC>MOL_PROPERTY
Valence
SciTegic.value.DoubleValue
6.935

@<SCITEGIC>MOL_PROPERTY
Coulomb
SciTegic.value.DoubleValue
0.874

@<SCITEGIC>MOL_PROPERTY
VdW
SciTegic.value.DoubleValue
0.457

@<SCITEGIC>MOL_PROPERTY
VdW6
SciTegic.value.DoubleValue
-6.205

@<SCITEGIC>MOL_PROPERTY
VdW12
SciTegic.value.DoubleValue
6.662

@<SCITEGIC>MOL_PROPERTY
Bond
SciTegic.value.DoubleValue
0.107

@<SCITEGIC>MOL_PROPERTY
Angle
SciTegic.value.DoubleValue
2.420

@<SCITEGIC>MOL_PROPERTY
Pdih
SciTegic.value.DoubleValue
4.407

@<SCITEGIC>MOL_PROPERTY
Idih
SciTegic.value.DoubleValue
0.001

@<SCITEGIC>MOL_PROPERTY
Tether
SciTegic.value.DoubleValue
0.000

@<TRIPOS>MOLECULE
guest-7_confgen4.mol2 : confsearch ligand conformer 616
          19          18           1
SMALL
USER_CHARGES
 
@<TRIPOS>ATOM
       1    C1      19.926491   18.944294   19.486625 C.2        1 MOL1         0.6115
       2    O1      20.012546   17.750926   19.274443 O.co2      1 MOL1        -0.6776
       3    O2      20.607020   19.777826   18.922013 O.co2      1 MOL1        -0.6776
       4    C2      18.893366   19.426439   20.501285 C.3        1 MOL1        -0.2013
       5    H1      18.156176   18.629303   20.656570 H          1 MOL1         0.0727
       6    H2      18.358195   20.269680   20.048908 H          1 MOL1         0.0727
       7    C3      19.499556   19.866703   21.859149 C.3        1 MOL1        -0.1910
       8    H3      20.255961   20.644588   21.684859 H          1 MOL1         0.0729
       9    H4      18.709900   20.324671   22.470086 H          1 MOL1         0.0729
      10    C4      20.128619   18.690183   22.638502 C.3        1 MOL1        -0.1909
      11    H5      20.931545   18.237128   22.040611 H          1 MOL1         0.0729
      12    H6      19.372156   17.909733   22.798782 H          1 MOL1         0.0729
      13    C5      20.696897   19.145037   23.998933 C.3        1 MOL1        -0.1884
      14    H7      21.455630   19.924121   23.841371 H          1 MOL1         0.0729
      15    H8      19.897148   19.595302   24.603163 H          1 MOL1         0.0729
      16    C6      21.323788   17.968952   24.774053 C.3        1 MOL1        -0.2899
      17    H9      22.148312   17.519097   24.205517 H          1 MOL1         0.0741
      18    H10     21.723095   18.309949   25.738087 H          1 MOL1         0.0741
      19    H11     20.578286   17.187886   24.972971 H          1 MOL1         0.0741
@<TRIPOS>BOND
    1     1     2    1
    2     1     3    2
    3     1     4    1
    4     4     5    1
    5     4     6    1
    6     4     7    1
    7     7     8    1
    8     7     9    1
    9     7    10    1
   10    10    11    1
   11    10    12    1
   12    10    13    1
   13    13    14    1
   14    13    15    1
   15    13    16    1
   16    16    17    1
   17    16    18    1
   18    16    19    1
@<TRIPOS>SUBSTRUCTURE
       1 MOL1            1 RESIDUE      1      MOL     
@<SCITEGIC>MOL_PROPERTY
VConf Rank
SciTegic.value.IntegerValue
616

@<SCITEGIC>MOL_PROPERTY
Conf_Id
SciTegic.value.IntegerValue
35

@<SCITEGIC>MOL_PROPERTY
Delta U+W
SciTegic.value.DoubleValue
-0.030

@<SCITEGIC>MOL_PROPERTY
U+W
SciTegic.value.DoubleValue
-54.921

@<SCITEGIC>MOL_PROPERTY
Grad RMS
SciTegic.value.DoubleValue
0.000000

@<SCITEGIC>MOL_PROPERTY
U
SciTegic.value.DoubleValue
8.267

@<SCITEGIC>MOL_PROPERTY
W
SciTegic.value.DoubleValue
-63.188

@<SCITEGIC>MOL_PROPERTY
W(PB)
SciTegic.value.DoubleValue
-65.294

@<SCITEGIC>MOL_PROPERTY
W(SA)
SciTegic.value.DoubleValue
2.106

@<SCITEGIC>MOL_PROPERTY
Valence
SciTegic.value.DoubleValue
6.935

@<SCITEGIC>MOL_PROPERTY
Coulomb
SciTegic.value.DoubleValue
0.875

@<SCITEGIC>MOL_PROPERTY
VdW
SciTegic.value.DoubleValue
0.457

@<SCITEGIC>MOL_PROPERTY
VdW6
SciTegic.value.DoubleValue
-6.205

@<SCITEGIC>MOL_PROPERTY
VdW12
SciTegic.value.DoubleValue
6.662

@<SCITEGIC>MOL_PROPERTY
Bond
SciTegic.value.DoubleValue
0.107

@<SCITEGIC>MOL_PROPERTY
Angle
SciTegic.value.DoubleValue
2.420

@<SCITEGIC>MOL_PROPERTY
Pdih
SciTegic.value.DoubleValue
4.407

@<SCITEGIC>MOL_PROPERTY
Idih
SciTegic.value.DoubleValue
0.001

@<SCITEGIC>MOL_PROPERTY
Tether
SciTegic.value.DoubleValue
0.000

@<TRIPOS>MOLECULE
guest-7_confgen4.mol2 : confsearch ligand conformer 617
          19          18           1
SMALL
USER_CHARGES
 
@<TRIPOS>ATOM
       1    C1      17.704479   17.187601   22.101326 C.2        1 MOL1         0.6115
       2    O1      17.520868   16.494826   23.082681 O.co2      1 MOL1        -0.6776
       3    O2      17.662695   16.764293   20.963034 O.co2      1 MOL1        -0.6776
       4    C2      17.980870   18.673878   22.311254 C.3        1 MOL1        -0.2013
       5    H1      17.251255   19.042285   23.042030 H          1 MOL1         0.0727
       6    H2      17.783606   19.203579   21.371328 H          1 MOL1         0.0727
       7    C3      19.415653   18.986696   22.810518 C.3        1 MOL1        -0.1910
       8    H3      19.467494   20.050080   23.076744 H          1 MOL1         0.0729
       9    H4      19.612710   18.418984   23.730410 H          1 MOL1         0.0729
      10    C4      20.496780   18.662221   21.751951 C.3        1 MOL1        -0.1909
      11    H5      20.320128   19.259471   20.847017 H          1 MOL1         0.0729
      12    H6      20.403204   17.609663   21.451303 H          1 MOL1         0.0729
      13    C5      21.939581   18.898851   22.255103 C.3        1 MOL1        -0.1884
      14    H7      22.119951   18.301002   23.159179 H          1 MOL1         0.0729
      15    H8      22.642234   18.530999   21.494719 H          1 MOL1         0.0729
      16    C6      22.251967   20.383369   22.542573 C.3        1 MOL1        -0.2899
      17    H9      21.653579   20.764418   23.379446 H          1 MOL1         0.0741
      18    H10     23.309914   20.508310   22.807287 H          1 MOL1         0.0741
      19    H11     22.048459   21.005527   21.661295 H          1 MOL1         0.0741
@<TRIPOS>BOND
    1     1     2    1
    2     1     3    2
    3     1     4    1
    4     4     5    1
    5     4     6    1
    6     4     7    1
    7     7     8    1
    8     7     9    1
    9     7    10    1
   10    10    11    1
   11    10    12    1
   12    10    13    1
   13    13    14    1
   14    13    15    1
   15    13    16    1
   16    16    17    1
   17    16    18    1
   18    16    19    1
@<TRIPOS>SUBSTRUCTURE
       1 MOL1            1 RESIDUE      1      MOL     
@<SCITEGIC>MOL_PROPERTY
VConf Rank
SciTegic.value.IntegerValue
617

@<SCITEGIC>MOL_PROPERTY
Conf_Id
SciTegic.value.IntegerValue
74

@<SCITEGIC>MOL_PROPERTY
Delta U+W
SciTegic.value.DoubleValue
0.797

@<SCITEGIC>MOL_PROPERTY
U+W
SciTegic.value.DoubleValue
-54.095

@<SCITEGIC>MOL_PROPERTY
Grad RMS
SciTegic.value.DoubleValue
0.000000

@<SCITEGIC>MOL_PROPERTY
U
SciTegic.value.DoubleValue
8.869

@<SCITEGIC>MOL_PROPERTY
W
SciTegic.value.DoubleValue
-62.964

@<SCITEGIC>MOL_PROPERTY
W(PB)
SciTegic.value.DoubleValue
-65.046

@<SCITEGIC>MOL_PROPERTY
W(SA)
SciTegic.value.DoubleValue
2.082

@<SCITEGIC>MOL_PROPERTY
Valence
SciTegic.value.DoubleValue
7.469

@<SCITEGIC>MOL_PROPERTY
Coulomb
SciTegic.value.DoubleValue
0.762

@<SCITEGIC>MOL_PROPERTY
VdW
SciTegic.value.DoubleValue
0.639

@<SCITEGIC>MOL_PROPERTY
VdW6
SciTegic.value.DoubleValue
-6.782

@<SCITEGIC>MOL_PROPERTY
VdW12
SciTegic.value.DoubleValue
7.421

@<SCITEGIC>MOL_PROPERTY
Bond
SciTegic.value.DoubleValue
0.141

@<SCITEGIC>MOL_PROPERTY
Angle
SciTegic.value.DoubleValue
2.667

@<SCITEGIC>MOL_PROPERTY
Pdih
SciTegic.value.DoubleValue
4.660

@<SCITEGIC>MOL_PROPERTY
Idih
SciTegic.value.DoubleValue
0.001

@<SCITEGIC>MOL_PROPERTY
Tether
SciTegic.value.DoubleValue
0.000

@<TRIPOS>MOLECULE
guest-7_confgen4.mol2 : confsearch ligand conformer 618
          19          18           1
SMALL
USER_CHARGES
 
@<TRIPOS>ATOM
       1    C1      22.416511   17.466064   21.589976 C.2        1 MOL1         0.6115
       2    O1      23.166483   17.631670   20.648414 O.co2      1 MOL1        -0.6776
       3    O2      22.746516   16.920149   22.624091 O.co2      1 MOL1        -0.6776
       4    C2      20.989075   17.988754   21.474042 C.3        1 MOL1        -0.2013
       5    H1      20.340530   17.318770   22.049950 H          1 MOL1         0.0727
       6    H2      20.683263   17.915558   20.423577 H          1 MOL1         0.0727
       7    C3      20.841829   19.449386   21.973502 C.3        1 MOL1        -0.1910
       8    H3      21.114029   19.503439   23.035935 H          1 MOL1         0.0729
       9    H4      21.568599   20.078681   21.441532 H          1 MOL1         0.0729
      10    C4      19.425841   20.039044   21.754391 C.3        1 MOL1        -0.1909
      11    H5      19.216074   20.069526   20.676494 H          1 MOL1         0.0729
      12    H6      19.422808   21.083953   22.093417 H          1 MOL1         0.0729
      13    C5      18.277796   19.279664   22.463782 C.3        1 MOL1        -0.1884
      14    H7      17.328544   19.778218   22.224104 H          1 MOL1         0.0729
      15    H8      18.193815   18.260237   22.064627 H          1 MOL1         0.0729
      16    C6      18.436617   19.226403   23.998492 C.3        1 MOL1        -0.2899
      17    H9      18.545409   20.235184   24.417486 H          1 MOL1         0.0741
      18    H10     17.556064   18.761093   24.459934 H          1 MOL1         0.0741
      19    H11     19.314981   18.635776   24.288152 H          1 MOL1         0.0741
@<TRIPOS>BOND
    1     1     2    1
    2     1     3    2
    3     1     4    1
    4     4     5    1
    5     4     6    1
    6     4     7    1
    7     7     8    1
    8     7     9    1
    9     7    10    1
   10    10    11    1
   11    10    12    1
   12    10    13    1
   13    13    14    1
   14    13    15    1
   15    13    16    1
   16    16    17    1
   17    16    18    1
   18    16    19    1
@<TRIPOS>SUBSTRUCTURE
       1 MOL1            1 RESIDUE      1      MOL     
@<SCITEGIC>MOL_PROPERTY
VConf Rank
SciTegic.value.IntegerValue
618

@<SCITEGIC>MOL_PROPERTY
Conf_Id
SciTegic.value.IntegerValue
67

@<SCITEGIC>MOL_PROPERTY
Delta U+W
SciTegic.value.DoubleValue
0.308

@<SCITEGIC>MOL_PROPERTY
U+W
SciTegic.value.DoubleValue
-54.583

@<SCITEGIC>MOL_PROPERTY
Grad RMS
SciTegic.value.DoubleValue
0.000000

@<SCITEGIC>MOL_PROPERTY
U
SciTegic.value.DoubleValue
8.219

@<SCITEGIC>MOL_PROPERTY
W
SciTegic.value.DoubleValue
-62.802

@<SCITEGIC>MOL_PROPERTY
W(PB)
SciTegic.value.DoubleValue
-64.859

@<SCITEGIC>MOL_PROPERTY
W(SA)
SciTegic.value.DoubleValue
2.057

@<SCITEGIC>MOL_PROPERTY
Valence
SciTegic.value.DoubleValue
7.609

@<SCITEGIC>MOL_PROPERTY
Coulomb
SciTegic.value.DoubleValue
-0.089

@<SCITEGIC>MOL_PROPERTY
VdW
SciTegic.value.DoubleValue
0.699

@<SCITEGIC>MOL_PROPERTY
VdW6
SciTegic.value.DoubleValue
-6.924

@<SCITEGIC>MOL_PROPERTY
VdW12
SciTegic.value.DoubleValue
7.623

@<SCITEGIC>MOL_PROPERTY
Bond
SciTegic.value.DoubleValue
0.163

@<SCITEGIC>MOL_PROPERTY
Angle
SciTegic.value.DoubleValue
2.870

@<SCITEGIC>MOL_PROPERTY
Pdih
SciTegic.value.DoubleValue
4.576

@<SCITEGIC>MOL_PROPERTY
Idih
SciTegic.value.DoubleValue
0.001

@<SCITEGIC>MOL_PROPERTY
Tether
SciTegic.value.DoubleValue
0.000

@<TRIPOS>MOLECULE
guest-7_confgen4.mol2 : confsearch ligand conformer 619
          19          18           1
SMALL
USER_CHARGES
 
@<TRIPOS>ATOM
       1    C1      21.467720   21.364721   21.631972 C.2        1 MOL1         0.6115
       2    O1      22.275320   21.980918   22.298684 O.co2      1 MOL1        -0.6776
       3    O2      20.833801   21.857207   20.719872 O.co2      1 MOL1        -0.6776
       4    C2      21.222680   19.898811   21.971502 C.3        1 MOL1        -0.2013
       5    H1      22.160872   19.474540   22.348522 H          1 MOL1         0.0727
       6    H2      20.979936   19.376358   21.039151 H          1 MOL1         0.0727
       7    C3      20.090916   19.704685   23.013622 C.3        1 MOL1        -0.1910
       8    H3      20.319573   20.312900   23.899618 H          1 MOL1         0.0729
       9    H4      19.148655   20.098577   22.610172 H          1 MOL1         0.0729
      10    C4      19.906452   18.232643   23.460600 C.3        1 MOL1        -0.1909
      11    H5      19.120380   18.192835   24.226945 H          1 MOL1         0.0729
      12    H6      20.827503   17.892373   23.953222 H          1 MOL1         0.0729
      13    C5      19.551309   17.238578   22.327636 C.3        1 MOL1        -0.1884
      14    H7      20.372246   17.183023   21.600597 H          1 MOL1         0.0729
      15    H8      19.461263   16.232851   22.760633 H          1 MOL1         0.0729
      16    C6      18.234416   17.585433   21.600392 C.3        1 MOL1        -0.2899
      17    H9      18.318159   18.533868   21.054750 H          1 MOL1         0.0741
      18    H10     17.980305   16.804243   20.872391 H          1 MOL1         0.0741
      19    H11     17.402756   17.668787   22.312026 H          1 MOL1         0.0741
@<TRIPOS>BOND
    1     1     2    1
    2     1     3    2
    3     1     4    1
    4     4     5    1
    5     4     6    1
    6     4     7    1
    7     7     8    1
    8     7     9    1
    9     7    10    1
   10    10    11    1
   11    10    12    1
   12    10    13    1
   13    13    14    1
   14    13    15    1
   15    13    16    1
   16    16    17    1
   17    16    18    1
   18    16    19    1
@<TRIPOS>SUBSTRUCTURE
       1 MOL1            1 RESIDUE      1      MOL     
@<SCITEGIC>MOL_PROPERTY
VConf Rank
SciTegic.value.IntegerValue
619

@<SCITEGIC>MOL_PROPERTY
Conf_Id
SciTegic.value.IntegerValue
21

@<SCITEGIC>MOL_PROPERTY
Delta U+W
SciTegic.value.DoubleValue
0.319

@<SCITEGIC>MOL_PROPERTY
U+W
SciTegic.value.DoubleValue
-54.572

@<SCITEGIC>MOL_PROPERTY
Grad RMS
SciTegic.value.DoubleValue
0.000000

@<SCITEGIC>MOL_PROPERTY
U
SciTegic.value.DoubleValue
8.220

@<SCITEGIC>MOL_PROPERTY
W
SciTegic.value.DoubleValue
-62.792

@<SCITEGIC>MOL_PROPERTY
W(PB)
SciTegic.value.DoubleValue
-64.830

@<SCITEGIC>MOL_PROPERTY
W(SA)
SciTegic.value.DoubleValue
2.038

@<SCITEGIC>MOL_PROPERTY
Valence
SciTegic.value.DoubleValue
7.609

@<SCITEGIC>MOL_PROPERTY
Coulomb
SciTegic.value.DoubleValue
-0.088

@<SCITEGIC>MOL_PROPERTY
VdW
SciTegic.value.DoubleValue
0.699

@<SCITEGIC>MOL_PROPERTY
VdW6
SciTegic.value.DoubleValue
-6.924

@<SCITEGIC>MOL_PROPERTY
VdW12
SciTegic.value.DoubleValue
7.623

@<SCITEGIC>MOL_PROPERTY
Bond
SciTegic.value.DoubleValue
0.163

@<SCITEGIC>MOL_PROPERTY
Angle
SciTegic.value.DoubleValue
2.870

@<SCITEGIC>MOL_PROPERTY
Pdih
SciTegic.value.DoubleValue
4.576

@<SCITEGIC>MOL_PROPERTY
Idih
SciTegic.value.DoubleValue
0.000

@<SCITEGIC>MOL_PROPERTY
Tether
SciTegic.value.DoubleValue
0.000

@<TRIPOS>MOLECULE
guest-7_confgen4.mol2 : confsearch ligand conformer 620
          19          18           1
SMALL
USER_CHARGES
 
@<TRIPOS>ATOM
       1    C1      21.282272   18.428041   24.860973 C.2        1 MOL1         0.6115
       2    O1      21.136749   18.970116   25.938663 O.co2      1 MOL1        -0.6776
       3    O2      21.732771   17.307550   24.727539 O.co2      1 MOL1        -0.6776
       4    C2      20.859164   19.188869   23.609493 C.3        1 MOL1        -0.2013
       5    H1      21.519919   18.884223   22.791926 H          1 MOL1         0.0727
       6    H2      21.040072   20.256014   23.785161 H          1 MOL1         0.0727
       7    C3      19.370238   18.956454   23.239794 C.3        1 MOL1        -0.1910
       8    H3      19.173242   17.882092   23.120538 H          1 MOL1         0.0729
       9    H4      18.756004   19.287493   24.088631 H          1 MOL1         0.0729
      10    C4      18.921547   19.728045   21.972802 C.3        1 MOL1        -0.1909
      11    H5      19.502975   20.653875   21.864745 H          1 MOL1         0.0729
      12    H6      17.879635   20.045045   22.117384 H          1 MOL1         0.0729
      13    C5      18.979993   18.906865   20.661255 C.3        1 MOL1        -0.1884
      14    H7      18.324841   18.028977   20.746959 H          1 MOL1         0.0729
      15    H8      18.567333   19.519722   19.848043 H          1 MOL1         0.0729
      16    C6      20.398538   18.449398   20.263578 C.3        1 MOL1        -0.2899
      17    H9      20.388016   17.990596   19.266480 H          1 MOL1         0.0741
      18    H10     21.094287   19.298100   20.238731 H          1 MOL1         0.0741
      19    H11     20.784278   17.700805   20.966862 H          1 MOL1         0.0741
@<TRIPOS>BOND
    1     1     2    1
    2     1     3    2
    3     1     4    1
    4     4     5    1
    5     4     6    1
    6     4     7    1
    7     7     8    1
    8     7     9    1
    9     7    10    1
   10    10    11    1
   11    10    12    1
   12    10    13    1
   13    13    14    1
   14    13    15    1
   15    13    16    1
   16    16    17    1
   17    16    18    1
   18    16    19    1
@<TRIPOS>SUBSTRUCTURE
       1 MOL1            1 RESIDUE      1      MOL     
@<SCITEGIC>MOL_PROPERTY
VConf Rank
SciTegic.value.IntegerValue
620

@<SCITEGIC>MOL_PROPERTY
Conf_Id
SciTegic.value.IntegerValue
24

@<SCITEGIC>MOL_PROPERTY
Delta U+W
SciTegic.value.DoubleValue
2.477

@<SCITEGIC>MOL_PROPERTY
U+W
SciTegic.value.DoubleValue
-52.414

@<SCITEGIC>MOL_PROPERTY
Grad RMS
SciTegic.value.DoubleValue
0.000000

@<SCITEGIC>MOL_PROPERTY
U
SciTegic.value.DoubleValue
10.422

@<SCITEGIC>MOL_PROPERTY
W
SciTegic.value.DoubleValue
-62.836

@<SCITEGIC>MOL_PROPERTY
W(PB)
SciTegic.value.DoubleValue
-64.906

@<SCITEGIC>MOL_PROPERTY
W(SA)
SciTegic.value.DoubleValue
2.070

@<SCITEGIC>MOL_PROPERTY
Valence
SciTegic.value.DoubleValue
9.628

@<SCITEGIC>MOL_PROPERTY
Coulomb
SciTegic.value.DoubleValue
0.101

@<SCITEGIC>MOL_PROPERTY
VdW
SciTegic.value.DoubleValue
0.693

@<SCITEGIC>MOL_PROPERTY
VdW6
SciTegic.value.DoubleValue
-6.927

@<SCITEGIC>MOL_PROPERTY
VdW12
SciTegic.value.DoubleValue
7.620

@<SCITEGIC>MOL_PROPERTY
Bond
SciTegic.value.DoubleValue
0.173

@<SCITEGIC>MOL_PROPERTY
Angle
SciTegic.value.DoubleValue
2.989

@<SCITEGIC>MOL_PROPERTY
Pdih
SciTegic.value.DoubleValue
6.465

@<SCITEGIC>MOL_PROPERTY
Idih
SciTegic.value.DoubleValue
0.001

@<SCITEGIC>MOL_PROPERTY
Tether
SciTegic.value.DoubleValue
0.000

@<TRIPOS>MOLECULE
guest-7_confgen4.mol2 : confsearch ligand conformer 621
          19          18           1
SMALL
USER_CHARGES
 
@<TRIPOS>ATOM
       1    C1      21.634203   17.376336   21.439377 C.2        1 MOL1         0.6115
       2    O1      20.977605   16.369940   21.620309 O.co2      1 MOL1        -0.6776
       3    O2      22.432720   17.502050   20.531830 O.co2      1 MOL1        -0.6776
       4    C2      21.470936   18.535208   22.419475 C.3        1 MOL1        -0.2013
       5    H1      22.477386   18.848975   22.720083 H          1 MOL1         0.0727
       6    H2      20.977948   18.158043   23.321107 H          1 MOL1         0.0727
       7    C3      20.706571   19.754765   21.833501 C.3        1 MOL1        -0.1910
       8    H3      20.805090   20.615107   22.509028 H          1 MOL1         0.0729
       9    H4      21.201669   20.047902   20.897294 H          1 MOL1         0.0729
      10    C4      19.207028   19.486014   21.542603 C.3        1 MOL1        -0.1909
      11    H5      19.047542   18.429312   21.288141 H          1 MOL1         0.0729
      12    H6      18.927274   20.053558   20.644598 H          1 MOL1         0.0729
      13    C5      18.243098   19.907847   22.678738 C.3        1 MOL1        -0.1884
      14    H7      18.343716   20.985626   22.867077 H          1 MOL1         0.0729
      15    H8      17.211205   19.750955   22.335612 H          1 MOL1         0.0729
      16    C6      18.446873   19.135743   23.998544 C.3        1 MOL1        -0.2899
      17    H9      19.404446   19.396905   24.465667 H          1 MOL1         0.0741
      18    H10     17.651955   19.382151   24.714201 H          1 MOL1         0.0741
      19    H11     18.425539   18.051424   23.827421 H          1 MOL1         0.0741
@<TRIPOS>BOND
    1     1     2    1
    2     1     3    2
    3     1     4    1
    4     4     5    1
    5     4     6    1
    6     4     7    1
    7     7     8    1
    8     7     9    1
    9     7    10    1
   10    10    11    1
   11    10    12    1
   12    10    13    1
   13    13    14    1
   14    13    15    1
   15    13    16    1
   16    16    17    1
   17    16    18    1
   18    16    19    1
@<TRIPOS>SUBSTRUCTURE
       1 MOL1            1 RESIDUE      1      MOL     
@<SCITEGIC>MOL_PROPERTY
VConf Rank
SciTegic.value.IntegerValue
621

@<SCITEGIC>MOL_PROPERTY
Conf_Id
SciTegic.value.IntegerValue
4

@<SCITEGIC>MOL_PROPERTY
Delta U+W
SciTegic.value.DoubleValue
3.753

@<SCITEGIC>MOL_PROPERTY
U+W
SciTegic.value.DoubleValue
-51.138

@<SCITEGIC>MOL_PROPERTY
Grad RMS
SciTegic.value.DoubleValue
0.000000

@<SCITEGIC>MOL_PROPERTY
U
SciTegic.value.DoubleValue
12.334

@<SCITEGIC>MOL_PROPERTY
W
SciTegic.value.DoubleValue
-63.472

@<SCITEGIC>MOL_PROPERTY
W(PB)
SciTegic.value.DoubleValue
-65.500

@<SCITEGIC>MOL_PROPERTY
W(SA)
SciTegic.value.DoubleValue
2.028

@<SCITEGIC>MOL_PROPERTY
Valence
SciTegic.value.DoubleValue
9.984

@<SCITEGIC>MOL_PROPERTY
Coulomb
SciTegic.value.DoubleValue
1.767

@<SCITEGIC>MOL_PROPERTY
VdW
SciTegic.value.DoubleValue
0.583

@<SCITEGIC>MOL_PROPERTY
VdW6
SciTegic.value.DoubleValue
-7.767

@<SCITEGIC>MOL_PROPERTY
VdW12
SciTegic.value.DoubleValue
8.349

@<SCITEGIC>MOL_PROPERTY
Bond
SciTegic.value.DoubleValue
0.203

@<SCITEGIC>MOL_PROPERTY
Angle
SciTegic.value.DoubleValue
3.191

@<SCITEGIC>MOL_PROPERTY
Pdih
SciTegic.value.DoubleValue
6.589

@<SCITEGIC>MOL_PROPERTY
Idih
SciTegic.value.DoubleValue
0.001

@<SCITEGIC>MOL_PROPERTY
Tether
SciTegic.value.DoubleValue
0.000

@<TRIPOS>MOLECULE
guest-7_confgen4.mol2 : confsearch ligand conformer 622
          19          18           1
SMALL
USER_CHARGES
 
@<TRIPOS>ATOM
       1    C1      18.371203   19.897569   24.257926 C.2        1 MOL1         0.6115
       2    O1      18.638024   20.487760   25.286301 O.co2      1 MOL1        -0.6776
       3    O2      17.471868   20.226653   23.509866 O.co2      1 MOL1        -0.6776
       4    C2      19.192625   18.660303   23.904839 C.3        1 MOL1        -0.2013
       5    H1      18.643398   18.084089   23.153470 H          1 MOL1         0.0727
       6    H2      19.241131   18.036430   24.804942 H          1 MOL1         0.0727
       7    C3      20.635159   18.976985   23.421365 C.3        1 MOL1        -0.1910
       8    H3      21.115424   19.611901   24.178835 H          1 MOL1         0.0729
       9    H4      21.226425   18.052189   23.384063 H          1 MOL1         0.0729
      10    C4      20.702759   19.697787   22.049743 C.3        1 MOL1        -0.1909
      11    H5      21.550291   20.396291   22.073501 H          1 MOL1         0.0729
      12    H6      19.809721   20.318994   21.896802 H          1 MOL1         0.0729
      13    C5      20.907890   18.758367   20.835942 C.3        1 MOL1        -0.1884
      14    H7      21.023859   19.375359   19.934263 H          1 MOL1         0.0729
      15    H8      21.849761   18.204773   20.952627 H          1 MOL1         0.0729
      16    C6      19.752817   17.761973   20.606677 C.3        1 MOL1        -0.2899
      17    H9      18.787275   18.282647   20.560696 H          1 MOL1         0.0741
      18    H10     19.892994   17.222622   19.661040 H          1 MOL1         0.0741
      19    H11     19.709304   17.015523   21.409344 H          1 MOL1         0.0741
@<TRIPOS>BOND
    1     1     2    1
    2     1     3    2
    3     1     4    1
    4     4     5    1
    5     4     6    1
    6     4     7    1
    7     7     8    1
    8     7     9    1
    9     7    10    1
   10    10    11    1
   11    10    12    1
   12    10    13    1
   13    13    14    1
   14    13    15    1
   15    13    16    1
   16    16    17    1
   17    16    18    1
   18    16    19    1
@<TRIPOS>SUBSTRUCTURE
       1 MOL1            1 RESIDUE      1      MOL     
@<SCITEGIC>MOL_PROPERTY
VConf Rank
SciTegic.value.IntegerValue
622

@<SCITEGIC>MOL_PROPERTY
Conf_Id
SciTegic.value.IntegerValue
73

@<SCITEGIC>MOL_PROPERTY
Delta U+W
SciTegic.value.DoubleValue
3.707

@<SCITEGIC>MOL_PROPERTY
U+W
SciTegic.value.DoubleValue
-51.184

@<SCITEGIC>MOL_PROPERTY
Grad RMS
SciTegic.value.DoubleValue
0.000000

@<SCITEGIC>MOL_PROPERTY
U
SciTegic.value.DoubleValue
12.334

@<SCITEGIC>MOL_PROPERTY
W
SciTegic.value.DoubleValue
-63.519

@<SCITEGIC>MOL_PROPERTY
W(PB)
SciTegic.value.DoubleValue
-65.541

@<SCITEGIC>MOL_PROPERTY
W(SA)
SciTegic.value.DoubleValue
2.022

@<SCITEGIC>MOL_PROPERTY
Valence
SciTegic.value.DoubleValue
9.984

@<SCITEGIC>MOL_PROPERTY
Coulomb
SciTegic.value.DoubleValue
1.768

@<SCITEGIC>MOL_PROPERTY
VdW
SciTegic.value.DoubleValue
0.583

@<SCITEGIC>MOL_PROPERTY
VdW6
SciTegic.value.DoubleValue
-7.767

@<SCITEGIC>MOL_PROPERTY
VdW12
SciTegic.value.DoubleValue
8.350

@<SCITEGIC>MOL_PROPERTY
Bond
SciTegic.value.DoubleValue
0.203

@<SCITEGIC>MOL_PROPERTY
Angle
SciTegic.value.DoubleValue
3.192

@<SCITEGIC>MOL_PROPERTY
Pdih
SciTegic.value.DoubleValue
6.589

@<SCITEGIC>MOL_PROPERTY
Idih
SciTegic.value.DoubleValue
0.001

@<SCITEGIC>MOL_PROPERTY
Tether
SciTegic.value.DoubleValue
0.000

@<TRIPOS>MOLECULE
guest-7_confgen4.mol2 : confsearch ligand conformer 623
          19          18           1
SMALL
USER_CHARGES
 
@<TRIPOS>ATOM
       1    C1      20.724683   19.076617   19.961926 C.2        1 MOL1         0.6115
       2    O1      21.806684   18.571378   20.187133 O.co2      1 MOL1        -0.6776
       3    O2      20.105671   18.905043   18.930157 O.co2      1 MOL1        -0.6776
       4    C2      20.123305   20.002208   21.015943 C.3        1 MOL1        -0.2013
       5    H1      19.835446   20.930593   20.509082 H          1 MOL1         0.0727
       6    H2      20.905213   20.271084   21.735403 H          1 MOL1         0.0727
       7    C3      18.887176   19.412304   21.748245 C.3        1 MOL1        -0.1910
       8    H3      18.476554   20.167716   22.430599 H          1 MOL1         0.0729
       9    H4      18.100142   19.215953   21.007210 H          1 MOL1         0.0729
      10    C4      19.169957   18.103172   22.529463 C.3        1 MOL1        -0.1909
      11    H5      19.464246   17.318489   21.819006 H          1 MOL1         0.0729
      12    H6      18.234001   17.758074   22.989342 H          1 MOL1         0.0729
      13    C5      20.256712   18.211838   23.626902 C.3        1 MOL1        -0.1884
      14    H7      20.379829   17.225867   24.095518 H          1 MOL1         0.0729
      15    H8      21.227394   18.454677   23.173855 H          1 MOL1         0.0729
      16    C6      19.918181   19.244447   24.723618 C.3        1 MOL1        -0.2899
      17    H9      19.897160   20.263960   24.318572 H          1 MOL1         0.0741
      18    H10     18.940289   19.031882   25.174790 H          1 MOL1         0.0741
      19    H11     20.671988   19.218743   25.521057 H          1 MOL1         0.0741
@<TRIPOS>BOND
    1     1     2    1
    2     1     3    2
    3     1     4    1
    4     4     5    1
    5     4     6    1
    6     4     7    1
    7     7     8    1
    8     7     9    1
    9     7    10    1
   10    10    11    1
   11    10    12    1
   12    10    13    1
   13    13    14    1
   14    13    15    1
   15    13    16    1
   16    16    17    1
   17    16    18    1
   18    16    19    1
@<TRIPOS>SUBSTRUCTURE
       1 MOL1            1 RESIDUE      1      MOL     
@<SCITEGIC>MOL_PROPERTY
VConf Rank
SciTegic.value.IntegerValue
623

@<SCITEGIC>MOL_PROPERTY
Conf_Id
SciTegic.value.IntegerValue
56

@<SCITEGIC>MOL_PROPERTY
Delta U+W
SciTegic.value.DoubleValue
1.735

@<SCITEGIC>MOL_PROPERTY
U+W
SciTegic.value.DoubleValue
-53.156

@<SCITEGIC>MOL_PROPERTY
Grad RMS
SciTegic.value.DoubleValue
0.000000

@<SCITEGIC>MOL_PROPERTY
U
SciTegic.value.DoubleValue
10.214

@<SCITEGIC>MOL_PROPERTY
W
SciTegic.value.DoubleValue
-63.370

@<SCITEGIC>MOL_PROPERTY
W(PB)
SciTegic.value.DoubleValue
-65.388

@<SCITEGIC>MOL_PROPERTY
W(SA)
SciTegic.value.DoubleValue
2.018

@<SCITEGIC>MOL_PROPERTY
Valence
SciTegic.value.DoubleValue
7.868

@<SCITEGIC>MOL_PROPERTY
Coulomb
SciTegic.value.DoubleValue
1.968

@<SCITEGIC>MOL_PROPERTY
VdW
SciTegic.value.DoubleValue
0.378

@<SCITEGIC>MOL_PROPERTY
VdW6
SciTegic.value.DoubleValue
-8.067

@<SCITEGIC>MOL_PROPERTY
VdW12
SciTegic.value.DoubleValue
8.445

@<SCITEGIC>MOL_PROPERTY
Bond
SciTegic.value.DoubleValue
0.191

@<SCITEGIC>MOL_PROPERTY
Angle
SciTegic.value.DoubleValue
3.117

@<SCITEGIC>MOL_PROPERTY
Pdih
SciTegic.value.DoubleValue
4.559

@<SCITEGIC>MOL_PROPERTY
Idih
SciTegic.value.DoubleValue
0.001

@<SCITEGIC>MOL_PROPERTY
Tether
SciTegic.value.DoubleValue
0.000

@<TRIPOS>MOLECULE
guest-7_confgen4.mol2 : confsearch ligand conformer 624
          19          18           1
SMALL
USER_CHARGES
 
@<TRIPOS>ATOM
       1    C1      17.585352   20.637049   21.940341 C.2        1 MOL1         0.6115
       2    O1      17.621410   21.849212   22.016005 O.co2      1 MOL1        -0.6776
       3    O2      16.553640   19.995725   21.914851 O.co2      1 MOL1        -0.6776
       4    C2      18.907034   19.878439   21.896713 C.3        1 MOL1        -0.2013
       5    H1      19.647260   20.510821   21.392196 H          1 MOL1         0.0727
       6    H2      18.757093   18.986964   21.277601 H          1 MOL1         0.0727
       7    C3      19.415682   19.476334   23.304038 C.3        1 MOL1        -0.1910
       8    H3      19.420110   20.369194   23.944492 H          1 MOL1         0.0729
       9    H4      18.702863   18.775097   23.759396 H          1 MOL1         0.0729
      10    C4      20.835507   18.856323   23.317220 C.3        1 MOL1        -0.1909
      11    H5      21.102472   18.665129   24.365622 H          1 MOL1         0.0729
      12    H6      21.569757   19.586862   22.950901 H          1 MOL1         0.0729
      13    C5      20.967600   17.525329   22.536122 C.3        1 MOL1        -0.1884
      14    H7      21.675560   16.875236   23.068581 H          1 MOL1         0.0729
      15    H8      20.007858   16.990394   22.529178 H          1 MOL1         0.0729
      16    C6      21.486792   17.713646   21.093311 C.3        1 MOL1        -0.2899
      17    H9      21.579302   16.742891   20.589374 H          1 MOL1         0.0741
      18    H10     20.814175   18.338014   20.494671 H          1 MOL1         0.0741
      19    H11     22.477357   18.186839   21.093819 H          1 MOL1         0.0741
@<TRIPOS>BOND
    1     1     2    1
    2     1     3    2
    3     1     4    1
    4     4     5    1
    5     4     6    1
    6     4     7    1
    7     7     8    1
    8     7     9    1
    9     7    10    1
   10    10    11    1
   11    10    12    1
   12    10    13    1
   13    13    14    1
   14    13    15    1
   15    13    16    1
   16    16    17    1
   17    16    18    1
   18    16    19    1
@<TRIPOS>SUBSTRUCTURE
       1 MOL1            1 RESIDUE      1      MOL     
@<SCITEGIC>MOL_PROPERTY
VConf Rank
SciTegic.value.IntegerValue
624

@<SCITEGIC>MOL_PROPERTY
Conf_Id
SciTegic.value.IntegerValue
53

@<SCITEGIC>MOL_PROPERTY
Delta U+W
SciTegic.value.DoubleValue
2.279

@<SCITEGIC>MOL_PROPERTY
U+W
SciTegic.value.DoubleValue
-52.612

@<SCITEGIC>MOL_PROPERTY
Grad RMS
SciTegic.value.DoubleValue
0.000000

@<SCITEGIC>MOL_PROPERTY
U
SciTegic.value.DoubleValue
10.231

@<SCITEGIC>MOL_PROPERTY
W
SciTegic.value.DoubleValue
-62.843

@<SCITEGIC>MOL_PROPERTY
W(PB)
SciTegic.value.DoubleValue
-64.893

@<SCITEGIC>MOL_PROPERTY
W(SA)
SciTegic.value.DoubleValue
2.050

@<SCITEGIC>MOL_PROPERTY
Valence
SciTegic.value.DoubleValue
9.644

@<SCITEGIC>MOL_PROPERTY
Coulomb
SciTegic.value.DoubleValue
-0.164

@<SCITEGIC>MOL_PROPERTY
VdW
SciTegic.value.DoubleValue
0.751

@<SCITEGIC>MOL_PROPERTY
VdW6
SciTegic.value.DoubleValue
-6.881

@<SCITEGIC>MOL_PROPERTY
VdW12
SciTegic.value.DoubleValue
7.631

@<SCITEGIC>MOL_PROPERTY
Bond
SciTegic.value.DoubleValue
0.163

@<SCITEGIC>MOL_PROPERTY
Angle
SciTegic.value.DoubleValue
2.998

@<SCITEGIC>MOL_PROPERTY
Pdih
SciTegic.value.DoubleValue
6.482

@<SCITEGIC>MOL_PROPERTY
Idih
SciTegic.value.DoubleValue
0.001

@<SCITEGIC>MOL_PROPERTY
Tether
SciTegic.value.DoubleValue
0.000

@<TRIPOS>MOLECULE
guest-7_confgen4.mol2 : confsearch ligand conformer 625
          19          18           1
SMALL
USER_CHARGES
 
@<TRIPOS>ATOM
       1    C1      22.173094   17.569089   22.690253 C.2        1 MOL1         0.6115
       2    O1      22.227537   17.313153   23.877008 O.co2      1 MOL1        -0.6776
       3    O2      23.066878   18.126409   22.083795 O.co2      1 MOL1        -0.6776
       4    C2      20.946635   17.102441   21.908255 C.3        1 MOL1        -0.2013
       5    H1      20.269224   16.573276   22.589445 H          1 MOL1         0.0727
       6    H2      21.305842   16.361108   21.185054 H          1 MOL1         0.0727
       7    C3      20.179465   18.220212   21.147228 C.3        1 MOL1        -0.1910
       8    H3      20.891638   18.877021   20.628621 H          1 MOL1         0.0729
       9    H4      19.579793   17.743748   20.359958 H          1 MOL1         0.0729
      10    C4      19.221112   19.063261   22.024442 C.3        1 MOL1        -0.1909
      11    H5      18.507642   18.401410   22.534096 H          1 MOL1         0.0729
      12    H6      18.626135   19.705691   21.360894 H          1 MOL1         0.0729
      13    C5      19.937407   19.953182   23.063931 C.3        1 MOL1        -0.1884
      14    H7      20.431733   19.327946   23.818337 H          1 MOL1         0.0729
      15    H8      20.722182   20.543641   22.571098 H          1 MOL1         0.0729
      16    C6      18.949517   20.901196   23.773281 C.3        1 MOL1        -0.2899
      17    H9      18.168401   20.333841   24.296085 H          1 MOL1         0.0741
      18    H10     19.472414   21.519970   24.514053 H          1 MOL1         0.0741
      19    H11     18.462947   21.572761   23.053859 H          1 MOL1         0.0741
@<TRIPOS>BOND
    1     1     2    1
    2     1     3    2
    3     1     4    1
    4     4     5    1
    5     4     6    1
    6     4     7    1
    7     7     8    1
    8     7     9    1
    9     7    10    1
   10    10    11    1
   11    10    12    1
   12    10    13    1
   13    13    14    1
   14    13    15    1
   15    13    16    1
   16    16    17    1
   17    16    18    1
   18    16    19    1
@<TRIPOS>SUBSTRUCTURE
       1 MOL1            1 RESIDUE      1      MOL     
@<SCITEGIC>MOL_PROPERTY
VConf Rank
SciTegic.value.IntegerValue
625

@<SCITEGIC>MOL_PROPERTY
Conf_Id
SciTegic.value.IntegerValue
25

@<SCITEGIC>MOL_PROPERTY
Delta U+W
SciTegic.value.DoubleValue
2.065

@<SCITEGIC>MOL_PROPERTY
U+W
SciTegic.value.DoubleValue
-52.826

@<SCITEGIC>MOL_PROPERTY
Grad RMS
SciTegic.value.DoubleValue
0.000000

@<SCITEGIC>MOL_PROPERTY
U
SciTegic.value.DoubleValue
10.967

@<SCITEGIC>MOL_PROPERTY
W
SciTegic.value.DoubleValue
-63.794

@<SCITEGIC>MOL_PROPERTY
W(PB)
SciTegic.value.DoubleValue
-65.830

@<SCITEGIC>MOL_PROPERTY
W(SA)
SciTegic.value.DoubleValue
2.036

@<SCITEGIC>MOL_PROPERTY
Valence
SciTegic.value.DoubleValue
8.609

@<SCITEGIC>MOL_PROPERTY
Coulomb
SciTegic.value.DoubleValue
1.892

@<SCITEGIC>MOL_PROPERTY
VdW
SciTegic.value.DoubleValue
0.467

@<SCITEGIC>MOL_PROPERTY
VdW6
SciTegic.value.DoubleValue
-7.569

@<SCITEGIC>MOL_PROPERTY
VdW12
SciTegic.value.DoubleValue
8.036

@<SCITEGIC>MOL_PROPERTY
Bond
SciTegic.value.DoubleValue
0.170

@<SCITEGIC>MOL_PROPERTY
Angle
SciTegic.value.DoubleValue
3.195

@<SCITEGIC>MOL_PROPERTY
Pdih
SciTegic.value.DoubleValue
5.237

@<SCITEGIC>MOL_PROPERTY
Idih
SciTegic.value.DoubleValue
0.007

@<SCITEGIC>MOL_PROPERTY
Tether
SciTegic.value.DoubleValue
0.000

@<TRIPOS>MOLECULE
guest-7_confgen4.mol2 : confsearch ligand conformer 626
          19          18           1
SMALL
USER_CHARGES
 
@<TRIPOS>ATOM
       1    C1      20.364756   19.714255   20.258686 C.2        1 MOL1         0.6115
       2    O1      20.011960   18.856808   19.472831 O.co2      1 MOL1        -0.6776
       3    O2      21.480135   20.196659   20.267034 O.co2      1 MOL1        -0.6776
       4    C2      19.333983   20.265726   21.241982 C.3        1 MOL1        -0.2013
       5    H1      18.552219   20.738529   20.636238 H          1 MOL1         0.0727
       6    H2      19.797389   21.064011   21.834367 H          1 MOL1         0.0727
       7    C3      18.679209   19.211526   22.178497 C.3        1 MOL1        -0.1910
       8    H3      17.736953   19.631866   22.555172 H          1 MOL1         0.0729
       9    H4      18.402131   18.318388   21.601370 H          1 MOL1         0.0729
      10    C4      19.537742   18.807724   23.402647 C.3        1 MOL1        -0.1909
      11    H5      18.918199   18.188238   24.065530 H          1 MOL1         0.0729
      12    H6      19.804981   19.704055   23.978852 H          1 MOL1         0.0729
      13    C5      20.817433   18.021312   23.042753 C.3        1 MOL1        -0.1884
      14    H7      20.564521   17.180627   22.381936 H          1 MOL1         0.0729
      15    H8      21.513034   18.666020   22.490578 H          1 MOL1         0.0729
      16    C6      21.527284   17.488687   24.303807 C.3        1 MOL1        -0.2899
      17    H9      22.438345   16.940167   24.031524 H          1 MOL1         0.0741
      18    H10     21.814053   18.312899   24.969988 H          1 MOL1         0.0741
      19    H11     20.875217   16.805553   24.863677 H          1 MOL1         0.0741
@<TRIPOS>BOND
    1     1     2    1
    2     1     3    2
    3     1     4    1
    4     4     5    1
    5     4     6    1
    6     4     7    1
    7     7     8    1
    8     7     9    1
    9     7    10    1
   10    10    11    1
   11    10    12    1
   12    10    13    1
   13    13    14    1
   14    13    15    1
   15    13    16    1
   16    16    17    1
   17    16    18    1
   18    16    19    1
@<TRIPOS>SUBSTRUCTURE
       1 MOL1            1 RESIDUE      1      MOL     
@<SCITEGIC>MOL_PROPERTY
VConf Rank
SciTegic.value.IntegerValue
626

@<SCITEGIC>MOL_PROPERTY
Conf_Id
SciTegic.value.IntegerValue
52

@<SCITEGIC>MOL_PROPERTY
Delta U+W
SciTegic.value.DoubleValue
2.070

@<SCITEGIC>MOL_PROPERTY
U+W
SciTegic.value.DoubleValue
-52.822

@<SCITEGIC>MOL_PROPERTY
Grad RMS
SciTegic.value.DoubleValue
0.000000

@<SCITEGIC>MOL_PROPERTY
U
SciTegic.value.DoubleValue
10.967

@<SCITEGIC>MOL_PROPERTY
W
SciTegic.value.DoubleValue
-63.789

@<SCITEGIC>MOL_PROPERTY
W(PB)
SciTegic.value.DoubleValue
-65.837

@<SCITEGIC>MOL_PROPERTY
W(SA)
SciTegic.value.DoubleValue
2.048

@<SCITEGIC>MOL_PROPERTY
Valence
SciTegic.value.DoubleValue
8.609

@<SCITEGIC>MOL_PROPERTY
Coulomb
SciTegic.value.DoubleValue
1.892

@<SCITEGIC>MOL_PROPERTY
VdW
SciTegic.value.DoubleValue
0.467

@<SCITEGIC>MOL_PROPERTY
VdW6
SciTegic.value.DoubleValue
-7.569

@<SCITEGIC>MOL_PROPERTY
VdW12
SciTegic.value.DoubleValue
8.035

@<SCITEGIC>MOL_PROPERTY
Bond
SciTegic.value.DoubleValue
0.170

@<SCITEGIC>MOL_PROPERTY
Angle
SciTegic.value.DoubleValue
3.196

@<SCITEGIC>MOL_PROPERTY
Pdih
SciTegic.value.DoubleValue
5.237

@<SCITEGIC>MOL_PROPERTY
Idih
SciTegic.value.DoubleValue
0.007

@<SCITEGIC>MOL_PROPERTY
Tether
SciTegic.value.DoubleValue
0.000

@<TRIPOS>MOLECULE
guest-7_confgen4.mol2 : confsearch ligand conformer 627
          19          18           1
SMALL
USER_CHARGES
 
@<TRIPOS>ATOM
       1    C1      19.036761   20.802940   22.090910 C.2        1 MOL1         0.6115
       2    O1      19.949070   21.489309   21.672932 O.co2      1 MOL1        -0.6776
       3    O2      17.993754   20.644061   21.487924 O.co2      1 MOL1        -0.6776
       4    C2      19.147723   20.210990   23.496848 C.3        1 MOL1        -0.2013
       5    H1      18.322662   19.505912   23.653942 H          1 MOL1         0.0727
       6    H2      18.982590   21.043971   24.189775 H          1 MOL1         0.0727
       7    C3      20.505461   19.534169   23.840112 C.3        1 MOL1        -0.1910
       8    H3      21.335225   20.131679   23.437925 H          1 MOL1         0.0729
       9    H4      20.626102   19.555031   24.931610 H          1 MOL1         0.0729
      10    C4      20.647394   18.059346   23.384115 C.3        1 MOL1        -0.1909
      11    H5      19.877292   17.441723   23.866321 H          1 MOL1         0.0729
      12    H6      21.607429   17.687106   23.767177 H          1 MOL1         0.0729
      13    C5      20.627902   17.843644   21.851444 C.3        1 MOL1        -0.1884
      14    H7      20.910393   18.768466   21.329659 H          1 MOL1         0.0729
      15    H8      21.392961   17.100317   21.588198 H          1 MOL1         0.0729
      16    C6      19.265047   17.332245   21.337423 C.3        1 MOL1        -0.2899
      17    H9      19.020727   16.357659   21.779496 H          1 MOL1         0.0741
      18    H10     18.455324   18.028642   21.584624 H          1 MOL1         0.0741
      19    H11     19.284914   17.213017   20.246548 H          1 MOL1         0.0741
@<TRIPOS>BOND
    1     1     2    1
    2     1     3    2
    3     1     4    1
    4     4     5    1
    5     4     6    1
    6     4     7    1
    7     7     8    1
    8     7     9    1
    9     7    10    1
   10    10    11    1
   11    10    12    1
   12    10    13    1
   13    13    14    1
   14    13    15    1
   15    13    16    1
   16    16    17    1
   17    16    18    1
   18    16    19    1
@<TRIPOS>SUBSTRUCTURE
       1 MOL1            1 RESIDUE      1      MOL     
@<SCITEGIC>MOL_PROPERTY
VConf Rank
SciTegic.value.IntegerValue
627

@<SCITEGIC>MOL_PROPERTY
Conf_Id
SciTegic.value.IntegerValue
66

@<SCITEGIC>MOL_PROPERTY
Delta U+W
SciTegic.value.DoubleValue
5.819

@<SCITEGIC>MOL_PROPERTY
U+W
SciTegic.value.DoubleValue
-49.072

@<SCITEGIC>MOL_PROPERTY
Grad RMS
SciTegic.value.DoubleValue
0.000000

@<SCITEGIC>MOL_PROPERTY
U
SciTegic.value.DoubleValue
15.324

@<SCITEGIC>MOL_PROPERTY
W
SciTegic.value.DoubleValue
-64.396

@<SCITEGIC>MOL_PROPERTY
W(PB)
SciTegic.value.DoubleValue
-66.382

@<SCITEGIC>MOL_PROPERTY
W(SA)
SciTegic.value.DoubleValue
1.986

@<SCITEGIC>MOL_PROPERTY
Valence
SciTegic.value.DoubleValue
11.748

@<SCITEGIC>MOL_PROPERTY
Coulomb
SciTegic.value.DoubleValue
3.201

@<SCITEGIC>MOL_PROPERTY
VdW
SciTegic.value.DoubleValue
0.375

@<SCITEGIC>MOL_PROPERTY
VdW6
SciTegic.value.DoubleValue
-8.854

@<SCITEGIC>MOL_PROPERTY
VdW12
SciTegic.value.DoubleValue
9.229

@<SCITEGIC>MOL_PROPERTY
Bond
SciTegic.value.DoubleValue
0.216

@<SCITEGIC>MOL_PROPERTY
Angle
SciTegic.value.DoubleValue
3.812

@<SCITEGIC>MOL_PROPERTY
Pdih
SciTegic.value.DoubleValue
7.699

@<SCITEGIC>MOL_PROPERTY
Idih
SciTegic.value.DoubleValue
0.022

@<SCITEGIC>MOL_PROPERTY
Tether
SciTegic.value.DoubleValue
0.000

@<TRIPOS>MOLECULE
guest-7_confgen4.mol2 : confsearch ligand conformer 628
          19          18           1
SMALL
USER_CHARGES
 
@<TRIPOS>ATOM
       1    C1      18.958321   16.122748   20.429039 C.2        1 MOL1         0.6115
       2    O1      18.025530   15.348679   20.349168 O.co2      1 MOL1        -0.6776
       3    O2      19.958889   16.028795   19.744801 O.co2      1 MOL1        -0.6776
       4    C2      18.838529   17.257707   21.447466 C.3        1 MOL1        -0.2013
       5    H1      18.675550   16.799617   22.430137 H          1 MOL1         0.0727
       6    H2      17.931433   17.822688   21.202471 H          1 MOL1         0.0727
       7    C3      20.053853   18.220567   21.513215 C.3        1 MOL1        -0.1910
       8    H3      20.960204   17.647536   21.753281 H          1 MOL1         0.0729
       9    H4      20.215337   18.671636   20.524313 H          1 MOL1         0.0729
      10    C4      19.848868   19.332908   22.564376 C.3        1 MOL1        -0.1909
      11    H5      19.687438   18.879748   23.552169 H          1 MOL1         0.0729
      12    H6      18.942211   19.904428   22.322532 H          1 MOL1         0.0729
      13    C5      21.058144   20.288930   22.628161 C.3        1 MOL1        -0.1884
      14    H7      21.966919   19.721222   22.871737 H          1 MOL1         0.0729
      15    H8      21.221709   20.745869   21.642288 H          1 MOL1         0.0729
      16    C6      20.850103   21.398068   23.678647 C.3        1 MOL1        -0.2899
      17    H9      20.715284   20.969828   24.680573 H          1 MOL1         0.0741
      18    H10     21.718892   22.068357   23.710663 H          1 MOL1         0.0741
      19    H11     19.964440   22.002189   23.441876 H          1 MOL1         0.0741
@<TRIPOS>BOND
    1     1     2    1
    2     1     3    2
    3     1     4    1
    4     4     5    1
    5     4     6    1
    6     4     7    1
    7     7     8    1
    8     7     9    1
    9     7    10    1
   10    10    11    1
   11    10    12    1
   12    10    13    1
   13    13    14    1
   14    13    15    1
   15    13    16    1
   16    16    17    1
   17    16    18    1
   18    16    19    1
@<TRIPOS>SUBSTRUCTURE
       1 MOL1            1 RESIDUE      1      MOL     
@<SCITEGIC>MOL_PROPERTY
VConf Rank
SciTegic.value.IntegerValue
628

@<SCITEGIC>MOL_PROPERTY
Conf_Id
SciTegic.value.IntegerValue
0

@<SCITEGIC>MOL_PROPERTY
Delta U+W
SciTegic.value.DoubleValue
0.000

@<SCITEGIC>MOL_PROPERTY
U+W
SciTegic.value.DoubleValue
-54.891

@<SCITEGIC>MOL_PROPERTY
Grad RMS
SciTegic.value.DoubleValue
0.000000

@<SCITEGIC>MOL_PROPERTY
U
SciTegic.value.DoubleValue
6.966

@<SCITEGIC>MOL_PROPERTY
W
SciTegic.value.DoubleValue
-61.857

@<SCITEGIC>MOL_PROPERTY
W(PB)
SciTegic.value.DoubleValue
-63.965

@<SCITEGIC>MOL_PROPERTY
W(SA)
SciTegic.value.DoubleValue
2.108

@<SCITEGIC>MOL_PROPERTY
Valence
SciTegic.value.DoubleValue
7.175

@<SCITEGIC>MOL_PROPERTY
Coulomb
SciTegic.value.DoubleValue
-1.360

@<SCITEGIC>MOL_PROPERTY
VdW
SciTegic.value.DoubleValue
1.151

@<SCITEGIC>MOL_PROPERTY
VdW6
SciTegic.value.DoubleValue
-5.641

@<SCITEGIC>MOL_PROPERTY
VdW12
SciTegic.value.DoubleValue
6.792

@<SCITEGIC>MOL_PROPERTY
Bond
SciTegic.value.DoubleValue
0.119

@<SCITEGIC>MOL_PROPERTY
Angle
SciTegic.value.DoubleValue
2.715

@<SCITEGIC>MOL_PROPERTY
Pdih
SciTegic.value.DoubleValue
4.340

@<SCITEGIC>MOL_PROPERTY
Idih
SciTegic.value.DoubleValue
0.000

@<SCITEGIC>MOL_PROPERTY
Tether
SciTegic.value.DoubleValue
0.000

@<TRIPOS>MOLECULE
guest-7_confgen4.mol2 : confsearch ligand conformer 629
          19          18           1
SMALL
USER_CHARGES
 
@<TRIPOS>ATOM
       1    C1      22.653152   20.927955   22.405481 C.2        1 MOL1         0.6115
       2    O1      23.681918   20.450880   21.969339 O.co2      1 MOL1        -0.6776
       3    O2      22.417491   22.119780   22.419609 O.co2      1 MOL1        -0.6776
       4    C2      21.590870   19.977287   22.945998 C.3        1 MOL1        -0.2013
       5    H1      21.058286   20.487268   23.757795 H          1 MOL1         0.0727
       6    H2      22.100330   19.111630   23.386263 H          1 MOL1         0.0727
       7    C3      20.589894   19.512447   21.859681 C.3        1 MOL1        -0.1910
       8    H3      20.097653   20.391078   21.420073 H          1 MOL1         0.0729
       9    H4      21.139810   19.015479   21.048407 H          1 MOL1         0.0729
      10    C4      19.525707   18.551529   22.432192 C.3        1 MOL1        -0.1909
      11    H5      18.978670   19.050732   23.243820 H          1 MOL1         0.0729
      12    H6      20.020964   17.674898   22.871999 H          1 MOL1         0.0729
      13    C5      18.529877   18.090163   21.347831 C.3        1 MOL1        -0.1884
      14    H7      18.030969   18.964250   20.906745 H          1 MOL1         0.0729
      15    H8      19.073136   17.588481   20.535010 H          1 MOL1         0.0729
      16    C6      17.468726   17.130927   21.922965 C.3        1 MOL1        -0.2899
      17    H9      16.769247   16.812944   21.138922 H          1 MOL1         0.0741
      18    H10     17.938452   16.231897   22.343115 H          1 MOL1         0.0741
      19    H11     16.888504   17.617977   22.717666 H          1 MOL1         0.0741
@<TRIPOS>BOND
    1     1     2    1
    2     1     3    2
    3     1     4    1
    4     4     5    1
    5     4     6    1
    6     4     7    1
    7     7     8    1
    8     7     9    1
    9     7    10    1
   10    10    11    1
   11    10    12    1
   12    10    13    1
   13    13    14    1
   14    13    15    1
   15    13    16    1
   16    16    17    1
   17    16    18    1
   18    16    19    1
@<TRIPOS>SUBSTRUCTURE
       1 MOL1            1 RESIDUE      1      MOL     
@<SCITEGIC>MOL_PROPERTY
VConf Rank
SciTegic.value.IntegerValue
629

@<SCITEGIC>MOL_PROPERTY
Conf_Id
SciTegic.value.IntegerValue
18

@<SCITEGIC>MOL_PROPERTY
Delta U+W
SciTegic.value.DoubleValue
-1.199

@<SCITEGIC>MOL_PROPERTY
U+W
SciTegic.value.DoubleValue
-56.090

@<SCITEGIC>MOL_PROPERTY
Grad RMS
SciTegic.value.DoubleValue
0.000000

@<SCITEGIC>MOL_PROPERTY
U
SciTegic.value.DoubleValue
5.975

@<SCITEGIC>MOL_PROPERTY
W
SciTegic.value.DoubleValue
-62.066

@<SCITEGIC>MOL_PROPERTY
W(PB)
SciTegic.value.DoubleValue
-64.219

@<SCITEGIC>MOL_PROPERTY
W(SA)
SciTegic.value.DoubleValue
2.153

@<SCITEGIC>MOL_PROPERTY
Valence
SciTegic.value.DoubleValue
6.673

@<SCITEGIC>MOL_PROPERTY
Coulomb
SciTegic.value.DoubleValue
-1.307

@<SCITEGIC>MOL_PROPERTY
VdW
SciTegic.value.DoubleValue
0.610

@<SCITEGIC>MOL_PROPERTY
VdW6
SciTegic.value.DoubleValue
-5.351

@<SCITEGIC>MOL_PROPERTY
VdW12
SciTegic.value.DoubleValue
5.961

@<SCITEGIC>MOL_PROPERTY
Bond
SciTegic.value.DoubleValue
0.086

@<SCITEGIC>MOL_PROPERTY
Angle
SciTegic.value.DoubleValue
2.253

@<SCITEGIC>MOL_PROPERTY
Pdih
SciTegic.value.DoubleValue
4.333

@<SCITEGIC>MOL_PROPERTY
Idih
SciTegic.value.DoubleValue
0.001

@<SCITEGIC>MOL_PROPERTY
Tether
SciTegic.value.DoubleValue
0.000

@<TRIPOS>MOLECULE
guest-7_confgen4.mol2 : confsearch ligand conformer 630
          19          18           1
SMALL
USER_CHARGES
 
@<TRIPOS>ATOM
       1    C1      18.719527   20.939070   24.341075 C.2        1 MOL1         0.6115
       2    O1      18.128827   20.574578   25.338325 O.co2      1 MOL1        -0.6776
       3    O2      19.175330   22.056529   24.200396 O.co2      1 MOL1        -0.6776
       4    C2      18.918163   19.932525   23.213346 C.3        1 MOL1        -0.2013
       5    H1      18.903606   20.484972   22.267072 H          1 MOL1         0.0727
       6    H2      18.056942   19.253721   23.207441 H          1 MOL1         0.0727
       7    C3      20.234574   19.124884   23.354624 C.3        1 MOL1        -0.1910
       8    H3      21.092019   19.810810   23.314591 H          1 MOL1         0.0729
       9    H4      20.256782   18.658432   24.349285 H          1 MOL1         0.0729
      10    C4      20.398933   18.019246   22.285004 C.3        1 MOL1        -0.1909
      11    H5      19.544452   17.330382   22.333314 H          1 MOL1         0.0729
      12    H6      21.290475   17.426168   22.530822 H          1 MOL1         0.0729
      13    C5      20.543042   18.570455   20.848720 C.3        1 MOL1        -0.1884
      14    H7      19.629570   19.103556   20.554217 H          1 MOL1         0.0729
      15    H8      21.365539   19.298048   20.811658 H          1 MOL1         0.0729
      16    C6      20.812942   17.440853   19.834608 C.3        1 MOL1        -0.2899
      17    H9      20.909860   17.847478   18.819545 H          1 MOL1         0.0741
      18    H10     21.742408   16.908918   20.076527 H          1 MOL1         0.0741
      19    H11     19.991659   16.712233   19.830986 H          1 MOL1         0.0741
@<TRIPOS>BOND
    1     1     2    1
    2     1     3    2
    3     1     4    1
    4     4     5    1
    5     4     6    1
    6     4     7    1
    7     7     8    1
    8     7     9    1
    9     7    10    1
   10    10    11    1
   11    10    12    1
   12    10    13    1
   13    13    14    1
   14    13    15    1
   15    13    16    1
   16    16    17    1
   17    16    18    1
   18    16    19    1
@<TRIPOS>SUBSTRUCTURE
       1 MOL1            1 RESIDUE      1      MOL     
@<SCITEGIC>MOL_PROPERTY
VConf Rank
SciTegic.value.IntegerValue
630

@<SCITEGIC>MOL_PROPERTY
Conf_Id
SciTegic.value.IntegerValue
34

@<SCITEGIC>MOL_PROPERTY
Delta U+W
SciTegic.value.DoubleValue
-0.563

@<SCITEGIC>MOL_PROPERTY
U+W
SciTegic.value.DoubleValue
-55.455

@<SCITEGIC>MOL_PROPERTY
Grad RMS
SciTegic.value.DoubleValue
0.000000

@<SCITEGIC>MOL_PROPERTY
U
SciTegic.value.DoubleValue
6.914

@<SCITEGIC>MOL_PROPERTY
W
SciTegic.value.DoubleValue
-62.369

@<SCITEGIC>MOL_PROPERTY
W(PB)
SciTegic.value.DoubleValue
-64.446

@<SCITEGIC>MOL_PROPERTY
W(SA)
SciTegic.value.DoubleValue
2.077

@<SCITEGIC>MOL_PROPERTY
Valence
SciTegic.value.DoubleValue
7.196

@<SCITEGIC>MOL_PROPERTY
Coulomb
SciTegic.value.DoubleValue
-1.020

@<SCITEGIC>MOL_PROPERTY
VdW
SciTegic.value.DoubleValue
0.738

@<SCITEGIC>MOL_PROPERTY
VdW6
SciTegic.value.DoubleValue
-6.010

@<SCITEGIC>MOL_PROPERTY
VdW12
SciTegic.value.DoubleValue
6.748

@<SCITEGIC>MOL_PROPERTY
Bond
SciTegic.value.DoubleValue
0.126

@<SCITEGIC>MOL_PROPERTY
Angle
SciTegic.value.DoubleValue
2.499

@<SCITEGIC>MOL_PROPERTY
Pdih
SciTegic.value.DoubleValue
4.570

@<SCITEGIC>MOL_PROPERTY
Idih
SciTegic.value.DoubleValue
0.001

@<SCITEGIC>MOL_PROPERTY
Tether
SciTegic.value.DoubleValue
0.000

@<TRIPOS>MOLECULE
guest-7_confgen4.mol2 : confsearch ligand conformer 631
          19          18           1
SMALL
USER_CHARGES
 
@<TRIPOS>ATOM
       1    C1      22.812701   18.279014   23.547738 C.2        1 MOL1         0.6115
       2    O1      23.850430   18.826013   23.231192 O.co2      1 MOL1        -0.6776
       3    O2      22.764934   17.231994   24.162334 O.co2      1 MOL1        -0.6776
       4    C2      21.498859   18.931027   23.131738 C.3        1 MOL1        -0.2013
       5    H1      21.646243   20.017625   23.122112 H          1 MOL1         0.0727
       6    H2      20.756868   18.710101   23.907293 H          1 MOL1         0.0727
       7    C3      21.001040   18.446666   21.745104 C.3        1 MOL1        -0.1910
       8    H3      21.802990   18.599632   21.009646 H          1 MOL1         0.0729
       9    H4      20.814368   17.364416   21.779741 H          1 MOL1         0.0729
      10    C4      19.731120   19.180934   21.253498 C.3        1 MOL1        -0.1909
      11    H5      19.521350   18.862751   20.223076 H          1 MOL1         0.0729
      12    H6      19.923703   20.261760   21.211845 H          1 MOL1         0.0729
      13    C5      18.486182   18.906966   22.126758 C.3        1 MOL1        -0.1884
      14    H7      18.323233   17.823591   22.210514 H          1 MOL1         0.0729
      15    H8      18.646239   19.286962   23.144279 H          1 MOL1         0.0729
      16    C6      17.225383   19.570026   21.536841 C.3        1 MOL1        -0.2899
      17    H9      17.350505   20.658561   21.467255 H          1 MOL1         0.0741
      18    H10     17.012005   19.184255   20.531338 H          1 MOL1         0.0741
      19    H11     16.350893   19.369047   22.169269 H          1 MOL1         0.0741
@<TRIPOS>BOND
    1     1     2    1
    2     1     3    2
    3     1     4    1
    4     4     5    1
    5     4     6    1
    6     4     7    1
    7     7     8    1
    8     7     9    1
    9     7    10    1
   10    10    11    1
   11    10    12    1
   12    10    13    1
   13    13    14    1
   14    13    15    1
   15    13    16    1
   16    16    17    1
   17    16    18    1
   18    16    19    1
@<TRIPOS>SUBSTRUCTURE
       1 MOL1            1 RESIDUE      1      MOL     
@<SCITEGIC>MOL_PROPERTY
VConf Rank
SciTegic.value.IntegerValue
631

@<SCITEGIC>MOL_PROPERTY
Conf_Id
SciTegic.value.IntegerValue
33

@<SCITEGIC>MOL_PROPERTY
Delta U+W
SciTegic.value.DoubleValue
-0.526

@<SCITEGIC>MOL_PROPERTY
U+W
SciTegic.value.DoubleValue
-55.418

@<SCITEGIC>MOL_PROPERTY
Grad RMS
SciTegic.value.DoubleValue
0.000000

@<SCITEGIC>MOL_PROPERTY
U
SciTegic.value.DoubleValue
6.914

@<SCITEGIC>MOL_PROPERTY
W
SciTegic.value.DoubleValue
-62.332

@<SCITEGIC>MOL_PROPERTY
W(PB)
SciTegic.value.DoubleValue
-64.421

@<SCITEGIC>MOL_PROPERTY
W(SA)
SciTegic.value.DoubleValue
2.090

@<SCITEGIC>MOL_PROPERTY
Valence
SciTegic.value.DoubleValue
7.196

@<SCITEGIC>MOL_PROPERTY
Coulomb
SciTegic.value.DoubleValue
-1.020

@<SCITEGIC>MOL_PROPERTY
VdW
SciTegic.value.DoubleValue
0.738

@<SCITEGIC>MOL_PROPERTY
VdW6
SciTegic.value.DoubleValue
-6.010

@<SCITEGIC>MOL_PROPERTY
VdW12
SciTegic.value.DoubleValue
6.748

@<SCITEGIC>MOL_PROPERTY
Bond
SciTegic.value.DoubleValue
0.126

@<SCITEGIC>MOL_PROPERTY
Angle
SciTegic.value.DoubleValue
2.499

@<SCITEGIC>MOL_PROPERTY
Pdih
SciTegic.value.DoubleValue
4.570

@<SCITEGIC>MOL_PROPERTY
Idih
SciTegic.value.DoubleValue
0.001

@<SCITEGIC>MOL_PROPERTY
Tether
SciTegic.value.DoubleValue
0.000

@<TRIPOS>MOLECULE
guest-7_confgen4.mol2 : confsearch ligand conformer 632
          19          18           1
SMALL
USER_CHARGES
 
@<TRIPOS>ATOM
       1    C1      21.477378   21.702386   22.387898 C.2        1 MOL1         0.6115
       2    O1      22.664030   21.489242   22.538379 O.co2      1 MOL1        -0.6776
       3    O2      21.037879   22.630533   21.738570 O.co2      1 MOL1        -0.6776
       4    C2      20.485247   20.742359   23.034834 C.3        1 MOL1        -0.2013
       5    H1      19.590416   21.312776   23.311564 H          1 MOL1         0.0727
       6    H2      20.930511   20.366718   23.964006 H          1 MOL1         0.0727
       7    C3      20.101486   19.560064   22.111065 C.3        1 MOL1        -0.1910
       8    H3      19.666091   19.952409   21.181692 H          1 MOL1         0.0729
       9    H4      21.013698   19.015984   21.832734 H          1 MOL1         0.0729
      10    C4      19.098032   18.601744   22.793241 C.3        1 MOL1        -0.1909
      11    H5      18.224449   19.177828   23.127865 H          1 MOL1         0.0729
      12    H6      19.552002   18.171600   23.696510 H          1 MOL1         0.0729
      13    C5      18.610089   17.463401   21.867674 C.3        1 MOL1        -0.1884
      14    H7      17.818345   16.903713   22.384525 H          1 MOL1         0.0729
      15    H8      18.150265   17.889832   20.965429 H          1 MOL1         0.0729
      16    C6      19.730879   16.480920   21.464671 C.3        1 MOL1        -0.2899
      17    H9      20.225266   16.063615   22.351573 H          1 MOL1         0.0741
      18    H10     19.318512   15.646015   20.883440 H          1 MOL1         0.0741
      19    H11     20.491416   16.972675   20.845393 H          1 MOL1         0.0741
@<TRIPOS>BOND
    1     1     2    1
    2     1     3    2
    3     1     4    1
    4     4     5    1
    5     4     6    1
    6     4     7    1
    7     7     8    1
    8     7     9    1
    9     7    10    1
   10    10    11    1
   11    10    12    1
   12    10    13    1
   13    13    14    1
   14    13    15    1
   15    13    16    1
   16    16    17    1
   17    16    18    1
   18    16    19    1
@<TRIPOS>SUBSTRUCTURE
       1 MOL1            1 RESIDUE      1      MOL     
@<SCITEGIC>MOL_PROPERTY
VConf Rank
SciTegic.value.IntegerValue
632

@<SCITEGIC>MOL_PROPERTY
Conf_Id
SciTegic.value.IntegerValue
42

@<SCITEGIC>MOL_PROPERTY
Delta U+W
SciTegic.value.DoubleValue
-0.344

@<SCITEGIC>MOL_PROPERTY
U+W
SciTegic.value.DoubleValue
-55.236

@<SCITEGIC>MOL_PROPERTY
Grad RMS
SciTegic.value.DoubleValue
0.000000

@<SCITEGIC>MOL_PROPERTY
U
SciTegic.value.DoubleValue
7.244

@<SCITEGIC>MOL_PROPERTY
W
SciTegic.value.DoubleValue
-62.479

@<SCITEGIC>MOL_PROPERTY
W(PB)
SciTegic.value.DoubleValue
-64.610

@<SCITEGIC>MOL_PROPERTY
W(SA)
SciTegic.value.DoubleValue
2.130

@<SCITEGIC>MOL_PROPERTY
Valence
SciTegic.value.DoubleValue
7.174

@<SCITEGIC>MOL_PROPERTY
Coulomb
SciTegic.value.DoubleValue
-0.669

@<SCITEGIC>MOL_PROPERTY
VdW
SciTegic.value.DoubleValue
0.739

@<SCITEGIC>MOL_PROPERTY
VdW6
SciTegic.value.DoubleValue
-5.969

@<SCITEGIC>MOL_PROPERTY
VdW12
SciTegic.value.DoubleValue
6.708

@<SCITEGIC>MOL_PROPERTY
Bond
SciTegic.value.DoubleValue
0.116

@<SCITEGIC>MOL_PROPERTY
Angle
SciTegic.value.DoubleValue
2.481

@<SCITEGIC>MOL_PROPERTY
Pdih
SciTegic.value.DoubleValue
4.576

@<SCITEGIC>MOL_PROPERTY
Idih
SciTegic.value.DoubleValue
0.000

@<SCITEGIC>MOL_PROPERTY
Tether
SciTegic.value.DoubleValue
0.000

@<TRIPOS>MOLECULE
guest-7_confgen4.mol2 : confsearch ligand conformer 633
          19          18           1
SMALL
USER_CHARGES
 
@<TRIPOS>ATOM
       1    C1      21.728369   21.199296   20.766128 C.2        1 MOL1         0.6115
       2    O1      21.173134   22.272018   20.897280 O.co2      1 MOL1        -0.6776
       3    O2      22.339910   20.876278   19.767167 O.co2      1 MOL1        -0.6776
       4    C2      21.637414   20.196280   21.910762 C.3        1 MOL1        -0.2013
       5    H1      21.594465   20.756535   22.852566 H          1 MOL1         0.0727
       6    H2      22.564112   19.609997   21.924238 H          1 MOL1         0.0727
       7    C3      20.411815   19.256949   21.792399 C.3        1 MOL1        -0.1910
       8    H3      19.498827   19.866166   21.761931 H          1 MOL1         0.0729
       9    H4      20.464334   18.710322   20.840726 H          1 MOL1         0.0729
      10    C4      20.342703   18.253813   22.966963 C.3        1 MOL1        -0.1909
      11    H5      20.240669   18.799708   23.914905 H          1 MOL1         0.0729
      12    H6      21.292512   17.704685   23.024517 H          1 MOL1         0.0729
      13    C5      19.191417   17.230455   22.833278 C.3        1 MOL1        -0.1884
      14    H7      19.293211   16.678407   21.888711 H          1 MOL1         0.0729
      15    H8      19.284318   16.488186   23.638045 H          1 MOL1         0.0729
      16    C6      17.790052   17.873948   22.910369 C.3        1 MOL1        -0.2899
      17    H9      17.607500   18.540191   22.057995 H          1 MOL1         0.0741
      18    H10     17.011490   17.100211   22.899670 H          1 MOL1         0.0741
      19    H11     17.675264   18.456107   23.833988 H          1 MOL1         0.0741
@<TRIPOS>BOND
    1     1     2    1
    2     1     3    2
    3     1     4    1
    4     4     5    1
    5     4     6    1
    6     4     7    1
    7     7     8    1
    8     7     9    1
    9     7    10    1
   10    10    11    1
   11    10    12    1
   12    10    13    1
   13    13    14    1
   14    13    15    1
   15    13    16    1
   16    16    17    1
   17    16    18    1
   18    16    19    1
@<TRIPOS>SUBSTRUCTURE
       1 MOL1            1 RESIDUE      1      MOL     
@<SCITEGIC>MOL_PROPERTY
VConf Rank
SciTegic.value.IntegerValue
633

@<SCITEGIC>MOL_PROPERTY
Conf_Id
SciTegic.value.IntegerValue
41

@<SCITEGIC>MOL_PROPERTY
Delta U+W
SciTegic.value.DoubleValue
-0.361

@<SCITEGIC>MOL_PROPERTY
U+W
SciTegic.value.DoubleValue
-55.252

@<SCITEGIC>MOL_PROPERTY
Grad RMS
SciTegic.value.DoubleValue
0.000000

@<SCITEGIC>MOL_PROPERTY
U
SciTegic.value.DoubleValue
7.244

@<SCITEGIC>MOL_PROPERTY
W
SciTegic.value.DoubleValue
-62.496

@<SCITEGIC>MOL_PROPERTY
W(PB)
SciTegic.value.DoubleValue
-64.596

@<SCITEGIC>MOL_PROPERTY
W(SA)
SciTegic.value.DoubleValue
2.099

@<SCITEGIC>MOL_PROPERTY
Valence
SciTegic.value.DoubleValue
7.174

@<SCITEGIC>MOL_PROPERTY
Coulomb
SciTegic.value.DoubleValue
-0.669

@<SCITEGIC>MOL_PROPERTY
VdW
SciTegic.value.DoubleValue
0.739

@<SCITEGIC>MOL_PROPERTY
VdW6
SciTegic.value.DoubleValue
-5.969

@<SCITEGIC>MOL_PROPERTY
VdW12
SciTegic.value.DoubleValue
6.708

@<SCITEGIC>MOL_PROPERTY
Bond
SciTegic.value.DoubleValue
0.116

@<SCITEGIC>MOL_PROPERTY
Angle
SciTegic.value.DoubleValue
2.481

@<SCITEGIC>MOL_PROPERTY
Pdih
SciTegic.value.DoubleValue
4.576

@<SCITEGIC>MOL_PROPERTY
Idih
SciTegic.value.DoubleValue
0.000

@<SCITEGIC>MOL_PROPERTY
Tether
SciTegic.value.DoubleValue
0.000

@<TRIPOS>MOLECULE
guest-7_confgen4.mol2 : confsearch ligand conformer 634
          19          18           1
SMALL
USER_CHARGES
 
@<TRIPOS>ATOM
       1    C1      21.145139   20.398975   20.230246 C.2        1 MOL1         0.6115
       2    O1      22.090989   19.659929   20.041220 O.co2      1 MOL1        -0.6776
       3    O2      20.411480   20.791169   19.344464 O.co2      1 MOL1        -0.6776
       4    C2      20.875249   20.879705   21.653412 C.3        1 MOL1        -0.2013
       5    H1      20.699557   21.960929   21.606525 H          1 MOL1         0.0727
       6    H2      21.782636   20.731315   22.251423 H          1 MOL1         0.0727
       7    C3      19.666077   20.187969   22.334950 C.3        1 MOL1        -0.1910
       8    H3      19.461608   20.688633   23.291016 H          1 MOL1         0.0729
       9    H4      18.771523   20.320708   21.710623 H          1 MOL1         0.0729
      10    C4      19.908131   18.683341   22.589537 C.3        1 MOL1        -0.1909
      11    H5      20.810541   18.555290   23.202960 H          1 MOL1         0.0729
      12    H6      20.096705   18.171969   21.635408 H          1 MOL1         0.0729
      13    C5      18.705976   18.022941   23.296149 C.3        1 MOL1        -0.1884
      14    H7      18.515213   18.527729   24.253347 H          1 MOL1         0.0729
      15    H8      17.802316   18.147461   22.683477 H          1 MOL1         0.0729
      16    C6      18.950580   16.521842   23.548825 C.3        1 MOL1        -0.2899
      17    H9      19.831664   16.369325   24.185878 H          1 MOL1         0.0741
      18    H10     18.086330   16.068189   24.051177 H          1 MOL1         0.0741
      19    H11     19.113505   15.986190   22.604380 H          1 MOL1         0.0741
@<TRIPOS>BOND
    1     1     2    1
    2     1     3    2
    3     1     4    1
    4     4     5    1
    5     4     6    1
    6     4     7    1
    7     7     8    1
    8     7     9    1
    9     7    10    1
   10    10    11    1
   11    10    12    1
   12    10    13    1
   13    13    14    1
   14    13    15    1
   15    13    16    1
   16    16    17    1
   17    16    18    1
   18    16    19    1
@<TRIPOS>SUBSTRUCTURE
       1 MOL1            1 RESIDUE      1      MOL     
@<SCITEGIC>MOL_PROPERTY
VConf Rank
SciTegic.value.IntegerValue
634

@<SCITEGIC>MOL_PROPERTY
Conf_Id
SciTegic.value.IntegerValue
36

@<SCITEGIC>MOL_PROPERTY
Delta U+W
SciTegic.value.DoubleValue
-0.079

@<SCITEGIC>MOL_PROPERTY
U+W
SciTegic.value.DoubleValue
-54.971

@<SCITEGIC>MOL_PROPERTY
Grad RMS
SciTegic.value.DoubleValue
0.000000

@<SCITEGIC>MOL_PROPERTY
U
SciTegic.value.DoubleValue
8.266

@<SCITEGIC>MOL_PROPERTY
W
SciTegic.value.DoubleValue
-63.237

@<SCITEGIC>MOL_PROPERTY
W(PB)
SciTegic.value.DoubleValue
-65.340

@<SCITEGIC>MOL_PROPERTY
W(SA)
SciTegic.value.DoubleValue
2.103

@<SCITEGIC>MOL_PROPERTY
Valence
SciTegic.value.DoubleValue
6.935

@<SCITEGIC>MOL_PROPERTY
Coulomb
SciTegic.value.DoubleValue
0.874

@<SCITEGIC>MOL_PROPERTY
VdW
SciTegic.value.DoubleValue
0.457

@<SCITEGIC>MOL_PROPERTY
VdW6
SciTegic.value.DoubleValue
-6.205

@<SCITEGIC>MOL_PROPERTY
VdW12
SciTegic.value.DoubleValue
6.662

@<SCITEGIC>MOL_PROPERTY
Bond
SciTegic.value.DoubleValue
0.107

@<SCITEGIC>MOL_PROPERTY
Angle
SciTegic.value.DoubleValue
2.420

@<SCITEGIC>MOL_PROPERTY
Pdih
SciTegic.value.DoubleValue
4.407

@<SCITEGIC>MOL_PROPERTY
Idih
SciTegic.value.DoubleValue
0.001

@<SCITEGIC>MOL_PROPERTY
Tether
SciTegic.value.DoubleValue
0.000

@<TRIPOS>MOLECULE
guest-7_confgen4.mol2 : confsearch ligand conformer 635
          19          18           1
SMALL
USER_CHARGES
 
@<TRIPOS>ATOM
       1    C1      20.908587   16.888350   20.512909 C.2        1 MOL1         0.6115
       2    O1      19.899040   16.819140   19.840170 O.co2      1 MOL1        -0.6776
       3    O2      21.440773   15.924375   21.026923 O.co2      1 MOL1        -0.6776
       4    C2      21.557167   18.256297   20.706337 C.3        1 MOL1        -0.2013
       5    H1      21.179269   18.935829   19.932763 H          1 MOL1         0.0727
       6    H2      22.632261   18.137797   20.526784 H          1 MOL1         0.0727
       7    C3      21.331834   18.868744   22.113187 C.3        1 MOL1        -0.1910
       8    H3      21.688910   18.164942   22.877903 H          1 MOL1         0.0729
       9    H4      21.943043   19.776399   22.208683 H          1 MOL1         0.0729
      10    C4      19.851003   19.221795   22.377395 C.3        1 MOL1        -0.1909
      11    H5      19.234775   18.315283   22.300444 H          1 MOL1         0.0729
      12    H6      19.495081   19.915158   21.603059 H          1 MOL1         0.0729
      13    C5      19.655035   19.858118   23.769263 C.3        1 MOL1        -0.1884
      14    H7      20.008096   19.165598   24.545947 H          1 MOL1         0.0729
      15    H8      20.265908   20.767873   23.850558 H          1 MOL1         0.0729
      16    C6      18.176582   20.209212   24.029819 C.3        1 MOL1        -0.2899
      17    H9      17.546162   19.311413   23.985441 H          1 MOL1         0.0741
      18    H10     18.055244   20.659927   25.023408 H          1 MOL1         0.0741
      19    H11     17.805915   20.925565   23.284935 H          1 MOL1         0.0741
@<TRIPOS>BOND
    1     1     2    1
    2     1     3    2
    3     1     4    1
    4     4     5    1
    5     4     6    1
    6     4     7    1
    7     7     8    1
    8     7     9    1
    9     7    10    1
   10    10    11    1
   11    10    12    1
   12    10    13    1
   13    13    14    1
   14    13    15    1
   15    13    16    1
   16    16    17    1
   17    16    18    1
   18    16    19    1
@<TRIPOS>SUBSTRUCTURE
       1 MOL1            1 RESIDUE      1      MOL     
@<SCITEGIC>MOL_PROPERTY
VConf Rank
SciTegic.value.IntegerValue
635

@<SCITEGIC>MOL_PROPERTY
Conf_Id
SciTegic.value.IntegerValue
35

@<SCITEGIC>MOL_PROPERTY
Delta U+W
SciTegic.value.DoubleValue
-0.030

@<SCITEGIC>MOL_PROPERTY
U+W
SciTegic.value.DoubleValue
-54.921

@<SCITEGIC>MOL_PROPERTY
Grad RMS
SciTegic.value.DoubleValue
0.000000

@<SCITEGIC>MOL_PROPERTY
U
SciTegic.value.DoubleValue
8.267

@<SCITEGIC>MOL_PROPERTY
W
SciTegic.value.DoubleValue
-63.188

@<SCITEGIC>MOL_PROPERTY
W(PB)
SciTegic.value.DoubleValue
-65.294

@<SCITEGIC>MOL_PROPERTY
W(SA)
SciTegic.value.DoubleValue
2.106

@<SCITEGIC>MOL_PROPERTY
Valence
SciTegic.value.DoubleValue
6.935

@<SCITEGIC>MOL_PROPERTY
Coulomb
SciTegic.value.DoubleValue
0.875

@<SCITEGIC>MOL_PROPERTY
VdW
SciTegic.value.DoubleValue
0.457

@<SCITEGIC>MOL_PROPERTY
VdW6
SciTegic.value.DoubleValue
-6.205

@<SCITEGIC>MOL_PROPERTY
VdW12
SciTegic.value.DoubleValue
6.662

@<SCITEGIC>MOL_PROPERTY
Bond
SciTegic.value.DoubleValue
0.107

@<SCITEGIC>MOL_PROPERTY
Angle
SciTegic.value.DoubleValue
2.420

@<SCITEGIC>MOL_PROPERTY
Pdih
SciTegic.value.DoubleValue
4.407

@<SCITEGIC>MOL_PROPERTY
Idih
SciTegic.value.DoubleValue
0.001

@<SCITEGIC>MOL_PROPERTY
Tether
SciTegic.value.DoubleValue
0.000

@<TRIPOS>MOLECULE
guest-7_confgen4.mol2 : confsearch ligand conformer 636
          19          18           1
SMALL
USER_CHARGES
 
@<TRIPOS>ATOM
       1    C1      21.839068   20.612611   20.728924 C.2        1 MOL1         0.6115
       2    O1      21.244060   21.496252   20.144242 O.co2      1 MOL1        -0.6776
       3    O2      22.667903   19.897790   20.200995 O.co2      1 MOL1        -0.6776
       4    C2      21.543626   20.405395   22.211912 C.3        1 MOL1        -0.2013
       5    H1      21.543358   21.393689   22.686641 H          1 MOL1         0.0727
       6    H2      22.370023   19.839183   22.658488 H          1 MOL1         0.0727
       7    C3      20.194104   19.695377   22.495442 C.3        1 MOL1        -0.1910
       8    H3      20.001818   19.731602   23.575287 H          1 MOL1         0.0729
       9    H4      19.380945   20.251830   22.009169 H          1 MOL1         0.0729
      10    C4      20.184266   18.224593   22.014423 C.3        1 MOL1        -0.1909
      11    H5      20.973425   17.660862   22.530421 H          1 MOL1         0.0729
      12    H6      20.430665   18.193143   20.944225 H          1 MOL1         0.0729
      13    C5      18.823916   17.519528   22.222176 C.3        1 MOL1        -0.1884
      14    H7      18.032751   18.080075   21.705305 H          1 MOL1         0.0729
      15    H8      18.864200   16.529883   21.746570 H          1 MOL1         0.0729
      16    C6      18.447860   17.340566   23.708975 C.3        1 MOL1        -0.2899
      17    H9      18.280475   18.307480   24.199569 H          1 MOL1         0.0741
      18    H10     17.523273   16.756417   23.803019 H          1 MOL1         0.0741
      19    H11     19.239690   16.809777   24.253414 H          1 MOL1         0.0741
@<TRIPOS>BOND
    1     1     2    1
    2     1     3    2
    3     1     4    1
    4     4     5    1
    5     4     6    1
    6     4     7    1
    7     7     8    1
    8     7     9    1
    9     7    10    1
   10    10    11    1
   11    10    12    1
   12    10    13    1
   13    13    14    1
   14    13    15    1
   15    13    16    1
   16    16    17    1
   17    16    18    1
   18    16    19    1
@<TRIPOS>SUBSTRUCTURE
       1 MOL1            1 RESIDUE      1      MOL     
@<SCITEGIC>MOL_PROPERTY
VConf Rank
SciTegic.value.IntegerValue
636

@<SCITEGIC>MOL_PROPERTY
Conf_Id
SciTegic.value.IntegerValue
74

@<SCITEGIC>MOL_PROPERTY
Delta U+W
SciTegic.value.DoubleValue
0.797

@<SCITEGIC>MOL_PROPERTY
U+W
SciTegic.value.DoubleValue
-54.095

@<SCITEGIC>MOL_PROPERTY
Grad RMS
SciTegic.value.DoubleValue
0.000000

@<SCITEGIC>MOL_PROPERTY
U
SciTegic.value.DoubleValue
8.869

@<SCITEGIC>MOL_PROPERTY
W
SciTegic.value.DoubleValue
-62.964

@<SCITEGIC>MOL_PROPERTY
W(PB)
SciTegic.value.DoubleValue
-65.046

@<SCITEGIC>MOL_PROPERTY
W(SA)
SciTegic.value.DoubleValue
2.082

@<SCITEGIC>MOL_PROPERTY
Valence
SciTegic.value.DoubleValue
7.469

@<SCITEGIC>MOL_PROPERTY
Coulomb
SciTegic.value.DoubleValue
0.762

@<SCITEGIC>MOL_PROPERTY
VdW
SciTegic.value.DoubleValue
0.639

@<SCITEGIC>MOL_PROPERTY
VdW6
SciTegic.value.DoubleValue
-6.782

@<SCITEGIC>MOL_PROPERTY
VdW12
SciTegic.value.DoubleValue
7.421

@<SCITEGIC>MOL_PROPERTY
Bond
SciTegic.value.DoubleValue
0.141

@<SCITEGIC>MOL_PROPERTY
Angle
SciTegic.value.DoubleValue
2.667

@<SCITEGIC>MOL_PROPERTY
Pdih
SciTegic.value.DoubleValue
4.660

@<SCITEGIC>MOL_PROPERTY
Idih
SciTegic.value.DoubleValue
0.001

@<SCITEGIC>MOL_PROPERTY
Tether
SciTegic.value.DoubleValue
0.000

@<TRIPOS>MOLECULE
guest-7_confgen4.mol2 : confsearch ligand conformer 637
          19          18           1
SMALL
USER_CHARGES
 
@<TRIPOS>ATOM
       1    C1      17.491211   20.262967   23.089396 C.2        1 MOL1         0.6115
       2    O1      16.454386   20.388011   22.468284 O.co2      1 MOL1        -0.6776
       3    O2      17.560927   20.327392   24.300722 O.co2      1 MOL1        -0.6776
       4    C2      18.771097   19.991737   22.306743 C.3        1 MOL1        -0.2013
       5    H1      19.600299   20.457790   22.851148 H          1 MOL1         0.0727
       6    H2      18.691853   20.497896   21.337270 H          1 MOL1         0.0727
       7    C3      19.039354   18.478529   22.099790 C.3        1 MOL1        -0.1910
       8    H3      19.154839   17.989134   23.075974 H          1 MOL1         0.0729
       9    H4      18.153538   18.023909   21.635193 H          1 MOL1         0.0729
      10    C4      20.270360   18.184357   21.206026 C.3        1 MOL1        -0.1909
      11    H5      20.088438   18.595152   20.203556 H          1 MOL1         0.0729
      12    H6      20.360089   17.097196   21.076371 H          1 MOL1         0.0729
      13    C5      21.616656   18.737929   21.734180 C.3        1 MOL1        -0.1884
      14    H7      22.406270   18.481852   21.014447 H          1 MOL1         0.0729
      15    H8      21.586564   19.834819   21.773364 H          1 MOL1         0.0729
      16    C6      22.006903   18.178031   23.118960 C.3        1 MOL1        -0.2899
      17    H9      22.021036   17.080426   23.109227 H          1 MOL1         0.0741
      18    H10     23.007008   18.527143   23.406580 H          1 MOL1         0.0741
      19    H11     21.303957   18.507297   23.894665 H          1 MOL1         0.0741
@<TRIPOS>BOND
    1     1     2    1
    2     1     3    2
    3     1     4    1
    4     4     5    1
    5     4     6    1
    6     4     7    1
    7     7     8    1
    8     7     9    1
    9     7    10    1
   10    10    11    1
   11    10    12    1
   12    10    13    1
   13    13    14    1
   14    13    15    1
   15    13    16    1
   16    16    17    1
   17    16    18    1
   18    16    19    1
@<TRIPOS>SUBSTRUCTURE
       1 MOL1            1 RESIDUE      1      MOL     
@<SCITEGIC>MOL_PROPERTY
VConf Rank
SciTegic.value.IntegerValue
637

@<SCITEGIC>MOL_PROPERTY
Conf_Id
SciTegic.value.IntegerValue
67

@<SCITEGIC>MOL_PROPERTY
Delta U+W
SciTegic.value.DoubleValue
0.308

@<SCITEGIC>MOL_PROPERTY
U+W
SciTegic.value.DoubleValue
-54.583

@<SCITEGIC>MOL_PROPERTY
Grad RMS
SciTegic.value.DoubleValue
0.000000

@<SCITEGIC>MOL_PROPERTY
U
SciTegic.value.DoubleValue
8.219

@<SCITEGIC>MOL_PROPERTY
W
SciTegic.value.DoubleValue
-62.802

@<SCITEGIC>MOL_PROPERTY
W(PB)
SciTegic.value.DoubleValue
-64.859

@<SCITEGIC>MOL_PROPERTY
W(SA)
SciTegic.value.DoubleValue
2.057

@<SCITEGIC>MOL_PROPERTY
Valence
SciTegic.value.DoubleValue
7.609

@<SCITEGIC>MOL_PROPERTY
Coulomb
SciTegic.value.DoubleValue
-0.089

@<SCITEGIC>MOL_PROPERTY
VdW
SciTegic.value.DoubleValue
0.699

@<SCITEGIC>MOL_PROPERTY
VdW6
SciTegic.value.DoubleValue
-6.924

@<SCITEGIC>MOL_PROPERTY
VdW12
SciTegic.value.DoubleValue
7.623

@<SCITEGIC>MOL_PROPERTY
Bond
SciTegic.value.DoubleValue
0.163

@<SCITEGIC>MOL_PROPERTY
Angle
SciTegic.value.DoubleValue
2.870

@<SCITEGIC>MOL_PROPERTY
Pdih
SciTegic.value.DoubleValue
4.576

@<SCITEGIC>MOL_PROPERTY
Idih
SciTegic.value.DoubleValue
0.001

@<SCITEGIC>MOL_PROPERTY
Tether
SciTegic.value.DoubleValue
0.000

@<TRIPOS>MOLECULE
guest-7_confgen4.mol2 : confsearch ligand conformer 638
          19          18           1
SMALL
USER_CHARGES
 
@<TRIPOS>ATOM
       1    C1      17.252675   18.946038   21.235088 C.2        1 MOL1         0.6115
       2    O1      16.317063   19.663792   21.528145 O.co2      1 MOL1        -0.6776
       3    O2      17.125227   17.849180   20.728153 O.co2      1 MOL1        -0.6776
       4    C2      18.662395   19.441102   21.538103 C.3        1 MOL1        -0.2013
       5    H1      18.669470   20.532979   21.437559 H          1 MOL1         0.0727
       6    H2      19.330256   19.038364   20.768088 H          1 MOL1         0.0727
       7    C3      19.152362   19.030836   22.950973 C.3        1 MOL1        -0.1910
       8    H3      18.415232   19.369903   23.691832 H          1 MOL1         0.0729
       9    H4      19.177563   17.935704   23.027319 H          1 MOL1         0.0729
      10    C4      20.534370   19.624030   23.323665 C.3        1 MOL1        -0.1909
      11    H5      20.782535   19.321601   24.350179 H          1 MOL1         0.0729
      12    H6      20.458311   20.719806   23.340539 H          1 MOL1         0.0729
      13    C5      21.699946   19.220180   22.387590 C.3        1 MOL1        -0.1884
      14    H7      21.522976   19.603938   21.374170 H          1 MOL1         0.0729
      15    H8      22.617788   19.709724   22.741135 H          1 MOL1         0.0729
      16    C6      21.940051   17.696132   22.332591 C.3        1 MOL1        -0.2899
      17    H9      21.089017   17.174657   21.876439 H          1 MOL1         0.0741
      18    H10     22.830148   17.468872   21.731845 H          1 MOL1         0.0741
      19    H11     22.096878   17.286514   23.338895 H          1 MOL1         0.0741
@<TRIPOS>BOND
    1     1     2    1
    2     1     3    2
    3     1     4    1
    4     4     5    1
    5     4     6    1
    6     4     7    1
    7     7     8    1
    8     7     9    1
    9     7    10    1
   10    10    11    1
   11    10    12    1
   12    10    13    1
   13    13    14    1
   14    13    15    1
   15    13    16    1
   16    16    17    1
   17    16    18    1
   18    16    19    1
@<TRIPOS>SUBSTRUCTURE
       1 MOL1            1 RESIDUE      1      MOL     
@<SCITEGIC>MOL_PROPERTY
VConf Rank
SciTegic.value.IntegerValue
638

@<SCITEGIC>MOL_PROPERTY
Conf_Id
SciTegic.value.IntegerValue
21

@<SCITEGIC>MOL_PROPERTY
Delta U+W
SciTegic.value.DoubleValue
0.319

@<SCITEGIC>MOL_PROPERTY
U+W
SciTegic.value.DoubleValue
-54.572

@<SCITEGIC>MOL_PROPERTY
Grad RMS
SciTegic.value.DoubleValue
0.000000

@<SCITEGIC>MOL_PROPERTY
U
SciTegic.value.DoubleValue
8.220

@<SCITEGIC>MOL_PROPERTY
W
SciTegic.value.DoubleValue
-62.792

@<SCITEGIC>MOL_PROPERTY
W(PB)
SciTegic.value.DoubleValue
-64.830

@<SCITEGIC>MOL_PROPERTY
W(SA)
SciTegic.value.DoubleValue
2.038

@<SCITEGIC>MOL_PROPERTY
Valence
SciTegic.value.DoubleValue
7.609

@<SCITEGIC>MOL_PROPERTY
Coulomb
SciTegic.value.DoubleValue
-0.088

@<SCITEGIC>MOL_PROPERTY
VdW
SciTegic.value.DoubleValue
0.699

@<SCITEGIC>MOL_PROPERTY
VdW6
SciTegic.value.DoubleValue
-6.924

@<SCITEGIC>MOL_PROPERTY
VdW12
SciTegic.value.DoubleValue
7.623

@<SCITEGIC>MOL_PROPERTY
Bond
SciTegic.value.DoubleValue
0.163

@<SCITEGIC>MOL_PROPERTY
Angle
SciTegic.value.DoubleValue
2.870

@<SCITEGIC>MOL_PROPERTY
Pdih
SciTegic.value.DoubleValue
4.576

@<SCITEGIC>MOL_PROPERTY
Idih
SciTegic.value.DoubleValue
0.000

@<SCITEGIC>MOL_PROPERTY
Tether
SciTegic.value.DoubleValue
0.000

@<TRIPOS>MOLECULE
guest-7_confgen4.mol2 : confsearch ligand conformer 639
          19          18           1
SMALL
USER_CHARGES
 
@<TRIPOS>ATOM
       1    C1      21.575122   16.664677   21.450873 C.2        1 MOL1         0.6115
       2    O1      21.502726   15.991813   20.441690 O.co2      1 MOL1        -0.6776
       3    O2      22.582728   16.762378   22.122764 O.co2      1 MOL1        -0.6776
       4    C2      20.339172   17.443217   21.887202 C.3        1 MOL1        -0.2013
       5    H1      20.347273   17.500973   22.980099 H          1 MOL1         0.0727
       6    H2      19.454801   16.859530   21.605099 H          1 MOL1         0.0727
       7    C3      20.265850   18.857943   21.254140 C.3        1 MOL1        -0.1910
       8    H3      21.178067   19.424427   21.487031 H          1 MOL1         0.0729
       9    H4      20.250569   18.738652   20.161926 H          1 MOL1         0.0729
      10    C4      19.011510   19.661147   21.682438 C.3        1 MOL1        -0.1909
      11    H5      18.177986   18.979048   21.898949 H          1 MOL1         0.0729
      12    H6      18.686048   20.267887   20.826334 H          1 MOL1         0.0729
      13    C5      19.235820   20.622702   22.875337 C.3        1 MOL1        -0.1884
      14    H7      20.009948   21.357779   22.615252 H          1 MOL1         0.0729
      15    H8      18.312253   21.194640   23.039976 H          1 MOL1         0.0729
      16    C6      19.621526   19.918166   24.192361 C.3        1 MOL1        -0.2899
      17    H9      19.636346   20.637055   25.021693 H          1 MOL1         0.0741
      18    H10     18.902215   19.127480   24.442132 H          1 MOL1         0.0741
      19    H11     20.621915   19.472766   24.124260 H          1 MOL1         0.0741
@<TRIPOS>BOND
    1     1     2    1
    2     1     3    2
    3     1     4    1
    4     4     5    1
    5     4     6    1
    6     4     7    1
    7     7     8    1
    8     7     9    1
    9     7    10    1
   10    10    11    1
   11    10    12    1
   12    10    13    1
   13    13    14    1
   14    13    15    1
   15    13    16    1
   16    16    17    1
   17    16    18    1
   18    16    19    1
@<TRIPOS>SUBSTRUCTURE
       1 MOL1            1 RESIDUE      1      MOL     
@<SCITEGIC>MOL_PROPERTY
VConf Rank
SciTegic.value.IntegerValue
639

@<SCITEGIC>MOL_PROPERTY
Conf_Id
SciTegic.value.IntegerValue
24

@<SCITEGIC>MOL_PROPERTY
Delta U+W
SciTegic.value.DoubleValue
2.477

@<SCITEGIC>MOL_PROPERTY
U+W
SciTegic.value.DoubleValue
-52.414

@<SCITEGIC>MOL_PROPERTY
Grad RMS
SciTegic.value.DoubleValue
0.000000

@<SCITEGIC>MOL_PROPERTY
U
SciTegic.value.DoubleValue
10.422

@<SCITEGIC>MOL_PROPERTY
W
SciTegic.value.DoubleValue
-62.836

@<SCITEGIC>MOL_PROPERTY
W(PB)
SciTegic.value.DoubleValue
-64.906

@<SCITEGIC>MOL_PROPERTY
W(SA)
SciTegic.value.DoubleValue
2.070

@<SCITEGIC>MOL_PROPERTY
Valence
SciTegic.value.DoubleValue
9.628

@<SCITEGIC>MOL_PROPERTY
Coulomb
SciTegic.value.DoubleValue
0.101

@<SCITEGIC>MOL_PROPERTY
VdW
SciTegic.value.DoubleValue
0.693

@<SCITEGIC>MOL_PROPERTY
VdW6
SciTegic.value.DoubleValue
-6.927

@<SCITEGIC>MOL_PROPERTY
VdW12
SciTegic.value.DoubleValue
7.620

@<SCITEGIC>MOL_PROPERTY
Bond
SciTegic.value.DoubleValue
0.173

@<SCITEGIC>MOL_PROPERTY
Angle
SciTegic.value.DoubleValue
2.989

@<SCITEGIC>MOL_PROPERTY
Pdih
SciTegic.value.DoubleValue
6.465

@<SCITEGIC>MOL_PROPERTY
Idih
SciTegic.value.DoubleValue
0.001

@<SCITEGIC>MOL_PROPERTY
Tether
SciTegic.value.DoubleValue
0.000

@<TRIPOS>MOLECULE
guest-7_confgen4.mol2 : confsearch ligand conformer 640
          19          18           1
SMALL
USER_CHARGES
 
@<TRIPOS>ATOM
       1    C1      20.278978   16.665063   23.397803 C.2        1 MOL1         0.6115
       2    O1      21.004259   17.023258   24.304640 O.co2      1 MOL1        -0.6776
       3    O2      19.546894   15.697402   23.466781 O.co2      1 MOL1        -0.6776
       4    C2      20.308144   17.453217   22.090823 C.3        1 MOL1        -0.2013
       5    H1      20.413202   16.726364   21.276941 H          1 MOL1         0.0727
       6    H2      21.212799   18.069413   22.079310 H          1 MOL1         0.0727
       7    C3      19.040190   18.317817   21.846491 C.3        1 MOL1        -0.1910
       8    H3      19.035863   18.687872   20.812435 H          1 MOL1         0.0729
       9    H4      18.161187   17.664589   21.936942 H          1 MOL1         0.0729
      10    C4      18.881883   19.507156   22.829287 C.3        1 MOL1        -0.1909
      11    H5      19.332538   19.265759   23.801627 H          1 MOL1         0.0729
      12    H6      17.809980   19.646951   23.024902 H          1 MOL1         0.0729
      13    C5      19.439312   20.854446   22.307763 C.3        1 MOL1        -0.1884
      14    H7      18.920115   21.134765   21.380909 H          1 MOL1         0.0729
      15    H8      19.201573   21.636719   23.041714 H          1 MOL1         0.0729
      16    C6      20.962234   20.854747   22.062277 C.3        1 MOL1        -0.2899
      17    H9      21.226524   20.208472   21.216207 H          1 MOL1         0.0741
      18    H10     21.312952   21.867762   21.826533 H          1 MOL1         0.0741
      19    H11     21.504178   20.506088   22.951220 H          1 MOL1         0.0741
@<TRIPOS>BOND
    1     1     2    1
    2     1     3    2
    3     1     4    1
    4     4     5    1
    5     4     6    1
    6     4     7    1
    7     7     8    1
    8     7     9    1
    9     7    10    1
   10    10    11    1
   11    10    12    1
   12    10    13    1
   13    13    14    1
   14    13    15    1
   15    13    16    1
   16    16    17    1
   17    16    18    1
   18    16    19    1
@<TRIPOS>SUBSTRUCTURE
       1 MOL1            1 RESIDUE      1      MOL     
@<SCITEGIC>MOL_PROPERTY
VConf Rank
SciTegic.value.IntegerValue
640

@<SCITEGIC>MOL_PROPERTY
Conf_Id
SciTegic.value.IntegerValue
4

@<SCITEGIC>MOL_PROPERTY
Delta U+W
SciTegic.value.DoubleValue
3.753

@<SCITEGIC>MOL_PROPERTY
U+W
SciTegic.value.DoubleValue
-51.138

@<SCITEGIC>MOL_PROPERTY
Grad RMS
SciTegic.value.DoubleValue
0.000000

@<SCITEGIC>MOL_PROPERTY
U
SciTegic.value.DoubleValue
12.334

@<SCITEGIC>MOL_PROPERTY
W
SciTegic.value.DoubleValue
-63.472

@<SCITEGIC>MOL_PROPERTY
W(PB)
SciTegic.value.DoubleValue
-65.500

@<SCITEGIC>MOL_PROPERTY
W(SA)
SciTegic.value.DoubleValue
2.028

@<SCITEGIC>MOL_PROPERTY
Valence
SciTegic.value.DoubleValue
9.984

@<SCITEGIC>MOL_PROPERTY
Coulomb
SciTegic.value.DoubleValue
1.767

@<SCITEGIC>MOL_PROPERTY
VdW
SciTegic.value.DoubleValue
0.583

@<SCITEGIC>MOL_PROPERTY
VdW6
SciTegic.value.DoubleValue
-7.767

@<SCITEGIC>MOL_PROPERTY
VdW12
SciTegic.value.DoubleValue
8.349

@<SCITEGIC>MOL_PROPERTY
Bond
SciTegic.value.DoubleValue
0.203

@<SCITEGIC>MOL_PROPERTY
Angle
SciTegic.value.DoubleValue
3.191

@<SCITEGIC>MOL_PROPERTY
Pdih
SciTegic.value.DoubleValue
6.589

@<SCITEGIC>MOL_PROPERTY
Idih
SciTegic.value.DoubleValue
0.001

@<SCITEGIC>MOL_PROPERTY
Tether
SciTegic.value.DoubleValue
0.000

@<TRIPOS>MOLECULE
guest-7_confgen4.mol2 : confsearch ligand conformer 641
          19          18           1
SMALL
USER_CHARGES
 
@<TRIPOS>ATOM
       1    C1      21.690406   17.040584   21.942340 C.2        1 MOL1         0.6115
       2    O1      22.438807   16.877998   20.998659 O.co2      1 MOL1        -0.6776
       3    O2      22.025200   16.879269   23.099312 O.co2      1 MOL1        -0.6776
       4    C2      20.245681   17.440423   21.654016 C.3        1 MOL1        -0.2013
       5    H1      19.646913   17.239916   22.548164 H          1 MOL1         0.0727
       6    H2      19.874380   16.769310   20.870754 H          1 MOL1         0.0727
       7    C3      20.079133   18.913845   21.189015 C.3        1 MOL1        -0.1910
       8    H3      20.750897   19.078396   20.335088 H          1 MOL1         0.0729
       9    H4      19.061489   19.070540   20.806811 H          1 MOL1         0.0729
      10    C4      20.395596   19.966199   22.283490 C.3        1 MOL1        -0.1909
      11    H5      20.855849   20.836527   21.796172 H          1 MOL1         0.0729
      12    H6      21.152276   19.581114   22.980591 H          1 MOL1         0.0729
      13    C5      19.160894   20.471878   23.069429 C.3        1 MOL1        -0.1884
      14    H7      19.486290   21.266864   23.754460 H          1 MOL1         0.0729
      15    H8      18.446981   20.937145   22.375847 H          1 MOL1         0.0729
      16    C6      18.442567   19.379110   23.887613 C.3        1 MOL1        -0.2899
      17    H9      19.148935   18.845652   24.537192 H          1 MOL1         0.0741
      18    H10     17.665989   19.823571   24.523347 H          1 MOL1         0.0741
      19    H11     17.953645   18.649876   23.229944 H          1 MOL1         0.0741
@<TRIPOS>BOND
    1     1     2    1
    2     1     3    2
    3     1     4    1
    4     4     5    1
    5     4     6    1
    6     4     7    1
    7     7     8    1
    8     7     9    1
    9     7    10    1
   10    10    11    1
   11    10    12    1
   12    10    13    1
   13    13    14    1
   14    13    15    1
   15    13    16    1
   16    16    17    1
   17    16    18    1
   18    16    19    1
@<TRIPOS>SUBSTRUCTURE
       1 MOL1            1 RESIDUE      1      MOL     
@<SCITEGIC>MOL_PROPERTY
VConf Rank
SciTegic.value.IntegerValue
641

@<SCITEGIC>MOL_PROPERTY
Conf_Id
SciTegic.value.IntegerValue
73

@<SCITEGIC>MOL_PROPERTY
Delta U+W
SciTegic.value.DoubleValue
3.707

@<SCITEGIC>MOL_PROPERTY
U+W
SciTegic.value.DoubleValue
-51.184

@<SCITEGIC>MOL_PROPERTY
Grad RMS
SciTegic.value.DoubleValue
0.000000

@<SCITEGIC>MOL_PROPERTY
U
SciTegic.value.DoubleValue
12.334

@<SCITEGIC>MOL_PROPERTY
W
SciTegic.value.DoubleValue
-63.519

@<SCITEGIC>MOL_PROPERTY
W(PB)
SciTegic.value.DoubleValue
-65.541

@<SCITEGIC>MOL_PROPERTY
W(SA)
SciTegic.value.DoubleValue
2.022

@<SCITEGIC>MOL_PROPERTY
Valence
SciTegic.value.DoubleValue
9.984

@<SCITEGIC>MOL_PROPERTY
Coulomb
SciTegic.value.DoubleValue
1.768

@<SCITEGIC>MOL_PROPERTY
VdW
SciTegic.value.DoubleValue
0.583

@<SCITEGIC>MOL_PROPERTY
VdW6
SciTegic.value.DoubleValue
-7.767

@<SCITEGIC>MOL_PROPERTY
VdW12
SciTegic.value.DoubleValue
8.350

@<SCITEGIC>MOL_PROPERTY
Bond
SciTegic.value.DoubleValue
0.203

@<SCITEGIC>MOL_PROPERTY
Angle
SciTegic.value.DoubleValue
3.192

@<SCITEGIC>MOL_PROPERTY
Pdih
SciTegic.value.DoubleValue
6.589

@<SCITEGIC>MOL_PROPERTY
Idih
SciTegic.value.DoubleValue
0.001

@<SCITEGIC>MOL_PROPERTY
Tether
SciTegic.value.DoubleValue
0.000

@<TRIPOS>MOLECULE
guest-7_confgen4.mol2 : confsearch ligand conformer 642
          19          18           1
SMALL
USER_CHARGES
 
@<TRIPOS>ATOM
       1    C1      19.453367   21.162369   21.000525 C.2        1 MOL1         0.6115
       2    O1      18.239306   21.143777   21.049728 O.co2      1 MOL1        -0.6776
       3    O2      20.108645   22.185822   20.982828 O.co2      1 MOL1        -0.6776
       4    C2      20.196297   19.831362   20.924354 C.3        1 MOL1        -0.2013
       5    H1      20.898194   19.896897   20.084881 H          1 MOL1         0.0727
       6    H2      19.479597   19.042519   20.668693 H          1 MOL1         0.0727
       7    C3      20.974656   19.463646   22.217108 C.3        1 MOL1        -0.1910
       8    H3      21.535835   18.535266   22.049614 H          1 MOL1         0.0729
       9    H4      21.727631   20.240823   22.407197 H          1 MOL1         0.0729
      10    C4      20.086341   19.315090   23.479218 C.3        1 MOL1        -0.1909
      11    H5      19.623715   20.285027   23.707870 H          1 MOL1         0.0729
      12    H6      20.729968   19.078165   24.337242 H          1 MOL1         0.0729
      13    C5      18.971765   18.245106   23.378869 C.3        1 MOL1        -0.1884
      14    H7      18.402901   18.243980   24.318703 H          1 MOL1         0.0729
      15    H8      18.255697   18.518900   22.592276 H          1 MOL1         0.0729
      16    C6      19.511188   16.821324   23.122860 C.3        1 MOL1        -0.2899
      17    H9      19.990578   16.747509   22.138661 H          1 MOL1         0.0741
      18    H10     20.245893   16.536386   23.887080 H          1 MOL1         0.0741
      19    H11     18.693058   16.090081   23.150115 H          1 MOL1         0.0741
@<TRIPOS>BOND
    1     1     2    1
    2     1     3    2
    3     1     4    1
    4     4     5    1
    5     4     6    1
    6     4     7    1
    7     7     8    1
    8     7     9    1
    9     7    10    1
   10    10    11    1
   11    10    12    1
   12    10    13    1
   13    13    14    1
   14    13    15    1
   15    13    16    1
   16    16    17    1
   17    16    18    1
   18    16    19    1
@<TRIPOS>SUBSTRUCTURE
       1 MOL1            1 RESIDUE      1      MOL     
@<SCITEGIC>MOL_PROPERTY
VConf Rank
SciTegic.value.IntegerValue
642

@<SCITEGIC>MOL_PROPERTY
Conf_Id
SciTegic.value.IntegerValue
56

@<SCITEGIC>MOL_PROPERTY
Delta U+W
SciTegic.value.DoubleValue
1.735

@<SCITEGIC>MOL_PROPERTY
U+W
SciTegic.value.DoubleValue
-53.156

@<SCITEGIC>MOL_PROPERTY
Grad RMS
SciTegic.value.DoubleValue
0.000000

@<SCITEGIC>MOL_PROPERTY
U
SciTegic.value.DoubleValue
10.214

@<SCITEGIC>MOL_PROPERTY
W
SciTegic.value.DoubleValue
-63.370

@<SCITEGIC>MOL_PROPERTY
W(PB)
SciTegic.value.DoubleValue
-65.388

@<SCITEGIC>MOL_PROPERTY
W(SA)
SciTegic.value.DoubleValue
2.018

@<SCITEGIC>MOL_PROPERTY
Valence
SciTegic.value.DoubleValue
7.868

@<SCITEGIC>MOL_PROPERTY
Coulomb
SciTegic.value.DoubleValue
1.968

@<SCITEGIC>MOL_PROPERTY
VdW
SciTegic.value.DoubleValue
0.378

@<SCITEGIC>MOL_PROPERTY
VdW6
SciTegic.value.DoubleValue
-8.067

@<SCITEGIC>MOL_PROPERTY
VdW12
SciTegic.value.DoubleValue
8.445

@<SCITEGIC>MOL_PROPERTY
Bond
SciTegic.value.DoubleValue
0.191

@<SCITEGIC>MOL_PROPERTY
Angle
SciTegic.value.DoubleValue
3.117

@<SCITEGIC>MOL_PROPERTY
Pdih
SciTegic.value.DoubleValue
4.559

@<SCITEGIC>MOL_PROPERTY
Idih
SciTegic.value.DoubleValue
0.001

@<SCITEGIC>MOL_PROPERTY
Tether
SciTegic.value.DoubleValue
0.000

@<TRIPOS>MOLECULE
guest-7_confgen4.mol2 : confsearch ligand conformer 643
          19          18           1
SMALL
USER_CHARGES
 
@<TRIPOS>ATOM
       1    C1      22.342333   19.992710   23.627731 C.2        1 MOL1         0.6115
       2    O1      22.310386   20.514398   24.724628 O.co2      1 MOL1        -0.6776
       3    O2      23.310278   20.029230   22.894163 O.co2      1 MOL1        -0.6776
       4    C2      21.092250   19.271475   23.136456 C.3        1 MOL1        -0.2013
       5    H1      20.573853   18.854430   24.008072 H          1 MOL1         0.0727
       6    H2      21.417880   18.431705   22.512548 H          1 MOL1         0.0727
       7    C3      20.139524   20.196656   22.338127 C.3        1 MOL1        -0.1910
       8    H3      19.944245   21.098702   22.934431 H          1 MOL1         0.0729
       9    H4      20.646712   20.536125   21.424499 H          1 MOL1         0.0729
      10    C4      18.781176   19.549340   21.968851 C.3        1 MOL1        -0.1909
      11    H5      18.179526   20.313387   21.457754 H          1 MOL1         0.0729
      12    H6      18.225078   19.292644   22.880916 H          1 MOL1         0.0729
      13    C5      18.884162   18.315396   21.038322 C.3        1 MOL1        -0.1884
      14    H7      18.026003   18.321285   20.352123 H          1 MOL1         0.0729
      15    H8      19.780437   18.387741   20.406843 H          1 MOL1         0.0729
      16    C6      18.873627   16.972644   21.802281 C.3        1 MOL1        -0.2899
      17    H9      18.930693   16.131295   21.099607 H          1 MOL1         0.0741
      18    H10     19.719655   16.888535   22.493497 H          1 MOL1         0.0741
      19    H11     17.949003   16.861800   22.383586 H          1 MOL1         0.0741
@<TRIPOS>BOND
    1     1     2    1
    2     1     3    2
    3     1     4    1
    4     4     5    1
    5     4     6    1
    6     4     7    1
    7     7     8    1
    8     7     9    1
    9     7    10    1
   10    10    11    1
   11    10    12    1
   12    10    13    1
   13    13    14    1
   14    13    15    1
   15    13    16    1
   16    16    17    1
   17    16    18    1
   18    16    19    1
@<TRIPOS>SUBSTRUCTURE
       1 MOL1            1 RESIDUE      1      MOL     
@<SCITEGIC>MOL_PROPERTY
VConf Rank
SciTegic.value.IntegerValue
643

@<SCITEGIC>MOL_PROPERTY
Conf_Id
SciTegic.value.IntegerValue
53

@<SCITEGIC>MOL_PROPERTY
Delta U+W
SciTegic.value.DoubleValue
2.279

@<SCITEGIC>MOL_PROPERTY
U+W
SciTegic.value.DoubleValue
-52.612

@<SCITEGIC>MOL_PROPERTY
Grad RMS
SciTegic.value.DoubleValue
0.000000

@<SCITEGIC>MOL_PROPERTY
U
SciTegic.value.DoubleValue
10.231

@<SCITEGIC>MOL_PROPERTY
W
SciTegic.value.DoubleValue
-62.843

@<SCITEGIC>MOL_PROPERTY
W(PB)
SciTegic.value.DoubleValue
-64.893

@<SCITEGIC>MOL_PROPERTY
W(SA)
SciTegic.value.DoubleValue
2.050

@<SCITEGIC>MOL_PROPERTY
Valence
SciTegic.value.DoubleValue
9.644

@<SCITEGIC>MOL_PROPERTY
Coulomb
SciTegic.value.DoubleValue
-0.164

@<SCITEGIC>MOL_PROPERTY
VdW
SciTegic.value.DoubleValue
0.751

@<SCITEGIC>MOL_PROPERTY
VdW6
SciTegic.value.DoubleValue
-6.881

@<SCITEGIC>MOL_PROPERTY
VdW12
SciTegic.value.DoubleValue
7.631

@<SCITEGIC>MOL_PROPERTY
Bond
SciTegic.value.DoubleValue
0.163

@<SCITEGIC>MOL_PROPERTY
Angle
SciTegic.value.DoubleValue
2.998

@<SCITEGIC>MOL_PROPERTY
Pdih
SciTegic.value.DoubleValue
6.482

@<SCITEGIC>MOL_PROPERTY
Idih
SciTegic.value.DoubleValue
0.001

@<SCITEGIC>MOL_PROPERTY
Tether
SciTegic.value.DoubleValue
0.000

@<TRIPOS>MOLECULE
guest-7_confgen4.mol2 : confsearch ligand conformer 644
          19          18           1
SMALL
USER_CHARGES
 
@<TRIPOS>ATOM
       1    C1      20.675865   20.964399   21.334455 C.2        1 MOL1         0.6115
       2    O1      21.881515   21.061464   21.452095 O.co2      1 MOL1        -0.6776
       3    O2      19.896007   21.820311   21.703890 O.co2      1 MOL1        -0.6776
       4    C2      20.118431   19.733632   20.621740 C.3        1 MOL1        -0.2013
       5    H1      20.952789   19.094985   20.307259 H          1 MOL1         0.0727
       6    H2      19.640221   20.098310   19.705253 H          1 MOL1         0.0727
       7    C3      19.084567   18.906034   21.436192 C.3        1 MOL1        -0.1910
       8    H3      18.365154   19.579479   21.922462 H          1 MOL1         0.0729
       9    H4      18.501429   18.301607   20.728352 H          1 MOL1         0.0729
      10    C4      19.701318   17.943577   22.481166 C.3        1 MOL1        -0.1909
      11    H5      20.413777   17.268763   21.987344 H          1 MOL1         0.0729
      12    H6      18.897527   17.307627   22.876763 H          1 MOL1         0.0729
      13    C5      20.395264   18.656971   23.662302 C.3        1 MOL1        -0.1884
      14    H7      21.284192   19.194335   23.308107 H          1 MOL1         0.0729
      15    H8      19.717722   19.406027   24.095025 H          1 MOL1         0.0729
      16    C6      20.821511   17.656530   24.755584 C.3        1 MOL1        -0.2899
      17    H9      21.520475   16.911157   24.354054 H          1 MOL1         0.0741
      18    H10     21.320230   18.177893   25.582933 H          1 MOL1         0.0741
      19    H11     19.951603   17.126259   25.164718 H          1 MOL1         0.0741
@<TRIPOS>BOND
    1     1     2    1
    2     1     3    2
    3     1     4    1
    4     4     5    1
    5     4     6    1
    6     4     7    1
    7     7     8    1
    8     7     9    1
    9     7    10    1
   10    10    11    1
   11    10    12    1
   12    10    13    1
   13    13    14    1
   14    13    15    1
   15    13    16    1
   16    16    17    1
   17    16    18    1
   18    16    19    1
@<TRIPOS>SUBSTRUCTURE
       1 MOL1            1 RESIDUE      1      MOL     
@<SCITEGIC>MOL_PROPERTY
VConf Rank
SciTegic.value.IntegerValue
644

@<SCITEGIC>MOL_PROPERTY
Conf_Id
SciTegic.value.IntegerValue
25

@<SCITEGIC>MOL_PROPERTY
Delta U+W
SciTegic.value.DoubleValue
2.065

@<SCITEGIC>MOL_PROPERTY
U+W
SciTegic.value.DoubleValue
-52.826

@<SCITEGIC>MOL_PROPERTY
Grad RMS
SciTegic.value.DoubleValue
0.000000

@<SCITEGIC>MOL_PROPERTY
U
SciTegic.value.DoubleValue
10.967

@<SCITEGIC>MOL_PROPERTY
W
SciTegic.value.DoubleValue
-63.794

@<SCITEGIC>MOL_PROPERTY
W(PB)
SciTegic.value.DoubleValue
-65.830

@<SCITEGIC>MOL_PROPERTY
W(SA)
SciTegic.value.DoubleValue
2.036

@<SCITEGIC>MOL_PROPERTY
Valence
SciTegic.value.DoubleValue
8.609

@<SCITEGIC>MOL_PROPERTY
Coulomb
SciTegic.value.DoubleValue
1.892

@<SCITEGIC>MOL_PROPERTY
VdW
SciTegic.value.DoubleValue
0.467

@<SCITEGIC>MOL_PROPERTY
VdW6
SciTegic.value.DoubleValue
-7.569

@<SCITEGIC>MOL_PROPERTY
VdW12
SciTegic.value.DoubleValue
8.036

@<SCITEGIC>MOL_PROPERTY
Bond
SciTegic.value.DoubleValue
0.170

@<SCITEGIC>MOL_PROPERTY
Angle
SciTegic.value.DoubleValue
3.195

@<SCITEGIC>MOL_PROPERTY
Pdih
SciTegic.value.DoubleValue
5.237

@<SCITEGIC>MOL_PROPERTY
Idih
SciTegic.value.DoubleValue
0.007

@<SCITEGIC>MOL_PROPERTY
Tether
SciTegic.value.DoubleValue
0.000

@<TRIPOS>MOLECULE
guest-7_confgen4.mol2 : confsearch ligand conformer 645
          19          18           1
SMALL
USER_CHARGES
 
@<TRIPOS>ATOM
       1    C1      22.230112   18.046802   23.361820 C.2        1 MOL1         0.6115
       2    O1      23.104598   18.813777   23.009299 O.co2      1 MOL1        -0.6776
       3    O2      22.219822   16.865875   23.075188 O.co2      1 MOL1        -0.6776
       4    C2      21.122775   18.577196   24.270650 C.3        1 MOL1        -0.2013
       5    H1      21.611907   18.897382   25.197933 H          1 MOL1         0.0727
       6    H2      20.454088   17.750080   24.538346 H          1 MOL1         0.0727
       7    C3      20.303698   19.766559   23.694754 C.3        1 MOL1        -0.1910
       8    H3      19.819317   20.282480   24.534764 H          1 MOL1         0.0729
       9    H4      20.981034   20.501960   23.238744 H          1 MOL1         0.0729
      10    C4      19.197992   19.366244   22.686865 C.3        1 MOL1        -0.1909
      11    H5      18.591867   20.257104   22.472409 H          1 MOL1         0.0729
      12    H6      18.520564   18.636769   23.151401 H          1 MOL1         0.0729
      13    C5      19.735434   18.800180   21.354084 C.3        1 MOL1        -0.1884
      14    H7      20.489720   19.481777   20.937104 H          1 MOL1         0.0729
      15    H8      20.232999   17.837414   21.527050 H          1 MOL1         0.0729
      16    C6      18.602361   18.597309   20.328011 C.3        1 MOL1        -0.2899
      17    H9      18.999310   18.186918   19.390431 H          1 MOL1         0.0741
      18    H10     17.846979   17.898685   20.711001 H          1 MOL1         0.0741
      19    H11     18.104965   19.548536   20.097618 H          1 MOL1         0.0741
@<TRIPOS>BOND
    1     1     2    1
    2     1     3    2
    3     1     4    1
    4     4     5    1
    5     4     6    1
    6     4     7    1
    7     7     8    1
    8     7     9    1
    9     7    10    1
   10    10    11    1
   11    10    12    1
   12    10    13    1
   13    13    14    1
   14    13    15    1
   15    13    16    1
   16    16    17    1
   17    16    18    1
   18    16    19    1
@<TRIPOS>SUBSTRUCTURE
       1 MOL1            1 RESIDUE      1      MOL     
@<SCITEGIC>MOL_PROPERTY
VConf Rank
SciTegic.value.IntegerValue
645

@<SCITEGIC>MOL_PROPERTY
Conf_Id
SciTegic.value.IntegerValue
52

@<SCITEGIC>MOL_PROPERTY
Delta U+W
SciTegic.value.DoubleValue
2.070

@<SCITEGIC>MOL_PROPERTY
U+W
SciTegic.value.DoubleValue
-52.822

@<SCITEGIC>MOL_PROPERTY
Grad RMS
SciTegic.value.DoubleValue
0.000000

@<SCITEGIC>MOL_PROPERTY
U
SciTegic.value.DoubleValue
10.967

@<SCITEGIC>MOL_PROPERTY
W
SciTegic.value.DoubleValue
-63.789

@<SCITEGIC>MOL_PROPERTY
W(PB)
SciTegic.value.DoubleValue
-65.837

@<SCITEGIC>MOL_PROPERTY
W(SA)
SciTegic.value.DoubleValue
2.048

@<SCITEGIC>MOL_PROPERTY
Valence
SciTegic.value.DoubleValue
8.609

@<SCITEGIC>MOL_PROPERTY
Coulomb
SciTegic.value.DoubleValue
1.892

@<SCITEGIC>MOL_PROPERTY
VdW
SciTegic.value.DoubleValue
0.467

@<SCITEGIC>MOL_PROPERTY
VdW6
SciTegic.value.DoubleValue
-7.569

@<SCITEGIC>MOL_PROPERTY
VdW12
SciTegic.value.DoubleValue
8.035

@<SCITEGIC>MOL_PROPERTY
Bond
SciTegic.value.DoubleValue
0.170

@<SCITEGIC>MOL_PROPERTY
Angle
SciTegic.value.DoubleValue
3.196

@<SCITEGIC>MOL_PROPERTY
Pdih
SciTegic.value.DoubleValue
5.237

@<SCITEGIC>MOL_PROPERTY
Idih
SciTegic.value.DoubleValue
0.007

@<SCITEGIC>MOL_PROPERTY
Tether
SciTegic.value.DoubleValue
0.000

@<TRIPOS>MOLECULE
guest-7_confgen4.mol2 : confsearch ligand conformer 646
          19          18           1
SMALL
USER_CHARGES
 
@<TRIPOS>ATOM
       1    C1      19.651792   20.090150   24.370492 C.2        1 MOL1         0.6115
       2    O1      18.512504   20.512511   24.412334 O.co2      1 MOL1        -0.6776
       3    O2      20.182815   19.516021   25.300594 O.co2      1 MOL1        -0.6776
       4    C2      20.506063   20.402665   23.140884 C.3        1 MOL1        -0.2013
       5    H1      21.438039   19.827563   23.197608 H          1 MOL1         0.0727
       6    H2      20.785448   21.458974   23.227072 H          1 MOL1         0.0727
       7    C3      19.817991   20.176159   21.764432 C.3        1 MOL1        -0.1910
       8    H3      18.777105   20.525967   21.802815 H          1 MOL1         0.0729
       9    H4      20.319827   20.817188   21.027140 H          1 MOL1         0.0729
      10    C4      19.866996   18.722669   21.227642 C.3        1 MOL1        -0.1909
      11    H5      20.910795   18.407210   21.093453 H          1 MOL1         0.0729
      12    H6      19.428216   18.728562   20.220465 H          1 MOL1         0.0729
      13    C5      19.096642   17.684493   22.078956 C.3        1 MOL1        -0.1884
      14    H7      18.328228   18.180916   22.687610 H          1 MOL1         0.0729
      15    H8      18.558033   17.003421   21.405764 H          1 MOL1         0.0729
      16    C6      20.026583   16.838054   22.974429 C.3        1 MOL1        -0.2899
      17    H9      20.734920   16.259920   22.367011 H          1 MOL1         0.0741
      18    H10     20.604544   17.467036   23.661505 H          1 MOL1         0.0741
      19    H11     19.442192   16.130746   23.576775 H          1 MOL1         0.0741
@<TRIPOS>BOND
    1     1     2    1
    2     1     3    2
    3     1     4    1
    4     4     5    1
    5     4     6    1
    6     4     7    1
    7     7     8    1
    8     7     9    1
    9     7    10    1
   10    10    11    1
   11    10    12    1
   12    10    13    1
   13    13    14    1
   14    13    15    1
   15    13    16    1
   16    16    17    1
   17    16    18    1
   18    16    19    1
@<TRIPOS>SUBSTRUCTURE
       1 MOL1            1 RESIDUE      1      MOL     
@<SCITEGIC>MOL_PROPERTY
VConf Rank
SciTegic.value.IntegerValue
646

@<SCITEGIC>MOL_PROPERTY
Conf_Id
SciTegic.value.IntegerValue
66

@<SCITEGIC>MOL_PROPERTY
Delta U+W
SciTegic.value.DoubleValue
5.819

@<SCITEGIC>MOL_PROPERTY
U+W
SciTegic.value.DoubleValue
-49.072

@<SCITEGIC>MOL_PROPERTY
Grad RMS
SciTegic.value.DoubleValue
0.000000

@<SCITEGIC>MOL_PROPERTY
U
SciTegic.value.DoubleValue
15.324

@<SCITEGIC>MOL_PROPERTY
W
SciTegic.value.DoubleValue
-64.396

@<SCITEGIC>MOL_PROPERTY
W(PB)
SciTegic.value.DoubleValue
-66.382

@<SCITEGIC>MOL_PROPERTY
W(SA)
SciTegic.value.DoubleValue
1.986

@<SCITEGIC>MOL_PROPERTY
Valence
SciTegic.value.DoubleValue
11.748

@<SCITEGIC>MOL_PROPERTY
Coulomb
SciTegic.value.DoubleValue
3.201

@<SCITEGIC>MOL_PROPERTY
VdW
SciTegic.value.DoubleValue
0.375

@<SCITEGIC>MOL_PROPERTY
VdW6
SciTegic.value.DoubleValue
-8.854

@<SCITEGIC>MOL_PROPERTY
VdW12
SciTegic.value.DoubleValue
9.229

@<SCITEGIC>MOL_PROPERTY
Bond
SciTegic.value.DoubleValue
0.216

@<SCITEGIC>MOL_PROPERTY
Angle
SciTegic.value.DoubleValue
3.812

@<SCITEGIC>MOL_PROPERTY
Pdih
SciTegic.value.DoubleValue
7.699

@<SCITEGIC>MOL_PROPERTY
Idih
SciTegic.value.DoubleValue
0.022

@<SCITEGIC>MOL_PROPERTY
Tether
SciTegic.value.DoubleValue
0.000

@<TRIPOS>MOLECULE
guest-7_confgen4.mol2 : confsearch ligand conformer 647
          19          18           1
SMALL
USER_CHARGES
 
@<TRIPOS>ATOM
       1    C1      18.280361   17.337104   19.612822 C.2        1 MOL1         0.6115
       2    O1      18.461268   16.612311   18.654902 O.co2      1 MOL1        -0.6776
       3    O2      17.182059   17.743999   19.938882 O.co2      1 MOL1        -0.6776
       4    C2      19.511585   17.739184   20.426514 C.3        1 MOL1        -0.2013
       5    H1      20.211258   18.230384   19.740052 H          1 MOL1         0.0727
       6    H2      19.993221   16.815725   20.769007 H          1 MOL1         0.0727
       7    C3      19.230992   18.665038   21.639978 C.3        1 MOL1        -0.1910
       8    H3      18.743260   19.585719   21.290792 H          1 MOL1         0.0729
       9    H4      18.524952   18.169597   22.320796 H          1 MOL1         0.0729
      10    C4      20.525760   19.020185   22.402675 C.3        1 MOL1        -0.1909
      11    H5      21.230219   19.515204   21.720148 H          1 MOL1         0.0729
      12    H6      21.011774   18.098346   22.750746 H          1 MOL1         0.0729
      13    C5      20.244615   19.940652   23.608533 C.3        1 MOL1        -0.1884
      14    H7      19.760076   20.864865   23.264231 H          1 MOL1         0.0729
      15    H8      19.541758   19.448134   24.294763 H          1 MOL1         0.0729
      16    C6      21.539434   20.293240   24.367555 C.3        1 MOL1        -0.2899
      17    H9      22.248885   20.815679   23.712453 H          1 MOL1         0.0741
      18    H10     21.321237   20.947889   25.221331 H          1 MOL1         0.0741
      19    H11     22.028943   19.388268   24.750735 H          1 MOL1         0.0741
@<TRIPOS>BOND
    1     1     2    1
    2     1     3    2
    3     1     4    1
    4     4     5    1
    5     4     6    1
    6     4     7    1
    7     7     8    1
    8     7     9    1
    9     7    10    1
   10    10    11    1
   11    10    12    1
   12    10    13    1
   13    13    14    1
   14    13    15    1
   15    13    16    1
   16    16    17    1
   17    16    18    1
   18    16    19    1
@<TRIPOS>SUBSTRUCTURE
       1 MOL1            1 RESIDUE      1      MOL     
@<SCITEGIC>MOL_PROPERTY
VConf Rank
SciTegic.value.IntegerValue
647

@<SCITEGIC>MOL_PROPERTY
Conf_Id
SciTegic.value.IntegerValue
0

@<SCITEGIC>MOL_PROPERTY
Delta U+W
SciTegic.value.DoubleValue
0.000

@<SCITEGIC>MOL_PROPERTY
U+W
SciTegic.value.DoubleValue
-54.891

@<SCITEGIC>MOL_PROPERTY
Grad RMS
SciTegic.value.DoubleValue
0.000000

@<SCITEGIC>MOL_PROPERTY
U
SciTegic.value.DoubleValue
6.966

@<SCITEGIC>MOL_PROPERTY
W
SciTegic.value.DoubleValue
-61.857

@<SCITEGIC>MOL_PROPERTY
W(PB)
SciTegic.value.DoubleValue
-63.965

@<SCITEGIC>MOL_PROPERTY
W(SA)
SciTegic.value.DoubleValue
2.108

@<SCITEGIC>MOL_PROPERTY
Valence
SciTegic.value.DoubleValue
7.175

@<SCITEGIC>MOL_PROPERTY
Coulomb
SciTegic.value.DoubleValue
-1.360

@<SCITEGIC>MOL_PROPERTY
VdW
SciTegic.value.DoubleValue
1.151

@<SCITEGIC>MOL_PROPERTY
VdW6
SciTegic.value.DoubleValue
-5.641

@<SCITEGIC>MOL_PROPERTY
VdW12
SciTegic.value.DoubleValue
6.792

@<SCITEGIC>MOL_PROPERTY
Bond
SciTegic.value.DoubleValue
0.119

@<SCITEGIC>MOL_PROPERTY
Angle
SciTegic.value.DoubleValue
2.715

@<SCITEGIC>MOL_PROPERTY
Pdih
SciTegic.value.DoubleValue
4.340

@<SCITEGIC>MOL_PROPERTY
Idih
SciTegic.value.DoubleValue
0.000

@<SCITEGIC>MOL_PROPERTY
Tether
SciTegic.value.DoubleValue
0.000

@<TRIPOS>MOLECULE
guest-7_confgen4.mol2 : confsearch ligand conformer 648
          19          18           1
SMALL
USER_CHARGES
 
@<TRIPOS>ATOM
       1    C1      17.894203   19.820853   24.708424 C.2        1 MOL1         0.6115
       2    O1      17.318387   18.898349   25.250275 O.co2      1 MOL1        -0.6776
       3    O2      18.208977   20.845840   25.279827 O.co2      1 MOL1        -0.6776
       4    C2      18.260133   19.675855   23.235521 C.3        1 MOL1        -0.2013
       5    H1      18.222351   20.670620   22.775351 H          1 MOL1         0.0727
       6    H2      17.488649   19.065203   22.751104 H          1 MOL1         0.0727
       7    C3      19.656315   19.041013   23.021591 C.3        1 MOL1        -0.1910
       8    H3      20.415675   19.657043   23.523017 H          1 MOL1         0.0729
       9    H4      19.681974   18.051552   23.498934 H          1 MOL1         0.0729
      10    C4      20.002439   18.905311   21.523122 C.3        1 MOL1        -0.1909
      11    H5      19.974607   19.895853   21.048521 H          1 MOL1         0.0729
      12    H6      19.240870   18.290052   21.024463 H          1 MOL1         0.0729
      13    C5      21.393846   18.272683   21.313023 C.3        1 MOL1        -0.1884
      14    H7      22.158725   18.886366   21.808853 H          1 MOL1         0.0729
      15    H8      21.425040   17.280701   21.784713 H          1 MOL1         0.0729
      16    C6      21.736189   18.138769   19.815751 C.3        1 MOL1        -0.2899
      17    H9      22.728276   17.687450   19.684665 H          1 MOL1         0.0741
      18    H10     21.003929   17.503191   19.300717 H          1 MOL1         0.0741
      19    H11     21.743072   19.120898   19.325037 H          1 MOL1         0.0741
@<TRIPOS>BOND
    1     1     2    1
    2     1     3    2
    3     1     4    1
    4     4     5    1
    5     4     6    1
    6     4     7    1
    7     7     8    1
    8     7     9    1
    9     7    10    1
   10    10    11    1
   11    10    12    1
   12    10    13    1
   13    13    14    1
   14    13    15    1
   15    13    16    1
   16    16    17    1
   17    16    18    1
   18    16    19    1
@<TRIPOS>SUBSTRUCTURE
       1 MOL1            1 RESIDUE      1      MOL     
@<SCITEGIC>MOL_PROPERTY
VConf Rank
SciTegic.value.IntegerValue
648

@<SCITEGIC>MOL_PROPERTY
Conf_Id
SciTegic.value.IntegerValue
18

@<SCITEGIC>MOL_PROPERTY
Delta U+W
SciTegic.value.DoubleValue
-1.199

@<SCITEGIC>MOL_PROPERTY
U+W
SciTegic.value.DoubleValue
-56.090

@<SCITEGIC>MOL_PROPERTY
Grad RMS
SciTegic.value.DoubleValue
0.000000

@<SCITEGIC>MOL_PROPERTY
U
SciTegic.value.DoubleValue
5.975

@<SCITEGIC>MOL_PROPERTY
W
SciTegic.value.DoubleValue
-62.066

@<SCITEGIC>MOL_PROPERTY
W(PB)
SciTegic.value.DoubleValue
-64.219

@<SCITEGIC>MOL_PROPERTY
W(SA)
SciTegic.value.DoubleValue
2.153

@<SCITEGIC>MOL_PROPERTY
Valence
SciTegic.value.DoubleValue
6.673

@<SCITEGIC>MOL_PROPERTY
Coulomb
SciTegic.value.DoubleValue
-1.307

@<SCITEGIC>MOL_PROPERTY
VdW
SciTegic.value.DoubleValue
0.610

@<SCITEGIC>MOL_PROPERTY
VdW6
SciTegic.value.DoubleValue
-5.351

@<SCITEGIC>MOL_PROPERTY
VdW12
SciTegic.value.DoubleValue
5.961

@<SCITEGIC>MOL_PROPERTY
Bond
SciTegic.value.DoubleValue
0.086

@<SCITEGIC>MOL_PROPERTY
Angle
SciTegic.value.DoubleValue
2.253

@<SCITEGIC>MOL_PROPERTY
Pdih
SciTegic.value.DoubleValue
4.333

@<SCITEGIC>MOL_PROPERTY
Idih
SciTegic.value.DoubleValue
0.001

@<SCITEGIC>MOL_PROPERTY
Tether
SciTegic.value.DoubleValue
0.000

@<TRIPOS>MOLECULE
guest-7_confgen4.mol2 : confsearch ligand conformer 649
          19          18           1
SMALL
USER_CHARGES
 
@<TRIPOS>ATOM
       1    C1      20.519501   20.869332   24.683170 C.2        1 MOL1         0.6115
       2    O1      20.189923   22.038559   24.707142 O.co2      1 MOL1        -0.6776
       3    O2      20.787146   20.225756   25.678378 O.co2      1 MOL1        -0.6776
       4    C2      20.579797   20.165598   23.332066 C.3        1 MOL1        -0.2013
       5    H1      21.379593   19.418085   23.380979 H          1 MOL1         0.0727
       6    H2      20.870653   20.904748   22.576044 H          1 MOL1         0.0727
       7    C3      19.234086   19.501510   22.940616 C.3        1 MOL1        -0.1910
       8    H3      18.975353   18.732235   23.681279 H          1 MOL1         0.0729
       9    H4      18.439746   20.259143   22.990001 H          1 MOL1         0.0729
      10    C4      19.240258   18.881651   21.523128 C.3        1 MOL1        -0.1909
      11    H5      19.490895   19.655086   20.784220 H          1 MOL1         0.0729
      12    H6      18.222145   18.543664   21.286011 H          1 MOL1         0.0729
      13    C5      20.211649   17.688766   21.378428 C.3        1 MOL1        -0.1884
      14    H7      21.245911   18.021166   21.537083 H          1 MOL1         0.0729
      15    H8      19.993833   16.937589   22.150150 H          1 MOL1         0.0729
      16    C6      20.102834   17.037493   19.985133 C.3        1 MOL1        -0.2899
      17    H9      20.800360   16.194435   19.896809 H          1 MOL1         0.0741
      18    H10     19.088275   16.657761   19.806639 H          1 MOL1         0.0741
      19    H11     20.342691   17.760283   19.194279 H          1 MOL1         0.0741
@<TRIPOS>BOND
    1     1     2    1
    2     1     3    2
    3     1     4    1
    4     4     5    1
    5     4     6    1
    6     4     7    1
    7     7     8    1
    8     7     9    1
    9     7    10    1
   10    10    11    1
   11    10    12    1
   12    10    13    1
   13    13    14    1
   14    13    15    1
   15    13    16    1
   16    16    17    1
   17    16    18    1
   18    16    19    1
@<TRIPOS>SUBSTRUCTURE
       1 MOL1            1 RESIDUE      1      MOL     
@<SCITEGIC>MOL_PROPERTY
VConf Rank
SciTegic.value.IntegerValue
649

@<SCITEGIC>MOL_PROPERTY
Conf_Id
SciTegic.value.IntegerValue
34

@<SCITEGIC>MOL_PROPERTY
Delta U+W
SciTegic.value.DoubleValue
-0.563

@<SCITEGIC>MOL_PROPERTY
U+W
SciTegic.value.DoubleValue
-55.455

@<SCITEGIC>MOL_PROPERTY
Grad RMS
SciTegic.value.DoubleValue
0.000000

@<SCITEGIC>MOL_PROPERTY
U
SciTegic.value.DoubleValue
6.914

@<SCITEGIC>MOL_PROPERTY
W
SciTegic.value.DoubleValue
-62.369

@<SCITEGIC>MOL_PROPERTY
W(PB)
SciTegic.value.DoubleValue
-64.446

@<SCITEGIC>MOL_PROPERTY
W(SA)
SciTegic.value.DoubleValue
2.077

@<SCITEGIC>MOL_PROPERTY
Valence
SciTegic.value.DoubleValue
7.196

@<SCITEGIC>MOL_PROPERTY
Coulomb
SciTegic.value.DoubleValue
-1.020

@<SCITEGIC>MOL_PROPERTY
VdW
SciTegic.value.DoubleValue
0.738

@<SCITEGIC>MOL_PROPERTY
VdW6
SciTegic.value.DoubleValue
-6.010

@<SCITEGIC>MOL_PROPERTY
VdW12
SciTegic.value.DoubleValue
6.748

@<SCITEGIC>MOL_PROPERTY
Bond
SciTegic.value.DoubleValue
0.126

@<SCITEGIC>MOL_PROPERTY
Angle
SciTegic.value.DoubleValue
2.499

@<SCITEGIC>MOL_PROPERTY
Pdih
SciTegic.value.DoubleValue
4.570

@<SCITEGIC>MOL_PROPERTY
Idih
SciTegic.value.DoubleValue
0.001

@<SCITEGIC>MOL_PROPERTY
Tether
SciTegic.value.DoubleValue
0.000

@<TRIPOS>MOLECULE
guest-7_confgen4.mol2 : confsearch ligand conformer 650
          19          18           1
SMALL
USER_CHARGES
 
@<TRIPOS>ATOM
       1    C1      17.417821   18.800908   24.127167 C.2        1 MOL1         0.6115
       2    O1      17.495110   18.729238   25.337613 O.co2      1 MOL1        -0.6776
       3    O2      16.416641   18.518120   23.499528 O.co2      1 MOL1        -0.6776
       4    C2      18.651709   19.249209   23.351986 C.3        1 MOL1        -0.2013
       5    H1      19.208666   19.956432   23.978202 H          1 MOL1         0.0727
       6    H2      18.308623   19.797856   22.467608 H          1 MOL1         0.0727
       7    C3      19.565000   18.065243   22.940521 C.3        1 MOL1        -0.1910
       8    H3      19.815401   17.484526   23.839125 H          1 MOL1         0.0729
       9    H4      19.010180   17.386969   22.277626 H          1 MOL1         0.0729
      10    C4      20.879096   18.508002   22.254488 C.3        1 MOL1        -0.1909
      11    H5      21.511396   17.621663   22.107477 H          1 MOL1         0.0729
      12    H6      21.435433   19.179139   22.923124 H          1 MOL1         0.0729
      13    C5      20.657468   19.198434   20.890048 C.3        1 MOL1        -0.1884
      14    H7      20.057294   18.548206   20.238693 H          1 MOL1         0.0729
      15    H8      20.090879   20.129212   21.024182 H          1 MOL1         0.0729
      16    C6      21.996051   19.522171   20.196755 C.3        1 MOL1        -0.2899
      17    H9      22.605765   20.194073   20.814981 H          1 MOL1         0.0741
      18    H10     22.574270   18.607469   20.011365 H          1 MOL1         0.0741
      19    H11     21.822244   20.014470   19.231083 H          1 MOL1         0.0741
@<TRIPOS>BOND
    1     1     2    1
    2     1     3    2
    3     1     4    1
    4     4     5    1
    5     4     6    1
    6     4     7    1
    7     7     8    1
    8     7     9    1
    9     7    10    1
   10    10    11    1
   11    10    12    1
   12    10    13    1
   13    13    14    1
   14    13    15    1
   15    13    16    1
   16    16    17    1
   17    16    18    1
   18    16    19    1
@<TRIPOS>SUBSTRUCTURE
       1 MOL1            1 RESIDUE      1      MOL     
@<SCITEGIC>MOL_PROPERTY
VConf Rank
SciTegic.value.IntegerValue
650

@<SCITEGIC>MOL_PROPERTY
Conf_Id
SciTegic.value.IntegerValue
33

@<SCITEGIC>MOL_PROPERTY
Delta U+W
SciTegic.value.DoubleValue
-0.526

@<SCITEGIC>MOL_PROPERTY
U+W
SciTegic.value.DoubleValue
-55.418

@<SCITEGIC>MOL_PROPERTY
Grad RMS
SciTegic.value.DoubleValue
0.000000

@<SCITEGIC>MOL_PROPERTY
U
SciTegic.value.DoubleValue
6.914

@<SCITEGIC>MOL_PROPERTY
W
SciTegic.value.DoubleValue
-62.332

@<SCITEGIC>MOL_PROPERTY
W(PB)
SciTegic.value.DoubleValue
-64.421

@<SCITEGIC>MOL_PROPERTY
W(SA)
SciTegic.value.DoubleValue
2.090

@<SCITEGIC>MOL_PROPERTY
Valence
SciTegic.value.DoubleValue
7.196

@<SCITEGIC>MOL_PROPERTY
Coulomb
SciTegic.value.DoubleValue
-1.020

@<SCITEGIC>MOL_PROPERTY
VdW
SciTegic.value.DoubleValue
0.738

@<SCITEGIC>MOL_PROPERTY
VdW6
SciTegic.value.DoubleValue
-6.010

@<SCITEGIC>MOL_PROPERTY
VdW12
SciTegic.value.DoubleValue
6.748

@<SCITEGIC>MOL_PROPERTY
Bond
SciTegic.value.DoubleValue
0.126

@<SCITEGIC>MOL_PROPERTY
Angle
SciTegic.value.DoubleValue
2.499

@<SCITEGIC>MOL_PROPERTY
Pdih
SciTegic.value.DoubleValue
4.570

@<SCITEGIC>MOL_PROPERTY
Idih
SciTegic.value.DoubleValue
0.001

@<SCITEGIC>MOL_PROPERTY
Tether
SciTegic.value.DoubleValue
0.000

@<TRIPOS>MOLECULE
guest-7_confgen4.mol2 : confsearch ligand conformer 651
          19          18           1
SMALL
USER_CHARGES
 
@<TRIPOS>ATOM
       1    C1      20.329057   16.468117   24.154425 C.2        1 MOL1         0.6115
       2    O1      19.379970   16.361263   24.905449 O.co2      1 MOL1        -0.6776
       3    O2      20.942465   15.519680   23.706717 O.co2      1 MOL1        -0.6776
       4    C2      20.763268   17.868698   23.736891 C.3        1 MOL1        -0.2013
       5    H1      21.849742   17.858209   23.588088 H          1 MOL1         0.0727
       6    H2      20.556593   18.552179   24.569277 H          1 MOL1         0.0727
       7    C3      20.052176   18.361814   22.452514 C.3        1 MOL1        -0.1910
       8    H3      20.260798   17.662480   21.631144 H          1 MOL1         0.0729
       9    H4      18.966951   18.346030   22.618825 H          1 MOL1         0.0729
      10    C4      20.508511   19.784566   22.054776 C.3        1 MOL1        -0.1909
      11    H5      21.603253   19.796368   21.963157 H          1 MOL1         0.0729
      12    H6      20.255419   20.492375   22.856000 H          1 MOL1         0.0729
      13    C5      19.899024   20.274258   20.720867 C.3        1 MOL1        -0.1884
      14    H7      20.361544   21.234345   20.453372 H          1 MOL1         0.0729
      15    H8      20.154764   19.571630   19.915735 H          1 MOL1         0.0729
      16    C6      18.367478   20.460317   20.780873 C.3        1 MOL1        -0.2899
      17    H9      18.085571   21.136860   21.598170 H          1 MOL1         0.0741
      18    H10     17.996313   20.891442   19.842092 H          1 MOL1         0.0741
      19    H11     17.853093   19.503184   20.932691 H          1 MOL1         0.0741
@<TRIPOS>BOND
    1     1     2    1
    2     1     3    2
    3     1     4    1
    4     4     5    1
    5     4     6    1
    6     4     7    1
    7     7     8    1
    8     7     9    1
    9     7    10    1
   10    10    11    1
   11    10    12    1
   12    10    13    1
   13    13    14    1
   14    13    15    1
   15    13    16    1
   16    16    17    1
   17    16    18    1
   18    16    19    1
@<TRIPOS>SUBSTRUCTURE
       1 MOL1            1 RESIDUE      1      MOL     
@<SCITEGIC>MOL_PROPERTY
VConf Rank
SciTegic.value.IntegerValue
651

@<SCITEGIC>MOL_PROPERTY
Conf_Id
SciTegic.value.IntegerValue
42

@<SCITEGIC>MOL_PROPERTY
Delta U+W
SciTegic.value.DoubleValue
-0.344

@<SCITEGIC>MOL_PROPERTY
U+W
SciTegic.value.DoubleValue
-55.236

@<SCITEGIC>MOL_PROPERTY
Grad RMS
SciTegic.value.DoubleValue
0.000000

@<SCITEGIC>MOL_PROPERTY
U
SciTegic.value.DoubleValue
7.244

@<SCITEGIC>MOL_PROPERTY
W
SciTegic.value.DoubleValue
-62.479

@<SCITEGIC>MOL_PROPERTY
W(PB)
SciTegic.value.DoubleValue
-64.610

@<SCITEGIC>MOL_PROPERTY
W(SA)
SciTegic.value.DoubleValue
2.130

@<SCITEGIC>MOL_PROPERTY
Valence
SciTegic.value.DoubleValue
7.174

@<SCITEGIC>MOL_PROPERTY
Coulomb
SciTegic.value.DoubleValue
-0.669

@<SCITEGIC>MOL_PROPERTY
VdW
SciTegic.value.DoubleValue
0.739

@<SCITEGIC>MOL_PROPERTY
VdW6
SciTegic.value.DoubleValue
-5.969

@<SCITEGIC>MOL_PROPERTY
VdW12
SciTegic.value.DoubleValue
6.708

@<SCITEGIC>MOL_PROPERTY
Bond
SciTegic.value.DoubleValue
0.116

@<SCITEGIC>MOL_PROPERTY
Angle
SciTegic.value.DoubleValue
2.481

@<SCITEGIC>MOL_PROPERTY
Pdih
SciTegic.value.DoubleValue
4.576

@<SCITEGIC>MOL_PROPERTY
Idih
SciTegic.value.DoubleValue
0.000

@<SCITEGIC>MOL_PROPERTY
Tether
SciTegic.value.DoubleValue
0.000

@<TRIPOS>MOLECULE
guest-7_confgen4.mol2 : confsearch ligand conformer 652
          19          18           1
SMALL
USER_CHARGES
 
@<TRIPOS>ATOM
       1    C1      16.979196   18.236276   21.995641 C.2        1 MOL1         0.6115
       2    O1      16.631773   18.301067   20.833178 O.co2      1 MOL1        -0.6776
       3    O2      16.265098   18.544391   22.929115 O.co2      1 MOL1        -0.6776
       4    C2      18.395233   17.759412   22.298856 C.3        1 MOL1        -0.2013
       5    H1      18.682970   17.033673   21.528635 H          1 MOL1         0.0727
       6    H2      18.377026   17.225621   23.256673 H          1 MOL1         0.0727
       7    C3      19.422357   18.917307   22.351197 C.3        1 MOL1        -0.1910
       8    H3      19.409291   19.447619   21.389833 H          1 MOL1         0.0729
       9    H4      19.115584   19.639816   23.120033 H          1 MOL1         0.0729
      10    C4      20.848882   18.404964   22.656466 C.3        1 MOL1        -0.1909
      11    H5      21.174637   17.720182   21.861505 H          1 MOL1         0.0729
      12    H6      20.826681   17.816964   23.584235 H          1 MOL1         0.0729
      13    C5      21.886844   19.539336   22.819020 C.3        1 MOL1        -0.1884
      14    H7      21.567245   20.223409   23.617285 H          1 MOL1         0.0729
      15    H8      22.839091   19.101299   23.148554 H          1 MOL1         0.0729
      16    C6      22.129989   20.335819   21.518887 C.3        1 MOL1        -0.2899
      17    H9      21.231844   20.886270   21.212157 H          1 MOL1         0.0741
      18    H10     22.935221   21.067909   21.662376 H          1 MOL1         0.0741
      19    H11     22.422555   19.668218   20.697990 H          1 MOL1         0.0741
@<TRIPOS>BOND
    1     1     2    1
    2     1     3    2
    3     1     4    1
    4     4     5    1
    5     4     6    1
    6     4     7    1
    7     7     8    1
    8     7     9    1
    9     7    10    1
   10    10    11    1
   11    10    12    1
   12    10    13    1
   13    13    14    1
   14    13    15    1
   15    13    16    1
   16    16    17    1
   17    16    18    1
   18    16    19    1
@<TRIPOS>SUBSTRUCTURE
       1 MOL1            1 RESIDUE      1      MOL     
@<SCITEGIC>MOL_PROPERTY
VConf Rank
SciTegic.value.IntegerValue
652

@<SCITEGIC>MOL_PROPERTY
Conf_Id
SciTegic.value.IntegerValue
41

@<SCITEGIC>MOL_PROPERTY
Delta U+W
SciTegic.value.DoubleValue
-0.361

@<SCITEGIC>MOL_PROPERTY
U+W
SciTegic.value.DoubleValue
-55.252

@<SCITEGIC>MOL_PROPERTY
Grad RMS
SciTegic.value.DoubleValue
0.000000

@<SCITEGIC>MOL_PROPERTY
U
SciTegic.value.DoubleValue
7.244

@<SCITEGIC>MOL_PROPERTY
W
SciTegic.value.DoubleValue
-62.496

@<SCITEGIC>MOL_PROPERTY
W(PB)
SciTegic.value.DoubleValue
-64.596

@<SCITEGIC>MOL_PROPERTY
W(SA)
SciTegic.value.DoubleValue
2.099

@<SCITEGIC>MOL_PROPERTY
Valence
SciTegic.value.DoubleValue
7.174

@<SCITEGIC>MOL_PROPERTY
Coulomb
SciTegic.value.DoubleValue
-0.669

@<SCITEGIC>MOL_PROPERTY
VdW
SciTegic.value.DoubleValue
0.739

@<SCITEGIC>MOL_PROPERTY
VdW6
SciTegic.value.DoubleValue
-5.969

@<SCITEGIC>MOL_PROPERTY
VdW12
SciTegic.value.DoubleValue
6.708

@<SCITEGIC>MOL_PROPERTY
Bond
SciTegic.value.DoubleValue
0.116

@<SCITEGIC>MOL_PROPERTY
Angle
SciTegic.value.DoubleValue
2.481

@<SCITEGIC>MOL_PROPERTY
Pdih
SciTegic.value.DoubleValue
4.576

@<SCITEGIC>MOL_PROPERTY
Idih
SciTegic.value.DoubleValue
0.000

@<SCITEGIC>MOL_PROPERTY
Tether
SciTegic.value.DoubleValue
0.000

@<TRIPOS>MOLECULE
guest-7_confgen4.mol2 : confsearch ligand conformer 653
          19          18           1
SMALL
USER_CHARGES
 
@<TRIPOS>ATOM
       1    C1      20.728330   21.698591   22.208983 C.2        1 MOL1         0.6115
       2    O1      21.835105   21.528781   21.737004 O.co2      1 MOL1        -0.6776
       3    O2      19.917918   22.482694   21.756108 O.co2      1 MOL1        -0.6776
       4    C2      20.340966   20.900953   23.451185 C.3        1 MOL1        -0.2013
       5    H1      19.887648   21.601421   24.162493 H          1 MOL1         0.0727
       6    H2      21.255169   20.518552   23.921279 H          1 MOL1         0.0727
       7    C3      19.355407   19.736553   23.172009 C.3        1 MOL1        -0.1910
       8    H3      19.026183   19.311101   24.129681 H          1 MOL1         0.0729
       9    H4      18.457708   20.130720   22.675622 H          1 MOL1         0.0729
      10    C4      19.983789   18.620330   22.308012 C.3        1 MOL1        -0.1909
      11    H5      20.887844   18.238676   22.802031 H          1 MOL1         0.0729
      12    H6      20.300485   19.034666   21.340824 H          1 MOL1         0.0729
      13    C5      18.996764   17.458659   22.069459 C.3        1 MOL1        -0.1884
      14    H7      18.679682   17.037414   23.033535 H          1 MOL1         0.0729
      15    H8      18.092429   17.837260   21.573159 H          1 MOL1         0.0729
      16    C6      19.626681   16.346577   21.207223 C.3        1 MOL1        -0.2899
      17    H9      20.516567   15.927841   21.695249 H          1 MOL1         0.0741
      18    H10     18.911550   15.529236   21.047136 H          1 MOL1         0.0741
      19    H11     19.924995   16.733582   20.224025 H          1 MOL1         0.0741
@<TRIPOS>BOND
    1     1     2    1
    2     1     3    2
    3     1     4    1
    4     4     5    1
    5     4     6    1
    6     4     7    1
    7     7     8    1
    8     7     9    1
    9     7    10    1
   10    10    11    1
   11    10    12    1
   12    10    13    1
   13    13    14    1
   14    13    15    1
   15    13    16    1
   16    16    17    1
   17    16    18    1
   18    16    19    1
@<TRIPOS>SUBSTRUCTURE
       1 MOL1            1 RESIDUE      1      MOL     
@<SCITEGIC>MOL_PROPERTY
VConf Rank
SciTegic.value.IntegerValue
653

@<SCITEGIC>MOL_PROPERTY
Conf_Id
SciTegic.value.IntegerValue
36

@<SCITEGIC>MOL_PROPERTY
Delta U+W
SciTegic.value.DoubleValue
-0.079

@<SCITEGIC>MOL_PROPERTY
U+W
SciTegic.value.DoubleValue
-54.971

@<SCITEGIC>MOL_PROPERTY
Grad RMS
SciTegic.value.DoubleValue
0.000000

@<SCITEGIC>MOL_PROPERTY
U
SciTegic.value.DoubleValue
8.266

@<SCITEGIC>MOL_PROPERTY
W
SciTegic.value.DoubleValue
-63.237

@<SCITEGIC>MOL_PROPERTY
W(PB)
SciTegic.value.DoubleValue
-65.340

@<SCITEGIC>MOL_PROPERTY
W(SA)
SciTegic.value.DoubleValue
2.103

@<SCITEGIC>MOL_PROPERTY
Valence
SciTegic.value.DoubleValue
6.935

@<SCITEGIC>MOL_PROPERTY
Coulomb
SciTegic.value.DoubleValue
0.874

@<SCITEGIC>MOL_PROPERTY
VdW
SciTegic.value.DoubleValue
0.457

@<SCITEGIC>MOL_PROPERTY
VdW6
SciTegic.value.DoubleValue
-6.205

@<SCITEGIC>MOL_PROPERTY
VdW12
SciTegic.value.DoubleValue
6.662

@<SCITEGIC>MOL_PROPERTY
Bond
SciTegic.value.DoubleValue
0.107

@<SCITEGIC>MOL_PROPERTY
Angle
SciTegic.value.DoubleValue
2.420

@<SCITEGIC>MOL_PROPERTY
Pdih
SciTegic.value.DoubleValue
4.407

@<SCITEGIC>MOL_PROPERTY
Idih
SciTegic.value.DoubleValue
0.001

@<SCITEGIC>MOL_PROPERTY
Tether
SciTegic.value.DoubleValue
0.000

@<TRIPOS>MOLECULE
guest-7_confgen4.mol2 : confsearch ligand conformer 654
          19          18           1
SMALL
USER_CHARGES
 
@<TRIPOS>ATOM
       1    C1      19.237090   18.505810   25.023848 C.2        1 MOL1         0.6115
       2    O1      19.313720   19.636594   25.462037 O.co2      1 MOL1        -0.6776
       3    O2      19.727525   17.538341   25.571714 O.co2      1 MOL1        -0.6776
       4    C2      18.465108   18.283118   23.726235 C.3        1 MOL1        -0.2013
       5    H1      17.818597   19.151358   23.549686 H          1 MOL1         0.0727
       6    H2      17.804414   17.422005   23.881408 H          1 MOL1         0.0727
       7    C3      19.367025   18.027446   22.490812 C.3        1 MOL1        -0.1910
       8    H3      20.028249   17.173432   22.693478 H          1 MOL1         0.0729
       9    H4      18.733468   17.741979   21.640136 H          1 MOL1         0.0729
      10    C4      20.210985   19.262923   22.105274 C.3        1 MOL1        -0.1909
      11    H5      20.860397   19.544667   22.945695 H          1 MOL1         0.0729
      12    H6      19.546386   20.117136   21.916444 H          1 MOL1         0.0729
      13    C5      21.076238   18.996371   20.855918 C.3        1 MOL1        -0.1884
      14    H7      21.743752   18.143771   21.042928 H          1 MOL1         0.0729
      15    H8      20.431555   18.718168   20.010686 H          1 MOL1         0.0729
      16    C6      21.917045   20.230891   20.473840 C.3        1 MOL1        -0.2899
      17    H9      22.594424   20.512637   21.290675 H          1 MOL1         0.0741
      18    H10     22.526196   20.023920   19.584354 H          1 MOL1         0.0741
      19    H11     21.272511   21.091250   20.250760 H          1 MOL1         0.0741
@<TRIPOS>BOND
    1     1     2    1
    2     1     3    2
    3     1     4    1
    4     4     5    1
    5     4     6    1
    6     4     7    1
    7     7     8    1
    8     7     9    1
    9     7    10    1
   10    10    11    1
   11    10    12    1
   12    10    13    1
   13    13    14    1
   14    13    15    1
   15    13    16    1
   16    16    17    1
   17    16    18    1
   18    16    19    1
@<TRIPOS>SUBSTRUCTURE
       1 MOL1            1 RESIDUE      1      MOL     
@<SCITEGIC>MOL_PROPERTY
VConf Rank
SciTegic.value.IntegerValue
654

@<SCITEGIC>MOL_PROPERTY
Conf_Id
SciTegic.value.IntegerValue
35

@<SCITEGIC>MOL_PROPERTY
Delta U+W
SciTegic.value.DoubleValue
-0.030

@<SCITEGIC>MOL_PROPERTY
U+W
SciTegic.value.DoubleValue
-54.921

@<SCITEGIC>MOL_PROPERTY
Grad RMS
SciTegic.value.DoubleValue
0.000000

@<SCITEGIC>MOL_PROPERTY
U
SciTegic.value.DoubleValue
8.267

@<SCITEGIC>MOL_PROPERTY
W
SciTegic.value.DoubleValue
-63.188

@<SCITEGIC>MOL_PROPERTY
W(PB)
SciTegic.value.DoubleValue
-65.294

@<SCITEGIC>MOL_PROPERTY
W(SA)
SciTegic.value.DoubleValue
2.106

@<SCITEGIC>MOL_PROPERTY
Valence
SciTegic.value.DoubleValue
6.935

@<SCITEGIC>MOL_PROPERTY
Coulomb
SciTegic.value.DoubleValue
0.875

@<SCITEGIC>MOL_PROPERTY
VdW
SciTegic.value.DoubleValue
0.457

@<SCITEGIC>MOL_PROPERTY
VdW6
SciTegic.value.DoubleValue
-6.205

@<SCITEGIC>MOL_PROPERTY
VdW12
SciTegic.value.DoubleValue
6.662

@<SCITEGIC>MOL_PROPERTY
Bond
SciTegic.value.DoubleValue
0.107

@<SCITEGIC>MOL_PROPERTY
Angle
SciTegic.value.DoubleValue
2.420

@<SCITEGIC>MOL_PROPERTY
Pdih
SciTegic.value.DoubleValue
4.407

@<SCITEGIC>MOL_PROPERTY
Idih
SciTegic.value.DoubleValue
0.001

@<SCITEGIC>MOL_PROPERTY
Tether
SciTegic.value.DoubleValue
0.000

@<TRIPOS>MOLECULE
guest-7_confgen4.mol2 : confsearch ligand conformer 655
          19          18           1
SMALL
USER_CHARGES
 
@<TRIPOS>ATOM
       1    C1      17.293529   18.158208   22.821305 C.2        1 MOL1         0.6115
       2    O1      17.093791   16.959929   22.790652 O.co2      1 MOL1        -0.6776
       3    O2      16.599627   18.969803   22.241255 O.co2      1 MOL1        -0.6776
       4    C2      18.467052   18.671064   23.651548 C.3        1 MOL1        -0.2013
       5    H1      18.434491   18.154476   24.618073 H          1 MOL1         0.0727
       6    H2      18.312370   19.737394   23.856418 H          1 MOL1         0.0727
       7    C3      19.853607   18.448611   22.992989 C.3        1 MOL1        -0.1910
       8    H3      20.631214   18.705001   23.723702 H          1 MOL1         0.0729
       9    H4      19.977897   17.382524   22.757744 H          1 MOL1         0.0729
      10    C4      20.044965   19.294501   21.711374 C.3        1 MOL1        -0.1909
      11    H5      19.958436   20.362012   21.955817 H          1 MOL1         0.0729
      12    H6      19.232002   19.071389   21.006863 H          1 MOL1         0.0729
      13    C5      21.392347   19.033952   20.998981 C.3        1 MOL1        -0.1884
      14    H7      21.480844   17.967122   20.751285 H          1 MOL1         0.0729
      15    H8      21.395521   19.575605   20.043040 H          1 MOL1         0.0729
      16    C6      22.618086   19.479190   21.825628 C.3        1 MOL1        -0.2899
      17    H9      22.724270   18.881352   22.739377 H          1 MOL1         0.0741
      18    H10     23.539289   19.358139   21.241104 H          1 MOL1         0.0741
      19    H11     22.536088   20.535784   22.112042 H          1 MOL1         0.0741
@<TRIPOS>BOND
    1     1     2    1
    2     1     3    2
    3     1     4    1
    4     4     5    1
    5     4     6    1
    6     4     7    1
    7     7     8    1
    8     7     9    1
    9     7    10    1
   10    10    11    1
   11    10    12    1
   12    10    13    1
   13    13    14    1
   14    13    15    1
   15    13    16    1
   16    16    17    1
   17    16    18    1
   18    16    19    1
@<TRIPOS>SUBSTRUCTURE
       1 MOL1            1 RESIDUE      1      MOL     
@<SCITEGIC>MOL_PROPERTY
VConf Rank
SciTegic.value.IntegerValue
655

@<SCITEGIC>MOL_PROPERTY
Conf_Id
SciTegic.value.IntegerValue
74

@<SCITEGIC>MOL_PROPERTY
Delta U+W
SciTegic.value.DoubleValue
0.797

@<SCITEGIC>MOL_PROPERTY
U+W
SciTegic.value.DoubleValue
-54.095

@<SCITEGIC>MOL_PROPERTY
Grad RMS
SciTegic.value.DoubleValue
0.000000

@<SCITEGIC>MOL_PROPERTY
U
SciTegic.value.DoubleValue
8.869

@<SCITEGIC>MOL_PROPERTY
W
SciTegic.value.DoubleValue
-62.964

@<SCITEGIC>MOL_PROPERTY
W(PB)
SciTegic.value.DoubleValue
-65.046

@<SCITEGIC>MOL_PROPERTY
W(SA)
SciTegic.value.DoubleValue
2.082

@<SCITEGIC>MOL_PROPERTY
Valence
SciTegic.value.DoubleValue
7.469

@<SCITEGIC>MOL_PROPERTY
Coulomb
SciTegic.value.DoubleValue
0.762

@<SCITEGIC>MOL_PROPERTY
VdW
SciTegic.value.DoubleValue
0.639

@<SCITEGIC>MOL_PROPERTY
VdW6
SciTegic.value.DoubleValue
-6.782

@<SCITEGIC>MOL_PROPERTY
VdW12
SciTegic.value.DoubleValue
7.421

@<SCITEGIC>MOL_PROPERTY
Bond
SciTegic.value.DoubleValue
0.141

@<SCITEGIC>MOL_PROPERTY
Angle
SciTegic.value.DoubleValue
2.667

@<SCITEGIC>MOL_PROPERTY
Pdih
SciTegic.value.DoubleValue
4.660

@<SCITEGIC>MOL_PROPERTY
Idih
SciTegic.value.DoubleValue
0.001

@<SCITEGIC>MOL_PROPERTY
Tether
SciTegic.value.DoubleValue
0.000

@<TRIPOS>MOLECULE
guest-7_confgen4.mol2 : confsearch ligand conformer 656
          19          18           1
SMALL
USER_CHARGES
 
@<TRIPOS>ATOM
       1    C1      20.959339   17.084795   24.355977 C.2        1 MOL1         0.6115
       2    O1      20.962453   17.210887   25.564494 O.co2      1 MOL1        -0.6776
       3    O2      21.004772   16.009341   23.792367 O.co2      1 MOL1        -0.6776
       4    C2      20.874822   18.344143   23.500923 C.3        1 MOL1        -0.2013
       5    H1      21.432345   18.157571   22.575981 H          1 MOL1         0.0727
       6    H2      21.388242   19.153349   24.033784 H          1 MOL1         0.0727
       7    C3      19.414487   18.756297   23.181329 C.3        1 MOL1        -0.1910
       8    H3      18.922248   17.954713   22.614811 H          1 MOL1         0.0729
       9    H4      18.859117   18.846192   24.125089 H          1 MOL1         0.0729
      10    C4      19.303391   20.098023   22.414415 C.3        1 MOL1        -0.1909
      11    H5      19.709668   20.901920   23.043290 H          1 MOL1         0.0729
      12    H6      18.240379   20.334319   22.269668 H          1 MOL1         0.0729
      13    C5      20.015330   20.133220   21.039714 C.3        1 MOL1        -0.1884
      14    H7      19.880600   21.131818   20.601844 H          1 MOL1         0.0729
      15    H8      21.097801   20.002940   21.169689 H          1 MOL1         0.0729
      16    C6      19.479689   19.079566   20.046588 C.3        1 MOL1        -0.2899
      17    H9      18.393764   19.176578   19.918574 H          1 MOL1         0.0741
      18    H10     19.949367   19.205420   19.062526 H          1 MOL1         0.0741
      19    H11     19.696975   18.060474   20.390834 H          1 MOL1         0.0741
@<TRIPOS>BOND
    1     1     2    1
    2     1     3    2
    3     1     4    1
    4     4     5    1
    5     4     6    1
    6     4     7    1
    7     7     8    1
    8     7     9    1
    9     7    10    1
   10    10    11    1
   11    10    12    1
   12    10    13    1
   13    13    14    1
   14    13    15    1
   15    13    16    1
   16    16    17    1
   17    16    18    1
   18    16    19    1
@<TRIPOS>SUBSTRUCTURE
       1 MOL1            1 RESIDUE      1      MOL     
@<SCITEGIC>MOL_PROPERTY
VConf Rank
SciTegic.value.IntegerValue
656

@<SCITEGIC>MOL_PROPERTY
Conf_Id
SciTegic.value.IntegerValue
67

@<SCITEGIC>MOL_PROPERTY
Delta U+W
SciTegic.value.DoubleValue
0.308

@<SCITEGIC>MOL_PROPERTY
U+W
SciTegic.value.DoubleValue
-54.583

@<SCITEGIC>MOL_PROPERTY
Grad RMS
SciTegic.value.DoubleValue
0.000000

@<SCITEGIC>MOL_PROPERTY
U
SciTegic.value.DoubleValue
8.219

@<SCITEGIC>MOL_PROPERTY
W
SciTegic.value.DoubleValue
-62.802

@<SCITEGIC>MOL_PROPERTY
W(PB)
SciTegic.value.DoubleValue
-64.859

@<SCITEGIC>MOL_PROPERTY
W(SA)
SciTegic.value.DoubleValue
2.057

@<SCITEGIC>MOL_PROPERTY
Valence
SciTegic.value.DoubleValue
7.609

@<SCITEGIC>MOL_PROPERTY
Coulomb
SciTegic.value.DoubleValue
-0.089

@<SCITEGIC>MOL_PROPERTY
VdW
SciTegic.value.DoubleValue
0.699

@<SCITEGIC>MOL_PROPERTY
VdW6
SciTegic.value.DoubleValue
-6.924

@<SCITEGIC>MOL_PROPERTY
VdW12
SciTegic.value.DoubleValue
7.623

@<SCITEGIC>MOL_PROPERTY
Bond
SciTegic.value.DoubleValue
0.163

@<SCITEGIC>MOL_PROPERTY
Angle
SciTegic.value.DoubleValue
2.870

@<SCITEGIC>MOL_PROPERTY
Pdih
SciTegic.value.DoubleValue
4.576

@<SCITEGIC>MOL_PROPERTY
Idih
SciTegic.value.DoubleValue
0.001

@<SCITEGIC>MOL_PROPERTY
Tether
SciTegic.value.DoubleValue
0.000

@<TRIPOS>MOLECULE
guest-7_confgen4.mol2 : confsearch ligand conformer 657
          19          18           1
SMALL
USER_CHARGES
 
@<TRIPOS>ATOM
       1    C1      21.134169   16.369452   21.453688 C.2        1 MOL1         0.6115
       2    O1      22.276592   16.108341   21.132574 O.co2      1 MOL1        -0.6776
       3    O2      20.172438   15.710869   21.110666 O.co2      1 MOL1        -0.6776
       4    C2      20.893060   17.601913   22.318050 C.3        1 MOL1        -0.2013
       5    H1      21.761964   17.734019   22.973726 H          1 MOL1         0.0727
       6    H2      20.028745   17.395704   22.959609 H          1 MOL1         0.0727
       7    C3      20.654516   18.885291   21.481018 C.3        1 MOL1        -0.1910
       8    H3      21.494807   19.013177   20.784773 H          1 MOL1         0.0729
       9    H4      19.760389   18.755790   20.856884 H          1 MOL1         0.0729
      10    C4      20.525536   20.169105   22.338871 C.3        1 MOL1        -0.1909
      11    H5      20.403948   21.030520   21.668081 H          1 MOL1         0.0729
      12    H6      21.469370   20.334224   22.876185 H          1 MOL1         0.0729
      13    C5      19.363885   20.164579   23.362807 C.3        1 MOL1        -0.1884
      14    H7      19.519046   19.374175   24.108995 H          1 MOL1         0.0729
      15    H8      19.383048   21.112893   23.917256 H          1 MOL1         0.0729
      16    C6      17.974458   19.999187   22.710475 C.3        1 MOL1        -0.2899
      17    H9      17.869366   19.012959   22.240818 H          1 MOL1         0.0741
      18    H10     17.182312   20.094689   23.464265 H          1 MOL1         0.0741
      19    H11     17.806612   20.766463   21.943568 H          1 MOL1         0.0741
@<TRIPOS>BOND
    1     1     2    1
    2     1     3    2
    3     1     4    1
    4     4     5    1
    5     4     6    1
    6     4     7    1
    7     7     8    1
    8     7     9    1
    9     7    10    1
   10    10    11    1
   11    10    12    1
   12    10    13    1
   13    13    14    1
   14    13    15    1
   15    13    16    1
   16    16    17    1
   17    16    18    1
   18    16    19    1
@<TRIPOS>SUBSTRUCTURE
       1 MOL1            1 RESIDUE      1      MOL     
@<SCITEGIC>MOL_PROPERTY
VConf Rank
SciTegic.value.IntegerValue
657

@<SCITEGIC>MOL_PROPERTY
Conf_Id
SciTegic.value.IntegerValue
21

@<SCITEGIC>MOL_PROPERTY
Delta U+W
SciTegic.value.DoubleValue
0.319

@<SCITEGIC>MOL_PROPERTY
U+W
SciTegic.value.DoubleValue
-54.572

@<SCITEGIC>MOL_PROPERTY
Grad RMS
SciTegic.value.DoubleValue
0.000000

@<SCITEGIC>MOL_PROPERTY
U
SciTegic.value.DoubleValue
8.220

@<SCITEGIC>MOL_PROPERTY
W
SciTegic.value.DoubleValue
-62.792

@<SCITEGIC>MOL_PROPERTY
W(PB)
SciTegic.value.DoubleValue
-64.830

@<SCITEGIC>MOL_PROPERTY
W(SA)
SciTegic.value.DoubleValue
2.038

@<SCITEGIC>MOL_PROPERTY
Valence
SciTegic.value.DoubleValue
7.609

@<SCITEGIC>MOL_PROPERTY
Coulomb
SciTegic.value.DoubleValue
-0.088

@<SCITEGIC>MOL_PROPERTY
VdW
SciTegic.value.DoubleValue
0.699

@<SCITEGIC>MOL_PROPERTY
VdW6
SciTegic.value.DoubleValue
-6.924

@<SCITEGIC>MOL_PROPERTY
VdW12
SciTegic.value.DoubleValue
7.623

@<SCITEGIC>MOL_PROPERTY
Bond
SciTegic.value.DoubleValue
0.163

@<SCITEGIC>MOL_PROPERTY
Angle
SciTegic.value.DoubleValue
2.870

@<SCITEGIC>MOL_PROPERTY
Pdih
SciTegic.value.DoubleValue
4.576

@<SCITEGIC>MOL_PROPERTY
Idih
SciTegic.value.DoubleValue
0.000

@<SCITEGIC>MOL_PROPERTY
Tether
SciTegic.value.DoubleValue
0.000

@<TRIPOS>MOLECULE
guest-7_confgen4.mol2 : confsearch ligand conformer 658
          19          18           1
SMALL
USER_CHARGES
 
@<TRIPOS>ATOM
       1    C1      17.592197   19.660593   23.771074 C.2        1 MOL1         0.6115
       2    O1      17.231809   20.739257   24.198908 O.co2      1 MOL1        -0.6776
       3    O2      16.831515   18.743338   23.533881 O.co2      1 MOL1        -0.6776
       4    C2      19.078040   19.453654   23.499911 C.3        1 MOL1        -0.2013
       5    H1      19.308929   18.399463   23.682102 H          1 MOL1         0.0727
       6    H2      19.640995   20.035941   24.239105 H          1 MOL1         0.0727
       7    C3      19.491304   19.875549   22.065055 C.3        1 MOL1        -0.1910
       8    H3      18.887091   19.335492   21.323067 H          1 MOL1         0.0729
       9    H4      19.246605   20.939730   21.942430 H          1 MOL1         0.0729
      10    C4      21.000713   19.677538   21.774503 C.3        1 MOL1        -0.1909
      11    H5      21.583903   19.784423   22.699361 H          1 MOL1         0.0729
      12    H6      21.331561   20.493170   21.117041 H          1 MOL1         0.0729
      13    C5      21.354458   18.342788   21.073635 C.3        1 MOL1        -0.1884
      14    H7      20.834935   18.285383   20.107169 H          1 MOL1         0.0729
      15    H8      22.429122   18.343720   20.844963 H          1 MOL1         0.0729
      16    C6      21.027839   17.085229   21.905237 C.3        1 MOL1        -0.2899
      17    H9      21.420582   16.186727   21.412022 H          1 MOL1         0.0741
      18    H10     21.476231   17.146185   22.905341 H          1 MOL1         0.0741
      19    H11     19.944046   16.954099   22.014754 H          1 MOL1         0.0741
@<TRIPOS>BOND
    1     1     2    1
    2     1     3    2
    3     1     4    1
    4     4     5    1
    5     4     6    1
    6     4     7    1
    7     7     8    1
    8     7     9    1
    9     7    10    1
   10    10    11    1
   11    10    12    1
   12    10    13    1
   13    13    14    1
   14    13    15    1
   15    13    16    1
   16    16    17    1
   17    16    18    1
   18    16    19    1
@<TRIPOS>SUBSTRUCTURE
       1 MOL1            1 RESIDUE      1      MOL     
@<SCITEGIC>MOL_PROPERTY
VConf Rank
SciTegic.value.IntegerValue
658

@<SCITEGIC>MOL_PROPERTY
Conf_Id
SciTegic.value.IntegerValue
24

@<SCITEGIC>MOL_PROPERTY
Delta U+W
SciTegic.value.DoubleValue
2.477

@<SCITEGIC>MOL_PROPERTY
U+W
SciTegic.value.DoubleValue
-52.414

@<SCITEGIC>MOL_PROPERTY
Grad RMS
SciTegic.value.DoubleValue
0.000000

@<SCITEGIC>MOL_PROPERTY
U
SciTegic.value.DoubleValue
10.422

@<SCITEGIC>MOL_PROPERTY
W
SciTegic.value.DoubleValue
-62.836

@<SCITEGIC>MOL_PROPERTY
W(PB)
SciTegic.value.DoubleValue
-64.906

@<SCITEGIC>MOL_PROPERTY
W(SA)
SciTegic.value.DoubleValue
2.070

@<SCITEGIC>MOL_PROPERTY
Valence
SciTegic.value.DoubleValue
9.628

@<SCITEGIC>MOL_PROPERTY
Coulomb
SciTegic.value.DoubleValue
0.101

@<SCITEGIC>MOL_PROPERTY
VdW
SciTegic.value.DoubleValue
0.693

@<SCITEGIC>MOL_PROPERTY
VdW6
SciTegic.value.DoubleValue
-6.927

@<SCITEGIC>MOL_PROPERTY
VdW12
SciTegic.value.DoubleValue
7.620

@<SCITEGIC>MOL_PROPERTY
Bond
SciTegic.value.DoubleValue
0.173

@<SCITEGIC>MOL_PROPERTY
Angle
SciTegic.value.DoubleValue
2.989

@<SCITEGIC>MOL_PROPERTY
Pdih
SciTegic.value.DoubleValue
6.465

@<SCITEGIC>MOL_PROPERTY
Idih
SciTegic.value.DoubleValue
0.001

@<SCITEGIC>MOL_PROPERTY
Tether
SciTegic.value.DoubleValue
0.000

@<TRIPOS>MOLECULE
guest-7_confgen4.mol2 : confsearch ligand conformer 659
          19          18           1
SMALL
USER_CHARGES
 
@<TRIPOS>ATOM
       1    C1      19.088387   18.050563   24.684049 C.2        1 MOL1         0.6115
       2    O1      18.370370   18.981133   24.992562 O.co2      1 MOL1        -0.6776
       3    O2      18.879372   16.901729   25.021047 O.co2      1 MOL1        -0.6776
       4    C2      20.335825   18.340890   23.853482 C.3        1 MOL1        -0.2013
       5    H1      21.175943   17.835494   24.343924 H          1 MOL1         0.0727
       6    H2      20.542792   19.414548   23.905013 H          1 MOL1         0.0727
       7    C3      20.238185   17.860962   22.378669 C.3        1 MOL1        -0.1910
       8    H3      21.227388   17.912869   21.904312 H          1 MOL1         0.0729
       9    H4      19.962092   16.797353   22.385285 H          1 MOL1         0.0729
      10    C4      19.205293   18.639796   21.523082 C.3        1 MOL1        -0.1909
      11    H5      18.378673   18.999767   22.150719 H          1 MOL1         0.0729
      12    H6      18.753209   17.936082   20.810909 H          1 MOL1         0.0729
      13    C5      19.798144   19.813298   20.704958 C.3        1 MOL1        -0.1884
      14    H7      20.562820   19.432405   20.014020 H          1 MOL1         0.0729
      15    H8      19.001770   20.237672   20.078182 H          1 MOL1         0.0729
      16    C6      20.402049   20.941551   21.566294 C.3        1 MOL1        -0.2899
      17    H9      21.308827   20.602832   22.082412 H          1 MOL1         0.0741
      18    H10     20.679669   21.797626   20.937930 H          1 MOL1         0.0741
      19    H11     19.681997   21.291289   22.317755 H          1 MOL1         0.0741
@<TRIPOS>BOND
    1     1     2    1
    2     1     3    2
    3     1     4    1
    4     4     5    1
    5     4     6    1
    6     4     7    1
    7     7     8    1
    8     7     9    1
    9     7    10    1
   10    10    11    1
   11    10    12    1
   12    10    13    1
   13    13    14    1
   14    13    15    1
   15    13    16    1
   16    16    17    1
   17    16    18    1
   18    16    19    1
@<TRIPOS>SUBSTRUCTURE
       1 MOL1            1 RESIDUE      1      MOL     
@<SCITEGIC>MOL_PROPERTY
VConf Rank
SciTegic.value.IntegerValue
659

@<SCITEGIC>MOL_PROPERTY
Conf_Id
SciTegic.value.IntegerValue
4

@<SCITEGIC>MOL_PROPERTY
Delta U+W
SciTegic.value.DoubleValue
3.753

@<SCITEGIC>MOL_PROPERTY
U+W
SciTegic.value.DoubleValue
-51.138

@<SCITEGIC>MOL_PROPERTY
Grad RMS
SciTegic.value.DoubleValue
0.000000

@<SCITEGIC>MOL_PROPERTY
U
SciTegic.value.DoubleValue
12.334

@<SCITEGIC>MOL_PROPERTY
W
SciTegic.value.DoubleValue
-63.472

@<SCITEGIC>MOL_PROPERTY
W(PB)
SciTegic.value.DoubleValue
-65.500

@<SCITEGIC>MOL_PROPERTY
W(SA)
SciTegic.value.DoubleValue
2.028

@<SCITEGIC>MOL_PROPERTY
Valence
SciTegic.value.DoubleValue
9.984

@<SCITEGIC>MOL_PROPERTY
Coulomb
SciTegic.value.DoubleValue
1.767

@<SCITEGIC>MOL_PROPERTY
VdW
SciTegic.value.DoubleValue
0.583

@<SCITEGIC>MOL_PROPERTY
VdW6
SciTegic.value.DoubleValue
-7.767

@<SCITEGIC>MOL_PROPERTY
VdW12
SciTegic.value.DoubleValue
8.349

@<SCITEGIC>MOL_PROPERTY
Bond
SciTegic.value.DoubleValue
0.203

@<SCITEGIC>MOL_PROPERTY
Angle
SciTegic.value.DoubleValue
3.191

@<SCITEGIC>MOL_PROPERTY
Pdih
SciTegic.value.DoubleValue
6.589

@<SCITEGIC>MOL_PROPERTY
Idih
SciTegic.value.DoubleValue
0.001

@<SCITEGIC>MOL_PROPERTY
Tether
SciTegic.value.DoubleValue
0.000

@<TRIPOS>MOLECULE
guest-7_confgen4.mol2 : confsearch ligand conformer 660
          19          18           1
SMALL
USER_CHARGES
 
@<TRIPOS>ATOM
       1    C1      19.188354   20.301349   20.342659 C.2        1 MOL1         0.6115
       2    O1      19.143632   21.503998   20.173222 O.co2      1 MOL1        -0.6776
       3    O2      19.593292   19.520580   19.504138 O.co2      1 MOL1        -0.6776
       4    C2      18.680947   19.742557   21.669504 C.3        1 MOL1        -0.2013
       5    H1      18.495716   18.670959   21.544616 H          1 MOL1         0.0727
       6    H2      17.708201   20.208326   21.865922 H          1 MOL1         0.0727
       7    C3      19.629751   20.009154   22.871017 C.3        1 MOL1        -0.1910
       8    H3      19.836060   21.087862   22.907905 H          1 MOL1         0.0729
       9    H4      19.116050   19.767974   23.811324 H          1 MOL1         0.0729
      10    C4      20.977513   19.245038   22.799334 C.3        1 MOL1        -0.1909
      11    H5      21.756167   19.886400   23.234231 H          1 MOL1         0.0729
      12    H6      21.274093   19.084709   21.753801 H          1 MOL1         0.0729
      13    C5      20.999334   17.900660   23.567497 C.3        1 MOL1        -0.1884
      14    H7      22.017003   17.489283   23.519823 H          1 MOL1         0.0729
      15    H8      20.789881   18.079787   24.631096 H          1 MOL1         0.0729
      16    C6      20.014813   16.845892   23.021842 C.3        1 MOL1        -0.2899
      17    H9      20.151998   16.700868   21.942197 H          1 MOL1         0.0741
      18    H10     20.174160   15.879406   23.517111 H          1 MOL1         0.0741
      19    H11     18.974962   17.143413   23.205005 H          1 MOL1         0.0741
@<TRIPOS>BOND
    1     1     2    1
    2     1     3    2
    3     1     4    1
    4     4     5    1
    5     4     6    1
    6     4     7    1
    7     7     8    1
    8     7     9    1
    9     7    10    1
   10    10    11    1
   11    10    12    1
   12    10    13    1
   13    13    14    1
   14    13    15    1
   15    13    16    1
   16    16    17    1
   17    16    18    1
   18    16    19    1
@<TRIPOS>SUBSTRUCTURE
       1 MOL1            1 RESIDUE      1      MOL     
@<SCITEGIC>MOL_PROPERTY
VConf Rank
SciTegic.value.IntegerValue
660

@<SCITEGIC>MOL_PROPERTY
Conf_Id
SciTegic.value.IntegerValue
73

@<SCITEGIC>MOL_PROPERTY
Delta U+W
SciTegic.value.DoubleValue
3.707

@<SCITEGIC>MOL_PROPERTY
U+W
SciTegic.value.DoubleValue
-51.184

@<SCITEGIC>MOL_PROPERTY
Grad RMS
SciTegic.value.DoubleValue
0.000000

@<SCITEGIC>MOL_PROPERTY
U
SciTegic.value.DoubleValue
12.334

@<SCITEGIC>MOL_PROPERTY
W
SciTegic.value.DoubleValue
-63.519

@<SCITEGIC>MOL_PROPERTY
W(PB)
SciTegic.value.DoubleValue
-65.541

@<SCITEGIC>MOL_PROPERTY
W(SA)
SciTegic.value.DoubleValue
2.022

@<SCITEGIC>MOL_PROPERTY
Valence
SciTegic.value.DoubleValue
9.984

@<SCITEGIC>MOL_PROPERTY
Coulomb
SciTegic.value.DoubleValue
1.768

@<SCITEGIC>MOL_PROPERTY
VdW
SciTegic.value.DoubleValue
0.583

@<SCITEGIC>MOL_PROPERTY
VdW6
SciTegic.value.DoubleValue
-7.767

@<SCITEGIC>MOL_PROPERTY
VdW12
SciTegic.value.DoubleValue
8.350

@<SCITEGIC>MOL_PROPERTY
Bond
SciTegic.value.DoubleValue
0.203

@<SCITEGIC>MOL_PROPERTY
Angle
SciTegic.value.DoubleValue
3.192

@<SCITEGIC>MOL_PROPERTY
Pdih
SciTegic.value.DoubleValue
6.589

@<SCITEGIC>MOL_PROPERTY
Idih
SciTegic.value.DoubleValue
0.001

@<SCITEGIC>MOL_PROPERTY
Tether
SciTegic.value.DoubleValue
0.000

@<TRIPOS>MOLECULE
guest-7_confgen4.mol2 : confsearch ligand conformer 661
          19          18           1
SMALL
USER_CHARGES
 
@<TRIPOS>ATOM
       1    C1      17.412786   18.723118   21.578027 C.2        1 MOL1         0.6115
       2    O1      17.360010   17.517303   21.719224 O.co2      1 MOL1        -0.6776
       3    O2      16.462007   19.460890   21.747947 O.co2      1 MOL1        -0.6776
       4    C2      18.733986   19.343702   21.132345 C.3        1 MOL1        -0.2013
       5    H1      18.516824   19.995109   20.277840 H          1 MOL1         0.0727
       6    H2      19.387793   18.547865   20.757543 H          1 MOL1         0.0727
       7    C3      19.453245   20.166694   22.235802 C.3        1 MOL1        -0.1910
       8    H3      20.350265   20.635190   21.810677 H          1 MOL1         0.0729
       9    H4      18.797466   20.993533   22.541419 H          1 MOL1         0.0729
      10    C4      19.839541   19.349093   23.495325 C.3        1 MOL1        -0.1909
      11    H5      18.923657   18.985942   23.981494 H          1 MOL1         0.0729
      12    H6      20.318658   20.022243   24.219140 H          1 MOL1         0.0729
      13    C5      20.775809   18.143284   23.237169 C.3        1 MOL1        -0.1884
      14    H7      20.963731   17.635894   24.193274 H          1 MOL1         0.0729
      15    H8      20.273202   17.405678   22.597037 H          1 MOL1         0.0729
      16    C6      22.129854   18.542412   22.611922 C.3        1 MOL1        -0.2899
      17    H9      21.997772   18.951682   21.602484 H          1 MOL1         0.0741
      18    H10     22.639151   19.296211   23.226264 H          1 MOL1         0.0741
      19    H11     22.788873   17.668203   22.532887 H          1 MOL1         0.0741
@<TRIPOS>BOND
    1     1     2    1
    2     1     3    2
    3     1     4    1
    4     4     5    1
    5     4     6    1
    6     4     7    1
    7     7     8    1
    8     7     9    1
    9     7    10    1
   10    10    11    1
   11    10    12    1
   12    10    13    1
   13    13    14    1
   14    13    15    1
   15    13    16    1
   16    16    17    1
   17    16    18    1
   18    16    19    1
@<TRIPOS>SUBSTRUCTURE
       1 MOL1            1 RESIDUE      1      MOL     
@<SCITEGIC>MOL_PROPERTY
VConf Rank
SciTegic.value.IntegerValue
661

@<SCITEGIC>MOL_PROPERTY
Conf_Id
SciTegic.value.IntegerValue
56

@<SCITEGIC>MOL_PROPERTY
Delta U+W
SciTegic.value.DoubleValue
1.735

@<SCITEGIC>MOL_PROPERTY
U+W
SciTegic.value.DoubleValue
-53.156

@<SCITEGIC>MOL_PROPERTY
Grad RMS
SciTegic.value.DoubleValue
0.000000

@<SCITEGIC>MOL_PROPERTY
U
SciTegic.value.DoubleValue
10.214

@<SCITEGIC>MOL_PROPERTY
W
SciTegic.value.DoubleValue
-63.370

@<SCITEGIC>MOL_PROPERTY
W(PB)
SciTegic.value.DoubleValue
-65.388

@<SCITEGIC>MOL_PROPERTY
W(SA)
SciTegic.value.DoubleValue
2.018

@<SCITEGIC>MOL_PROPERTY
Valence
SciTegic.value.DoubleValue
7.868

@<SCITEGIC>MOL_PROPERTY
Coulomb
SciTegic.value.DoubleValue
1.968

@<SCITEGIC>MOL_PROPERTY
VdW
SciTegic.value.DoubleValue
0.378

@<SCITEGIC>MOL_PROPERTY
VdW6
SciTegic.value.DoubleValue
-8.067

@<SCITEGIC>MOL_PROPERTY
VdW12
SciTegic.value.DoubleValue
8.445

@<SCITEGIC>MOL_PROPERTY
Bond
SciTegic.value.DoubleValue
0.191

@<SCITEGIC>MOL_PROPERTY
Angle
SciTegic.value.DoubleValue
3.117

@<SCITEGIC>MOL_PROPERTY
Pdih
SciTegic.value.DoubleValue
4.559

@<SCITEGIC>MOL_PROPERTY
Idih
SciTegic.value.DoubleValue
0.001

@<SCITEGIC>MOL_PROPERTY
Tether
SciTegic.value.DoubleValue
0.000

@<TRIPOS>MOLECULE
guest-7_confgen4.mol2 : confsearch ligand conformer 662
          19          18           1
SMALL
USER_CHARGES
 
@<TRIPOS>ATOM
       1    C1      21.088361   18.139793   19.708182 C.2        1 MOL1         0.6115
       2    O1      21.532038   18.934906   18.903626 O.co2      1 MOL1        -0.6776
       3    O2      20.884171   16.969348   19.453743 O.co2      1 MOL1        -0.6776
       4    C2      20.749307   18.643340   21.106653 C.3        1 MOL1        -0.2013
       5    H1      21.441804   19.456776   21.353934 H          1 MOL1         0.0727
       6    H2      20.938123   17.823650   21.808769 H          1 MOL1         0.0727
       7    C3      19.283691   19.130723   21.230767 C.3        1 MOL1        -0.1910
       8    H3      19.082433   19.848417   20.423420 H          1 MOL1         0.0729
       9    H4      18.605307   18.282645   21.064169 H          1 MOL1         0.0729
      10    C4      18.947739   19.807369   22.583460 C.3        1 MOL1        -0.1909
      11    H5      17.906665   20.154108   22.529520 H          1 MOL1         0.0729
      12    H6      19.557058   20.712113   22.714492 H          1 MOL1         0.0729
      13    C5      19.084678   18.884788   23.820068 C.3        1 MOL1        -0.1884
      14    H7      18.296893   19.145047   24.540484 H          1 MOL1         0.0729
      15    H8      18.905689   17.838347   23.536815 H          1 MOL1         0.0729
      16    C6      20.447439   19.021059   24.534938 C.3        1 MOL1        -0.2899
      17    H9      20.487992   18.362027   25.411812 H          1 MOL1         0.0741
      18    H10     21.282675   18.754395   23.877755 H          1 MOL1         0.0741
      19    H11     20.604757   20.050647   24.881828 H          1 MOL1         0.0741
@<TRIPOS>BOND
    1     1     2    1
    2     1     3    2
    3     1     4    1
    4     4     5    1
    5     4     6    1
    6     4     7    1
    7     7     8    1
    8     7     9    1
    9     7    10    1
   10    10    11    1
   11    10    12    1
   12    10    13    1
   13    13    14    1
   14    13    15    1
   15    13    16    1
   16    16    17    1
   17    16    18    1
   18    16    19    1
@<TRIPOS>SUBSTRUCTURE
       1 MOL1            1 RESIDUE      1      MOL     
@<SCITEGIC>MOL_PROPERTY
VConf Rank
SciTegic.value.IntegerValue
662

@<SCITEGIC>MOL_PROPERTY
Conf_Id
SciTegic.value.IntegerValue
53

@<SCITEGIC>MOL_PROPERTY
Delta U+W
SciTegic.value.DoubleValue
2.279

@<SCITEGIC>MOL_PROPERTY
U+W
SciTegic.value.DoubleValue
-52.612

@<SCITEGIC>MOL_PROPERTY
Grad RMS
SciTegic.value.DoubleValue
0.000000

@<SCITEGIC>MOL_PROPERTY
U
SciTegic.value.DoubleValue
10.231

@<SCITEGIC>MOL_PROPERTY
W
SciTegic.value.DoubleValue
-62.843

@<SCITEGIC>MOL_PROPERTY
W(PB)
SciTegic.value.DoubleValue
-64.893

@<SCITEGIC>MOL_PROPERTY
W(SA)
SciTegic.value.DoubleValue
2.050

@<SCITEGIC>MOL_PROPERTY
Valence
SciTegic.value.DoubleValue
9.644

@<SCITEGIC>MOL_PROPERTY
Coulomb
SciTegic.value.DoubleValue
-0.164

@<SCITEGIC>MOL_PROPERTY
VdW
SciTegic.value.DoubleValue
0.751

@<SCITEGIC>MOL_PROPERTY
VdW6
SciTegic.value.DoubleValue
-6.881

@<SCITEGIC>MOL_PROPERTY
VdW12
SciTegic.value.DoubleValue
7.631

@<SCITEGIC>MOL_PROPERTY
Bond
SciTegic.value.DoubleValue
0.163

@<SCITEGIC>MOL_PROPERTY
Angle
SciTegic.value.DoubleValue
2.998

@<SCITEGIC>MOL_PROPERTY
Pdih
SciTegic.value.DoubleValue
6.482

@<SCITEGIC>MOL_PROPERTY
Idih
SciTegic.value.DoubleValue
0.001

@<SCITEGIC>MOL_PROPERTY
Tether
SciTegic.value.DoubleValue
0.000

@<TRIPOS>MOLECULE
guest-7_confgen4.mol2 : confsearch ligand conformer 663
          19          18           1
SMALL
USER_CHARGES
 
@<TRIPOS>ATOM
       1    C1      17.959965   18.412848   21.633743 C.2        1 MOL1         0.6115
       2    O1      17.853738   17.214164   21.803228 O.co2      1 MOL1        -0.6776
       3    O2      17.842324   18.948753   20.549209 O.co2      1 MOL1        -0.6776
       4    C2      18.183177   19.296666   22.859519 C.3        1 MOL1        -0.2013
       5    H1      18.210031   18.664306   23.755243 H          1 MOL1         0.0727
       6    H2      17.292771   19.929689   22.949423 H          1 MOL1         0.0727
       7    C3      19.444486   20.203893   22.803276 C.3        1 MOL1        -0.1910
       8    H3      19.520659   20.678779   21.815235 H          1 MOL1         0.0729
       9    H4      19.305022   21.022793   23.521864 H          1 MOL1         0.0729
      10    C4      20.773838   19.490686   23.153756 C.3        1 MOL1        -0.1909
      11    H5      20.693266   19.024523   24.145237 H          1 MOL1         0.0729
      12    H6      21.560299   20.253549   23.234555 H          1 MOL1         0.0729
      13    C5      21.213825   18.433478   22.117274 C.3        1 MOL1        -0.1884
      14    H7      20.508513   17.592686   22.114085 H          1 MOL1         0.0729
      15    H8      21.197655   18.870753   21.109342 H          1 MOL1         0.0729
      16    C6      22.626748   17.896378   22.422245 C.3        1 MOL1        -0.2899
      17    H9      22.663116   17.430353   23.415651 H          1 MOL1         0.0741
      18    H10     22.920671   17.140672   21.682270 H          1 MOL1         0.0741
      19    H11     23.369493   18.704388   22.394538 H          1 MOL1         0.0741
@<TRIPOS>BOND
    1     1     2    1
    2     1     3    2
    3     1     4    1
    4     4     5    1
    5     4     6    1
    6     4     7    1
    7     7     8    1
    8     7     9    1
    9     7    10    1
   10    10    11    1
   11    10    12    1
   12    10    13    1
   13    13    14    1
   14    13    15    1
   15    13    16    1
   16    16    17    1
   17    16    18    1
   18    16    19    1
@<TRIPOS>SUBSTRUCTURE
       1 MOL1            1 RESIDUE      1      MOL     
@<SCITEGIC>MOL_PROPERTY
VConf Rank
SciTegic.value.IntegerValue
663

@<SCITEGIC>MOL_PROPERTY
Conf_Id
SciTegic.value.IntegerValue
25

@<SCITEGIC>MOL_PROPERTY
Delta U+W
SciTegic.value.DoubleValue
2.065

@<SCITEGIC>MOL_PROPERTY
U+W
SciTegic.value.DoubleValue
-52.826

@<SCITEGIC>MOL_PROPERTY
Grad RMS
SciTegic.value.DoubleValue
0.000000

@<SCITEGIC>MOL_PROPERTY
U
SciTegic.value.DoubleValue
10.967

@<SCITEGIC>MOL_PROPERTY
W
SciTegic.value.DoubleValue
-63.794

@<SCITEGIC>MOL_PROPERTY
W(PB)
SciTegic.value.DoubleValue
-65.830

@<SCITEGIC>MOL_PROPERTY
W(SA)
SciTegic.value.DoubleValue
2.036

@<SCITEGIC>MOL_PROPERTY
Valence
SciTegic.value.DoubleValue
8.609

@<SCITEGIC>MOL_PROPERTY
Coulomb
SciTegic.value.DoubleValue
1.892

@<SCITEGIC>MOL_PROPERTY
VdW
SciTegic.value.DoubleValue
0.467

@<SCITEGIC>MOL_PROPERTY
VdW6
SciTegic.value.DoubleValue
-7.569

@<SCITEGIC>MOL_PROPERTY
VdW12
SciTegic.value.DoubleValue
8.036

@<SCITEGIC>MOL_PROPERTY
Bond
SciTegic.value.DoubleValue
0.170

@<SCITEGIC>MOL_PROPERTY
Angle
SciTegic.value.DoubleValue
3.195

@<SCITEGIC>MOL_PROPERTY
Pdih
SciTegic.value.DoubleValue
5.237

@<SCITEGIC>MOL_PROPERTY
Idih
SciTegic.value.DoubleValue
0.007

@<SCITEGIC>MOL_PROPERTY
Tether
SciTegic.value.DoubleValue
0.000

@<TRIPOS>MOLECULE
guest-7_confgen4.mol2 : confsearch ligand conformer 664
          19          18           1
SMALL
USER_CHARGES
 
@<TRIPOS>ATOM
       1    C1      20.911705   19.426524   20.294053 C.2        1 MOL1         0.6115
       2    O1      20.652142   18.510704   19.538309 O.co2      1 MOL1        -0.6776
       3    O2      22.041056   19.825769   20.499045 O.co2      1 MOL1        -0.6776
       4    C2      19.754455   20.160998   20.968444 C.3        1 MOL1        -0.2013
       5    H1      19.165772   20.614554   20.162614 H          1 MOL1         0.0727
       6    H2      20.156674   20.987766   21.566440 H          1 MOL1         0.0727
       7    C3      18.820664   19.272580   21.837855 C.3        1 MOL1        -0.1910
       8    H3      17.864513   19.800129   21.955685 H          1 MOL1         0.0729
       9    H4      18.587561   18.340329   21.304832 H          1 MOL1         0.0729
      10    C4      19.360718   18.953980   23.254017 C.3        1 MOL1        -0.1909
      11    H5      18.559895   18.461788   23.822734 H          1 MOL1         0.0729
      12    H6      19.584745   19.889988   23.783675 H          1 MOL1         0.0729
      13    C5      20.606989   18.041667   23.262440 C.3        1 MOL1        -0.1884
      14    H7      20.419952   17.149897   22.648308 H          1 MOL1         0.0729
      15    H8      21.460966   18.566319   22.815371 H          1 MOL1         0.0729
      16    C6      20.982399   17.610365   24.694531 C.3        1 MOL1        -0.2899
      17    H9      21.874117   16.970233   24.683818 H          1 MOL1         0.0741
      18    H10     21.199694   18.484025   25.322909 H          1 MOL1         0.0741
      19    H11     20.165526   17.045437   25.162390 H          1 MOL1         0.0741
@<TRIPOS>BOND
    1     1     2    1
    2     1     3    2
    3     1     4    1
    4     4     5    1
    5     4     6    1
    6     4     7    1
    7     7     8    1
    8     7     9    1
    9     7    10    1
   10    10    11    1
   11    10    12    1
   12    10    13    1
   13    13    14    1
   14    13    15    1
   15    13    16    1
   16    16    17    1
   17    16    18    1
   18    16    19    1
@<TRIPOS>SUBSTRUCTURE
       1 MOL1            1 RESIDUE      1      MOL     
@<SCITEGIC>MOL_PROPERTY
VConf Rank
SciTegic.value.IntegerValue
664

@<SCITEGIC>MOL_PROPERTY
Conf_Id
SciTegic.value.IntegerValue
52

@<SCITEGIC>MOL_PROPERTY
Delta U+W
SciTegic.value.DoubleValue
2.070

@<SCITEGIC>MOL_PROPERTY
U+W
SciTegic.value.DoubleValue
-52.822

@<SCITEGIC>MOL_PROPERTY
Grad RMS
SciTegic.value.DoubleValue
0.000000

@<SCITEGIC>MOL_PROPERTY
U
SciTegic.value.DoubleValue
10.967

@<SCITEGIC>MOL_PROPERTY
W
SciTegic.value.DoubleValue
-63.789

@<SCITEGIC>MOL_PROPERTY
W(PB)
SciTegic.value.DoubleValue
-65.837

@<SCITEGIC>MOL_PROPERTY
W(SA)
SciTegic.value.DoubleValue
2.048

@<SCITEGIC>MOL_PROPERTY
Valence
SciTegic.value.DoubleValue
8.609

@<SCITEGIC>MOL_PROPERTY
Coulomb
SciTegic.value.DoubleValue
1.892

@<SCITEGIC>MOL_PROPERTY
VdW
SciTegic.value.DoubleValue
0.467

@<SCITEGIC>MOL_PROPERTY
VdW6
SciTegic.value.DoubleValue
-7.569

@<SCITEGIC>MOL_PROPERTY
VdW12
SciTegic.value.DoubleValue
8.035

@<SCITEGIC>MOL_PROPERTY
Bond
SciTegic.value.DoubleValue
0.170

@<SCITEGIC>MOL_PROPERTY
Angle
SciTegic.value.DoubleValue
3.196

@<SCITEGIC>MOL_PROPERTY
Pdih
SciTegic.value.DoubleValue
5.237

@<SCITEGIC>MOL_PROPERTY
Idih
SciTegic.value.DoubleValue
0.007

@<SCITEGIC>MOL_PROPERTY
Tether
SciTegic.value.DoubleValue
0.000

@<TRIPOS>MOLECULE
guest-7_confgen4.mol2 : confsearch ligand conformer 665
          19          18           1
SMALL
USER_CHARGES
 
@<TRIPOS>ATOM
       1    C1      20.717855   19.809021   20.881617 C.2        1 MOL1         0.6115
       2    O1      19.824166   20.333811   20.245982 O.co2      1 MOL1        -0.6776
       3    O2      21.726873   20.395877   21.219527 O.co2      1 MOL1        -0.6776
       4    C2      20.634488   18.308151   21.164137 C.3        1 MOL1        -0.2013
       5    H1      21.429743   18.032016   21.866887 H          1 MOL1         0.0727
       6    H2      20.867734   17.808532   20.216903 H          1 MOL1         0.0727
       7    C3      19.260138   17.792440   21.678506 C.3        1 MOL1        -0.1910
       8    H3      18.445120   18.285724   21.131059 H          1 MOL1         0.0729
       9    H4      19.184461   16.726068   21.426555 H          1 MOL1         0.0729
      10    C4      19.028175   17.927707   23.205292 C.3        1 MOL1        -0.1909
      11    H5      19.785871   17.350273   23.752562 H          1 MOL1         0.0729
      12    H6      18.067209   17.447930   23.436211 H          1 MOL1         0.0729
      13    C5      18.975720   19.382009   23.732781 C.3        1 MOL1        -0.1884
      14    H7      18.718086   20.076142   22.920895 H          1 MOL1         0.0729
      15    H8      18.165333   19.462709   24.470282 H          1 MOL1         0.0729
      16    C6      20.290287   19.817921   24.414703 C.3        1 MOL1        -0.2899
      17    H9      20.504204   19.190276   25.289482 H          1 MOL1         0.0741
      18    H10     21.142315   19.744454   23.728860 H          1 MOL1         0.0741
      19    H11     20.220956   20.859163   24.754741 H          1 MOL1         0.0741
@<TRIPOS>BOND
    1     1     2    1
    2     1     3    2
    3     1     4    1
    4     4     5    1
    5     4     6    1
    6     4     7    1
    7     7     8    1
    8     7     9    1
    9     7    10    1
   10    10    11    1
   11    10    12    1
   12    10    13    1
   13    13    14    1
   14    13    15    1
   15    13    16    1
   16    16    17    1
   17    16    18    1
   18    16    19    1
@<TRIPOS>SUBSTRUCTURE
       1 MOL1            1 RESIDUE      1      MOL     
@<SCITEGIC>MOL_PROPERTY
VConf Rank
SciTegic.value.IntegerValue
665

@<SCITEGIC>MOL_PROPERTY
Conf_Id
SciTegic.value.IntegerValue
66

@<SCITEGIC>MOL_PROPERTY
Delta U+W
SciTegic.value.DoubleValue
5.819

@<SCITEGIC>MOL_PROPERTY
U+W
SciTegic.value.DoubleValue
-49.072

@<SCITEGIC>MOL_PROPERTY
Grad RMS
SciTegic.value.DoubleValue
0.000000

@<SCITEGIC>MOL_PROPERTY
U
SciTegic.value.DoubleValue
15.324

@<SCITEGIC>MOL_PROPERTY
W
SciTegic.value.DoubleValue
-64.396

@<SCITEGIC>MOL_PROPERTY
W(PB)
SciTegic.value.DoubleValue
-66.382

@<SCITEGIC>MOL_PROPERTY
W(SA)
SciTegic.value.DoubleValue
1.986

@<SCITEGIC>MOL_PROPERTY
Valence
SciTegic.value.DoubleValue
11.748

@<SCITEGIC>MOL_PROPERTY
Coulomb
SciTegic.value.DoubleValue
3.201

@<SCITEGIC>MOL_PROPERTY
VdW
SciTegic.value.DoubleValue
0.375

@<SCITEGIC>MOL_PROPERTY
VdW6
SciTegic.value.DoubleValue
-8.854

@<SCITEGIC>MOL_PROPERTY
VdW12
SciTegic.value.DoubleValue
9.229

@<SCITEGIC>MOL_PROPERTY
Bond
SciTegic.value.DoubleValue
0.216

@<SCITEGIC>MOL_PROPERTY
Angle
SciTegic.value.DoubleValue
3.812

@<SCITEGIC>MOL_PROPERTY
Pdih
SciTegic.value.DoubleValue
7.699

@<SCITEGIC>MOL_PROPERTY
Idih
SciTegic.value.DoubleValue
0.022

@<SCITEGIC>MOL_PROPERTY
Tether
SciTegic.value.DoubleValue
0.000

@<TRIPOS>MOLECULE
guest-7_confgen4.mol2 : confsearch ligand conformer 666
          19          18           1
SMALL
USER_CHARGES
 
@<TRIPOS>ATOM
       1    C1      18.143231   19.638741   24.921033 C.2        1 MOL1         0.6115
       2    O1      17.430721   20.505090   25.387329 O.co2      1 MOL1        -0.6776
       3    O2      18.403934   18.606702   25.508464 O.co2      1 MOL1        -0.6776
       4    C2      18.724575   19.887509   23.528256 C.3        1 MOL1        -0.2013
       5    H1      19.292306   20.824368   23.573288 H          1 MOL1         0.0727
       6    H2      17.881911   20.055462   22.847258 H          1 MOL1         0.0727
       7    C3      19.627827   18.753498   22.974553 C.3        1 MOL1        -0.1910
       8    H3      20.466781   18.586270   23.664233 H          1 MOL1         0.0729
       9    H4      19.054921   17.816548   22.937495 H          1 MOL1         0.0729
      10    C4      20.170278   19.086721   21.567794 C.3        1 MOL1        -0.1909
      11    H5      20.742518   20.023814   21.607119 H          1 MOL1         0.0729
      12    H6      19.329922   19.253635   20.879978 H          1 MOL1         0.0729
      13    C5      21.067967   17.958169   21.019232 C.3        1 MOL1        -0.1884
      14    H7      21.910950   17.789412   21.703624 H          1 MOL1         0.0729
      15    H8      20.498496   17.019358   20.976455 H          1 MOL1         0.0729
      16    C6      21.607817   18.294249   19.614739 C.3        1 MOL1        -0.2899
      17    H9      22.208441   19.213102   19.634301 H          1 MOL1         0.0741
      18    H10     22.243718   17.481601   19.240116 H          1 MOL1         0.0741
      19    H11     20.785342   18.437271   18.901647 H          1 MOL1         0.0741
@<TRIPOS>BOND
    1     1     2    1
    2     1     3    2
    3     1     4    1
    4     4     5    1
    5     4     6    1
    6     4     7    1
    7     7     8    1
    8     7     9    1
    9     7    10    1
   10    10    11    1
   11    10    12    1
   12    10    13    1
   13    13    14    1
   14    13    15    1
   15    13    16    1
   16    16    17    1
   17    16    18    1
   18    16    19    1
@<TRIPOS>SUBSTRUCTURE
       1 MOL1            1 RESIDUE      1      MOL     
@<SCITEGIC>MOL_PROPERTY
VConf Rank
SciTegic.value.IntegerValue
666

@<SCITEGIC>MOL_PROPERTY
Conf_Id
SciTegic.value.IntegerValue
0

@<SCITEGIC>MOL_PROPERTY
Delta U+W
SciTegic.value.DoubleValue
0.000

@<SCITEGIC>MOL_PROPERTY
U+W
SciTegic.value.DoubleValue
-54.891

@<SCITEGIC>MOL_PROPERTY
Grad RMS
SciTegic.value.DoubleValue
0.000000

@<SCITEGIC>MOL_PROPERTY
U
SciTegic.value.DoubleValue
6.966

@<SCITEGIC>MOL_PROPERTY
W
SciTegic.value.DoubleValue
-61.857

@<SCITEGIC>MOL_PROPERTY
W(PB)
SciTegic.value.DoubleValue
-63.965

@<SCITEGIC>MOL_PROPERTY
W(SA)
SciTegic.value.DoubleValue
2.108

@<SCITEGIC>MOL_PROPERTY
Valence
SciTegic.value.DoubleValue
7.175

@<SCITEGIC>MOL_PROPERTY
Coulomb
SciTegic.value.DoubleValue
-1.360

@<SCITEGIC>MOL_PROPERTY
VdW
SciTegic.value.DoubleValue
1.151

@<SCITEGIC>MOL_PROPERTY
VdW6
SciTegic.value.DoubleValue
-5.641

@<SCITEGIC>MOL_PROPERTY
VdW12
SciTegic.value.DoubleValue
6.792

@<SCITEGIC>MOL_PROPERTY
Bond
SciTegic.value.DoubleValue
0.119

@<SCITEGIC>MOL_PROPERTY
Angle
SciTegic.value.DoubleValue
2.715

@<SCITEGIC>MOL_PROPERTY
Pdih
SciTegic.value.DoubleValue
4.340

@<SCITEGIC>MOL_PROPERTY
Idih
SciTegic.value.DoubleValue
0.000

@<SCITEGIC>MOL_PROPERTY
Tether
SciTegic.value.DoubleValue
0.000

@<TRIPOS>MOLECULE
guest-7_confgen4.mol2 : confsearch ligand conformer 667
          19          18           1
SMALL
USER_CHARGES
 
@<TRIPOS>ATOM
       1    C1      18.139205   16.241871   21.100850 C.2        1 MOL1         0.6115
       2    O1      18.259939   15.970305   19.922777 O.co2      1 MOL1        -0.6776
       3    O2      17.908536   15.415699   21.961324 O.co2      1 MOL1        -0.6776
       4    C2      18.306707   17.696523   21.525469 C.3        1 MOL1        -0.2013
       5    H1      17.655571   17.876606   22.389374 H          1 MOL1         0.0727
       6    H2      17.945641   18.333681   20.709133 H          1 MOL1         0.0727
       7    C3      19.771429   18.056573   21.876281 C.3        1 MOL1        -0.1910
       8    H3      20.122038   17.401716   22.686086 H          1 MOL1         0.0729
       9    H4      20.412173   17.858653   21.005750 H          1 MOL1         0.0729
      10    C4      19.913864   19.533615   22.302528 C.3        1 MOL1        -0.1909
      11    H5      19.271137   19.728626   23.172047 H          1 MOL1         0.0729
      12    H6      19.561419   20.185622   21.491441 H          1 MOL1         0.0729
      13    C5      21.374000   19.889433   22.651483 C.3        1 MOL1        -0.1884
      14    H7      21.729622   19.240537   23.463862 H          1 MOL1         0.0729
      15    H8      22.019860   19.697575   21.783411 H          1 MOL1         0.0729
      16    C6      21.512519   21.364887   23.076695 C.3        1 MOL1        -0.2899
      17    H9      22.556450   21.600611   23.321135 H          1 MOL1         0.0741
      18    H10     21.193000   22.037765   22.270119 H          1 MOL1         0.0741
      19    H11     20.900549   21.577301   23.963146 H          1 MOL1         0.0741
@<TRIPOS>BOND
    1     1     2    1
    2     1     3    2
    3     1     4    1
    4     4     5    1
    5     4     6    1
    6     4     7    1
    7     7     8    1
    8     7     9    1
    9     7    10    1
   10    10    11    1
   11    10    12    1
   12    10    13    1
   13    13    14    1
   14    13    15    1
   15    13    16    1
   16    16    17    1
   17    16    18    1
   18    16    19    1
@<TRIPOS>SUBSTRUCTURE
       1 MOL1            1 RESIDUE      1      MOL     
@<SCITEGIC>MOL_PROPERTY
VConf Rank
SciTegic.value.IntegerValue
667

@<SCITEGIC>MOL_PROPERTY
Conf_Id
SciTegic.value.IntegerValue
18

@<SCITEGIC>MOL_PROPERTY
Delta U+W
SciTegic.value.DoubleValue
-1.199

@<SCITEGIC>MOL_PROPERTY
U+W
SciTegic.value.DoubleValue
-56.090

@<SCITEGIC>MOL_PROPERTY
Grad RMS
SciTegic.value.DoubleValue
0.000000

@<SCITEGIC>MOL_PROPERTY
U
SciTegic.value.DoubleValue
5.975

@<SCITEGIC>MOL_PROPERTY
W
SciTegic.value.DoubleValue
-62.066

@<SCITEGIC>MOL_PROPERTY
W(PB)
SciTegic.value.DoubleValue
-64.219

@<SCITEGIC>MOL_PROPERTY
W(SA)
SciTegic.value.DoubleValue
2.153

@<SCITEGIC>MOL_PROPERTY
Valence
SciTegic.value.DoubleValue
6.673

@<SCITEGIC>MOL_PROPERTY
Coulomb
SciTegic.value.DoubleValue
-1.307

@<SCITEGIC>MOL_PROPERTY
VdW
SciTegic.value.DoubleValue
0.610

@<SCITEGIC>MOL_PROPERTY
VdW6
SciTegic.value.DoubleValue
-5.351

@<SCITEGIC>MOL_PROPERTY
VdW12
SciTegic.value.DoubleValue
5.961

@<SCITEGIC>MOL_PROPERTY
Bond
SciTegic.value.DoubleValue
0.086

@<SCITEGIC>MOL_PROPERTY
Angle
SciTegic.value.DoubleValue
2.253

@<SCITEGIC>MOL_PROPERTY
Pdih
SciTegic.value.DoubleValue
4.333

@<SCITEGIC>MOL_PROPERTY
Idih
SciTegic.value.DoubleValue
0.001

@<SCITEGIC>MOL_PROPERTY
Tether
SciTegic.value.DoubleValue
0.000

@<TRIPOS>MOLECULE
guest-7_confgen4.mol2 : confsearch ligand conformer 668
          19          18           1
SMALL
USER_CHARGES
 
@<TRIPOS>ATOM
       1    C1      22.785452   20.494164   22.263783 C.2        1 MOL1         0.6115
       2    O1      23.659723   20.271415   23.077615 O.co2      1 MOL1        -0.6776
       3    O2      22.974333   21.084506   21.218756 O.co2      1 MOL1        -0.6776
       4    C2      21.378890   19.986348   22.560548 C.3        1 MOL1        -0.2013
       5    H1      20.668721   20.695957   22.121280 H          1 MOL1         0.0727
       6    H2      21.231326   20.008255   23.646943 H          1 MOL1         0.0727
       7    C3      21.129864   18.555790   22.015873 C.3        1 MOL1        -0.1910
       8    H3      21.236836   18.555707   20.922316 H          1 MOL1         0.0729
       9    H4      21.912811   17.889678   22.404089 H          1 MOL1         0.0729
      10    C4      19.748956   17.977701   22.406311 C.3        1 MOL1        -0.1909
      11    H5      19.648552   17.971259   23.500333 H          1 MOL1         0.0729
      12    H6      19.706679   16.928188   22.084210 H          1 MOL1         0.0729
      13    C5      18.562629   18.743524   21.778891 C.3        1 MOL1        -0.1884
      14    H7      18.541595   19.777352   22.147833 H          1 MOL1         0.0729
      15    H8      18.689106   18.794187   20.688614 H          1 MOL1         0.0729
      16    C6      17.216591   18.066944   22.107058 C.3        1 MOL1        -0.2899
      17    H9      16.384171   18.623685   21.657384 H          1 MOL1         0.0741
      18    H10     17.187045   17.040726   21.717970 H          1 MOL1         0.0741
      19    H11     17.051369   18.027475   23.191746 H          1 MOL1         0.0741
@<TRIPOS>BOND
    1     1     2    1
    2     1     3    2
    3     1     4    1
    4     4     5    1
    5     4     6    1
    6     4     7    1
    7     7     8    1
    8     7     9    1
    9     7    10    1
   10    10    11    1
   11    10    12    1
   12    10    13    1
   13    13    14    1
   14    13    15    1
   15    13    16    1
   16    16    17    1
   17    16    18    1
   18    16    19    1
@<TRIPOS>SUBSTRUCTURE
       1 MOL1            1 RESIDUE      1      MOL     
@<SCITEGIC>MOL_PROPERTY
VConf Rank
SciTegic.value.IntegerValue
668

@<SCITEGIC>MOL_PROPERTY
Conf_Id
SciTegic.value.IntegerValue
34

@<SCITEGIC>MOL_PROPERTY
Delta U+W
SciTegic.value.DoubleValue
-0.563

@<SCITEGIC>MOL_PROPERTY
U+W
SciTegic.value.DoubleValue
-55.455

@<SCITEGIC>MOL_PROPERTY
Grad RMS
SciTegic.value.DoubleValue
0.000000

@<SCITEGIC>MOL_PROPERTY
U
SciTegic.value.DoubleValue
6.914

@<SCITEGIC>MOL_PROPERTY
W
SciTegic.value.DoubleValue
-62.369

@<SCITEGIC>MOL_PROPERTY
W(PB)
SciTegic.value.DoubleValue
-64.446

@<SCITEGIC>MOL_PROPERTY
W(SA)
SciTegic.value.DoubleValue
2.077

@<SCITEGIC>MOL_PROPERTY
Valence
SciTegic.value.DoubleValue
7.196

@<SCITEGIC>MOL_PROPERTY
Coulomb
SciTegic.value.DoubleValue
-1.020

@<SCITEGIC>MOL_PROPERTY
VdW
SciTegic.value.DoubleValue
0.738

@<SCITEGIC>MOL_PROPERTY
VdW6
SciTegic.value.DoubleValue
-6.010

@<SCITEGIC>MOL_PROPERTY
VdW12
SciTegic.value.DoubleValue
6.748

@<SCITEGIC>MOL_PROPERTY
Bond
SciTegic.value.DoubleValue
0.126

@<SCITEGIC>MOL_PROPERTY
Angle
SciTegic.value.DoubleValue
2.499

@<SCITEGIC>MOL_PROPERTY
Pdih
SciTegic.value.DoubleValue
4.570

@<SCITEGIC>MOL_PROPERTY
Idih
SciTegic.value.DoubleValue
0.001

@<SCITEGIC>MOL_PROPERTY
Tether
SciTegic.value.DoubleValue
0.000

@<TRIPOS>MOLECULE
guest-7_confgen4.mol2 : confsearch ligand conformer 669
          19          18           1
SMALL
USER_CHARGES
 
@<TRIPOS>ATOM
       1    C1      20.634739   22.064826   22.282932 C.2        1 MOL1         0.6115
       2    O1      20.301574   22.849693   21.417325 O.co2      1 MOL1        -0.6776
       3    O2      21.504556   22.294108   23.099700 O.co2      1 MOL1        -0.6776
       4    C2      19.938291   20.709537   22.333058 C.3        1 MOL1        -0.2013
       5    H1      18.907198   20.843679   21.984685 H          1 MOL1         0.0727
       6    H2      19.889314   20.398565   23.382697 H          1 MOL1         0.0727
       7    C3      20.656173   19.633785   21.477148 C.3        1 MOL1        -0.1910
       8    H3      20.769174   20.015933   20.453128 H          1 MOL1         0.0729
       9    H4      21.672735   19.476003   21.863176 H          1 MOL1         0.0729
      10    C4      19.902339   18.283891   21.421968 C.3        1 MOL1        -0.1909
      11    H5      20.414757   17.627502   20.705312 H          1 MOL1         0.0729
      12    H6      18.889434   18.443750   21.027662 H          1 MOL1         0.0729
      13    C5      19.822142   17.568652   22.789269 C.3        1 MOL1        -0.1884
      14    H7      20.831693   17.454282   23.207593 H          1 MOL1         0.0729
      15    H8      19.246812   18.175291   23.500850 H          1 MOL1         0.0729
      16    C6      19.160228   16.181829   22.663338 C.3        1 MOL1        -0.2899
      17    H9      18.137956   16.268947   22.272471 H          1 MOL1         0.0741
      18    H10     19.732025   15.533081   21.986905 H          1 MOL1         0.0741
      19    H11     19.107905   15.687988   23.642355 H          1 MOL1         0.0741
@<TRIPOS>BOND
    1     1     2    1
    2     1     3    2
    3     1     4    1
    4     4     5    1
    5     4     6    1
    6     4     7    1
    7     7     8    1
    8     7     9    1
    9     7    10    1
   10    10    11    1
   11    10    12    1
   12    10    13    1
   13    13    14    1
   14    13    15    1
   15    13    16    1
   16    16    17    1
   17    16    18    1
   18    16    19    1
@<TRIPOS>SUBSTRUCTURE
       1 MOL1            1 RESIDUE      1      MOL     
@<SCITEGIC>MOL_PROPERTY
VConf Rank
SciTegic.value.IntegerValue
669

@<SCITEGIC>MOL_PROPERTY
Conf_Id
SciTegic.value.IntegerValue
33

@<SCITEGIC>MOL_PROPERTY
Delta U+W
SciTegic.value.DoubleValue
-0.526

@<SCITEGIC>MOL_PROPERTY
U+W
SciTegic.value.DoubleValue
-55.418

@<SCITEGIC>MOL_PROPERTY
Grad RMS
SciTegic.value.DoubleValue
0.000000

@<SCITEGIC>MOL_PROPERTY
U
SciTegic.value.DoubleValue
6.914

@<SCITEGIC>MOL_PROPERTY
W
SciTegic.value.DoubleValue
-62.332

@<SCITEGIC>MOL_PROPERTY
W(PB)
SciTegic.value.DoubleValue
-64.421

@<SCITEGIC>MOL_PROPERTY
W(SA)
SciTegic.value.DoubleValue
2.090

@<SCITEGIC>MOL_PROPERTY
Valence
SciTegic.value.DoubleValue
7.196

@<SCITEGIC>MOL_PROPERTY
Coulomb
SciTegic.value.DoubleValue
-1.020

@<SCITEGIC>MOL_PROPERTY
VdW
SciTegic.value.DoubleValue
0.738

@<SCITEGIC>MOL_PROPERTY
VdW6
SciTegic.value.DoubleValue
-6.010

@<SCITEGIC>MOL_PROPERTY
VdW12
SciTegic.value.DoubleValue
6.748

@<SCITEGIC>MOL_PROPERTY
Bond
SciTegic.value.DoubleValue
0.126

@<SCITEGIC>MOL_PROPERTY
Angle
SciTegic.value.DoubleValue
2.499

@<SCITEGIC>MOL_PROPERTY
Pdih
SciTegic.value.DoubleValue
4.570

@<SCITEGIC>MOL_PROPERTY
Idih
SciTegic.value.DoubleValue
0.001

@<SCITEGIC>MOL_PROPERTY
Tether
SciTegic.value.DoubleValue
0.000

@<TRIPOS>MOLECULE
guest-7_confgen4.mol2 : confsearch ligand conformer 670
          19          18           1
SMALL
USER_CHARGES
 
@<TRIPOS>ATOM
       1    C1      19.108010   20.150717   19.410757 C.2        1 MOL1         0.6115
       2    O1      20.005029   19.957160   18.614445 O.co2      1 MOL1        -0.6776
       3    O2      17.930018   20.135676   19.113514 O.co2      1 MOL1        -0.6776
       4    C2      19.480249   20.409329   20.866455 C.3        1 MOL1        -0.2013
       5    H1      18.733084   21.089131   21.293411 H          1 MOL1         0.0727
       6    H2      20.443335   20.933616   20.884244 H          1 MOL1         0.0727
       7    C3      19.564042   19.110921   21.706429 C.3        1 MOL1        -0.1910
       8    H3      18.595728   18.592891   21.671034 H          1 MOL1         0.0729
       9    H4      20.303374   18.439559   21.250050 H          1 MOL1         0.0729
      10    C4      19.946217   19.402425   23.175997 C.3        1 MOL1        -0.1909
      11    H5      19.236491   20.130401   23.592331 H          1 MOL1         0.0729
      12    H6      20.936697   19.876231   23.214248 H          1 MOL1         0.0729
      13    C5      19.940604   18.143155   24.073100 C.3        1 MOL1        -0.1884
      14    H7      20.104285   18.451725   25.114847 H          1 MOL1         0.0729
      15    H8      18.949664   17.669459   24.041841 H          1 MOL1         0.0729
      16    C6      21.021867   17.111669   23.684824 C.3        1 MOL1        -0.2899
      17    H9      22.019171   17.570498   23.680703 H          1 MOL1         0.0741
      18    H10     21.035004   16.281077   24.402379 H          1 MOL1         0.0741
      19    H11     20.833120   16.688177   22.690453 H          1 MOL1         0.0741
@<TRIPOS>BOND
    1     1     2    1
    2     1     3    2
    3     1     4    1
    4     4     5    1
    5     4     6    1
    6     4     7    1
    7     7     8    1
    8     7     9    1
    9     7    10    1
   10    10    11    1
   11    10    12    1
   12    10    13    1
   13    13    14    1
   14    13    15    1
   15    13    16    1
   16    16    17    1
   17    16    18    1
   18    16    19    1
@<TRIPOS>SUBSTRUCTURE
       1 MOL1            1 RESIDUE      1      MOL     
@<SCITEGIC>MOL_PROPERTY
VConf Rank
SciTegic.value.IntegerValue
670

@<SCITEGIC>MOL_PROPERTY
Conf_Id
SciTegic.value.IntegerValue
42

@<SCITEGIC>MOL_PROPERTY
Delta U+W
SciTegic.value.DoubleValue
-0.344

@<SCITEGIC>MOL_PROPERTY
U+W
SciTegic.value.DoubleValue
-55.236

@<SCITEGIC>MOL_PROPERTY
Grad RMS
SciTegic.value.DoubleValue
0.000000

@<SCITEGIC>MOL_PROPERTY
U
SciTegic.value.DoubleValue
7.244

@<SCITEGIC>MOL_PROPERTY
W
SciTegic.value.DoubleValue
-62.479

@<SCITEGIC>MOL_PROPERTY
W(PB)
SciTegic.value.DoubleValue
-64.610

@<SCITEGIC>MOL_PROPERTY
W(SA)
SciTegic.value.DoubleValue
2.130

@<SCITEGIC>MOL_PROPERTY
Valence
SciTegic.value.DoubleValue
7.174

@<SCITEGIC>MOL_PROPERTY
Coulomb
SciTegic.value.DoubleValue
-0.669

@<SCITEGIC>MOL_PROPERTY
VdW
SciTegic.value.DoubleValue
0.739

@<SCITEGIC>MOL_PROPERTY
VdW6
SciTegic.value.DoubleValue
-5.969

@<SCITEGIC>MOL_PROPERTY
VdW12
SciTegic.value.DoubleValue
6.708

@<SCITEGIC>MOL_PROPERTY
Bond
SciTegic.value.DoubleValue
0.116

@<SCITEGIC>MOL_PROPERTY
Angle
SciTegic.value.DoubleValue
2.481

@<SCITEGIC>MOL_PROPERTY
Pdih
SciTegic.value.DoubleValue
4.576

@<SCITEGIC>MOL_PROPERTY
Idih
SciTegic.value.DoubleValue
0.000

@<SCITEGIC>MOL_PROPERTY
Tether
SciTegic.value.DoubleValue
0.000

@<TRIPOS>MOLECULE
guest-7_confgen4.mol2 : confsearch ligand conformer 671
          19          18           1
SMALL
USER_CHARGES
 
@<TRIPOS>ATOM
       1    C1      19.878517   17.990895   25.254281 C.2        1 MOL1         0.6115
       2    O1      20.543753   18.725304   25.957364 O.co2      1 MOL1        -0.6776
       3    O2      19.754547   16.798930   25.454523 O.co2      1 MOL1        -0.6776
       4    C2      19.175368   18.594812   24.043758 C.3        1 MOL1        -0.2013
       5    H1      18.900609   19.627780   24.289140 H          1 MOL1         0.0727
       6    H2      18.242811   18.041332   23.880426 H          1 MOL1         0.0727
       7    C3      20.046768   18.564211   22.763848 C.3        1 MOL1        -0.1910
       8    H3      20.981197   19.107461   22.957088 H          1 MOL1         0.0729
       9    H4      20.321324   17.524847   22.536735 H          1 MOL1         0.0729
      10    C4      19.310918   19.185528   21.554241 C.3        1 MOL1        -0.1909
      11    H5      19.079956   20.239252   21.762397 H          1 MOL1         0.0729
      12    H6      18.346800   18.675682   21.421853 H          1 MOL1         0.0729
      13    C5      20.106446   19.082051   20.232493 C.3        1 MOL1        -0.1884
      14    H7      20.334547   18.028834   20.017945 H          1 MOL1         0.0729
      15    H8      19.470157   19.435609   19.409464 H          1 MOL1         0.0729
      16    C6      21.412572   19.905360   20.239548 C.3        1 MOL1        -0.2899
      17    H9      22.129258   19.513748   20.972178 H          1 MOL1         0.0741
      18    H10     21.893387   19.870479   19.253373 H          1 MOL1         0.0741
      19    H11     21.212582   20.957439   20.480981 H          1 MOL1         0.0741
@<TRIPOS>BOND
    1     1     2    1
    2     1     3    2
    3     1     4    1
    4     4     5    1
    5     4     6    1
    6     4     7    1
    7     7     8    1
    8     7     9    1
    9     7    10    1
   10    10    11    1
   11    10    12    1
   12    10    13    1
   13    13    14    1
   14    13    15    1
   15    13    16    1
   16    16    17    1
   17    16    18    1
   18    16    19    1
@<TRIPOS>SUBSTRUCTURE
       1 MOL1            1 RESIDUE      1      MOL     
@<SCITEGIC>MOL_PROPERTY
VConf Rank
SciTegic.value.IntegerValue
671

@<SCITEGIC>MOL_PROPERTY
Conf_Id
SciTegic.value.IntegerValue
41

@<SCITEGIC>MOL_PROPERTY
Delta U+W
SciTegic.value.DoubleValue
-0.361

@<SCITEGIC>MOL_PROPERTY
U+W
SciTegic.value.DoubleValue
-55.252

@<SCITEGIC>MOL_PROPERTY
Grad RMS
SciTegic.value.DoubleValue
0.000000

@<SCITEGIC>MOL_PROPERTY
U
SciTegic.value.DoubleValue
7.244

@<SCITEGIC>MOL_PROPERTY
W
SciTegic.value.DoubleValue
-62.496

@<SCITEGIC>MOL_PROPERTY
W(PB)
SciTegic.value.DoubleValue
-64.596

@<SCITEGIC>MOL_PROPERTY
W(SA)
SciTegic.value.DoubleValue
2.099

@<SCITEGIC>MOL_PROPERTY
Valence
SciTegic.value.DoubleValue
7.174

@<SCITEGIC>MOL_PROPERTY
Coulomb
SciTegic.value.DoubleValue
-0.669

@<SCITEGIC>MOL_PROPERTY
VdW
SciTegic.value.DoubleValue
0.739

@<SCITEGIC>MOL_PROPERTY
VdW6
SciTegic.value.DoubleValue
-5.969

@<SCITEGIC>MOL_PROPERTY
VdW12
SciTegic.value.DoubleValue
6.708

@<SCITEGIC>MOL_PROPERTY
Bond
SciTegic.value.DoubleValue
0.116

@<SCITEGIC>MOL_PROPERTY
Angle
SciTegic.value.DoubleValue
2.481

@<SCITEGIC>MOL_PROPERTY
Pdih
SciTegic.value.DoubleValue
4.576

@<SCITEGIC>MOL_PROPERTY
Idih
SciTegic.value.DoubleValue
0.000

@<SCITEGIC>MOL_PROPERTY
Tether
SciTegic.value.DoubleValue
0.000

@<TRIPOS>MOLECULE
guest-7_confgen4.mol2 : confsearch ligand conformer 672
          19          18           1
SMALL
USER_CHARGES
 
@<TRIPOS>ATOM
       1    C1      22.135661   18.549587   23.982998 C.2        1 MOL1         0.6115
       2    O1      21.627454   17.937883   24.901743 O.co2      1 MOL1        -0.6776
       3    O2      23.121541   18.166469   23.384714 O.co2      1 MOL1        -0.6776
       4    C2      21.516942   19.882503   23.570851 C.3        1 MOL1        -0.2013
       5    H1      22.335076   20.604414   23.463083 H          1 MOL1         0.0727
       6    H2      20.882109   20.242276   24.389714 H          1 MOL1         0.0727
       7    C3      20.704384   19.820377   22.251389 C.3        1 MOL1        -0.1910
       8    H3      20.417124   20.840181   21.961537 H          1 MOL1         0.0729
       9    H4      21.344905   19.431545   21.447539 H          1 MOL1         0.0729
      10    C4      19.434215   18.949500   22.376106 C.3        1 MOL1        -0.1909
      11    H5      18.803624   19.334294   23.189321 H          1 MOL1         0.0729
      12    H6      19.714548   17.922775   22.649369 H          1 MOL1         0.0729
      13    C5      18.625435   18.927538   21.062334 C.3        1 MOL1        -0.1884
      14    H7      18.338587   19.951685   20.786162 H          1 MOL1         0.0729
      15    H8      19.253164   18.540725   20.247592 H          1 MOL1         0.0729
      16    C6      17.358771   18.057919   21.190007 C.3        1 MOL1        -0.2899
      17    H9      16.697096   18.441167   21.977861 H          1 MOL1         0.0741
      18    H10     16.796173   18.053048   20.247380 H          1 MOL1         0.0741
      19    H11     17.618410   17.019722   21.435317 H          1 MOL1         0.0741
@<TRIPOS>BOND
    1     1     2    1
    2     1     3    2
    3     1     4    1
    4     4     5    1
    5     4     6    1
    6     4     7    1
    7     7     8    1
    8     7     9    1
    9     7    10    1
   10    10    11    1
   11    10    12    1
   12    10    13    1
   13    13    14    1
   14    13    15    1
   15    13    16    1
   16    16    17    1
   17    16    18    1
   18    16    19    1
@<TRIPOS>SUBSTRUCTURE
       1 MOL1            1 RESIDUE      1      MOL     
@<SCITEGIC>MOL_PROPERTY
VConf Rank
SciTegic.value.IntegerValue
672

@<SCITEGIC>MOL_PROPERTY
Conf_Id
SciTegic.value.IntegerValue
36

@<SCITEGIC>MOL_PROPERTY
Delta U+W
SciTegic.value.DoubleValue
-0.079

@<SCITEGIC>MOL_PROPERTY
U+W
SciTegic.value.DoubleValue
-54.971

@<SCITEGIC>MOL_PROPERTY
Grad RMS
SciTegic.value.DoubleValue
0.000000

@<SCITEGIC>MOL_PROPERTY
U
SciTegic.value.DoubleValue
8.266

@<SCITEGIC>MOL_PROPERTY
W
SciTegic.value.DoubleValue
-63.237

@<SCITEGIC>MOL_PROPERTY
W(PB)
SciTegic.value.DoubleValue
-65.340

@<SCITEGIC>MOL_PROPERTY
W(SA)
SciTegic.value.DoubleValue
2.103

@<SCITEGIC>MOL_PROPERTY
Valence
SciTegic.value.DoubleValue
6.935

@<SCITEGIC>MOL_PROPERTY
Coulomb
SciTegic.value.DoubleValue
0.874

@<SCITEGIC>MOL_PROPERTY
VdW
SciTegic.value.DoubleValue
0.457

@<SCITEGIC>MOL_PROPERTY
VdW6
SciTegic.value.DoubleValue
-6.205

@<SCITEGIC>MOL_PROPERTY
VdW12
SciTegic.value.DoubleValue
6.662

@<SCITEGIC>MOL_PROPERTY
Bond
SciTegic.value.DoubleValue
0.107

@<SCITEGIC>MOL_PROPERTY
Angle
SciTegic.value.DoubleValue
2.420

@<SCITEGIC>MOL_PROPERTY
Pdih
SciTegic.value.DoubleValue
4.407

@<SCITEGIC>MOL_PROPERTY
Idih
SciTegic.value.DoubleValue
0.001

@<SCITEGIC>MOL_PROPERTY
Tether
SciTegic.value.DoubleValue
0.000

@<TRIPOS>MOLECULE
guest-7_confgen4.mol2 : confsearch ligand conformer 673
          19          18           1
SMALL
USER_CHARGES
 
@<TRIPOS>ATOM
       1    C1      18.483972   20.583287   20.668344 C.2        1 MOL1         0.6115
       2    O1      17.411918   20.037741   20.840487 O.co2      1 MOL1        -0.6776
       3    O2      18.947655   20.822163   19.570793 O.co2      1 MOL1        -0.6776
       4    C2      19.283384   21.011945   21.895756 C.3        1 MOL1        -0.2013
       5    H1      18.608695   21.043428   22.759927 H          1 MOL1         0.0727
       6    H2      19.624825   22.039294   21.722317 H          1 MOL1         0.0727
       7    C3      20.503958   20.105740   22.202485 C.3        1 MOL1        -0.1910
       8    H3      21.155382   20.061215   21.318575 H          1 MOL1         0.0729
       9    H4      21.094297   20.563703   23.007660 H          1 MOL1         0.0729
      10    C4      20.092624   18.676733   22.622072 C.3        1 MOL1        -0.1909
      11    H5      19.515751   18.205248   21.814395 H          1 MOL1         0.0729
      12    H6      19.431195   18.727304   23.497847 H          1 MOL1         0.0729
      13    C5      21.320422   17.802741   22.952611 C.3        1 MOL1        -0.1884
      14    H7      21.982643   17.748502   22.077400 H          1 MOL1         0.0729
      15    H8      21.899126   18.267334   23.762972 H          1 MOL1         0.0729
      16    C6      20.906700   16.377658   23.370882 C.3        1 MOL1        -0.2899
      17    H9      20.352453   15.877544   22.565811 H          1 MOL1         0.0741
      18    H10     21.791322   15.770007   23.601727 H          1 MOL1         0.0741
      19    H11     20.268363   16.400230   24.263868 H          1 MOL1         0.0741
@<TRIPOS>BOND
    1     1     2    1
    2     1     3    2
    3     1     4    1
    4     4     5    1
    5     4     6    1
    6     4     7    1
    7     7     8    1
    8     7     9    1
    9     7    10    1
   10    10    11    1
   11    10    12    1
   12    10    13    1
   13    13    14    1
   14    13    15    1
   15    13    16    1
   16    16    17    1
   17    16    18    1
   18    16    19    1
@<TRIPOS>SUBSTRUCTURE
       1 MOL1            1 RESIDUE      1      MOL     
@<SCITEGIC>MOL_PROPERTY
VConf Rank
SciTegic.value.IntegerValue
673

@<SCITEGIC>MOL_PROPERTY
Conf_Id
SciTegic.value.IntegerValue
35

@<SCITEGIC>MOL_PROPERTY
Delta U+W
SciTegic.value.DoubleValue
-0.030

@<SCITEGIC>MOL_PROPERTY
U+W
SciTegic.value.DoubleValue
-54.921

@<SCITEGIC>MOL_PROPERTY
Grad RMS
SciTegic.value.DoubleValue
0.000000

@<SCITEGIC>MOL_PROPERTY
U
SciTegic.value.DoubleValue
8.267

@<SCITEGIC>MOL_PROPERTY
W
SciTegic.value.DoubleValue
-63.188

@<SCITEGIC>MOL_PROPERTY
W(PB)
SciTegic.value.DoubleValue
-65.294

@<SCITEGIC>MOL_PROPERTY
W(SA)
SciTegic.value.DoubleValue
2.106

@<SCITEGIC>MOL_PROPERTY
Valence
SciTegic.value.DoubleValue
6.935

@<SCITEGIC>MOL_PROPERTY
Coulomb
SciTegic.value.DoubleValue
0.875

@<SCITEGIC>MOL_PROPERTY
VdW
SciTegic.value.DoubleValue
0.457

@<SCITEGIC>MOL_PROPERTY
VdW6
SciTegic.value.DoubleValue
-6.205

@<SCITEGIC>MOL_PROPERTY
VdW12
SciTegic.value.DoubleValue
6.662

@<SCITEGIC>MOL_PROPERTY
Bond
SciTegic.value.DoubleValue
0.107

@<SCITEGIC>MOL_PROPERTY
Angle
SciTegic.value.DoubleValue
2.420

@<SCITEGIC>MOL_PROPERTY
Pdih
SciTegic.value.DoubleValue
4.407

@<SCITEGIC>MOL_PROPERTY
Idih
SciTegic.value.DoubleValue
0.001

@<SCITEGIC>MOL_PROPERTY
Tether
SciTegic.value.DoubleValue
0.000

@<TRIPOS>MOLECULE
guest-7_confgen4.mol2 : confsearch ligand conformer 674
          19          18           1
SMALL
USER_CHARGES
 
@<TRIPOS>ATOM
       1    C1      22.966528   18.795564   21.806103 C.2        1 MOL1         0.6115
       2    O1      23.620071   18.543912   22.799209 O.co2      1 MOL1        -0.6776
       3    O2      23.225727   19.706292   21.044502 O.co2      1 MOL1        -0.6776
       4    C2      21.768543   17.904878   21.488314 C.3        1 MOL1        -0.2013
       5    H1      22.092413   16.864687   21.611627 H          1 MOL1         0.0727
       6    H2      21.507229   18.032511   20.430778 H          1 MOL1         0.0727
       7    C3      20.528324   18.169448   22.381388 C.3        1 MOL1        -0.1910
       8    H3      19.784288   17.387151   22.184481 H          1 MOL1         0.0729
       9    H4      20.814491   18.076859   23.438206 H          1 MOL1         0.0729
      10    C4      19.899840   19.560653   22.127933 C.3        1 MOL1        -0.1909
      11    H5      19.579460   19.636974   21.079911 H          1 MOL1         0.0729
      12    H6      20.665458   20.334802   22.274723 H          1 MOL1         0.0729
      13    C5      18.705479   19.873840   23.058656 C.3        1 MOL1        -0.1884
      14    H7      19.023490   19.800341   24.107836 H          1 MOL1         0.0729
      15    H8      18.399533   20.917075   22.899659 H          1 MOL1         0.0729
      16    C6      17.486188   18.957238   22.819518 C.3        1 MOL1        -0.2899
      17    H9      17.710505   17.915303   23.079663 H          1 MOL1         0.0741
      18    H10     16.637972   19.278296   23.437893 H          1 MOL1         0.0741
      19    H11     17.169886   18.990231   21.768798 H          1 MOL1         0.0741
@<TRIPOS>BOND
    1     1     2    1
    2     1     3    2
    3     1     4    1
    4     4     5    1
    5     4     6    1
    6     4     7    1
    7     7     8    1
    8     7     9    1
    9     7    10    1
   10    10    11    1
   11    10    12    1
   12    10    13    1
   13    13    14    1
   14    13    15    1
   15    13    16    1
   16    16    17    1
   17    16    18    1
   18    16    19    1
@<TRIPOS>SUBSTRUCTURE
       1 MOL1            1 RESIDUE      1      MOL     
@<SCITEGIC>MOL_PROPERTY
VConf Rank
SciTegic.value.IntegerValue
674

@<SCITEGIC>MOL_PROPERTY
Conf_Id
SciTegic.value.IntegerValue
74

@<SCITEGIC>MOL_PROPERTY
Delta U+W
SciTegic.value.DoubleValue
0.797

@<SCITEGIC>MOL_PROPERTY
U+W
SciTegic.value.DoubleValue
-54.095

@<SCITEGIC>MOL_PROPERTY
Grad RMS
SciTegic.value.DoubleValue
0.000000

@<SCITEGIC>MOL_PROPERTY
U
SciTegic.value.DoubleValue
8.869

@<SCITEGIC>MOL_PROPERTY
W
SciTegic.value.DoubleValue
-62.964

@<SCITEGIC>MOL_PROPERTY
W(PB)
SciTegic.value.DoubleValue
-65.046

@<SCITEGIC>MOL_PROPERTY
W(SA)
SciTegic.value.DoubleValue
2.082

@<SCITEGIC>MOL_PROPERTY
Valence
SciTegic.value.DoubleValue
7.469

@<SCITEGIC>MOL_PROPERTY
Coulomb
SciTegic.value.DoubleValue
0.762

@<SCITEGIC>MOL_PROPERTY
VdW
SciTegic.value.DoubleValue
0.639

@<SCITEGIC>MOL_PROPERTY
VdW6
SciTegic.value.DoubleValue
-6.782

@<SCITEGIC>MOL_PROPERTY
VdW12
SciTegic.value.DoubleValue
7.421

@<SCITEGIC>MOL_PROPERTY
Bond
SciTegic.value.DoubleValue
0.141

@<SCITEGIC>MOL_PROPERTY
Angle
SciTegic.value.DoubleValue
2.667

@<SCITEGIC>MOL_PROPERTY
Pdih
SciTegic.value.DoubleValue
4.660

@<SCITEGIC>MOL_PROPERTY
Idih
SciTegic.value.DoubleValue
0.001

@<SCITEGIC>MOL_PROPERTY
Tether
SciTegic.value.DoubleValue
0.000

@<TRIPOS>MOLECULE
guest-7_confgen4.mol2 : confsearch ligand conformer 675
          19          18           1
SMALL
USER_CHARGES
 
@<TRIPOS>ATOM
       1    C1      19.123945   19.442683   19.544272 C.2        1 MOL1         0.6115
       2    O1      18.269369   20.202010   19.132515 O.co2      1 MOL1        -0.6776
       3    O2      20.050225   19.042636   18.867301 O.co2      1 MOL1        -0.6776
       4    C2      19.039258   18.981994   20.995069 C.3        1 MOL1        -0.2013
       5    H1      19.444305   17.964912   21.046447 H          1 MOL1         0.0727
       6    H2      17.980268   18.925936   21.273912 H          1 MOL1         0.0727
       7    C3      19.799781   19.919495   21.968355 C.3        1 MOL1        -0.1910
       8    H3      20.865200   19.937983   21.703176 H          1 MOL1         0.0729
       9    H4      19.433932   20.945844   21.827072 H          1 MOL1         0.0729
      10    C4      19.627249   19.535699   23.459550 C.3        1 MOL1        -0.1909
      11    H5      18.565849   19.623273   23.728908 H          1 MOL1         0.0729
      12    H6      20.158447   20.272847   24.076982 H          1 MOL1         0.0729
      13    C5      20.121468   18.117642   23.837390 C.3        1 MOL1        -0.1884
      14    H7      19.934488   17.956090   24.907913 H          1 MOL1         0.0729
      15    H8      19.531868   17.357067   23.308707 H          1 MOL1         0.0729
      16    C6      21.623902   17.899024   23.557579 C.3        1 MOL1        -0.2899
      17    H9      22.232153   18.663207   24.058663 H          1 MOL1         0.0741
      18    H10     21.944223   16.915913   23.925958 H          1 MOL1         0.0741
      19    H11     21.838854   17.937311   22.482127 H          1 MOL1         0.0741
@<TRIPOS>BOND
    1     1     2    1
    2     1     3    2
    3     1     4    1
    4     4     5    1
    5     4     6    1
    6     4     7    1
    7     7     8    1
    8     7     9    1
    9     7    10    1
   10    10    11    1
   11    10    12    1
   12    10    13    1
   13    13    14    1
   14    13    15    1
   15    13    16    1
   16    16    17    1
   17    16    18    1
   18    16    19    1
@<TRIPOS>SUBSTRUCTURE
       1 MOL1            1 RESIDUE      1      MOL     
@<SCITEGIC>MOL_PROPERTY
VConf Rank
SciTegic.value.IntegerValue
675

@<SCITEGIC>MOL_PROPERTY
Conf_Id
SciTegic.value.IntegerValue
67

@<SCITEGIC>MOL_PROPERTY
Delta U+W
SciTegic.value.DoubleValue
0.308

@<SCITEGIC>MOL_PROPERTY
U+W
SciTegic.value.DoubleValue
-54.583

@<SCITEGIC>MOL_PROPERTY
Grad RMS
SciTegic.value.DoubleValue
0.000000

@<SCITEGIC>MOL_PROPERTY
U
SciTegic.value.DoubleValue
8.219

@<SCITEGIC>MOL_PROPERTY
W
SciTegic.value.DoubleValue
-62.802

@<SCITEGIC>MOL_PROPERTY
W(PB)
SciTegic.value.DoubleValue
-64.859

@<SCITEGIC>MOL_PROPERTY
W(SA)
SciTegic.value.DoubleValue
2.057

@<SCITEGIC>MOL_PROPERTY
Valence
SciTegic.value.DoubleValue
7.609

@<SCITEGIC>MOL_PROPERTY
Coulomb
SciTegic.value.DoubleValue
-0.089

@<SCITEGIC>MOL_PROPERTY
VdW
SciTegic.value.DoubleValue
0.699

@<SCITEGIC>MOL_PROPERTY
VdW6
SciTegic.value.DoubleValue
-6.924

@<SCITEGIC>MOL_PROPERTY
VdW12
SciTegic.value.DoubleValue
7.623

@<SCITEGIC>MOL_PROPERTY
Bond
SciTegic.value.DoubleValue
0.163

@<SCITEGIC>MOL_PROPERTY
Angle
SciTegic.value.DoubleValue
2.870

@<SCITEGIC>MOL_PROPERTY
Pdih
SciTegic.value.DoubleValue
4.576

@<SCITEGIC>MOL_PROPERTY
Idih
SciTegic.value.DoubleValue
0.001

@<SCITEGIC>MOL_PROPERTY
Tether
SciTegic.value.DoubleValue
0.000

@<TRIPOS>MOLECULE
guest-7_confgen4.mol2 : confsearch ligand conformer 676
          19          18           1
SMALL
USER_CHARGES
 
@<TRIPOS>ATOM
       1    C1      20.313217   19.061829   25.208983 C.2        1 MOL1         0.6115
       2    O1      19.573740   18.662597   26.086600 O.co2      1 MOL1        -0.6776
       3    O2      21.140124   19.936786   25.373289 O.co2      1 MOL1        -0.6776
       4    C2      20.182543   18.444411   23.821203 C.3        1 MOL1        -0.2013
       5    H1      19.878562   17.397676   23.940773 H          1 MOL1         0.0727
       6    H2      21.177142   18.444610   23.360841 H          1 MOL1         0.0727
       7    C3      19.167559   19.196834   22.922172 C.3        1 MOL1        -0.1910
       8    H3      18.206552   19.258801   23.451156 H          1 MOL1         0.0729
       9    H4      19.501968   20.232796   22.778187 H          1 MOL1         0.0729
      10    C4      18.931982   18.516217   21.550316 C.3        1 MOL1        -0.1909
      11    H5      18.171447   19.086596   20.999832 H          1 MOL1         0.0729
      12    H6      18.501500   17.519378   21.717021 H          1 MOL1         0.0729
      13    C5      20.190919   18.372404   20.660206 C.3        1 MOL1        -0.1884
      14    H7      20.926401   17.717884   21.146292 H          1 MOL1         0.0729
      15    H8      19.903998   17.866361   19.728178 H          1 MOL1         0.0729
      16    C6      20.848880   19.724043   20.308697 C.3        1 MOL1        -0.2899
      17    H9      21.255363   20.214006   21.202552 H          1 MOL1         0.0741
      18    H10     21.677765   19.576224   19.604486 H          1 MOL1         0.0741
      19    H11     20.124602   20.403898   19.841526 H          1 MOL1         0.0741
@<TRIPOS>BOND
    1     1     2    1
    2     1     3    2
    3     1     4    1
    4     4     5    1
    5     4     6    1
    6     4     7    1
    7     7     8    1
    8     7     9    1
    9     7    10    1
   10    10    11    1
   11    10    12    1
   12    10    13    1
   13    13    14    1
   14    13    15    1
   15    13    16    1
   16    16    17    1
   17    16    18    1
   18    16    19    1
@<TRIPOS>SUBSTRUCTURE
       1 MOL1            1 RESIDUE      1      MOL     
@<SCITEGIC>MOL_PROPERTY
VConf Rank
SciTegic.value.IntegerValue
676

@<SCITEGIC>MOL_PROPERTY
Conf_Id
SciTegic.value.IntegerValue
21

@<SCITEGIC>MOL_PROPERTY
Delta U+W
SciTegic.value.DoubleValue
0.319

@<SCITEGIC>MOL_PROPERTY
U+W
SciTegic.value.DoubleValue
-54.572

@<SCITEGIC>MOL_PROPERTY
Grad RMS
SciTegic.value.DoubleValue
0.000000

@<SCITEGIC>MOL_PROPERTY
U
SciTegic.value.DoubleValue
8.220

@<SCITEGIC>MOL_PROPERTY
W
SciTegic.value.DoubleValue
-62.792

@<SCITEGIC>MOL_PROPERTY
W(PB)
SciTegic.value.DoubleValue
-64.830

@<SCITEGIC>MOL_PROPERTY
W(SA)
SciTegic.value.DoubleValue
2.038

@<SCITEGIC>MOL_PROPERTY
Valence
SciTegic.value.DoubleValue
7.609

@<SCITEGIC>MOL_PROPERTY
Coulomb
SciTegic.value.DoubleValue
-0.088

@<SCITEGIC>MOL_PROPERTY
VdW
SciTegic.value.DoubleValue
0.699

@<SCITEGIC>MOL_PROPERTY
VdW6
SciTegic.value.DoubleValue
-6.924

@<SCITEGIC>MOL_PROPERTY
VdW12
SciTegic.value.DoubleValue
7.623

@<SCITEGIC>MOL_PROPERTY
Bond
SciTegic.value.DoubleValue
0.163

@<SCITEGIC>MOL_PROPERTY
Angle
SciTegic.value.DoubleValue
2.870

@<SCITEGIC>MOL_PROPERTY
Pdih
SciTegic.value.DoubleValue
4.576

@<SCITEGIC>MOL_PROPERTY
Idih
SciTegic.value.DoubleValue
0.000

@<SCITEGIC>MOL_PROPERTY
Tether
SciTegic.value.DoubleValue
0.000

@<TRIPOS>MOLECULE
guest-7_confgen4.mol2 : confsearch ligand conformer 677
          19          18           1
SMALL
USER_CHARGES
 
@<TRIPOS>ATOM
       1    C1      20.621766   18.762019   25.139968 C.2        1 MOL1         0.6115
       2    O1      21.544101   19.243107   25.767892 O.co2      1 MOL1        -0.6776
       3    O2      19.566103   18.431896   25.642808 O.co2      1 MOL1        -0.6776
       4    C2      20.792257   18.579947   23.636018 C.3        1 MOL1        -0.2013
       5    H1      20.217064   17.698061   23.337263 H          1 MOL1         0.0727
       6    H2      21.847264   18.354140   23.440173 H          1 MOL1         0.0727
       7    C3      20.357616   19.830252   22.826438 C.3        1 MOL1        -0.1910
       8    H3      19.317941   20.093247   23.065587 H          1 MOL1         0.0729
       9    H4      20.971816   20.678336   23.159464 H          1 MOL1         0.0729
      10    C4      20.530437   19.664397   21.295239 C.3        1 MOL1        -0.1909
      11    H5      21.361733   18.979933   21.077631 H          1 MOL1         0.0729
      12    H6      20.827096   20.636451   20.878012 H          1 MOL1         0.0729
      13    C5      19.254528   19.206881   20.546477 C.3        1 MOL1        -0.1884
      14    H7      18.454417   19.944613   20.697578 H          1 MOL1         0.0729
      15    H8      19.466811   19.200613   19.468474 H          1 MOL1         0.0729
      16    C6      18.746093   17.809676   20.957579 C.3        1 MOL1        -0.2899
      17    H9      17.924642   17.492457   20.302289 H          1 MOL1         0.0741
      18    H10     19.546039   17.061524   20.884549 H          1 MOL1         0.0741
      19    H11     18.364149   17.814729   21.986117 H          1 MOL1         0.0741
@<TRIPOS>BOND
    1     1     2    1
    2     1     3    2
    3     1     4    1
    4     4     5    1
    5     4     6    1
    6     4     7    1
    7     7     8    1
    8     7     9    1
    9     7    10    1
   10    10    11    1
   11    10    12    1
   12    10    13    1
   13    13    14    1
   14    13    15    1
   15    13    16    1
   16    16    17    1
   17    16    18    1
   18    16    19    1
@<TRIPOS>SUBSTRUCTURE
       1 MOL1            1 RESIDUE      1      MOL     
@<SCITEGIC>MOL_PROPERTY
VConf Rank
SciTegic.value.IntegerValue
677

@<SCITEGIC>MOL_PROPERTY
Conf_Id
SciTegic.value.IntegerValue
24

@<SCITEGIC>MOL_PROPERTY
Delta U+W
SciTegic.value.DoubleValue
2.477

@<SCITEGIC>MOL_PROPERTY
U+W
SciTegic.value.DoubleValue
-52.414

@<SCITEGIC>MOL_PROPERTY
Grad RMS
SciTegic.value.DoubleValue
0.000000

@<SCITEGIC>MOL_PROPERTY
U
SciTegic.value.DoubleValue
10.422

@<SCITEGIC>MOL_PROPERTY
W
SciTegic.value.DoubleValue
-62.836

@<SCITEGIC>MOL_PROPERTY
W(PB)
SciTegic.value.DoubleValue
-64.906

@<SCITEGIC>MOL_PROPERTY
W(SA)
SciTegic.value.DoubleValue
2.070

@<SCITEGIC>MOL_PROPERTY
Valence
SciTegic.value.DoubleValue
9.628

@<SCITEGIC>MOL_PROPERTY
Coulomb
SciTegic.value.DoubleValue
0.101

@<SCITEGIC>MOL_PROPERTY
VdW
SciTegic.value.DoubleValue
0.693

@<SCITEGIC>MOL_PROPERTY
VdW6
SciTegic.value.DoubleValue
-6.927

@<SCITEGIC>MOL_PROPERTY
VdW12
SciTegic.value.DoubleValue
7.620

@<SCITEGIC>MOL_PROPERTY
Bond
SciTegic.value.DoubleValue
0.173

@<SCITEGIC>MOL_PROPERTY
Angle
SciTegic.value.DoubleValue
2.989

@<SCITEGIC>MOL_PROPERTY
Pdih
SciTegic.value.DoubleValue
6.465

@<SCITEGIC>MOL_PROPERTY
Idih
SciTegic.value.DoubleValue
0.001

@<SCITEGIC>MOL_PROPERTY
Tether
SciTegic.value.DoubleValue
0.000

@<TRIPOS>MOLECULE
guest-7_confgen4.mol2 : confsearch ligand conformer 678
          19          18           1
SMALL
USER_CHARGES
 
@<TRIPOS>ATOM
       1    C1      18.942261   21.477377   22.367679 C.2        1 MOL1         0.6115
       2    O1      19.190124   21.696955   21.198474 O.co2      1 MOL1        -0.6776
       3    O2      18.007542   21.978958   22.960800 O.co2      1 MOL1        -0.6776
       4    C2      19.869340   20.545060   23.143270 C.3        1 MOL1        -0.2013
       5    H1      20.125917   21.050851   24.081407 H          1 MOL1         0.0727
       6    H2      20.801708   20.438100   22.579816 H          1 MOL1         0.0727
       7    C3      19.246814   19.157287   23.461839 C.3        1 MOL1        -0.1910
       8    H3      19.876868   18.624488   24.186677 H          1 MOL1         0.0729
       9    H4      18.283933   19.324344   23.964318 H          1 MOL1         0.0729
      10    C4      19.011655   18.264170   22.215837 C.3        1 MOL1        -0.1909
      11    H5      18.813228   18.883228   21.330286 H          1 MOL1         0.0729
      12    H6      18.095480   17.681406   22.382547 H          1 MOL1         0.0729
      13    C5      20.152767   17.261424   21.915387 C.3        1 MOL1        -0.1884
      14    H7      20.285816   16.586148   22.771835 H          1 MOL1         0.0729
      15    H8      19.846864   16.629315   21.070393 H          1 MOL1         0.0729
      16    C6      21.502122   17.925269   21.571720 C.3        1 MOL1        -0.2899
      17    H9      21.928877   18.429962   22.447232 H          1 MOL1         0.0741
      18    H10     22.227143   17.171425   21.238788 H          1 MOL1         0.0741
      19    H11     21.384346   18.662093   20.766298 H          1 MOL1         0.0741
@<TRIPOS>BOND
    1     1     2    1
    2     1     3    2
    3     1     4    1
    4     4     5    1
    5     4     6    1
    6     4     7    1
    7     7     8    1
    8     7     9    1
    9     7    10    1
   10    10    11    1
   11    10    12    1
   12    10    13    1
   13    13    14    1
   14    13    15    1
   15    13    16    1
   16    16    17    1
   17    16    18    1
   18    16    19    1
@<TRIPOS>SUBSTRUCTURE
       1 MOL1            1 RESIDUE      1      MOL     
@<SCITEGIC>MOL_PROPERTY
VConf Rank
SciTegic.value.IntegerValue
678

@<SCITEGIC>MOL_PROPERTY
Conf_Id
SciTegic.value.IntegerValue
4

@<SCITEGIC>MOL_PROPERTY
Delta U+W
SciTegic.value.DoubleValue
3.753

@<SCITEGIC>MOL_PROPERTY
U+W
SciTegic.value.DoubleValue
-51.138

@<SCITEGIC>MOL_PROPERTY
Grad RMS
SciTegic.value.DoubleValue
0.000000

@<SCITEGIC>MOL_PROPERTY
U
SciTegic.value.DoubleValue
12.334

@<SCITEGIC>MOL_PROPERTY
W
SciTegic.value.DoubleValue
-63.472

@<SCITEGIC>MOL_PROPERTY
W(PB)
SciTegic.value.DoubleValue
-65.500

@<SCITEGIC>MOL_PROPERTY
W(SA)
SciTegic.value.DoubleValue
2.028

@<SCITEGIC>MOL_PROPERTY
Valence
SciTegic.value.DoubleValue
9.984

@<SCITEGIC>MOL_PROPERTY
Coulomb
SciTegic.value.DoubleValue
1.767

@<SCITEGIC>MOL_PROPERTY
VdW
SciTegic.value.DoubleValue
0.583

@<SCITEGIC>MOL_PROPERTY
VdW6
SciTegic.value.DoubleValue
-7.767

@<SCITEGIC>MOL_PROPERTY
VdW12
SciTegic.value.DoubleValue
8.349

@<SCITEGIC>MOL_PROPERTY
Bond
SciTegic.value.DoubleValue
0.203

@<SCITEGIC>MOL_PROPERTY
Angle
SciTegic.value.DoubleValue
3.191

@<SCITEGIC>MOL_PROPERTY
Pdih
SciTegic.value.DoubleValue
6.589

@<SCITEGIC>MOL_PROPERTY
Idih
SciTegic.value.DoubleValue
0.001

@<SCITEGIC>MOL_PROPERTY
Tether
SciTegic.value.DoubleValue
0.000

@<TRIPOS>MOLECULE
guest-7_confgen4.mol2 : confsearch ligand conformer 679
          19          18           1
SMALL
USER_CHARGES
 
@<TRIPOS>ATOM
       1    C1      17.713852   18.256631   21.185057 C.2        1 MOL1         0.6115
       2    O1      17.511232   17.487888   20.265790 O.co2      1 MOL1        -0.6776
       3    O2      16.990516   18.344572   22.157552 O.co2      1 MOL1        -0.6776
       4    C2      18.926241   19.179952   21.096623 C.3        1 MOL1        -0.2013
       5    H1      18.791837   19.995973   21.813752 H          1 MOL1         0.0727
       6    H2      18.915057   19.634020   20.098899 H          1 MOL1         0.0727
       7    C3      20.285579   18.460089   21.317832 C.3        1 MOL1        -0.1910
       8    H3      20.337770   17.611659   20.621430 H          1 MOL1         0.0729
       9    H4      21.110641   19.129622   21.039928 H          1 MOL1         0.0729
      10    C4      20.500234   17.935271   22.761426 C.3        1 MOL1        -0.1909
      11    H5      21.066008   16.995539   22.701544 H          1 MOL1         0.0729
      12    H6      19.538262   17.674221   23.223235 H          1 MOL1         0.0729
      13    C5      21.288252   18.894685   23.686875 C.3        1 MOL1        -0.1884
      14    H7      21.452839   18.392006   24.649880 H          1 MOL1         0.0729
      15    H8      22.284772   19.080724   23.263154 H          1 MOL1         0.0729
      16    C6      20.582654   20.241420   23.947634 C.3        1 MOL1        -0.2899
      17    H9      19.555294   20.085258   24.302078 H          1 MOL1         0.0741
      18    H10     21.121834   20.815713   24.711996 H          1 MOL1         0.0741
      19    H11     20.549054   20.852971   23.037561 H          1 MOL1         0.0741
@<TRIPOS>BOND
    1     1     2    1
    2     1     3    2
    3     1     4    1
    4     4     5    1
    5     4     6    1
    6     4     7    1
    7     7     8    1
    8     7     9    1
    9     7    10    1
   10    10    11    1
   11    10    12    1
   12    10    13    1
   13    13    14    1
   14    13    15    1
   15    13    16    1
   16    16    17    1
   17    16    18    1
   18    16    19    1
@<TRIPOS>SUBSTRUCTURE
       1 MOL1            1 RESIDUE      1      MOL     
@<SCITEGIC>MOL_PROPERTY
VConf Rank
SciTegic.value.IntegerValue
679

@<SCITEGIC>MOL_PROPERTY
Conf_Id
SciTegic.value.IntegerValue
73

@<SCITEGIC>MOL_PROPERTY
Delta U+W
SciTegic.value.DoubleValue
3.707

@<SCITEGIC>MOL_PROPERTY
U+W
SciTegic.value.DoubleValue
-51.184

@<SCITEGIC>MOL_PROPERTY
Grad RMS
SciTegic.value.DoubleValue
0.000000

@<SCITEGIC>MOL_PROPERTY
U
SciTegic.value.DoubleValue
12.334

@<SCITEGIC>MOL_PROPERTY
W
SciTegic.value.DoubleValue
-63.519

@<SCITEGIC>MOL_PROPERTY
W(PB)
SciTegic.value.DoubleValue
-65.541

@<SCITEGIC>MOL_PROPERTY
W(SA)
SciTegic.value.DoubleValue
2.022

@<SCITEGIC>MOL_PROPERTY
Valence
SciTegic.value.DoubleValue
9.984

@<SCITEGIC>MOL_PROPERTY
Coulomb
SciTegic.value.DoubleValue
1.768

@<SCITEGIC>MOL_PROPERTY
VdW
SciTegic.value.DoubleValue
0.583

@<SCITEGIC>MOL_PROPERTY
VdW6
SciTegic.value.DoubleValue
-7.767

@<SCITEGIC>MOL_PROPERTY
VdW12
SciTegic.value.DoubleValue
8.350

@<SCITEGIC>MOL_PROPERTY
Bond
SciTegic.value.DoubleValue
0.203

@<SCITEGIC>MOL_PROPERTY
Angle
SciTegic.value.DoubleValue
3.192

@<SCITEGIC>MOL_PROPERTY
Pdih
SciTegic.value.DoubleValue
6.589

@<SCITEGIC>MOL_PROPERTY
Idih
SciTegic.value.DoubleValue
0.001

@<SCITEGIC>MOL_PROPERTY
Tether
SciTegic.value.DoubleValue
0.000

@<TRIPOS>MOLECULE
guest-7_confgen4.mol2 : confsearch ligand conformer 680
          19          18           1
SMALL
USER_CHARGES
 
@<TRIPOS>ATOM
       1    C1      19.507948   19.164660   24.954240 C.2        1 MOL1         0.6115
       2    O1      20.681759   19.272757   25.249526 O.co2      1 MOL1        -0.6776
       3    O2      18.608909   19.703944   25.569107 O.co2      1 MOL1        -0.6776
       4    C2      19.137466   18.279079   23.767727 C.3        1 MOL1        -0.2013
       5    H1      18.353539   17.591473   24.105847 H          1 MOL1         0.0727
       6    H2      20.003038   17.659033   23.507681 H          1 MOL1         0.0727
       7    C3      18.633157   19.061430   22.524397 C.3        1 MOL1        -0.1910
       8    H3      18.320738   18.348287   21.750649 H          1 MOL1         0.0729
       9    H4      17.728543   19.619196   22.803110 H          1 MOL1         0.0729
      10    C4      19.664921   20.055194   21.931109 C.3        1 MOL1        -0.1909
      11    H5      19.878826   20.835676   22.674193 H          1 MOL1         0.0729
      12    H6      19.206609   20.570339   21.076025 H          1 MOL1         0.0729
      13    C5      21.003101   19.423080   21.476221 C.3        1 MOL1        -0.1884
      14    H7      21.653858   20.220853   21.092854 H          1 MOL1         0.0729
      15    H8      21.529143   18.992001   22.338715 H          1 MOL1         0.0729
      16    C6      20.831876   18.351008   20.378488 C.3        1 MOL1        -0.2899
      17    H9      20.281594   17.479458   20.754657 H          1 MOL1         0.0741
      18    H10     20.288398   18.756255   19.515112 H          1 MOL1         0.0741
      19    H11     21.811207   18.000324   20.028163 H          1 MOL1         0.0741
@<TRIPOS>BOND
    1     1     2    1
    2     1     3    2
    3     1     4    1
    4     4     5    1
    5     4     6    1
    6     4     7    1
    7     7     8    1
    8     7     9    1
    9     7    10    1
   10    10    11    1
   11    10    12    1
   12    10    13    1
   13    13    14    1
   14    13    15    1
   15    13    16    1
   16    16    17    1
   17    16    18    1
   18    16    19    1
@<TRIPOS>SUBSTRUCTURE
       1 MOL1            1 RESIDUE      1      MOL     
@<SCITEGIC>MOL_PROPERTY
VConf Rank
SciTegic.value.IntegerValue
680

@<SCITEGIC>MOL_PROPERTY
Conf_Id
SciTegic.value.IntegerValue
56

@<SCITEGIC>MOL_PROPERTY
Delta U+W
SciTegic.value.DoubleValue
1.735

@<SCITEGIC>MOL_PROPERTY
U+W
SciTegic.value.DoubleValue
-53.156

@<SCITEGIC>MOL_PROPERTY
Grad RMS
SciTegic.value.DoubleValue
0.000000

@<SCITEGIC>MOL_PROPERTY
U
SciTegic.value.DoubleValue
10.214

@<SCITEGIC>MOL_PROPERTY
W
SciTegic.value.DoubleValue
-63.370

@<SCITEGIC>MOL_PROPERTY
W(PB)
SciTegic.value.DoubleValue
-65.388

@<SCITEGIC>MOL_PROPERTY
W(SA)
SciTegic.value.DoubleValue
2.018

@<SCITEGIC>MOL_PROPERTY
Valence
SciTegic.value.DoubleValue
7.868

@<SCITEGIC>MOL_PROPERTY
Coulomb
SciTegic.value.DoubleValue
1.968

@<SCITEGIC>MOL_PROPERTY
VdW
SciTegic.value.DoubleValue
0.378

@<SCITEGIC>MOL_PROPERTY
VdW6
SciTegic.value.DoubleValue
-8.067

@<SCITEGIC>MOL_PROPERTY
VdW12
SciTegic.value.DoubleValue
8.445

@<SCITEGIC>MOL_PROPERTY
Bond
SciTegic.value.DoubleValue
0.191

@<SCITEGIC>MOL_PROPERTY
Angle
SciTegic.value.DoubleValue
3.117

@<SCITEGIC>MOL_PROPERTY
Pdih
SciTegic.value.DoubleValue
4.559

@<SCITEGIC>MOL_PROPERTY
Idih
SciTegic.value.DoubleValue
0.001

@<SCITEGIC>MOL_PROPERTY
Tether
SciTegic.value.DoubleValue
0.000

@<TRIPOS>MOLECULE
guest-7_confgen4.mol2 : confsearch ligand conformer 681
          19          18           1
SMALL
USER_CHARGES
 
@<TRIPOS>ATOM
       1    C1      19.079397   21.547375   23.317307 C.2        1 MOL1         0.6115
       2    O1      18.881937   21.759707   24.497259 O.co2      1 MOL1        -0.6776
       3    O2      18.748750   22.311627   22.432454 O.co2      1 MOL1        -0.6776
       4    C2      19.759829   20.240854   22.924555 C.3        1 MOL1        -0.2013
       5    H1      20.447704   19.958368   23.730415 H          1 MOL1         0.0727
       6    H2      20.361405   20.436471   22.029932 H          1 MOL1         0.0727
       7    C3      18.751402   19.095799   22.654559 C.3        1 MOL1        -0.1910
       8    H3      18.069786   19.018119   23.512909 H          1 MOL1         0.0729
       9    H4      18.127447   19.359981   21.789640 H          1 MOL1         0.0729
      10    C4      19.405039   17.710714   22.420485 C.3        1 MOL1        -0.1909
      11    H5      18.594243   16.980029   22.295262 H          1 MOL1         0.0729
      12    H6      19.954194   17.395949   23.318456 H          1 MOL1         0.0729
      13    C5      20.322453   17.630348   21.175094 C.3        1 MOL1        -0.1884
      14    H7      20.215034   16.634042   20.724343 H          1 MOL1         0.0729
      15    H8      19.992421   18.348089   20.411396 H          1 MOL1         0.0729
      16    C6      21.816660   17.845852   21.503167 C.3        1 MOL1        -0.2899
      17    H9      22.424920   17.762085   20.593288 H          1 MOL1         0.0741
      18    H10     22.001513   18.834151   21.938726 H          1 MOL1         0.0741
      19    H11     22.172688   17.089940   22.215187 H          1 MOL1         0.0741
@<TRIPOS>BOND
    1     1     2    1
    2     1     3    2
    3     1     4    1
    4     4     5    1
    5     4     6    1
    6     4     7    1
    7     7     8    1
    8     7     9    1
    9     7    10    1
   10    10    11    1
   11    10    12    1
   12    10    13    1
   13    13    14    1
   14    13    15    1
   15    13    16    1
   16    16    17    1
   17    16    18    1
   18    16    19    1
@<TRIPOS>SUBSTRUCTURE
       1 MOL1            1 RESIDUE      1      MOL     
@<SCITEGIC>MOL_PROPERTY
VConf Rank
SciTegic.value.IntegerValue
681

@<SCITEGIC>MOL_PROPERTY
Conf_Id
SciTegic.value.IntegerValue
53

@<SCITEGIC>MOL_PROPERTY
Delta U+W
SciTegic.value.DoubleValue
2.279

@<SCITEGIC>MOL_PROPERTY
U+W
SciTegic.value.DoubleValue
-52.612

@<SCITEGIC>MOL_PROPERTY
Grad RMS
SciTegic.value.DoubleValue
0.000000

@<SCITEGIC>MOL_PROPERTY
U
SciTegic.value.DoubleValue
10.231

@<SCITEGIC>MOL_PROPERTY
W
SciTegic.value.DoubleValue
-62.843

@<SCITEGIC>MOL_PROPERTY
W(PB)
SciTegic.value.DoubleValue
-64.893

@<SCITEGIC>MOL_PROPERTY
W(SA)
SciTegic.value.DoubleValue
2.050

@<SCITEGIC>MOL_PROPERTY
Valence
SciTegic.value.DoubleValue
9.644

@<SCITEGIC>MOL_PROPERTY
Coulomb
SciTegic.value.DoubleValue
-0.164

@<SCITEGIC>MOL_PROPERTY
VdW
SciTegic.value.DoubleValue
0.751

@<SCITEGIC>MOL_PROPERTY
VdW6
SciTegic.value.DoubleValue
-6.881

@<SCITEGIC>MOL_PROPERTY
VdW12
SciTegic.value.DoubleValue
7.631

@<SCITEGIC>MOL_PROPERTY
Bond
SciTegic.value.DoubleValue
0.163

@<SCITEGIC>MOL_PROPERTY
Angle
SciTegic.value.DoubleValue
2.998

@<SCITEGIC>MOL_PROPERTY
Pdih
SciTegic.value.DoubleValue
6.482

@<SCITEGIC>MOL_PROPERTY
Idih
SciTegic.value.DoubleValue
0.001

@<SCITEGIC>MOL_PROPERTY
Tether
SciTegic.value.DoubleValue
0.000

@<TRIPOS>MOLECULE
guest-7_confgen4.mol2 : confsearch ligand conformer 682
          19          18           1
SMALL
USER_CHARGES
 
@<TRIPOS>ATOM
       1    C1      19.375633   20.729712   23.878950 C.2        1 MOL1         0.6115
       2    O1      20.111029   20.688692   24.845575 O.co2      1 MOL1        -0.6776
       3    O2      18.164661   20.659432   23.955470 O.co2      1 MOL1        -0.6776
       4    C2      20.004257   20.951598   22.504512 C.3        1 MOL1        -0.2013
       5    H1      21.090650   21.047797   22.620354 H          1 MOL1         0.0727
       6    H2      19.639462   21.923304   22.151901 H          1 MOL1         0.0727
       7    C3      19.670400   19.869680   21.439093 C.3        1 MOL1        -0.1910
       8    H3      18.598960   19.628071   21.473476 H          1 MOL1         0.0729
       9    H4      19.850057   20.304766   20.446701 H          1 MOL1         0.0729
      10    C4      20.510951   18.573121   21.544380 C.3        1 MOL1        -0.1909
      11    H5      21.580317   18.821123   21.502118 H          1 MOL1         0.0729
      12    H6      20.301921   17.957149   20.659002 H          1 MOL1         0.0729
      13    C5      20.221831   17.735957   22.809741 C.3        1 MOL1        -0.1884
      14    H7      20.547450   18.281246   23.704749 H          1 MOL1         0.0729
      15    H8      19.139821   17.572112   22.908766 H          1 MOL1         0.0729
      16    C6      20.946064   16.375316   22.765255 C.3        1 MOL1        -0.2899
      17    H9      22.032978   16.511855   22.692227 H          1 MOL1         0.0741
      18    H10     20.737365   15.796833   23.674567 H          1 MOL1         0.0741
      19    H11     20.615791   15.781596   21.902854 H          1 MOL1         0.0741
@<TRIPOS>BOND
    1     1     2    1
    2     1     3    2
    3     1     4    1
    4     4     5    1
    5     4     6    1
    6     4     7    1
    7     7     8    1
    8     7     9    1
    9     7    10    1
   10    10    11    1
   11    10    12    1
   12    10    13    1
   13    13    14    1
   14    13    15    1
   15    13    16    1
   16    16    17    1
   17    16    18    1
   18    16    19    1
@<TRIPOS>SUBSTRUCTURE
       1 MOL1            1 RESIDUE      1      MOL     
@<SCITEGIC>MOL_PROPERTY
VConf Rank
SciTegic.value.IntegerValue
682

@<SCITEGIC>MOL_PROPERTY
Conf_Id
SciTegic.value.IntegerValue
25

@<SCITEGIC>MOL_PROPERTY
Delta U+W
SciTegic.value.DoubleValue
2.065

@<SCITEGIC>MOL_PROPERTY
U+W
SciTegic.value.DoubleValue
-52.826

@<SCITEGIC>MOL_PROPERTY
Grad RMS
SciTegic.value.DoubleValue
0.000000

@<SCITEGIC>MOL_PROPERTY
U
SciTegic.value.DoubleValue
10.967

@<SCITEGIC>MOL_PROPERTY
W
SciTegic.value.DoubleValue
-63.794

@<SCITEGIC>MOL_PROPERTY
W(PB)
SciTegic.value.DoubleValue
-65.830

@<SCITEGIC>MOL_PROPERTY
W(SA)
SciTegic.value.DoubleValue
2.036

@<SCITEGIC>MOL_PROPERTY
Valence
SciTegic.value.DoubleValue
8.609

@<SCITEGIC>MOL_PROPERTY
Coulomb
SciTegic.value.DoubleValue
1.892

@<SCITEGIC>MOL_PROPERTY
VdW
SciTegic.value.DoubleValue
0.467

@<SCITEGIC>MOL_PROPERTY
VdW6
SciTegic.value.DoubleValue
-7.569

@<SCITEGIC>MOL_PROPERTY
VdW12
SciTegic.value.DoubleValue
8.036

@<SCITEGIC>MOL_PROPERTY
Bond
SciTegic.value.DoubleValue
0.170

@<SCITEGIC>MOL_PROPERTY
Angle
SciTegic.value.DoubleValue
3.195

@<SCITEGIC>MOL_PROPERTY
Pdih
SciTegic.value.DoubleValue
5.237

@<SCITEGIC>MOL_PROPERTY
Idih
SciTegic.value.DoubleValue
0.007

@<SCITEGIC>MOL_PROPERTY
Tether
SciTegic.value.DoubleValue
0.000

@<TRIPOS>MOLECULE
guest-7_confgen4.mol2 : confsearch ligand conformer 683
          19          18           1
SMALL
USER_CHARGES
 
@<TRIPOS>ATOM
       1    C1      22.126556   20.191622   22.495903 C.2        1 MOL1         0.6115
       2    O1      22.850579   19.807396   23.393349 O.co2      1 MOL1        -0.6776
       3    O2      21.704441   21.328444   22.416480 O.co2      1 MOL1        -0.6776
       4    C2      21.785129   19.216160   21.371010 C.3        1 MOL1        -0.2013
       5    H1      22.733869   18.963540   20.883464 H          1 MOL1         0.0727
       6    H2      21.175814   19.735294   20.621238 H          1 MOL1         0.0727
       7    C3      21.082841   17.903892   21.820310 C.3        1 MOL1        -0.1910
       8    H3      21.221779   17.156729   21.027302 H          1 MOL1         0.0729
       9    H4      21.583282   17.496774   22.709892 H          1 MOL1         0.0729
      10    C4      19.561980   18.037354   22.080787 C.3        1 MOL1        -0.1909
      11    H5      19.151758   17.029971   22.235412 H          1 MOL1         0.0729
      12    H6      19.067121   18.437840   21.185487 H          1 MOL1         0.0729
      13    C5      19.206654   18.910116   23.304555 C.3        1 MOL1        -0.1884
      14    H7      19.778631   18.573960   24.180475 H          1 MOL1         0.0729
      15    H8      19.489194   19.953971   23.117616 H          1 MOL1         0.0729
      16    C6      17.698737   18.852081   23.621819 C.3        1 MOL1        -0.2899
      17    H9      17.461710   19.483688   24.487807 H          1 MOL1         0.0741
      18    H10     17.104791   19.208018   22.769824 H          1 MOL1         0.0741
      19    H11     17.384679   17.826200   23.854742 H          1 MOL1         0.0741
@<TRIPOS>BOND
    1     1     2    1
    2     1     3    2
    3     1     4    1
    4     4     5    1
    5     4     6    1
    6     4     7    1
    7     7     8    1
    8     7     9    1
    9     7    10    1
   10    10    11    1
   11    10    12    1
   12    10    13    1
   13    13    14    1
   14    13    15    1
   15    13    16    1
   16    16    17    1
   17    16    18    1
   18    16    19    1
@<TRIPOS>SUBSTRUCTURE
       1 MOL1            1 RESIDUE      1      MOL     
@<SCITEGIC>MOL_PROPERTY
VConf Rank
SciTegic.value.IntegerValue
683

@<SCITEGIC>MOL_PROPERTY
Conf_Id
SciTegic.value.IntegerValue
52

@<SCITEGIC>MOL_PROPERTY
Delta U+W
SciTegic.value.DoubleValue
2.070

@<SCITEGIC>MOL_PROPERTY
U+W
SciTegic.value.DoubleValue
-52.822

@<SCITEGIC>MOL_PROPERTY
Grad RMS
SciTegic.value.DoubleValue
0.000000

@<SCITEGIC>MOL_PROPERTY
U
SciTegic.value.DoubleValue
10.967

@<SCITEGIC>MOL_PROPERTY
W
SciTegic.value.DoubleValue
-63.789

@<SCITEGIC>MOL_PROPERTY
W(PB)
SciTegic.value.DoubleValue
-65.837

@<SCITEGIC>MOL_PROPERTY
W(SA)
SciTegic.value.DoubleValue
2.048

@<SCITEGIC>MOL_PROPERTY
Valence
SciTegic.value.DoubleValue
8.609

@<SCITEGIC>MOL_PROPERTY
Coulomb
SciTegic.value.DoubleValue
1.892

@<SCITEGIC>MOL_PROPERTY
VdW
SciTegic.value.DoubleValue
0.467

@<SCITEGIC>MOL_PROPERTY
VdW6
SciTegic.value.DoubleValue
-7.569

@<SCITEGIC>MOL_PROPERTY
VdW12
SciTegic.value.DoubleValue
8.035

@<SCITEGIC>MOL_PROPERTY
Bond
SciTegic.value.DoubleValue
0.170

@<SCITEGIC>MOL_PROPERTY
Angle
SciTegic.value.DoubleValue
3.196

@<SCITEGIC>MOL_PROPERTY
Pdih
SciTegic.value.DoubleValue
5.237

@<SCITEGIC>MOL_PROPERTY
Idih
SciTegic.value.DoubleValue
0.007

@<SCITEGIC>MOL_PROPERTY
Tether
SciTegic.value.DoubleValue
0.000

@<TRIPOS>MOLECULE
guest-7_confgen4.mol2 : confsearch ligand conformer 684
          19          18           1
SMALL
USER_CHARGES
 
@<TRIPOS>ATOM
       1    C1      18.864325   16.971994   22.672928 C.2        1 MOL1         0.6115
       2    O1      18.528227   16.764422   23.822740 O.co2      1 MOL1        -0.6776
       3    O2      18.100840   16.887561   21.731302 O.co2      1 MOL1        -0.6776
       4    C2      20.342522   17.227785   22.374792 C.3        1 MOL1        -0.2013
       5    H1      20.447079   17.542498   21.329535 H          1 MOL1         0.0727
       6    H2      20.840926   16.255295   22.459242 H          1 MOL1         0.0727
       7    C3      21.056240   18.240889   23.314792 C.3        1 MOL1        -0.1910
       8    H3      20.733709   18.081420   24.352975 H          1 MOL1         0.0729
       9    H4      22.131062   18.015314   23.299644 H          1 MOL1         0.0729
      10    C4      20.888465   19.734038   22.933302 C.3        1 MOL1        -0.1909
      11    H5      21.303484   19.914469   21.932182 H          1 MOL1         0.0729
      12    H6      21.511060   20.321815   23.621677 H          1 MOL1         0.0729
      13    C5      19.439915   20.272708   23.020052 C.3        1 MOL1        -0.1884
      14    H7      18.838792   19.651108   23.698005 H          1 MOL1         0.0729
      15    H8      19.460973   21.276435   23.466410 H          1 MOL1         0.0729
      16    C6      18.757196   20.375783   21.639330 C.3        1 MOL1        -0.2899
      17    H9      19.297162   21.074162   20.986918 H          1 MOL1         0.0741
      18    H10     18.719538   19.402648   21.136021 H          1 MOL1         0.0741
      19    H11     17.727217   20.739882   21.745134 H          1 MOL1         0.0741
@<TRIPOS>BOND
    1     1     2    1
    2     1     3    2
    3     1     4    1
    4     4     5    1
    5     4     6    1
    6     4     7    1
    7     7     8    1
    8     7     9    1
    9     7    10    1
   10    10    11    1
   11    10    12    1
   12    10    13    1
   13    13    14    1
   14    13    15    1
   15    13    16    1
   16    16    17    1
   17    16    18    1
   18    16    19    1
@<TRIPOS>SUBSTRUCTURE
       1 MOL1            1 RESIDUE      1      MOL     
@<SCITEGIC>MOL_PROPERTY
VConf Rank
SciTegic.value.IntegerValue
684

@<SCITEGIC>MOL_PROPERTY
Conf_Id
SciTegic.value.IntegerValue
66

@<SCITEGIC>MOL_PROPERTY
Delta U+W
SciTegic.value.DoubleValue
5.819

@<SCITEGIC>MOL_PROPERTY
U+W
SciTegic.value.DoubleValue
-49.072

@<SCITEGIC>MOL_PROPERTY
Grad RMS
SciTegic.value.DoubleValue
0.000000

@<SCITEGIC>MOL_PROPERTY
U
SciTegic.value.DoubleValue
15.324

@<SCITEGIC>MOL_PROPERTY
W
SciTegic.value.DoubleValue
-64.396

@<SCITEGIC>MOL_PROPERTY
W(PB)
SciTegic.value.DoubleValue
-66.382

@<SCITEGIC>MOL_PROPERTY
W(SA)
SciTegic.value.DoubleValue
1.986

@<SCITEGIC>MOL_PROPERTY
Valence
SciTegic.value.DoubleValue
11.748

@<SCITEGIC>MOL_PROPERTY
Coulomb
SciTegic.value.DoubleValue
3.201

@<SCITEGIC>MOL_PROPERTY
VdW
SciTegic.value.DoubleValue
0.375

@<SCITEGIC>MOL_PROPERTY
VdW6
SciTegic.value.DoubleValue
-8.854

@<SCITEGIC>MOL_PROPERTY
VdW12
SciTegic.value.DoubleValue
9.229

@<SCITEGIC>MOL_PROPERTY
Bond
SciTegic.value.DoubleValue
0.216

@<SCITEGIC>MOL_PROPERTY
Angle
SciTegic.value.DoubleValue
3.812

@<SCITEGIC>MOL_PROPERTY
Pdih
SciTegic.value.DoubleValue
7.699

@<SCITEGIC>MOL_PROPERTY
Idih
SciTegic.value.DoubleValue
0.022

@<SCITEGIC>MOL_PROPERTY
Tether
SciTegic.value.DoubleValue
0.000

@<TRIPOS>MOLECULE
guest-7_confgen4.mol2 : confsearch ligand conformer 685
          19          18           1
SMALL
USER_CHARGES
 
@<TRIPOS>ATOM
       1    C1      18.931228   17.565518   19.165668 C.2        1 MOL1         0.6115
       2    O1      18.012193   17.617841   18.373015 O.co2      1 MOL1        -0.6776
       3    O2      19.896797   16.842211   19.015170 O.co2      1 MOL1        -0.6776
       4    C2      18.839961   18.463254   20.400746 C.3        1 MOL1        -0.2013
       5    H1      17.909802   18.208576   20.922275 H          1 MOL1         0.0727
       6    H2      18.737276   19.496098   20.047561 H          1 MOL1         0.0727
       7    C3      20.036527   18.362125   21.383821 C.3        1 MOL1        -0.1910
       8    H3      20.137518   17.323926   21.729382 H          1 MOL1         0.0729
       9    H4      20.965864   18.612745   20.853734 H          1 MOL1         0.0729
      10    C4      19.862390   19.299346   22.598544 C.3        1 MOL1        -0.1909
      11    H5      18.932659   19.047166   23.126895 H          1 MOL1         0.0729
      12    H6      19.761496   20.336672   22.250800 H          1 MOL1         0.0729
      13    C5      21.052916   19.197241   23.574566 C.3        1 MOL1        -0.1884
      14    H7      21.156038   18.161284   23.926207 H          1 MOL1         0.0729
      15    H8      21.984755   19.450750   23.050256 H          1 MOL1         0.0729
      16    C6      20.875667   20.134149   24.786084 C.3        1 MOL1        -0.2899
      17    H9      19.966498   19.882293   25.347692 H          1 MOL1         0.0741
      18    H10     21.730636   20.048845   25.469356 H          1 MOL1         0.0741
      19    H11     20.801435   21.181482   24.465142 H          1 MOL1         0.0741
@<TRIPOS>BOND
    1     1     2    1
    2     1     3    2
    3     1     4    1
    4     4     5    1
    5     4     6    1
    6     4     7    1
    7     7     8    1
    8     7     9    1
    9     7    10    1
   10    10    11    1
   11    10    12    1
   12    10    13    1
   13    13    14    1
   14    13    15    1
   15    13    16    1
   16    16    17    1
   17    16    18    1
   18    16    19    1
@<TRIPOS>SUBSTRUCTURE
       1 MOL1            1 RESIDUE      1      MOL     
@<SCITEGIC>MOL_PROPERTY
VConf Rank
SciTegic.value.IntegerValue
685

@<SCITEGIC>MOL_PROPERTY
Conf_Id
SciTegic.value.IntegerValue
0

@<SCITEGIC>MOL_PROPERTY
Delta U+W
SciTegic.value.DoubleValue
0.000

@<SCITEGIC>MOL_PROPERTY
U+W
SciTegic.value.DoubleValue
-54.891

@<SCITEGIC>MOL_PROPERTY
Grad RMS
SciTegic.value.DoubleValue
0.000000

@<SCITEGIC>MOL_PROPERTY
U
SciTegic.value.DoubleValue
6.966

@<SCITEGIC>MOL_PROPERTY
W
SciTegic.value.DoubleValue
-61.857

@<SCITEGIC>MOL_PROPERTY
W(PB)
SciTegic.value.DoubleValue
-63.965

@<SCITEGIC>MOL_PROPERTY
W(SA)
SciTegic.value.DoubleValue
2.108

@<SCITEGIC>MOL_PROPERTY
Valence
SciTegic.value.DoubleValue
7.175

@<SCITEGIC>MOL_PROPERTY
Coulomb
SciTegic.value.DoubleValue
-1.360

@<SCITEGIC>MOL_PROPERTY
VdW
SciTegic.value.DoubleValue
1.151

@<SCITEGIC>MOL_PROPERTY
VdW6
SciTegic.value.DoubleValue
-5.641

@<SCITEGIC>MOL_PROPERTY
VdW12
SciTegic.value.DoubleValue
6.792

@<SCITEGIC>MOL_PROPERTY
Bond
SciTegic.value.DoubleValue
0.119

@<SCITEGIC>MOL_PROPERTY
Angle
SciTegic.value.DoubleValue
2.715

@<SCITEGIC>MOL_PROPERTY
Pdih
SciTegic.value.DoubleValue
4.340

@<SCITEGIC>MOL_PROPERTY
Idih
SciTegic.value.DoubleValue
0.000

@<SCITEGIC>MOL_PROPERTY
Tether
SciTegic.value.DoubleValue
0.000

@<TRIPOS>MOLECULE
guest-7_confgen4.mol2 : confsearch ligand conformer 686
          19          18           1
SMALL
USER_CHARGES
 
@<TRIPOS>ATOM
       1    C1      18.292002   16.012085   22.701201 C.2        1 MOL1         0.6115
       2    O1      18.391969   15.189676   21.812477 O.co2      1 MOL1        -0.6776
       3    O2      18.146214   15.722637   23.872162 O.co2      1 MOL1        -0.6776
       4    C2      18.374608   17.488253   22.329079 C.3        1 MOL1        -0.2013
       5    H1      17.741585   18.051308   23.025493 H          1 MOL1         0.0727
       6    H2      17.944579   17.611997   21.327827 H          1 MOL1         0.0727
       7    C3      19.822374   18.036997   22.360195 C.3        1 MOL1        -0.1910
       8    H3      20.242958   17.894253   23.365323 H          1 MOL1         0.0729
       9    H4      20.446023   17.454778   21.667641 H          1 MOL1         0.0729
      10    C4      19.878523   19.532257   21.979835 C.3        1 MOL1        -0.1909
      11    H5      19.253060   20.111374   22.673097 H          1 MOL1         0.0729
      12    H6      19.456258   19.671820   20.975143 H          1 MOL1         0.0729
      13    C5      21.321941   20.076222   22.011753 C.3        1 MOL1        -0.1884
      14    H7      21.747205   19.940127   23.015806 H          1 MOL1         0.0729
      15    H8      21.950361   19.500686   21.317967 H          1 MOL1         0.0729
      16    C6      21.374258   21.569425   21.631540 C.3        1 MOL1        -0.2899
      17    H9      22.407333   21.939682   21.659349 H          1 MOL1         0.0741
      18    H10     20.983562   21.730651   20.618235 H          1 MOL1         0.0741
      19    H11     20.778845   22.173375   22.328786 H          1 MOL1         0.0741
@<TRIPOS>BOND
    1     1     2    1
    2     1     3    2
    3     1     4    1
    4     4     5    1
    5     4     6    1
    6     4     7    1
    7     7     8    1
    8     7     9    1
    9     7    10    1
   10    10    11    1
   11    10    12    1
   12    10    13    1
   13    13    14    1
   14    13    15    1
   15    13    16    1
   16    16    17    1
   17    16    18    1
   18    16    19    1
@<TRIPOS>SUBSTRUCTURE
       1 MOL1            1 RESIDUE      1      MOL     
@<SCITEGIC>MOL_PROPERTY
VConf Rank
SciTegic.value.IntegerValue
686

@<SCITEGIC>MOL_PROPERTY
Conf_Id
SciTegic.value.IntegerValue
18

@<SCITEGIC>MOL_PROPERTY
Delta U+W
SciTegic.value.DoubleValue
-1.199

@<SCITEGIC>MOL_PROPERTY
U+W
SciTegic.value.DoubleValue
-56.090

@<SCITEGIC>MOL_PROPERTY
Grad RMS
SciTegic.value.DoubleValue
0.000000

@<SCITEGIC>MOL_PROPERTY
U
SciTegic.value.DoubleValue
5.975

@<SCITEGIC>MOL_PROPERTY
W
SciTegic.value.DoubleValue
-62.066

@<SCITEGIC>MOL_PROPERTY
W(PB)
SciTegic.value.DoubleValue
-64.219

@<SCITEGIC>MOL_PROPERTY
W(SA)
SciTegic.value.DoubleValue
2.153

@<SCITEGIC>MOL_PROPERTY
Valence
SciTegic.value.DoubleValue
6.673

@<SCITEGIC>MOL_PROPERTY
Coulomb
SciTegic.value.DoubleValue
-1.307

@<SCITEGIC>MOL_PROPERTY
VdW
SciTegic.value.DoubleValue
0.610

@<SCITEGIC>MOL_PROPERTY
VdW6
SciTegic.value.DoubleValue
-5.351

@<SCITEGIC>MOL_PROPERTY
VdW12
SciTegic.value.DoubleValue
5.961

@<SCITEGIC>MOL_PROPERTY
Bond
SciTegic.value.DoubleValue
0.086

@<SCITEGIC>MOL_PROPERTY
Angle
SciTegic.value.DoubleValue
2.253

@<SCITEGIC>MOL_PROPERTY
Pdih
SciTegic.value.DoubleValue
4.333

@<SCITEGIC>MOL_PROPERTY
Idih
SciTegic.value.DoubleValue
0.001

@<SCITEGIC>MOL_PROPERTY
Tether
SciTegic.value.DoubleValue
0.000

@<TRIPOS>MOLECULE
guest-7_confgen4.mol2 : confsearch ligand conformer 687
          19          18           1
SMALL
USER_CHARGES
 
@<TRIPOS>ATOM
       1    C1      19.769635   18.685729   18.987452 C.2        1 MOL1         0.6115
       2    O1      19.601801   17.635654   18.399691 O.co2      1 MOL1        -0.6776
       3    O2      19.559658   19.774822   18.491420 O.co2      1 MOL1        -0.6776
       4    C2      20.249637   18.632941   20.433541 C.3        1 MOL1        -0.2013
       5    H1      20.873124   19.516613   20.610264 H          1 MOL1         0.0727
       6    H2      20.893293   17.752345   20.546533 H          1 MOL1         0.0727
       7    C3      19.081465   18.575595   21.452004 C.3        1 MOL1        -0.1910
       8    H3      18.469392   19.483443   21.359872 H          1 MOL1         0.0729
       9    H4      18.427041   17.732527   21.190491 H          1 MOL1         0.0729
      10    C4      19.547224   18.405368   22.917482 C.3        1 MOL1        -0.1909
      11    H5      20.151717   17.492454   23.007943 H          1 MOL1         0.0729
      12    H6      18.661295   18.255329   23.549645 H          1 MOL1         0.0729
      13    C5      20.346685   19.614568   23.452467 C.3        1 MOL1        -0.1884
      14    H7      21.276428   19.736467   22.881435 H          1 MOL1         0.0729
      15    H8      19.762626   20.535084   23.315380 H          1 MOL1         0.0729
      16    C6      20.693933   19.446338   24.945246 C.3        1 MOL1        -0.2899
      17    H9      21.263768   20.311015   25.309541 H          1 MOL1         0.0741
      18    H10     19.783959   19.359840   25.553399 H          1 MOL1         0.0741
      19    H11     21.301965   18.546729   25.107748 H          1 MOL1         0.0741
@<TRIPOS>BOND
    1     1     2    1
    2     1     3    2
    3     1     4    1
    4     4     5    1
    5     4     6    1
    6     4     7    1
    7     7     8    1
    8     7     9    1
    9     7    10    1
   10    10    11    1
   11    10    12    1
   12    10    13    1
   13    13    14    1
   14    13    15    1
   15    13    16    1
   16    16    17    1
   17    16    18    1
   18    16    19    1
@<TRIPOS>SUBSTRUCTURE
       1 MOL1            1 RESIDUE      1      MOL     
@<SCITEGIC>MOL_PROPERTY
VConf Rank
SciTegic.value.IntegerValue
687

@<SCITEGIC>MOL_PROPERTY
Conf_Id
SciTegic.value.IntegerValue
34

@<SCITEGIC>MOL_PROPERTY
Delta U+W
SciTegic.value.DoubleValue
-0.563

@<SCITEGIC>MOL_PROPERTY
U+W
SciTegic.value.DoubleValue
-55.455

@<SCITEGIC>MOL_PROPERTY
Grad RMS
SciTegic.value.DoubleValue
0.000000

@<SCITEGIC>MOL_PROPERTY
U
SciTegic.value.DoubleValue
6.914

@<SCITEGIC>MOL_PROPERTY
W
SciTegic.value.DoubleValue
-62.369

@<SCITEGIC>MOL_PROPERTY
W(PB)
SciTegic.value.DoubleValue
-64.446

@<SCITEGIC>MOL_PROPERTY
W(SA)
SciTegic.value.DoubleValue
2.077

@<SCITEGIC>MOL_PROPERTY
Valence
SciTegic.value.DoubleValue
7.196

@<SCITEGIC>MOL_PROPERTY
Coulomb
SciTegic.value.DoubleValue
-1.020

@<SCITEGIC>MOL_PROPERTY
VdW
SciTegic.value.DoubleValue
0.738

@<SCITEGIC>MOL_PROPERTY
VdW6
SciTegic.value.DoubleValue
-6.010

@<SCITEGIC>MOL_PROPERTY
VdW12
SciTegic.value.DoubleValue
6.748

@<SCITEGIC>MOL_PROPERTY
Bond
SciTegic.value.DoubleValue
0.126

@<SCITEGIC>MOL_PROPERTY
Angle
SciTegic.value.DoubleValue
2.499

@<SCITEGIC>MOL_PROPERTY
Pdih
SciTegic.value.DoubleValue
4.570

@<SCITEGIC>MOL_PROPERTY
Idih
SciTegic.value.DoubleValue
0.001

@<SCITEGIC>MOL_PROPERTY
Tether
SciTegic.value.DoubleValue
0.000

@<TRIPOS>MOLECULE
guest-7_confgen4.mol2 : confsearch ligand conformer 688
          19          18           1
SMALL
USER_CHARGES
 
@<TRIPOS>ATOM
       1    C1      18.327857   17.738694   19.692146 C.2        1 MOL1         0.6115
       2    O1      17.146388   17.458858   19.738109 O.co2      1 MOL1        -0.6776
       3    O2      19.084970   17.320949   18.838606 O.co2      1 MOL1        -0.6776
       4    C2      18.895842   18.646069   20.777698 C.3        1 MOL1        -0.2013
       5    H1      18.107488   19.343565   21.085120 H          1 MOL1         0.0727
       6    H2      19.699349   19.240573   20.328491 H          1 MOL1         0.0727
       7    C3      19.420446   17.857203   22.005566 C.3        1 MOL1        -0.1910
       8    H3      18.617136   17.204534   22.374535 H          1 MOL1         0.0729
       9    H4      20.239535   17.194652   21.693430 H          1 MOL1         0.0729
      10    C4      19.894569   18.763969   23.165958 C.3        1 MOL1        -0.1909
      11    H5      20.134183   18.128411   24.029476 H          1 MOL1         0.0729
      12    H6      19.070951   19.419098   23.481346 H          1 MOL1         0.0729
      13    C5      21.132881   19.617676   22.812009 C.3        1 MOL1        -0.1884
      14    H7      21.939979   18.967020   22.447993 H          1 MOL1         0.0729
      15    H8      20.892092   20.315474   21.999320 H          1 MOL1         0.0729
      16    C6      21.632533   20.420272   24.029979 C.3        1 MOL1        -0.2899
      17    H9      20.853269   21.100341   24.398298 H          1 MOL1         0.0741
      18    H10     21.919707   19.750671   24.851291 H          1 MOL1         0.0741
      19    H11     22.509873   21.023313   23.762199 H          1 MOL1         0.0741
@<TRIPOS>BOND
    1     1     2    1
    2     1     3    2
    3     1     4    1
    4     4     5    1
    5     4     6    1
    6     4     7    1
    7     7     8    1
    8     7     9    1
    9     7    10    1
   10    10    11    1
   11    10    12    1
   12    10    13    1
   13    13    14    1
   14    13    15    1
   15    13    16    1
   16    16    17    1
   17    16    18    1
   18    16    19    1
@<TRIPOS>SUBSTRUCTURE
       1 MOL1            1 RESIDUE      1      MOL     
@<SCITEGIC>MOL_PROPERTY
VConf Rank
SciTegic.value.IntegerValue
688

@<SCITEGIC>MOL_PROPERTY
Conf_Id
SciTegic.value.IntegerValue
33

@<SCITEGIC>MOL_PROPERTY
Delta U+W
SciTegic.value.DoubleValue
-0.526

@<SCITEGIC>MOL_PROPERTY
U+W
SciTegic.value.DoubleValue
-55.418

@<SCITEGIC>MOL_PROPERTY
Grad RMS
SciTegic.value.DoubleValue
0.000000

@<SCITEGIC>MOL_PROPERTY
U
SciTegic.value.DoubleValue
6.914

@<SCITEGIC>MOL_PROPERTY
W
SciTegic.value.DoubleValue
-62.332

@<SCITEGIC>MOL_PROPERTY
W(PB)
SciTegic.value.DoubleValue
-64.421

@<SCITEGIC>MOL_PROPERTY
W(SA)
SciTegic.value.DoubleValue
2.090

@<SCITEGIC>MOL_PROPERTY
Valence
SciTegic.value.DoubleValue
7.196

@<SCITEGIC>MOL_PROPERTY
Coulomb
SciTegic.value.DoubleValue
-1.020

@<SCITEGIC>MOL_PROPERTY
VdW
SciTegic.value.DoubleValue
0.738

@<SCITEGIC>MOL_PROPERTY
VdW6
SciTegic.value.DoubleValue
-6.010

@<SCITEGIC>MOL_PROPERTY
VdW12
SciTegic.value.DoubleValue
6.748

@<SCITEGIC>MOL_PROPERTY
Bond
SciTegic.value.DoubleValue
0.126

@<SCITEGIC>MOL_PROPERTY
Angle
SciTegic.value.DoubleValue
2.499

@<SCITEGIC>MOL_PROPERTY
Pdih
SciTegic.value.DoubleValue
4.570

@<SCITEGIC>MOL_PROPERTY
Idih
SciTegic.value.DoubleValue
0.001

@<SCITEGIC>MOL_PROPERTY
Tether
SciTegic.value.DoubleValue
0.000

@<TRIPOS>MOLECULE
guest-7_confgen4.mol2 : confsearch ligand conformer 689
          19          18           1
SMALL
USER_CHARGES
 
@<TRIPOS>ATOM
       1    C1      23.058429   18.807850   21.958871 C.2        1 MOL1         0.6115
       2    O1      23.543645   19.895458   22.199478 O.co2      1 MOL1        -0.6776
       3    O2      23.592551   17.754876   22.245584 O.co2      1 MOL1        -0.6776
       4    C2      21.696369   18.761887   21.275365 C.3        1 MOL1        -0.2013
       5    H1      21.663037   17.866977   20.642353 H          1 MOL1         0.0727
       6    H2      21.618268   19.631522   20.611767 H          1 MOL1         0.0727
       7    C3      20.518256   18.750291   22.280529 C.3        1 MOL1        -0.1910
       8    H3      20.615723   17.879601   22.943582 H          1 MOL1         0.0729
       9    H4      20.583165   19.644504   22.914400 H          1 MOL1         0.0729
      10    C4      19.150654   18.707069   21.560489 C.3        1 MOL1        -0.1909
      11    H5      19.132902   17.846205   20.878147 H          1 MOL1         0.0729
      12    H6      19.032731   19.602613   20.935107 H          1 MOL1         0.0729
      13    C5      17.950649   18.590923   22.528521 C.3        1 MOL1        -0.1884
      14    H7      17.034690   18.447351   21.938903 H          1 MOL1         0.0729
      15    H8      18.062201   17.693110   23.152070 H          1 MOL1         0.0729
      16    C6      17.771359   19.830949   23.430764 C.3        1 MOL1        -0.2899
      17    H9      17.686987   20.745521   22.829434 H          1 MOL1         0.0741
      18    H10     16.859014   19.737805   24.033999 H          1 MOL1         0.0741
      19    H11     18.615361   19.949301   24.121702 H          1 MOL1         0.0741
@<TRIPOS>BOND
    1     1     2    1
    2     1     3    2
    3     1     4    1
    4     4     5    1
    5     4     6    1
    6     4     7    1
    7     7     8    1
    8     7     9    1
    9     7    10    1
   10    10    11    1
   11    10    12    1
   12    10    13    1
   13    13    14    1
   14    13    15    1
   15    13    16    1
   16    16    17    1
   17    16    18    1
   18    16    19    1
@<TRIPOS>SUBSTRUCTURE
       1 MOL1            1 RESIDUE      1      MOL     
@<SCITEGIC>MOL_PROPERTY
VConf Rank
SciTegic.value.IntegerValue
689

@<SCITEGIC>MOL_PROPERTY
Conf_Id
SciTegic.value.IntegerValue
42

@<SCITEGIC>MOL_PROPERTY
Delta U+W
SciTegic.value.DoubleValue
-0.344

@<SCITEGIC>MOL_PROPERTY
U+W
SciTegic.value.DoubleValue
-55.236

@<SCITEGIC>MOL_PROPERTY
Grad RMS
SciTegic.value.DoubleValue
0.000000

@<SCITEGIC>MOL_PROPERTY
U
SciTegic.value.DoubleValue
7.244

@<SCITEGIC>MOL_PROPERTY
W
SciTegic.value.DoubleValue
-62.479

@<SCITEGIC>MOL_PROPERTY
W(PB)
SciTegic.value.DoubleValue
-64.610

@<SCITEGIC>MOL_PROPERTY
W(SA)
SciTegic.value.DoubleValue
2.130

@<SCITEGIC>MOL_PROPERTY
Valence
SciTegic.value.DoubleValue
7.174

@<SCITEGIC>MOL_PROPERTY
Coulomb
SciTegic.value.DoubleValue
-0.669

@<SCITEGIC>MOL_PROPERTY
VdW
SciTegic.value.DoubleValue
0.739

@<SCITEGIC>MOL_PROPERTY
VdW6
SciTegic.value.DoubleValue
-5.969

@<SCITEGIC>MOL_PROPERTY
VdW12
SciTegic.value.DoubleValue
6.708

@<SCITEGIC>MOL_PROPERTY
Bond
SciTegic.value.DoubleValue
0.116

@<SCITEGIC>MOL_PROPERTY
Angle
SciTegic.value.DoubleValue
2.481

@<SCITEGIC>MOL_PROPERTY
Pdih
SciTegic.value.DoubleValue
4.576

@<SCITEGIC>MOL_PROPERTY
Idih
SciTegic.value.DoubleValue
0.000

@<SCITEGIC>MOL_PROPERTY
Tether
SciTegic.value.DoubleValue
0.000

@<TRIPOS>MOLECULE
guest-7_confgen4.mol2 : confsearch ligand conformer 690
          19          18           1
SMALL
USER_CHARGES
 
@<TRIPOS>ATOM
       1    C1      21.840783   21.559521   22.112058 C.2        1 MOL1         0.6115
       2    O1      22.842442   21.408092   22.782857 O.co2      1 MOL1        -0.6776
       3    O2      21.259809   22.620844   22.001116 O.co2      1 MOL1        -0.6776
       4    C2      21.271127   20.347076   21.384069 C.3        1 MOL1        -0.2013
       5    H1      22.106298   19.693354   21.105025 H          1 MOL1         0.0727
       6    H2      20.807231   20.695580   20.453465 H          1 MOL1         0.0727
       7    C3      20.241085   19.563208   22.234370 C.3        1 MOL1        -0.1910
       8    H3      20.722088   19.241237   23.167425 H          1 MOL1         0.0729
       9    H4      19.416283   20.233275   22.513566 H          1 MOL1         0.0729
      10    C4      19.683197   18.338224   21.473559 C.3        1 MOL1        -0.1909
      11    H5      20.501683   17.644415   21.237519 H          1 MOL1         0.0729
      12    H6      19.270884   18.672203   20.511557 H          1 MOL1         0.0729
      13    C5      18.575751   17.586860   22.247900 C.3        1 MOL1        -0.1884
      14    H7      17.752586   18.276357   22.480970 H          1 MOL1         0.0729
      15    H8      18.154334   16.809909   21.595213 H          1 MOL1         0.0729
      16    C6      19.081372   16.923576   23.547228 C.3        1 MOL1        -0.2899
      17    H9      19.407633   17.673007   24.279110 H          1 MOL1         0.0741
      18    H10     18.282230   16.331644   24.011910 H          1 MOL1         0.0741
      19    H11     19.924699   16.251169   23.342719 H          1 MOL1         0.0741
@<TRIPOS>BOND
    1     1     2    1
    2     1     3    2
    3     1     4    1
    4     4     5    1
    5     4     6    1
    6     4     7    1
    7     7     8    1
    8     7     9    1
    9     7    10    1
   10    10    11    1
   11    10    12    1
   12    10    13    1
   13    13    14    1
   14    13    15    1
   15    13    16    1
   16    16    17    1
   17    16    18    1
   18    16    19    1
@<TRIPOS>SUBSTRUCTURE
       1 MOL1            1 RESIDUE      1      MOL     
@<SCITEGIC>MOL_PROPERTY
VConf Rank
SciTegic.value.IntegerValue
690

@<SCITEGIC>MOL_PROPERTY
Conf_Id
SciTegic.value.IntegerValue
41

@<SCITEGIC>MOL_PROPERTY
Delta U+W
SciTegic.value.DoubleValue
-0.361

@<SCITEGIC>MOL_PROPERTY
U+W
SciTegic.value.DoubleValue
-55.252

@<SCITEGIC>MOL_PROPERTY
Grad RMS
SciTegic.value.DoubleValue
0.000000

@<SCITEGIC>MOL_PROPERTY
U
SciTegic.value.DoubleValue
7.244

@<SCITEGIC>MOL_PROPERTY
W
SciTegic.value.DoubleValue
-62.496

@<SCITEGIC>MOL_PROPERTY
W(PB)
SciTegic.value.DoubleValue
-64.596

@<SCITEGIC>MOL_PROPERTY
W(SA)
SciTegic.value.DoubleValue
2.099

@<SCITEGIC>MOL_PROPERTY
Valence
SciTegic.value.DoubleValue
7.174

@<SCITEGIC>MOL_PROPERTY
Coulomb
SciTegic.value.DoubleValue
-0.669

@<SCITEGIC>MOL_PROPERTY
VdW
SciTegic.value.DoubleValue
0.739

@<SCITEGIC>MOL_PROPERTY
VdW6
SciTegic.value.DoubleValue
-5.969

@<SCITEGIC>MOL_PROPERTY
VdW12
SciTegic.value.DoubleValue
6.708

@<SCITEGIC>MOL_PROPERTY
Bond
SciTegic.value.DoubleValue
0.116

@<SCITEGIC>MOL_PROPERTY
Angle
SciTegic.value.DoubleValue
2.481

@<SCITEGIC>MOL_PROPERTY
Pdih
SciTegic.value.DoubleValue
4.576

@<SCITEGIC>MOL_PROPERTY
Idih
SciTegic.value.DoubleValue
0.000

@<SCITEGIC>MOL_PROPERTY
Tether
SciTegic.value.DoubleValue
0.000

@<TRIPOS>MOLECULE
guest-7_confgen4.mol2 : confsearch ligand conformer 691
          19          18           1
SMALL
USER_CHARGES
 
@<TRIPOS>ATOM
       1    C1      20.692292   17.928260   24.861795 C.2        1 MOL1         0.6115
       2    O1      20.015486   18.601405   25.613699 O.co2      1 MOL1        -0.6776
       3    O2      20.750214   16.715572   24.913892 O.co2      1 MOL1        -0.6776
       4    C2      21.533217   18.643933   23.808230 C.3        1 MOL1        -0.2013
       5    H1      22.536611   18.202766   23.834408 H          1 MOL1         0.0727
       6    H2      21.641165   19.695416   24.101002 H          1 MOL1         0.0727
       7    C3      20.961658   18.544843   22.369970 C.3        1 MOL1        -0.1910
       8    H3      21.694199   18.962304   21.665950 H          1 MOL1         0.0729
       9    H4      20.832391   17.487003   22.101839 H          1 MOL1         0.0729
      10    C4      19.619086   19.292904   22.211169 C.3        1 MOL1        -0.1909
      11    H5      19.750407   20.346695   22.492790 H          1 MOL1         0.0729
      12    H6      18.875490   18.869548   22.900558 H          1 MOL1         0.0729
      13    C5      19.085197   19.207746   20.766069 C.3        1 MOL1        -0.1884
      14    H7      19.823193   19.633691   20.072267 H          1 MOL1         0.0729
      15    H8      18.950611   18.154654   20.482593 H          1 MOL1         0.0729
      16    C6      17.745672   19.955111   20.610853 C.3        1 MOL1        -0.2899
      17    H9      17.858511   21.018819   20.858240 H          1 MOL1         0.0741
      18    H10     17.380401   19.884086   19.578080 H          1 MOL1         0.0741
      19    H11     16.979420   19.528852   21.271613 H          1 MOL1         0.0741
@<TRIPOS>BOND
    1     1     2    1
    2     1     3    2
    3     1     4    1
    4     4     5    1
    5     4     6    1
    6     4     7    1
    7     7     8    1
    8     7     9    1
    9     7    10    1
   10    10    11    1
   11    10    12    1
   12    10    13    1
   13    13    14    1
   14    13    15    1
   15    13    16    1
   16    16    17    1
   17    16    18    1
   18    16    19    1
@<TRIPOS>SUBSTRUCTURE
       1 MOL1            1 RESIDUE      1      MOL     
@<SCITEGIC>MOL_PROPERTY
VConf Rank
SciTegic.value.IntegerValue
691

@<SCITEGIC>MOL_PROPERTY
Conf_Id
SciTegic.value.IntegerValue
36

@<SCITEGIC>MOL_PROPERTY
Delta U+W
SciTegic.value.DoubleValue
-0.079

@<SCITEGIC>MOL_PROPERTY
U+W
SciTegic.value.DoubleValue
-54.971

@<SCITEGIC>MOL_PROPERTY
Grad RMS
SciTegic.value.DoubleValue
0.000000

@<SCITEGIC>MOL_PROPERTY
U
SciTegic.value.DoubleValue
8.266

@<SCITEGIC>MOL_PROPERTY
W
SciTegic.value.DoubleValue
-63.237

@<SCITEGIC>MOL_PROPERTY
W(PB)
SciTegic.value.DoubleValue
-65.340

@<SCITEGIC>MOL_PROPERTY
W(SA)
SciTegic.value.DoubleValue
2.103

@<SCITEGIC>MOL_PROPERTY
Valence
SciTegic.value.DoubleValue
6.935

@<SCITEGIC>MOL_PROPERTY
Coulomb
SciTegic.value.DoubleValue
0.874

@<SCITEGIC>MOL_PROPERTY
VdW
SciTegic.value.DoubleValue
0.457

@<SCITEGIC>MOL_PROPERTY
VdW6
SciTegic.value.DoubleValue
-6.205

@<SCITEGIC>MOL_PROPERTY
VdW12
SciTegic.value.DoubleValue
6.662

@<SCITEGIC>MOL_PROPERTY
Bond
SciTegic.value.DoubleValue
0.107

@<SCITEGIC>MOL_PROPERTY
Angle
SciTegic.value.DoubleValue
2.420

@<SCITEGIC>MOL_PROPERTY
Pdih
SciTegic.value.DoubleValue
4.407

@<SCITEGIC>MOL_PROPERTY
Idih
SciTegic.value.DoubleValue
0.001

@<SCITEGIC>MOL_PROPERTY
Tether
SciTegic.value.DoubleValue
0.000

@<TRIPOS>MOLECULE
guest-7_confgen4.mol2 : confsearch ligand conformer 692
          19          18           1
SMALL
USER_CHARGES
 
@<TRIPOS>ATOM
       1    C1      19.935359   16.383071   23.589469 C.2        1 MOL1         0.6115
       2    O1      19.167201   15.838896   22.821120 O.co2      1 MOL1        -0.6776
       3    O2      19.773138   16.412288   24.793426 O.co2      1 MOL1        -0.6776
       4    C2      21.183422   17.048078   23.015491 C.3        1 MOL1        -0.2013
       5    H1      21.358608   16.653350   22.007281 H          1 MOL1         0.0727
       6    H2      22.034672   16.734499   23.631244 H          1 MOL1         0.0727
       7    C3      21.113661   18.596919   22.979169 C.3        1 MOL1        -0.1910
       8    H3      20.909472   18.975796   23.990303 H          1 MOL1         0.0729
       9    H4      22.096199   18.991030   22.686202 H          1 MOL1         0.0729
      10    C4      20.041536   19.120640   21.997552 C.3        1 MOL1        -0.1909
      11    H5      19.052627   18.744351   22.294013 H          1 MOL1         0.0729
      12    H6      20.242492   18.728693   20.991062 H          1 MOL1         0.0729
      13    C5      20.011279   20.662655   21.954186 C.3        1 MOL1        -0.1884
      14    H7      19.808058   21.057353   22.959367 H          1 MOL1         0.0729
      15    H8      20.996858   21.044714   21.654027 H          1 MOL1         0.0729
      16    C6      18.940616   21.182037   20.973929 C.3        1 MOL1        -0.2899
      17    H9      17.939713   20.840263   21.268595 H          1 MOL1         0.0741
      18    H10     18.932430   22.279622   20.955882 H          1 MOL1         0.0741
      19    H11     19.137345   20.827563   19.953610 H          1 MOL1         0.0741
@<TRIPOS>BOND
    1     1     2    1
    2     1     3    2
    3     1     4    1
    4     4     5    1
    5     4     6    1
    6     4     7    1
    7     7     8    1
    8     7     9    1
    9     7    10    1
   10    10    11    1
   11    10    12    1
   12    10    13    1
   13    13    14    1
   14    13    15    1
   15    13    16    1
   16    16    17    1
   17    16    18    1
   18    16    19    1
@<TRIPOS>SUBSTRUCTURE
       1 MOL1            1 RESIDUE      1      MOL     
@<SCITEGIC>MOL_PROPERTY
VConf Rank
SciTegic.value.IntegerValue
692

@<SCITEGIC>MOL_PROPERTY
Conf_Id
SciTegic.value.IntegerValue
35

@<SCITEGIC>MOL_PROPERTY
Delta U+W
SciTegic.value.DoubleValue
-0.030

@<SCITEGIC>MOL_PROPERTY
U+W
SciTegic.value.DoubleValue
-54.921

@<SCITEGIC>MOL_PROPERTY
Grad RMS
SciTegic.value.DoubleValue
0.000000

@<SCITEGIC>MOL_PROPERTY
U
SciTegic.value.DoubleValue
8.267

@<SCITEGIC>MOL_PROPERTY
W
SciTegic.value.DoubleValue
-63.188

@<SCITEGIC>MOL_PROPERTY
W(PB)
SciTegic.value.DoubleValue
-65.294

@<SCITEGIC>MOL_PROPERTY
W(SA)
SciTegic.value.DoubleValue
2.106

@<SCITEGIC>MOL_PROPERTY
Valence
SciTegic.value.DoubleValue
6.935

@<SCITEGIC>MOL_PROPERTY
Coulomb
SciTegic.value.DoubleValue
0.875

@<SCITEGIC>MOL_PROPERTY
VdW
SciTegic.value.DoubleValue
0.457

@<SCITEGIC>MOL_PROPERTY
VdW6
SciTegic.value.DoubleValue
-6.205

@<SCITEGIC>MOL_PROPERTY
VdW12
SciTegic.value.DoubleValue
6.662

@<SCITEGIC>MOL_PROPERTY
Bond
SciTegic.value.DoubleValue
0.107

@<SCITEGIC>MOL_PROPERTY
Angle
SciTegic.value.DoubleValue
2.420

@<SCITEGIC>MOL_PROPERTY
Pdih
SciTegic.value.DoubleValue
4.407

@<SCITEGIC>MOL_PROPERTY
Idih
SciTegic.value.DoubleValue
0.001

@<SCITEGIC>MOL_PROPERTY
Tether
SciTegic.value.DoubleValue
0.000

@<TRIPOS>MOLECULE
guest-7_confgen4.mol2 : confsearch ligand conformer 693
          19          18           1
SMALL
USER_CHARGES
 
@<TRIPOS>ATOM
       1    C1      20.486386   21.175817   20.534216 C.2        1 MOL1         0.6115
       2    O1      20.192304   20.947251   19.377505 O.co2      1 MOL1        -0.6776
       3    O2      21.524285   21.711142   20.870129 O.co2      1 MOL1        -0.6776
       4    C2      19.486999   20.788409   21.620780 C.3        1 MOL1        -0.2013
       5    H1      18.497489   21.125876   21.290509 H          1 MOL1         0.0727
       6    H2      19.725354   21.349189   22.532740 H          1 MOL1         0.0727
       7    C3      19.439843   19.268167   21.924695 C.3        1 MOL1        -0.1910
       8    H3      18.594733   19.073661   22.597233 H          1 MOL1         0.0729
       9    H4      19.239488   18.717322   20.995310 H          1 MOL1         0.0729
      10    C4      20.747767   18.750622   22.569804 C.3        1 MOL1        -0.1909
      11    H5      20.926007   19.275694   23.518143 H          1 MOL1         0.0729
      12    H6      21.595165   18.997161   21.915465 H          1 MOL1         0.0729
      13    C5      20.749447   17.223943   22.814918 C.3        1 MOL1        -0.1884
      14    H7      20.573464   16.695891   21.867553 H          1 MOL1         0.0729
      15    H8      21.749617   16.923432   23.156349 H          1 MOL1         0.0729
      16    C6      19.710382   16.771073   23.863379 C.3        1 MOL1        -0.2899
      17    H9      18.685280   16.944329   23.512994 H          1 MOL1         0.0741
      18    H10     19.814247   15.697495   24.067290 H          1 MOL1         0.0741
      19    H11     19.847169   17.309578   24.810189 H          1 MOL1         0.0741
@<TRIPOS>BOND
    1     1     2    1
    2     1     3    2
    3     1     4    1
    4     4     5    1
    5     4     6    1
    6     4     7    1
    7     7     8    1
    8     7     9    1
    9     7    10    1
   10    10    11    1
   11    10    12    1
   12    10    13    1
   13    13    14    1
   14    13    15    1
   15    13    16    1
   16    16    17    1
   17    16    18    1
   18    16    19    1
@<TRIPOS>SUBSTRUCTURE
       1 MOL1            1 RESIDUE      1      MOL     
@<SCITEGIC>MOL_PROPERTY
VConf Rank
SciTegic.value.IntegerValue
693

@<SCITEGIC>MOL_PROPERTY
Conf_Id
SciTegic.value.IntegerValue
74

@<SCITEGIC>MOL_PROPERTY
Delta U+W
SciTegic.value.DoubleValue
0.797

@<SCITEGIC>MOL_PROPERTY
U+W
SciTegic.value.DoubleValue
-54.095

@<SCITEGIC>MOL_PROPERTY
Grad RMS
SciTegic.value.DoubleValue
0.000000

@<SCITEGIC>MOL_PROPERTY
U
SciTegic.value.DoubleValue
8.869

@<SCITEGIC>MOL_PROPERTY
W
SciTegic.value.DoubleValue
-62.964

@<SCITEGIC>MOL_PROPERTY
W(PB)
SciTegic.value.DoubleValue
-65.046

@<SCITEGIC>MOL_PROPERTY
W(SA)
SciTegic.value.DoubleValue
2.082

@<SCITEGIC>MOL_PROPERTY
Valence
SciTegic.value.DoubleValue
7.469

@<SCITEGIC>MOL_PROPERTY
Coulomb
SciTegic.value.DoubleValue
0.762

@<SCITEGIC>MOL_PROPERTY
VdW
SciTegic.value.DoubleValue
0.639

@<SCITEGIC>MOL_PROPERTY
VdW6
SciTegic.value.DoubleValue
-6.782

@<SCITEGIC>MOL_PROPERTY
VdW12
SciTegic.value.DoubleValue
7.421

@<SCITEGIC>MOL_PROPERTY
Bond
SciTegic.value.DoubleValue
0.141

@<SCITEGIC>MOL_PROPERTY
Angle
SciTegic.value.DoubleValue
2.667

@<SCITEGIC>MOL_PROPERTY
Pdih
SciTegic.value.DoubleValue
4.660

@<SCITEGIC>MOL_PROPERTY
Idih
SciTegic.value.DoubleValue
0.001

@<SCITEGIC>MOL_PROPERTY
Tether
SciTegic.value.DoubleValue
0.000

@<TRIPOS>MOLECULE
guest-7_confgen4.mol2 : confsearch ligand conformer 694
          19          18           1
SMALL
USER_CHARGES
 
@<TRIPOS>ATOM
       1    C1      20.017990   21.830388   22.707663 C.2        1 MOL1         0.6115
       2    O1      19.524843   22.709573   22.029237 O.co2      1 MOL1        -0.6776
       3    O2      20.285336   21.960611   23.885751 O.co2      1 MOL1        -0.6776
       4    C2      20.299003   20.484586   22.048826 C.3        1 MOL1        -0.2013
       5    H1      21.186390   20.056715   22.529067 H          1 MOL1         0.0727
       6    H2      20.552355   20.665751   20.997471 H          1 MOL1         0.0727
       7    C3      19.101230   19.504871   22.149267 C.3        1 MOL1        -0.1910
       8    H3      18.881060   19.301031   23.205559 H          1 MOL1         0.0729
       9    H4      18.207562   19.997981   21.742575 H          1 MOL1         0.0729
      10    C4      19.322227   18.175989   21.383786 C.3        1 MOL1        -0.1909
      11    H5      19.438418   18.396800   20.313956 H          1 MOL1         0.0729
      12    H6      18.413883   17.564234   21.470084 H          1 MOL1         0.0729
      13    C5      20.536393   17.337726   21.853910 C.3        1 MOL1        -0.1884
      14    H7      20.598803   16.433941   21.232334 H          1 MOL1         0.0729
      15    H8      21.469109   17.890256   21.679665 H          1 MOL1         0.0729
      16    C6      20.450640   16.915427   23.336376 C.3        1 MOL1        -0.2899
      17    H9      19.513793   16.380337   23.538929 H          1 MOL1         0.0741
      18    H10     21.283894   16.249351   23.594920 H          1 MOL1         0.0741
      19    H11     20.501858   17.785999   24.002521 H          1 MOL1         0.0741
@<TRIPOS>BOND
    1     1     2    1
    2     1     3    2
    3     1     4    1
    4     4     5    1
    5     4     6    1
    6     4     7    1
    7     7     8    1
    8     7     9    1
    9     7    10    1
   10    10    11    1
   11    10    12    1
   12    10    13    1
   13    13    14    1
   14    13    15    1
   15    13    16    1
   16    16    17    1
   17    16    18    1
   18    16    19    1
@<TRIPOS>SUBSTRUCTURE
       1 MOL1            1 RESIDUE      1      MOL     
@<SCITEGIC>MOL_PROPERTY
VConf Rank
SciTegic.value.IntegerValue
694

@<SCITEGIC>MOL_PROPERTY
Conf_Id
SciTegic.value.IntegerValue
67

@<SCITEGIC>MOL_PROPERTY
Delta U+W
SciTegic.value.DoubleValue
0.308

@<SCITEGIC>MOL_PROPERTY
U+W
SciTegic.value.DoubleValue
-54.583

@<SCITEGIC>MOL_PROPERTY
Grad RMS
SciTegic.value.DoubleValue
0.000000

@<SCITEGIC>MOL_PROPERTY
U
SciTegic.value.DoubleValue
8.219

@<SCITEGIC>MOL_PROPERTY
W
SciTegic.value.DoubleValue
-62.802

@<SCITEGIC>MOL_PROPERTY
W(PB)
SciTegic.value.DoubleValue
-64.859

@<SCITEGIC>MOL_PROPERTY
W(SA)
SciTegic.value.DoubleValue
2.057

@<SCITEGIC>MOL_PROPERTY
Valence
SciTegic.value.DoubleValue
7.609

@<SCITEGIC>MOL_PROPERTY
Coulomb
SciTegic.value.DoubleValue
-0.089

@<SCITEGIC>MOL_PROPERTY
VdW
SciTegic.value.DoubleValue
0.699

@<SCITEGIC>MOL_PROPERTY
VdW6
SciTegic.value.DoubleValue
-6.924

@<SCITEGIC>MOL_PROPERTY
VdW12
SciTegic.value.DoubleValue
7.623

@<SCITEGIC>MOL_PROPERTY
Bond
SciTegic.value.DoubleValue
0.163

@<SCITEGIC>MOL_PROPERTY
Angle
SciTegic.value.DoubleValue
2.870

@<SCITEGIC>MOL_PROPERTY
Pdih
SciTegic.value.DoubleValue
4.576

@<SCITEGIC>MOL_PROPERTY
Idih
SciTegic.value.DoubleValue
0.001

@<SCITEGIC>MOL_PROPERTY
Tether
SciTegic.value.DoubleValue
0.000

@<TRIPOS>MOLECULE
guest-7_confgen4.mol2 : confsearch ligand conformer 695
          19          18           1
SMALL
USER_CHARGES
 
@<TRIPOS>ATOM
       1    C1      19.232786   21.754871   22.487479 C.2        1 MOL1         0.6115
       2    O1      18.851643   22.387574   23.452279 O.co2      1 MOL1        -0.6776
       3    O2      19.002253   22.076949   21.338809 O.co2      1 MOL1        -0.6776
       4    C2      20.026896   20.476781   22.732612 C.3        1 MOL1        -0.2013
       5    H1      20.610465   20.608709   23.651523 H          1 MOL1         0.0727
       6    H2      20.739170   20.362987   21.907460 H          1 MOL1         0.0727
       7    C3      19.123954   19.221401   22.847966 C.3        1 MOL1        -0.1910
       8    H3      18.364182   19.403563   23.620470 H          1 MOL1         0.0729
       9    H4      18.573351   19.077481   21.908871 H          1 MOL1         0.0729
      10    C4      19.900367   17.931688   23.214771 C.3        1 MOL1        -0.1909
      11    H5      19.183180   17.106122   23.318997 H          1 MOL1         0.0729
      12    H6      20.358720   18.061769   24.204613 H          1 MOL1         0.0729
      13    C5      21.000251   17.514658   22.207677 C.3        1 MOL1        -0.1884
      14    H7      21.785383   18.281024   22.164554 H          1 MOL1         0.0729
      15    H8      21.486991   16.602599   22.579583 H          1 MOL1         0.0729
      16    C6      20.458286   17.244106   20.787650 C.3        1 MOL1        -0.2899
      17    H9      20.064443   18.160432   20.329935 H          1 MOL1         0.0741
      18    H10     21.256974   16.864344   20.137502 H          1 MOL1         0.0741
      19    H11     19.654967   16.496291   20.809556 H          1 MOL1         0.0741
@<TRIPOS>BOND
    1     1     2    1
    2     1     3    2
    3     1     4    1
    4     4     5    1
    5     4     6    1
    6     4     7    1
    7     7     8    1
    8     7     9    1
    9     7    10    1
   10    10    11    1
   11    10    12    1
   12    10    13    1
   13    13    14    1
   14    13    15    1
   15    13    16    1
   16    16    17    1
   17    16    18    1
   18    16    19    1
@<TRIPOS>SUBSTRUCTURE
       1 MOL1            1 RESIDUE      1      MOL     
@<SCITEGIC>MOL_PROPERTY
VConf Rank
SciTegic.value.IntegerValue
695

@<SCITEGIC>MOL_PROPERTY
Conf_Id
SciTegic.value.IntegerValue
21

@<SCITEGIC>MOL_PROPERTY
Delta U+W
SciTegic.value.DoubleValue
0.319

@<SCITEGIC>MOL_PROPERTY
U+W
SciTegic.value.DoubleValue
-54.572

@<SCITEGIC>MOL_PROPERTY
Grad RMS
SciTegic.value.DoubleValue
0.000000

@<SCITEGIC>MOL_PROPERTY
U
SciTegic.value.DoubleValue
8.220

@<SCITEGIC>MOL_PROPERTY
W
SciTegic.value.DoubleValue
-62.792

@<SCITEGIC>MOL_PROPERTY
W(PB)
SciTegic.value.DoubleValue
-64.830

@<SCITEGIC>MOL_PROPERTY
W(SA)
SciTegic.value.DoubleValue
2.038

@<SCITEGIC>MOL_PROPERTY
Valence
SciTegic.value.DoubleValue
7.609

@<SCITEGIC>MOL_PROPERTY
Coulomb
SciTegic.value.DoubleValue
-0.088

@<SCITEGIC>MOL_PROPERTY
VdW
SciTegic.value.DoubleValue
0.699

@<SCITEGIC>MOL_PROPERTY
VdW6
SciTegic.value.DoubleValue
-6.924

@<SCITEGIC>MOL_PROPERTY
VdW12
SciTegic.value.DoubleValue
7.623

@<SCITEGIC>MOL_PROPERTY
Bond
SciTegic.value.DoubleValue
0.163

@<SCITEGIC>MOL_PROPERTY
Angle
SciTegic.value.DoubleValue
2.870

@<SCITEGIC>MOL_PROPERTY
Pdih
SciTegic.value.DoubleValue
4.576

@<SCITEGIC>MOL_PROPERTY
Idih
SciTegic.value.DoubleValue
0.000

@<SCITEGIC>MOL_PROPERTY
Tether
SciTegic.value.DoubleValue
0.000

@<TRIPOS>MOLECULE
guest-7_confgen4.mol2 : confsearch ligand conformer 696
          19          18           1
SMALL
USER_CHARGES
 
@<TRIPOS>ATOM
       1    C1      21.460044   16.468803   21.886897 C.2        1 MOL1         0.6115
       2    O1      22.223485   16.155825   20.994909 O.co2      1 MOL1        -0.6776
       3    O2      21.460342   15.949104   22.985152 O.co2      1 MOL1        -0.6776
       4    C2      20.459582   17.587400   21.618754 C.3        1 MOL1        -0.2013
       5    H1      19.556817   17.377008   22.200624 H          1 MOL1         0.0727
       6    H2      20.175380   17.540457   20.560732 H          1 MOL1         0.0727
       7    C3      21.025258   18.992621   21.954845 C.3        1 MOL1        -0.1910
       8    H3      21.364827   19.023907   22.999353 H          1 MOL1         0.0729
       9    H4      21.920082   19.152793   21.337569 H          1 MOL1         0.0729
      10    C4      20.022736   20.142590   21.681958 C.3        1 MOL1        -0.1909
      11    H5      19.345678   19.870829   20.860596 H          1 MOL1         0.0729
      12    H6      20.590514   21.012853   21.325245 H          1 MOL1         0.0729
      13    C5      19.205916   20.594880   22.917332 C.3        1 MOL1        -0.1884
      14    H7      19.889529   20.949026   23.701239 H          1 MOL1         0.0729
      15    H8      18.592234   21.460172   22.631225 H          1 MOL1         0.0729
      16    C6      18.281890   19.505025   23.498783 C.3        1 MOL1        -0.2899
      17    H9      17.639143   19.925586   24.282887 H          1 MOL1         0.0741
      18    H10     17.633949   19.080905   22.720791 H          1 MOL1         0.0741
      19    H11     18.864469   18.692497   23.950665 H          1 MOL1         0.0741
@<TRIPOS>BOND
    1     1     2    1
    2     1     3    2
    3     1     4    1
    4     4     5    1
    5     4     6    1
    6     4     7    1
    7     7     8    1
    8     7     9    1
    9     7    10    1
   10    10    11    1
   11    10    12    1
   12    10    13    1
   13    13    14    1
   14    13    15    1
   15    13    16    1
   16    16    17    1
   17    16    18    1
   18    16    19    1
@<TRIPOS>SUBSTRUCTURE
       1 MOL1            1 RESIDUE      1      MOL     
@<SCITEGIC>MOL_PROPERTY
VConf Rank
SciTegic.value.IntegerValue
696

@<SCITEGIC>MOL_PROPERTY
Conf_Id
SciTegic.value.IntegerValue
24

@<SCITEGIC>MOL_PROPERTY
Delta U+W
SciTegic.value.DoubleValue
2.477

@<SCITEGIC>MOL_PROPERTY
U+W
SciTegic.value.DoubleValue
-52.414

@<SCITEGIC>MOL_PROPERTY
Grad RMS
SciTegic.value.DoubleValue
0.000000

@<SCITEGIC>MOL_PROPERTY
U
SciTegic.value.DoubleValue
10.422

@<SCITEGIC>MOL_PROPERTY
W
SciTegic.value.DoubleValue
-62.836

@<SCITEGIC>MOL_PROPERTY
W(PB)
SciTegic.value.DoubleValue
-64.906

@<SCITEGIC>MOL_PROPERTY
W(SA)
SciTegic.value.DoubleValue
2.070

@<SCITEGIC>MOL_PROPERTY
Valence
SciTegic.value.DoubleValue
9.628

@<SCITEGIC>MOL_PROPERTY
Coulomb
SciTegic.value.DoubleValue
0.101

@<SCITEGIC>MOL_PROPERTY
VdW
SciTegic.value.DoubleValue
0.693

@<SCITEGIC>MOL_PROPERTY
VdW6
SciTegic.value.DoubleValue
-6.927

@<SCITEGIC>MOL_PROPERTY
VdW12
SciTegic.value.DoubleValue
7.620

@<SCITEGIC>MOL_PROPERTY
Bond
SciTegic.value.DoubleValue
0.173

@<SCITEGIC>MOL_PROPERTY
Angle
SciTegic.value.DoubleValue
2.989

@<SCITEGIC>MOL_PROPERTY
Pdih
SciTegic.value.DoubleValue
6.465

@<SCITEGIC>MOL_PROPERTY
Idih
SciTegic.value.DoubleValue
0.001

@<SCITEGIC>MOL_PROPERTY
Tether
SciTegic.value.DoubleValue
0.000

@<TRIPOS>MOLECULE
guest-7_confgen4.mol2 : confsearch ligand conformer 697
          19          18           1
SMALL
USER_CHARGES
 
@<TRIPOS>ATOM
       1    C1      20.674311   18.158537   24.722480 C.2        1 MOL1         0.6115
       2    O1      21.447108   19.068149   24.950691 O.co2      1 MOL1        -0.6776
       3    O2      20.078041   17.551407   25.590195 O.co2      1 MOL1        -0.6776
       4    C2      20.461086   17.734305   23.271689 C.3        1 MOL1        -0.2013
       5    H1      20.562546   16.643369   23.235333 H          1 MOL1         0.0727
       6    H2      21.276839   18.145120   22.668356 H          1 MOL1         0.0727
       7    C3      19.077846   18.140861   22.691779 C.3        1 MOL1        -0.1910
       8    H3      18.913047   17.633043   21.731990 H          1 MOL1         0.0729
       9    H4      18.300718   17.762872   23.370551 H          1 MOL1         0.0729
      10    C4      18.886300   19.669795   22.515289 C.3        1 MOL1        -0.1909
      11    H5      19.468703   20.220088   23.266815 H          1 MOL1         0.0729
      12    H6      17.833923   19.907324   22.722330 H          1 MOL1         0.0729
      13    C5      19.213509   20.202334   21.098517 C.3        1 MOL1        -0.1884
      14    H7      18.563836   19.711798   20.360613 H          1 MOL1         0.0729
      15    H8      18.965513   21.272101   21.063150 H          1 MOL1         0.0729
      16    C6      20.688044   20.023747   20.682093 C.3        1 MOL1        -0.2899
      17    H9      20.933124   18.964046   20.539524 H          1 MOL1         0.0741
      18    H10     20.884053   20.538896   19.732894 H          1 MOL1         0.0741
      19    H11     21.364258   20.440067   21.440313 H          1 MOL1         0.0741
@<TRIPOS>BOND
    1     1     2    1
    2     1     3    2
    3     1     4    1
    4     4     5    1
    5     4     6    1
    6     4     7    1
    7     7     8    1
    8     7     9    1
    9     7    10    1
   10    10    11    1
   11    10    12    1
   12    10    13    1
   13    13    14    1
   14    13    15    1
   15    13    16    1
   16    16    17    1
   17    16    18    1
   18    16    19    1
@<TRIPOS>SUBSTRUCTURE
       1 MOL1            1 RESIDUE      1      MOL     
@<SCITEGIC>MOL_PROPERTY
VConf Rank
SciTegic.value.IntegerValue
697

@<SCITEGIC>MOL_PROPERTY
Conf_Id
SciTegic.value.IntegerValue
4

@<SCITEGIC>MOL_PROPERTY
Delta U+W
SciTegic.value.DoubleValue
3.753

@<SCITEGIC>MOL_PROPERTY
U+W
SciTegic.value.DoubleValue
-51.138

@<SCITEGIC>MOL_PROPERTY
Grad RMS
SciTegic.value.DoubleValue
0.000000

@<SCITEGIC>MOL_PROPERTY
U
SciTegic.value.DoubleValue
12.334

@<SCITEGIC>MOL_PROPERTY
W
SciTegic.value.DoubleValue
-63.472

@<SCITEGIC>MOL_PROPERTY
W(PB)
SciTegic.value.DoubleValue
-65.500

@<SCITEGIC>MOL_PROPERTY
W(SA)
SciTegic.value.DoubleValue
2.028

@<SCITEGIC>MOL_PROPERTY
Valence
SciTegic.value.DoubleValue
9.984

@<SCITEGIC>MOL_PROPERTY
Coulomb
SciTegic.value.DoubleValue
1.767

@<SCITEGIC>MOL_PROPERTY
VdW
SciTegic.value.DoubleValue
0.583

@<SCITEGIC>MOL_PROPERTY
VdW6
SciTegic.value.DoubleValue
-7.767

@<SCITEGIC>MOL_PROPERTY
VdW12
SciTegic.value.DoubleValue
8.349

@<SCITEGIC>MOL_PROPERTY
Bond
SciTegic.value.DoubleValue
0.203

@<SCITEGIC>MOL_PROPERTY
Angle
SciTegic.value.DoubleValue
3.191

@<SCITEGIC>MOL_PROPERTY
Pdih
SciTegic.value.DoubleValue
6.589

@<SCITEGIC>MOL_PROPERTY
Idih
SciTegic.value.DoubleValue
0.001

@<SCITEGIC>MOL_PROPERTY
Tether
SciTegic.value.DoubleValue
0.000

@<TRIPOS>MOLECULE
guest-7_confgen4.mol2 : confsearch ligand conformer 698
          19          18           1
SMALL
USER_CHARGES
 
@<TRIPOS>ATOM
       1    C1      19.443848   16.488390   21.540564 C.2        1 MOL1         0.6115
       2    O1      20.191936   15.549894   21.349087 O.co2      1 MOL1        -0.6776
       3    O2      18.346453   16.378000   22.050693 O.co2      1 MOL1        -0.6776
       4    C2      19.897864   17.873955   21.088557 C.3        1 MOL1        -0.2013
       5    H1      19.020016   18.526040   21.039595 H          1 MOL1         0.0727
       6    H2      20.271614   17.773373   20.062911 H          1 MOL1         0.0727
       7    C3      21.007470   18.496957   21.980510 C.3        1 MOL1        -0.1910
       8    H3      21.832322   17.774304   22.050695 H          1 MOL1         0.0729
       9    H4      21.425654   19.385120   21.488044 H          1 MOL1         0.0729
      10    C4      20.541058   18.863257   23.413603 C.3        1 MOL1        -0.1909
      11    H5      21.379605   18.685253   24.100579 H          1 MOL1         0.0729
      12    H6      19.739224   18.187940   23.741955 H          1 MOL1         0.0729
      13    C5      20.098144   20.336335   23.591845 C.3        1 MOL1        -0.1884
      14    H7      19.869968   20.504946   24.653287 H          1 MOL1         0.0729
      15    H8      20.934613   21.005474   23.347356 H          1 MOL1         0.0729
      16    C6      18.864693   20.730403   22.753473 C.3        1 MOL1        -0.2899
      17    H9      18.034659   20.031800   22.922242 H          1 MOL1         0.0741
      18    H10     18.521618   21.737078   23.024919 H          1 MOL1         0.0741
      19    H11     19.101169   20.739695   21.682330 H          1 MOL1         0.0741
@<TRIPOS>BOND
    1     1     2    1
    2     1     3    2
    3     1     4    1
    4     4     5    1
    5     4     6    1
    6     4     7    1
    7     7     8    1
    8     7     9    1
    9     7    10    1
   10    10    11    1
   11    10    12    1
   12    10    13    1
   13    13    14    1
   14    13    15    1
   15    13    16    1
   16    16    17    1
   17    16    18    1
   18    16    19    1
@<TRIPOS>SUBSTRUCTURE
       1 MOL1            1 RESIDUE      1      MOL     
@<SCITEGIC>MOL_PROPERTY
VConf Rank
SciTegic.value.IntegerValue
698

@<SCITEGIC>MOL_PROPERTY
Conf_Id
SciTegic.value.IntegerValue
73

@<SCITEGIC>MOL_PROPERTY
Delta U+W
SciTegic.value.DoubleValue
3.707

@<SCITEGIC>MOL_PROPERTY
U+W
SciTegic.value.DoubleValue
-51.184

@<SCITEGIC>MOL_PROPERTY
Grad RMS
SciTegic.value.DoubleValue
0.000000

@<SCITEGIC>MOL_PROPERTY
U
SciTegic.value.DoubleValue
12.334

@<SCITEGIC>MOL_PROPERTY
W
SciTegic.value.DoubleValue
-63.519

@<SCITEGIC>MOL_PROPERTY
W(PB)
SciTegic.value.DoubleValue
-65.541

@<SCITEGIC>MOL_PROPERTY
W(SA)
SciTegic.value.DoubleValue
2.022

@<SCITEGIC>MOL_PROPERTY
Valence
SciTegic.value.DoubleValue
9.984

@<SCITEGIC>MOL_PROPERTY
Coulomb
SciTegic.value.DoubleValue
1.768

@<SCITEGIC>MOL_PROPERTY
VdW
SciTegic.value.DoubleValue
0.583

@<SCITEGIC>MOL_PROPERTY
VdW6
SciTegic.value.DoubleValue
-7.767

@<SCITEGIC>MOL_PROPERTY
VdW12
SciTegic.value.DoubleValue
8.350

@<SCITEGIC>MOL_PROPERTY
Bond
SciTegic.value.DoubleValue
0.203

@<SCITEGIC>MOL_PROPERTY
Angle
SciTegic.value.DoubleValue
3.192

@<SCITEGIC>MOL_PROPERTY
Pdih
SciTegic.value.DoubleValue
6.589

@<SCITEGIC>MOL_PROPERTY
Idih
SciTegic.value.DoubleValue
0.001

@<SCITEGIC>MOL_PROPERTY
Tether
SciTegic.value.DoubleValue
0.000

@<TRIPOS>MOLECULE
guest-7_confgen4.mol2 : confsearch ligand conformer 699
          19          18           1
SMALL
USER_CHARGES
 
@<TRIPOS>ATOM
       1    C1      22.349703   19.365772   22.954976 C.2        1 MOL1         0.6115
       2    O1      22.603767   18.203159   23.200933 O.co2      1 MOL1        -0.6776
       3    O2      23.141717   20.131701   22.441920 O.co2      1 MOL1        -0.6776
       4    C2      20.974261   19.904212   23.339121 C.3        1 MOL1        -0.2013
       5    H1      21.132463   20.828445   23.906954 H          1 MOL1         0.0727
       6    H2      20.498341   19.195401   24.026422 H          1 MOL1         0.0727
       7    C3      20.046366   20.197573   22.128658 C.3        1 MOL1        -0.1910
       8    H3      19.112762   20.648153   22.489526 H          1 MOL1         0.0729
       9    H4      20.523589   20.958741   21.496208 H          1 MOL1         0.0729
      10    C4      19.723098   18.958551   21.254349 C.3        1 MOL1        -0.1909
      11    H5      20.652445   18.588286   20.800146 H          1 MOL1         0.0729
      12    H6      19.083813   19.274064   20.418670 H          1 MOL1         0.0729
      13    C5      19.033797   17.788479   21.998000 C.3        1 MOL1        -0.1884
      14    H7      18.871900   16.968450   21.285092 H          1 MOL1         0.0729
      15    H8      19.701655   17.388237   22.772737 H          1 MOL1         0.0729
      16    C6      17.677563   18.176245   22.625645 C.3        1 MOL1        -0.2899
      17    H9      17.805602   18.914815   23.426914 H          1 MOL1         0.0741
      18    H10     17.002085   18.599259   21.870794 H          1 MOL1         0.0741
      19    H11     17.189705   17.294504   23.060756 H          1 MOL1         0.0741
@<TRIPOS>BOND
    1     1     2    1
    2     1     3    2
    3     1     4    1
    4     4     5    1
    5     4     6    1
    6     4     7    1
    7     7     8    1
    8     7     9    1
    9     7    10    1
   10    10    11    1
   11    10    12    1
   12    10    13    1
   13    13    14    1
   14    13    15    1
   15    13    16    1
   16    16    17    1
   17    16    18    1
   18    16    19    1
@<TRIPOS>SUBSTRUCTURE
       1 MOL1            1 RESIDUE      1      MOL     
@<SCITEGIC>MOL_PROPERTY
VConf Rank
SciTegic.value.IntegerValue
699

@<SCITEGIC>MOL_PROPERTY
Conf_Id
SciTegic.value.IntegerValue
56

@<SCITEGIC>MOL_PROPERTY
Delta U+W
SciTegic.value.DoubleValue
1.735

@<SCITEGIC>MOL_PROPERTY
U+W
SciTegic.value.DoubleValue
-53.156

@<SCITEGIC>MOL_PROPERTY
Grad RMS
SciTegic.value.DoubleValue
0.000000

@<SCITEGIC>MOL_PROPERTY
U
SciTegic.value.DoubleValue
10.214

@<SCITEGIC>MOL_PROPERTY
W
SciTegic.value.DoubleValue
-63.370

@<SCITEGIC>MOL_PROPERTY
W(PB)
SciTegic.value.DoubleValue
-65.388

@<SCITEGIC>MOL_PROPERTY
W(SA)
SciTegic.value.DoubleValue
2.018

@<SCITEGIC>MOL_PROPERTY
Valence
SciTegic.value.DoubleValue
7.868

@<SCITEGIC>MOL_PROPERTY
Coulomb
SciTegic.value.DoubleValue
1.968

@<SCITEGIC>MOL_PROPERTY
VdW
SciTegic.value.DoubleValue
0.378

@<SCITEGIC>MOL_PROPERTY
VdW6
SciTegic.value.DoubleValue
-8.067

@<SCITEGIC>MOL_PROPERTY
VdW12
SciTegic.value.DoubleValue
8.445

@<SCITEGIC>MOL_PROPERTY
Bond
SciTegic.value.DoubleValue
0.191

@<SCITEGIC>MOL_PROPERTY
Angle
SciTegic.value.DoubleValue
3.117

@<SCITEGIC>MOL_PROPERTY
Pdih
SciTegic.value.DoubleValue
4.559

@<SCITEGIC>MOL_PROPERTY
Idih
SciTegic.value.DoubleValue
0.001

@<SCITEGIC>MOL_PROPERTY
Tether
SciTegic.value.DoubleValue
0.000

@<TRIPOS>MOLECULE
guest-7_confgen4.mol2 : confsearch ligand conformer 700
          19          18           1
SMALL
USER_CHARGES
 
@<TRIPOS>ATOM
       1    C1      21.391681   20.622639   24.215770 C.2        1 MOL1         0.6115
       2    O1      22.432354   21.191097   23.950785 O.co2      1 MOL1        -0.6776
       3    O2      20.948171   20.523483   25.342643 O.co2      1 MOL1        -0.6776
       4    C2      20.610997   19.980293   23.074647 C.3        1 MOL1        -0.2013
       5    H1      20.782083   20.572682   22.167904 H          1 MOL1         0.0727
       6    H2      19.545646   20.052274   23.320323 H          1 MOL1         0.0727
       7    C3      21.008191   18.502304   22.832240 C.3        1 MOL1        -0.1910
       8    H3      22.100737   18.444167   22.730439 H          1 MOL1         0.0729
       9    H4      20.750265   17.908355   23.719874 H          1 MOL1         0.0729
      10    C4      20.363975   17.865467   21.575292 C.3        1 MOL1        -0.1909
      11    H5      20.760415   16.845103   21.482215 H          1 MOL1         0.0729
      12    H6      20.693347   18.397003   20.671974 H          1 MOL1         0.0729
      13    C5      18.817907   17.779893   21.613492 C.3        1 MOL1        -0.1884
      14    H7      18.506028   16.849726   21.118657 H          1 MOL1         0.0729
      15    H8      18.465601   17.706315   22.651651 H          1 MOL1         0.0729
      16    C6      18.123769   18.957731   20.894051 C.3        1 MOL1        -0.2899
      17    H9      17.032942   18.841978   20.933718 H          1 MOL1         0.0741
      18    H10     18.374269   19.921397   21.351453 H          1 MOL1         0.0741
      19    H11     18.418446   18.997593   19.837306 H          1 MOL1         0.0741
@<TRIPOS>BOND
    1     1     2    1
    2     1     3    2
    3     1     4    1
    4     4     5    1
    5     4     6    1
    6     4     7    1
    7     7     8    1
    8     7     9    1
    9     7    10    1
   10    10    11    1
   11    10    12    1
   12    10    13    1
   13    13    14    1
   14    13    15    1
   15    13    16    1
   16    16    17    1
   17    16    18    1
   18    16    19    1
@<TRIPOS>SUBSTRUCTURE
       1 MOL1            1 RESIDUE      1      MOL     
@<SCITEGIC>MOL_PROPERTY
VConf Rank
SciTegic.value.IntegerValue
700

@<SCITEGIC>MOL_PROPERTY
Conf_Id
SciTegic.value.IntegerValue
53

@<SCITEGIC>MOL_PROPERTY
Delta U+W
SciTegic.value.DoubleValue
2.279

@<SCITEGIC>MOL_PROPERTY
U+W
SciTegic.value.DoubleValue
-52.612

@<SCITEGIC>MOL_PROPERTY
Grad RMS
SciTegic.value.DoubleValue
0.000000

@<SCITEGIC>MOL_PROPERTY
U
SciTegic.value.DoubleValue
10.231

@<SCITEGIC>MOL_PROPERTY
W
SciTegic.value.DoubleValue
-62.843

@<SCITEGIC>MOL_PROPERTY
W(PB)
SciTegic.value.DoubleValue
-64.893

@<SCITEGIC>MOL_PROPERTY
W(SA)
SciTegic.value.DoubleValue
2.050

@<SCITEGIC>MOL_PROPERTY
Valence
SciTegic.value.DoubleValue
9.644

@<SCITEGIC>MOL_PROPERTY
Coulomb
SciTegic.value.DoubleValue
-0.164

@<SCITEGIC>MOL_PROPERTY
VdW
SciTegic.value.DoubleValue
0.751

@<SCITEGIC>MOL_PROPERTY
VdW6
SciTegic.value.DoubleValue
-6.881

@<SCITEGIC>MOL_PROPERTY
VdW12
SciTegic.value.DoubleValue
7.631

@<SCITEGIC>MOL_PROPERTY
Bond
SciTegic.value.DoubleValue
0.163

@<SCITEGIC>MOL_PROPERTY
Angle
SciTegic.value.DoubleValue
2.998

@<SCITEGIC>MOL_PROPERTY
Pdih
SciTegic.value.DoubleValue
6.482

@<SCITEGIC>MOL_PROPERTY
Idih
SciTegic.value.DoubleValue
0.001

@<SCITEGIC>MOL_PROPERTY
Tether
SciTegic.value.DoubleValue
0.000

@<TRIPOS>MOLECULE
guest-7_confgen4.mol2 : confsearch ligand conformer 701
          19          18           1
SMALL
USER_CHARGES
 
@<TRIPOS>ATOM
       1    C1      21.826836   20.135172   23.756863 C.2        1 MOL1         0.6115
       2    O1      21.160537   20.879557   24.448811 O.co2      1 MOL1        -0.6776
       3    O2      22.683477   20.524130   22.987367 O.co2      1 MOL1        -0.6776
       4    C2      21.623741   18.629539   23.915935 C.3        1 MOL1        -0.2013
       5    H1      20.860277   18.451548   24.682984 H          1 MOL1         0.0727
       6    H2      22.565062   18.231681   24.312480 H          1 MOL1         0.0727
       7    C3      21.262904   17.866519   22.610286 C.3        1 MOL1        -0.1910
       8    H3      21.906490   18.207089   21.787272 H          1 MOL1         0.0729
       9    H4      21.502012   16.805157   22.761134 H          1 MOL1         0.0729
      10    C4      19.774091   17.959588   22.193814 C.3        1 MOL1        -0.1909
      11    H5      19.136955   17.611010   23.018063 H          1 MOL1         0.0729
      12    H6      19.608025   17.263718   21.360029 H          1 MOL1         0.0729
      13    C5      19.329606   19.372464   21.755876 C.3        1 MOL1        -0.1884
      14    H7      19.361008   20.059309   22.611249 H          1 MOL1         0.0729
      15    H8      20.026164   19.765180   21.002232 H          1 MOL1         0.0729
      16    C6      17.899744   19.361881   21.178627 C.3        1 MOL1        -0.2899
      17    H9      17.179299   18.997053   21.922414 H          1 MOL1         0.0741
      18    H10     17.596149   20.373794   20.880453 H          1 MOL1         0.0741
      19    H11     17.837221   18.714968   20.293803 H          1 MOL1         0.0741
@<TRIPOS>BOND
    1     1     2    1
    2     1     3    2
    3     1     4    1
    4     4     5    1
    5     4     6    1
    6     4     7    1
    7     7     8    1
    8     7     9    1
    9     7    10    1
   10    10    11    1
   11    10    12    1
   12    10    13    1
   13    13    14    1
   14    13    15    1
   15    13    16    1
   16    16    17    1
   17    16    18    1
   18    16    19    1
@<TRIPOS>SUBSTRUCTURE
       1 MOL1            1 RESIDUE      1      MOL     
@<SCITEGIC>MOL_PROPERTY
VConf Rank
SciTegic.value.IntegerValue
701

@<SCITEGIC>MOL_PROPERTY
Conf_Id
SciTegic.value.IntegerValue
25

@<SCITEGIC>MOL_PROPERTY
Delta U+W
SciTegic.value.DoubleValue
2.065

@<SCITEGIC>MOL_PROPERTY
U+W
SciTegic.value.DoubleValue
-52.826

@<SCITEGIC>MOL_PROPERTY
Grad RMS
SciTegic.value.DoubleValue
0.000000

@<SCITEGIC>MOL_PROPERTY
U
SciTegic.value.DoubleValue
10.967

@<SCITEGIC>MOL_PROPERTY
W
SciTegic.value.DoubleValue
-63.794

@<SCITEGIC>MOL_PROPERTY
W(PB)
SciTegic.value.DoubleValue
-65.830

@<SCITEGIC>MOL_PROPERTY
W(SA)
SciTegic.value.DoubleValue
2.036

@<SCITEGIC>MOL_PROPERTY
Valence
SciTegic.value.DoubleValue
8.609

@<SCITEGIC>MOL_PROPERTY
Coulomb
SciTegic.value.DoubleValue
1.892

@<SCITEGIC>MOL_PROPERTY
VdW
SciTegic.value.DoubleValue
0.467

@<SCITEGIC>MOL_PROPERTY
VdW6
SciTegic.value.DoubleValue
-7.569

@<SCITEGIC>MOL_PROPERTY
VdW12
SciTegic.value.DoubleValue
8.036

@<SCITEGIC>MOL_PROPERTY
Bond
SciTegic.value.DoubleValue
0.170

@<SCITEGIC>MOL_PROPERTY
Angle
SciTegic.value.DoubleValue
3.195

@<SCITEGIC>MOL_PROPERTY
Pdih
SciTegic.value.DoubleValue
5.237

@<SCITEGIC>MOL_PROPERTY
Idih
SciTegic.value.DoubleValue
0.007

@<SCITEGIC>MOL_PROPERTY
Tether
SciTegic.value.DoubleValue
0.000

@<TRIPOS>MOLECULE
guest-7_confgen4.mol2 : confsearch ligand conformer 702
          19          18           1
SMALL
USER_CHARGES
 
@<TRIPOS>ATOM
       1    C1      18.267292   19.345138   21.021931 C.2        1 MOL1         0.6115
       2    O1      17.353836   18.584439   21.275275 O.co2      1 MOL1        -0.6776
       3    O2      18.795554   19.416752   19.929840 O.co2      1 MOL1        -0.6776
       4    C2      18.730158   20.311343   22.110823 C.3        1 MOL1        -0.2013
       5    H1      17.873726   20.958411   22.333202 H          1 MOL1         0.0727
       6    H2      19.515139   20.959476   21.702595 H          1 MOL1         0.0727
       7    C3      19.214748   19.643889   23.428703 C.3        1 MOL1        -0.1910
       8    H3      19.164693   20.395998   24.227605 H          1 MOL1         0.0729
       9    H4      18.519333   18.845140   23.721860 H          1 MOL1         0.0729
      10    C4      20.663376   19.097710   23.385784 C.3        1 MOL1        -0.1909
      11    H5      20.945794   18.796887   24.403996 H          1 MOL1         0.0729
      12    H6      21.353843   19.902703   23.099287 H          1 MOL1         0.0729
      13    C5      20.853613   17.890142   22.441768 C.3        1 MOL1        -0.1884
      14    H7      20.097153   17.123718   22.660305 H          1 MOL1         0.0729
      15    H8      20.705415   18.199817   21.399392 H          1 MOL1         0.0729
      16    C6      22.261802   17.277958   22.583433 C.3        1 MOL1        -0.2899
      17    H9      22.383566   16.427234   21.900434 H          1 MOL1         0.0741
      18    H10     23.036906   18.017989   22.344840 H          1 MOL1         0.0741
      19    H11     22.433596   16.918309   23.606398 H          1 MOL1         0.0741
@<TRIPOS>BOND
    1     1     2    1
    2     1     3    2
    3     1     4    1
    4     4     5    1
    5     4     6    1
    6     4     7    1
    7     7     8    1
    8     7     9    1
    9     7    10    1
   10    10    11    1
   11    10    12    1
   12    10    13    1
   13    13    14    1
   14    13    15    1
   15    13    16    1
   16    16    17    1
   17    16    18    1
   18    16    19    1
@<TRIPOS>SUBSTRUCTURE
       1 MOL1            1 RESIDUE      1      MOL     
@<SCITEGIC>MOL_PROPERTY
VConf Rank
SciTegic.value.IntegerValue
702

@<SCITEGIC>MOL_PROPERTY
Conf_Id
SciTegic.value.IntegerValue
52

@<SCITEGIC>MOL_PROPERTY
Delta U+W
SciTegic.value.DoubleValue
2.070

@<SCITEGIC>MOL_PROPERTY
U+W
SciTegic.value.DoubleValue
-52.822

@<SCITEGIC>MOL_PROPERTY
Grad RMS
SciTegic.value.DoubleValue
0.000000

@<SCITEGIC>MOL_PROPERTY
U
SciTegic.value.DoubleValue
10.967

@<SCITEGIC>MOL_PROPERTY
W
SciTegic.value.DoubleValue
-63.789

@<SCITEGIC>MOL_PROPERTY
W(PB)
SciTegic.value.DoubleValue
-65.837

@<SCITEGIC>MOL_PROPERTY
W(SA)
SciTegic.value.DoubleValue
2.048

@<SCITEGIC>MOL_PROPERTY
Valence
SciTegic.value.DoubleValue
8.609

@<SCITEGIC>MOL_PROPERTY
Coulomb
SciTegic.value.DoubleValue
1.892

@<SCITEGIC>MOL_PROPERTY
VdW
SciTegic.value.DoubleValue
0.467

@<SCITEGIC>MOL_PROPERTY
VdW6
SciTegic.value.DoubleValue
-7.569

@<SCITEGIC>MOL_PROPERTY
VdW12
SciTegic.value.DoubleValue
8.035

@<SCITEGIC>MOL_PROPERTY
Bond
SciTegic.value.DoubleValue
0.170

@<SCITEGIC>MOL_PROPERTY
Angle
SciTegic.value.DoubleValue
3.196

@<SCITEGIC>MOL_PROPERTY
Pdih
SciTegic.value.DoubleValue
5.237

@<SCITEGIC>MOL_PROPERTY
Idih
SciTegic.value.DoubleValue
0.007

@<SCITEGIC>MOL_PROPERTY
Tether
SciTegic.value.DoubleValue
0.000

@<TRIPOS>MOLECULE
guest-7_confgen4.mol2 : confsearch ligand conformer 703
          19          18           1
SMALL
USER_CHARGES
 
@<TRIPOS>ATOM
       1    C1      18.906338   20.469295   21.507020 C.2        1 MOL1         0.6115
       2    O1      17.749150   20.544830   21.872162 O.co2      1 MOL1        -0.6776
       3    O2      19.657920   21.423720   21.477083 O.co2      1 MOL1        -0.6776
       4    C2      19.411563   19.142624   20.937746 C.3        1 MOL1        -0.2013
       5    H1      20.498101   19.202513   20.802152 H          1 MOL1         0.0727
       6    H2      18.976185   19.058054   19.935465 H          1 MOL1         0.0727
       7    C3      19.041392   17.871795   21.754652 C.3        1 MOL1        -0.1910
       8    H3      18.006449   17.945973   22.116139 H          1 MOL1         0.0729
       9    H4      19.055731   17.014091   21.068726 H          1 MOL1         0.0729
      10    C4      19.990289   17.540074   22.934794 C.3        1 MOL1        -0.1909
      11    H5      21.008406   17.366330   22.560243 H          1 MOL1         0.0729
      12    H6      19.664161   16.581047   23.360088 H          1 MOL1         0.0729
      13    C5      20.007956   18.587425   24.074414 C.3        1 MOL1        -0.1884
      14    H7      19.083854   19.181806   24.064352 H          1 MOL1         0.0729
      15    H8      20.020674   18.061655   25.039065 H          1 MOL1         0.0729
      16    C6      21.242082   19.512980   24.016073 C.3        1 MOL1        -0.2899
      17    H9      22.169465   18.936079   24.125991 H          1 MOL1         0.0741
      18    H10     21.292179   20.056483   23.065376 H          1 MOL1         0.0741
      19    H11     21.206835   20.253452   24.825441 H          1 MOL1         0.0741
@<TRIPOS>BOND
    1     1     2    1
    2     1     3    2
    3     1     4    1
    4     4     5    1
    5     4     6    1
    6     4     7    1
    7     7     8    1
    8     7     9    1
    9     7    10    1
   10    10    11    1
   11    10    12    1
   12    10    13    1
   13    13    14    1
   14    13    15    1
   15    13    16    1
   16    16    17    1
   17    16    18    1
   18    16    19    1
@<TRIPOS>SUBSTRUCTURE
       1 MOL1            1 RESIDUE      1      MOL     
@<SCITEGIC>MOL_PROPERTY
VConf Rank
SciTegic.value.IntegerValue
703

@<SCITEGIC>MOL_PROPERTY
Conf_Id
SciTegic.value.IntegerValue
66

@<SCITEGIC>MOL_PROPERTY
Delta U+W
SciTegic.value.DoubleValue
5.819

@<SCITEGIC>MOL_PROPERTY
U+W
SciTegic.value.DoubleValue
-49.072

@<SCITEGIC>MOL_PROPERTY
Grad RMS
SciTegic.value.DoubleValue
0.000000

@<SCITEGIC>MOL_PROPERTY
U
SciTegic.value.DoubleValue
15.324

@<SCITEGIC>MOL_PROPERTY
W
SciTegic.value.DoubleValue
-64.396

@<SCITEGIC>MOL_PROPERTY
W(PB)
SciTegic.value.DoubleValue
-66.382

@<SCITEGIC>MOL_PROPERTY
W(SA)
SciTegic.value.DoubleValue
1.986

@<SCITEGIC>MOL_PROPERTY
Valence
SciTegic.value.DoubleValue
11.748

@<SCITEGIC>MOL_PROPERTY
Coulomb
SciTegic.value.DoubleValue
3.201

@<SCITEGIC>MOL_PROPERTY
VdW
SciTegic.value.DoubleValue
0.375

@<SCITEGIC>MOL_PROPERTY
VdW6
SciTegic.value.DoubleValue
-8.854

@<SCITEGIC>MOL_PROPERTY
VdW12
SciTegic.value.DoubleValue
9.229

@<SCITEGIC>MOL_PROPERTY
Bond
SciTegic.value.DoubleValue
0.216

@<SCITEGIC>MOL_PROPERTY
Angle
SciTegic.value.DoubleValue
3.812

@<SCITEGIC>MOL_PROPERTY
Pdih
SciTegic.value.DoubleValue
7.699

@<SCITEGIC>MOL_PROPERTY
Idih
SciTegic.value.DoubleValue
0.022

@<SCITEGIC>MOL_PROPERTY
Tether
SciTegic.value.DoubleValue
0.000

@<TRIPOS>MOLECULE
guest-7_confgen4.mol2 : confsearch ligand conformer 704
          19          18           1
SMALL
USER_CHARGES
 
@<TRIPOS>ATOM
       1    C1      17.598546   21.276877   22.769480 C.2        1 MOL1         0.6115
       2    O1      17.297220   22.121819   23.588588 O.co2      1 MOL1        -0.6776
       3    O2      16.943732   21.060079   21.768300 O.co2      1 MOL1        -0.6776
       4    C2      18.866123   20.464187   23.038665 C.3        1 MOL1        -0.2013
       5    H1      18.743551   19.980682   24.015010 H          1 MOL1         0.0727
       6    H2      19.695901   21.174380   23.134291 H          1 MOL1         0.0727
       7    C3      19.210335   19.397580   21.965213 C.3        1 MOL1        -0.1910
       8    H3      18.372737   18.692694   21.870172 H          1 MOL1         0.0729
       9    H4      19.326030   19.887640   20.988522 H          1 MOL1         0.0729
      10    C4      20.501263   18.626205   22.315567 C.3        1 MOL1        -0.1909
      11    H5      20.383469   18.137232   23.292388 H          1 MOL1         0.0729
      12    H6      21.337282   19.332791   22.410222 H          1 MOL1         0.0729
      13    C5      20.841612   17.566385   21.247233 C.3        1 MOL1        -0.1884
      14    H7      20.008418   16.856458   21.150880 H          1 MOL1         0.0729
      15    H8      20.962235   18.051883   20.268849 H          1 MOL1         0.0729
      16    C6      22.130878   16.798179   21.600283 C.3        1 MOL1        -0.2899
      17    H9      22.026719   16.276444   22.560681 H          1 MOL1         0.0741
      18    H10     22.357877   16.049128   20.830541 H          1 MOL1         0.0741
      19    H11     22.987729   17.480879   21.672028 H          1 MOL1         0.0741
@<TRIPOS>BOND
    1     1     2    1
    2     1     3    2
    3     1     4    1
    4     4     5    1
    5     4     6    1
    6     4     7    1
    7     7     8    1
    8     7     9    1
    9     7    10    1
   10    10    11    1
   11    10    12    1
   12    10    13    1
   13    13    14    1
   14    13    15    1
   15    13    16    1
   16    16    17    1
   17    16    18    1
   18    16    19    1
@<TRIPOS>SUBSTRUCTURE
       1 MOL1            1 RESIDUE      1      MOL     
@<SCITEGIC>MOL_PROPERTY
VConf Rank
SciTegic.value.IntegerValue
704

@<SCITEGIC>MOL_PROPERTY
Conf_Id
SciTegic.value.IntegerValue
0

@<SCITEGIC>MOL_PROPERTY
Delta U+W
SciTegic.value.DoubleValue
0.000

@<SCITEGIC>MOL_PROPERTY
U+W
SciTegic.value.DoubleValue
-54.891

@<SCITEGIC>MOL_PROPERTY
Grad RMS
SciTegic.value.DoubleValue
0.000000

@<SCITEGIC>MOL_PROPERTY
U
SciTegic.value.DoubleValue
6.966

@<SCITEGIC>MOL_PROPERTY
W
SciTegic.value.DoubleValue
-61.857

@<SCITEGIC>MOL_PROPERTY
W(PB)
SciTegic.value.DoubleValue
-63.965

@<SCITEGIC>MOL_PROPERTY
W(SA)
SciTegic.value.DoubleValue
2.108

@<SCITEGIC>MOL_PROPERTY
Valence
SciTegic.value.DoubleValue
7.175

@<SCITEGIC>MOL_PROPERTY
Coulomb
SciTegic.value.DoubleValue
-1.360

@<SCITEGIC>MOL_PROPERTY
VdW
SciTegic.value.DoubleValue
1.151

@<SCITEGIC>MOL_PROPERTY
VdW6
SciTegic.value.DoubleValue
-5.641

@<SCITEGIC>MOL_PROPERTY
VdW12
SciTegic.value.DoubleValue
6.792

@<SCITEGIC>MOL_PROPERTY
Bond
SciTegic.value.DoubleValue
0.119

@<SCITEGIC>MOL_PROPERTY
Angle
SciTegic.value.DoubleValue
2.715

@<SCITEGIC>MOL_PROPERTY
Pdih
SciTegic.value.DoubleValue
4.340

@<SCITEGIC>MOL_PROPERTY
Idih
SciTegic.value.DoubleValue
0.000

@<SCITEGIC>MOL_PROPERTY
Tether
SciTegic.value.DoubleValue
0.000

@<TRIPOS>MOLECULE
guest-7_confgen4.mol2 : confsearch ligand conformer 705
          19          18           1
SMALL
USER_CHARGES
 
@<TRIPOS>ATOM
       1    C1      18.148981   21.106501   24.044407 C.2        1 MOL1         0.6115
       2    O1      17.758486   22.098372   23.461409 O.co2      1 MOL1        -0.6776
       3    O2      17.565969   20.606399   24.985777 O.co2      1 MOL1        -0.6776
       4    C2      19.430212   20.440887   23.554739 C.3        1 MOL1        -0.2013
       5    H1      19.933854   19.993048   24.419913 H          1 MOL1         0.0727
       6    H2      20.092307   21.222580   23.163166 H          1 MOL1         0.0727
       7    C3      19.173656   19.365542   22.470338 C.3        1 MOL1        -0.1910
       8    H3      18.499372   18.597257   22.873612 H          1 MOL1         0.0729
       9    H4      18.657666   19.826859   21.616822 H          1 MOL1         0.0729
      10    C4      20.485740   18.707486   21.991773 C.3        1 MOL1        -0.1909
      11    H5      20.999843   18.248449   22.847447 H          1 MOL1         0.0729
      12    H6      21.158107   19.478201   21.590384 H          1 MOL1         0.0729
      13    C5      20.227116   17.636625   20.911614 C.3        1 MOL1        -0.1884
      14    H7      19.556346   16.862770   21.309998 H          1 MOL1         0.0729
      15    H8      19.714679   18.092406   20.053031 H          1 MOL1         0.0729
      16    C6      21.539312   16.981621   20.436149 C.3        1 MOL1        -0.2899
      17    H9      21.337099   16.223145   19.668730 H          1 MOL1         0.0741
      18    H10     22.217210   17.729135   20.003596 H          1 MOL1         0.0741
      19    H11     22.057704   16.490318   21.270004 H          1 MOL1         0.0741
@<TRIPOS>BOND
    1     1     2    1
    2     1     3    2
    3     1     4    1
    4     4     5    1
    5     4     6    1
    6     4     7    1
    7     7     8    1
    8     7     9    1
    9     7    10    1
   10    10    11    1
   11    10    12    1
   12    10    13    1
   13    13    14    1
   14    13    15    1
   15    13    16    1
   16    16    17    1
   17    16    18    1
   18    16    19    1
@<TRIPOS>SUBSTRUCTURE
       1 MOL1            1 RESIDUE      1      MOL     
@<SCITEGIC>MOL_PROPERTY
VConf Rank
SciTegic.value.IntegerValue
705

@<SCITEGIC>MOL_PROPERTY
Conf_Id
SciTegic.value.IntegerValue
18

@<SCITEGIC>MOL_PROPERTY
Delta U+W
SciTegic.value.DoubleValue
-1.199

@<SCITEGIC>MOL_PROPERTY
U+W
SciTegic.value.DoubleValue
-56.090

@<SCITEGIC>MOL_PROPERTY
Grad RMS
SciTegic.value.DoubleValue
0.000000

@<SCITEGIC>MOL_PROPERTY
U
SciTegic.value.DoubleValue
5.975

@<SCITEGIC>MOL_PROPERTY
W
SciTegic.value.DoubleValue
-62.066

@<SCITEGIC>MOL_PROPERTY
W(PB)
SciTegic.value.DoubleValue
-64.219

@<SCITEGIC>MOL_PROPERTY
W(SA)
SciTegic.value.DoubleValue
2.153

@<SCITEGIC>MOL_PROPERTY
Valence
SciTegic.value.DoubleValue
6.673

@<SCITEGIC>MOL_PROPERTY
Coulomb
SciTegic.value.DoubleValue
-1.307

@<SCITEGIC>MOL_PROPERTY
VdW
SciTegic.value.DoubleValue
0.610

@<SCITEGIC>MOL_PROPERTY
VdW6
SciTegic.value.DoubleValue
-5.351

@<SCITEGIC>MOL_PROPERTY
VdW12
SciTegic.value.DoubleValue
5.961

@<SCITEGIC>MOL_PROPERTY
Bond
SciTegic.value.DoubleValue
0.086

@<SCITEGIC>MOL_PROPERTY
Angle
SciTegic.value.DoubleValue
2.253

@<SCITEGIC>MOL_PROPERTY
Pdih
SciTegic.value.DoubleValue
4.333

@<SCITEGIC>MOL_PROPERTY
Idih
SciTegic.value.DoubleValue
0.001

@<SCITEGIC>MOL_PROPERTY
Tether
SciTegic.value.DoubleValue
0.000

@<TRIPOS>MOLECULE
guest-7_confgen4.mol2 : confsearch ligand conformer 706
          19          18           1
SMALL
USER_CHARGES
 
@<TRIPOS>ATOM
       1    C1      22.498551   18.282452   24.082018 C.2        1 MOL1         0.6115
       2    O1      22.745871   17.177309   24.522223 O.co2      1 MOL1        -0.6776
       3    O2      23.311588   19.184027   24.033059 O.co2      1 MOL1        -0.6776
       4    C2      21.097317   18.545579   23.541955 C.3        1 MOL1        -0.2013
       5    H1      20.857626   19.597254   23.735268 H          1 MOL1         0.0727
       6    H2      20.390237   17.938795   24.120196 H          1 MOL1         0.0727
       7    C3      20.966428   18.223987   22.030457 C.3        1 MOL1        -0.1910
       8    H3      21.647202   18.868882   21.457772 H          1 MOL1         0.0729
       9    H4      21.300609   17.191230   21.859699 H          1 MOL1         0.0729
      10    C4      19.524834   18.374237   21.489377 C.3        1 MOL1        -0.1909
      11    H5      18.848231   17.721944   22.058349 H          1 MOL1         0.0729
      12    H6      19.502865   18.014964   20.451373 H          1 MOL1         0.0729
      13    C5      19.002241   19.827808   21.528632 C.3        1 MOL1        -0.1884
      14    H7      18.944104   20.181477   22.566369 H          1 MOL1         0.0729
      15    H8      19.705166   20.488796   21.003029 H          1 MOL1         0.0729
      16    C6      17.608038   19.944512   20.880675 C.3        1 MOL1        -0.2899
      17    H9      17.249435   20.981350   20.918868 H          1 MOL1         0.0741
      18    H10     17.636462   19.634554   19.827820 H          1 MOL1         0.0741
      19    H11     16.877845   19.313702   21.404415 H          1 MOL1         0.0741
@<TRIPOS>BOND
    1     1     2    1
    2     1     3    2
    3     1     4    1
    4     4     5    1
    5     4     6    1
    6     4     7    1
    7     7     8    1
    8     7     9    1
    9     7    10    1
   10    10    11    1
   11    10    12    1
   12    10    13    1
   13    13    14    1
   14    13    15    1
   15    13    16    1
   16    16    17    1
   17    16    18    1
   18    16    19    1
@<TRIPOS>SUBSTRUCTURE
       1 MOL1            1 RESIDUE      1      MOL     
@<SCITEGIC>MOL_PROPERTY
VConf Rank
SciTegic.value.IntegerValue
706

@<SCITEGIC>MOL_PROPERTY
Conf_Id
SciTegic.value.IntegerValue
34

@<SCITEGIC>MOL_PROPERTY
Delta U+W
SciTegic.value.DoubleValue
-0.563

@<SCITEGIC>MOL_PROPERTY
U+W
SciTegic.value.DoubleValue
-55.455

@<SCITEGIC>MOL_PROPERTY
Grad RMS
SciTegic.value.DoubleValue
0.000000

@<SCITEGIC>MOL_PROPERTY
U
SciTegic.value.DoubleValue
6.914

@<SCITEGIC>MOL_PROPERTY
W
SciTegic.value.DoubleValue
-62.369

@<SCITEGIC>MOL_PROPERTY
W(PB)
SciTegic.value.DoubleValue
-64.446

@<SCITEGIC>MOL_PROPERTY
W(SA)
SciTegic.value.DoubleValue
2.077

@<SCITEGIC>MOL_PROPERTY
Valence
SciTegic.value.DoubleValue
7.196

@<SCITEGIC>MOL_PROPERTY
Coulomb
SciTegic.value.DoubleValue
-1.020

@<SCITEGIC>MOL_PROPERTY
VdW
SciTegic.value.DoubleValue
0.738

@<SCITEGIC>MOL_PROPERTY
VdW6
SciTegic.value.DoubleValue
-6.010

@<SCITEGIC>MOL_PROPERTY
VdW12
SciTegic.value.DoubleValue
6.748

@<SCITEGIC>MOL_PROPERTY
Bond
SciTegic.value.DoubleValue
0.126

@<SCITEGIC>MOL_PROPERTY
Angle
SciTegic.value.DoubleValue
2.499

@<SCITEGIC>MOL_PROPERTY
Pdih
SciTegic.value.DoubleValue
4.570

@<SCITEGIC>MOL_PROPERTY
Idih
SciTegic.value.DoubleValue
0.001

@<SCITEGIC>MOL_PROPERTY
Tether
SciTegic.value.DoubleValue
0.000

@<TRIPOS>MOLECULE
guest-7_confgen4.mol2 : confsearch ligand conformer 707
          19          18           1
SMALL
USER_CHARGES
 
@<TRIPOS>ATOM
       1    C1      21.245515   16.028476   21.602244 C.2        1 MOL1         0.6115
       2    O1      22.359733   15.699020   21.957583 O.co2      1 MOL1        -0.6776
       3    O2      20.618424   15.452297   20.735620 O.co2      1 MOL1        -0.6776
       4    C2      20.608482   17.244825   22.264847 C.3        1 MOL1        -0.2013
       5    H1      20.966599   17.294984   23.300100 H          1 MOL1         0.0727
       6    H2      19.526491   17.075377   22.302614 H          1 MOL1         0.0727
       7    C3      20.928895   18.568803   21.523498 C.3        1 MOL1        -0.1910
       8    H3      22.019207   18.661656   21.423398 H          1 MOL1         0.0729
       9    H4      20.526424   18.524101   20.502063 H          1 MOL1         0.0729
      10    C4      20.388477   19.826743   22.243955 C.3        1 MOL1        -0.1909
      11    H5      20.760527   20.716603   21.717893 H          1 MOL1         0.0729
      12    H6      20.799363   19.873051   23.261814 H          1 MOL1         0.0729
      13    C5      18.845556   19.886321   22.301888 C.3        1 MOL1        -0.1884
      14    H7      18.432481   19.788697   21.288424 H          1 MOL1         0.0729
      15    H8      18.455856   19.044861   22.889632 H          1 MOL1         0.0729
      16    C6      18.354407   21.206090   22.929779 C.3        1 MOL1        -0.2899
      17    H9      18.730809   21.316776   23.955195 H          1 MOL1         0.0741
      18    H10     18.694233   22.070525   22.344410 H          1 MOL1         0.0741
      19    H11     17.257569   21.232137   22.966613 H          1 MOL1         0.0741
@<TRIPOS>BOND
    1     1     2    1
    2     1     3    2
    3     1     4    1
    4     4     5    1
    5     4     6    1
    6     4     7    1
    7     7     8    1
    8     7     9    1
    9     7    10    1
   10    10    11    1
   11    10    12    1
   12    10    13    1
   13    13    14    1
   14    13    15    1
   15    13    16    1
   16    16    17    1
   17    16    18    1
   18    16    19    1
@<TRIPOS>SUBSTRUCTURE
       1 MOL1            1 RESIDUE      1      MOL     
@<SCITEGIC>MOL_PROPERTY
VConf Rank
SciTegic.value.IntegerValue
707

@<SCITEGIC>MOL_PROPERTY
Conf_Id
SciTegic.value.IntegerValue
33

@<SCITEGIC>MOL_PROPERTY
Delta U+W
SciTegic.value.DoubleValue
-0.526

@<SCITEGIC>MOL_PROPERTY
U+W
SciTegic.value.DoubleValue
-55.418

@<SCITEGIC>MOL_PROPERTY
Grad RMS
SciTegic.value.DoubleValue
0.000000

@<SCITEGIC>MOL_PROPERTY
U
SciTegic.value.DoubleValue
6.914

@<SCITEGIC>MOL_PROPERTY
W
SciTegic.value.DoubleValue
-62.332

@<SCITEGIC>MOL_PROPERTY
W(PB)
SciTegic.value.DoubleValue
-64.421

@<SCITEGIC>MOL_PROPERTY
W(SA)
SciTegic.value.DoubleValue
2.090

@<SCITEGIC>MOL_PROPERTY
Valence
SciTegic.value.DoubleValue
7.196

@<SCITEGIC>MOL_PROPERTY
Coulomb
SciTegic.value.DoubleValue
-1.020

@<SCITEGIC>MOL_PROPERTY
VdW
SciTegic.value.DoubleValue
0.738

@<SCITEGIC>MOL_PROPERTY
VdW6
SciTegic.value.DoubleValue
-6.010

@<SCITEGIC>MOL_PROPERTY
VdW12
SciTegic.value.DoubleValue
6.748

@<SCITEGIC>MOL_PROPERTY
Bond
SciTegic.value.DoubleValue
0.126

@<SCITEGIC>MOL_PROPERTY
Angle
SciTegic.value.DoubleValue
2.499

@<SCITEGIC>MOL_PROPERTY
Pdih
SciTegic.value.DoubleValue
4.570

@<SCITEGIC>MOL_PROPERTY
Idih
SciTegic.value.DoubleValue
0.001

@<SCITEGIC>MOL_PROPERTY
Tether
SciTegic.value.DoubleValue
0.000

@<TRIPOS>MOLECULE
guest-7_confgen4.mol2 : confsearch ligand conformer 708
          19          18           1
SMALL
USER_CHARGES
 
@<TRIPOS>ATOM
       1    C1      21.398391   19.300716   25.009698 C.2        1 MOL1         0.6115
       2    O1      21.495713   20.481231   25.280126 O.co2      1 MOL1        -0.6776
       3    O2      21.231839   18.431597   25.842247 O.co2      1 MOL1        -0.6776
       4    C2      21.471725   18.889045   23.543530 C.3        1 MOL1        -0.2013
       5    H1      21.933523   17.895715   23.491415 H          1 MOL1         0.0727
       6    H2      22.142512   19.585971   23.026745 H          1 MOL1         0.0727
       7    C3      20.085661   18.871473   22.852907 C.3        1 MOL1        -0.1910
       8    H3      19.422978   18.176750   23.387182 H          1 MOL1         0.0729
       9    H4      19.635603   19.869722   22.933941 H          1 MOL1         0.0729
      10    C4      20.190339   18.454372   21.367737 C.3        1 MOL1        -0.1909
      11    H5      20.707083   17.486974   21.303632 H          1 MOL1         0.0729
      12    H6      20.813384   19.176927   20.823001 H          1 MOL1         0.0729
      13    C5      18.817539   18.324841   20.668288 C.3        1 MOL1        -0.1884
      14    H7      18.972422   17.913862   19.661138 H          1 MOL1         0.0729
      15    H8      18.193364   17.598641   21.207145 H          1 MOL1         0.0729
      16    C6      18.064832   19.667404   20.546601 C.3        1 MOL1        -0.2899
      17    H9      18.681523   20.418787   20.036432 H          1 MOL1         0.0741
      18    H10     17.141363   19.538362   19.967381 H          1 MOL1         0.0741
      19    H11     17.786194   20.061426   21.531918 H          1 MOL1         0.0741
@<TRIPOS>BOND
    1     1     2    1
    2     1     3    2
    3     1     4    1
    4     4     5    1
    5     4     6    1
    6     4     7    1
    7     7     8    1
    8     7     9    1
    9     7    10    1
   10    10    11    1
   11    10    12    1
   12    10    13    1
   13    13    14    1
   14    13    15    1
   15    13    16    1
   16    16    17    1
   17    16    18    1
   18    16    19    1
@<TRIPOS>SUBSTRUCTURE
       1 MOL1            1 RESIDUE      1      MOL     
@<SCITEGIC>MOL_PROPERTY
VConf Rank
SciTegic.value.IntegerValue
708

@<SCITEGIC>MOL_PROPERTY
Conf_Id
SciTegic.value.IntegerValue
42

@<SCITEGIC>MOL_PROPERTY
Delta U+W
SciTegic.value.DoubleValue
-0.344

@<SCITEGIC>MOL_PROPERTY
U+W
SciTegic.value.DoubleValue
-55.236

@<SCITEGIC>MOL_PROPERTY
Grad RMS
SciTegic.value.DoubleValue
0.000000

@<SCITEGIC>MOL_PROPERTY
U
SciTegic.value.DoubleValue
7.244

@<SCITEGIC>MOL_PROPERTY
W
SciTegic.value.DoubleValue
-62.479

@<SCITEGIC>MOL_PROPERTY
W(PB)
SciTegic.value.DoubleValue
-64.610

@<SCITEGIC>MOL_PROPERTY
W(SA)
SciTegic.value.DoubleValue
2.130

@<SCITEGIC>MOL_PROPERTY
Valence
SciTegic.value.DoubleValue
7.174

@<SCITEGIC>MOL_PROPERTY
Coulomb
SciTegic.value.DoubleValue
-0.669

@<SCITEGIC>MOL_PROPERTY
VdW
SciTegic.value.DoubleValue
0.739

@<SCITEGIC>MOL_PROPERTY
VdW6
SciTegic.value.DoubleValue
-5.969

@<SCITEGIC>MOL_PROPERTY
VdW12
SciTegic.value.DoubleValue
6.708

@<SCITEGIC>MOL_PROPERTY
Bond
SciTegic.value.DoubleValue
0.116

@<SCITEGIC>MOL_PROPERTY
Angle
SciTegic.value.DoubleValue
2.481

@<SCITEGIC>MOL_PROPERTY
Pdih
SciTegic.value.DoubleValue
4.576

@<SCITEGIC>MOL_PROPERTY
Idih
SciTegic.value.DoubleValue
0.000

@<SCITEGIC>MOL_PROPERTY
Tether
SciTegic.value.DoubleValue
0.000

@<TRIPOS>MOLECULE
guest-7_confgen4.mol2 : confsearch ligand conformer 709
          19          18           1
SMALL
USER_CHARGES
 
@<TRIPOS>ATOM
       1    C1      19.302630   19.230523   25.299803 C.2        1 MOL1         0.6115
       2    O1      18.099683   19.129709   25.437558 O.co2      1 MOL1        -0.6776
       3    O2      19.998079   19.961683   25.976560 O.co2      1 MOL1        -0.6776
       4    C2      19.973915   18.408011   24.205567 C.3        1 MOL1        -0.2013
       5    H1      19.417791   17.469296   24.094809 H          1 MOL1         0.0727
       6    H2      20.983688   18.148454   24.545664 H          1 MOL1         0.0727
       7    C3      20.041078   19.151613   22.848737 C.3        1 MOL1        -0.1910
       8    H3      19.021919   19.417221   22.538270 H          1 MOL1         0.0729
       9    H4      20.592426   20.093174   22.978037 H          1 MOL1         0.0729
      10    C4      20.722641   18.293660   21.757844 C.3        1 MOL1        -0.1909
      11    H5      20.143654   17.374478   21.593883 H          1 MOL1         0.0729
      12    H6      21.711972   17.978627   22.116970 H          1 MOL1         0.0729
      13    C5      20.902200   19.037995   20.414597 C.3        1 MOL1        -0.1884
      14    H7      21.485782   19.955318   20.573585 H          1 MOL1         0.0729
      15    H8      21.494705   18.406634   19.738161 H          1 MOL1         0.0729
      16    C6      19.565072   19.385940   19.725485 C.3        1 MOL1        -0.2899
      17    H9      18.986562   20.108333   20.314738 H          1 MOL1         0.0741
      18    H10     19.746525   19.831747   18.738940 H          1 MOL1         0.0741
      19    H11     18.951197   18.487135   19.582428 H          1 MOL1         0.0741
@<TRIPOS>BOND
    1     1     2    1
    2     1     3    2
    3     1     4    1
    4     4     5    1
    5     4     6    1
    6     4     7    1
    7     7     8    1
    8     7     9    1
    9     7    10    1
   10    10    11    1
   11    10    12    1
   12    10    13    1
   13    13    14    1
   14    13    15    1
   15    13    16    1
   16    16    17    1
   17    16    18    1
   18    16    19    1
@<TRIPOS>SUBSTRUCTURE
       1 MOL1            1 RESIDUE      1      MOL     
@<SCITEGIC>MOL_PROPERTY
VConf Rank
SciTegic.value.IntegerValue
709

@<SCITEGIC>MOL_PROPERTY
Conf_Id
SciTegic.value.IntegerValue
41

@<SCITEGIC>MOL_PROPERTY
Delta U+W
SciTegic.value.DoubleValue
-0.361

@<SCITEGIC>MOL_PROPERTY
U+W
SciTegic.value.DoubleValue
-55.252

@<SCITEGIC>MOL_PROPERTY
Grad RMS
SciTegic.value.DoubleValue
0.000000

@<SCITEGIC>MOL_PROPERTY
U
SciTegic.value.DoubleValue
7.244

@<SCITEGIC>MOL_PROPERTY
W
SciTegic.value.DoubleValue
-62.496

@<SCITEGIC>MOL_PROPERTY
W(PB)
SciTegic.value.DoubleValue
-64.596

@<SCITEGIC>MOL_PROPERTY
W(SA)
SciTegic.value.DoubleValue
2.099

@<SCITEGIC>MOL_PROPERTY
Valence
SciTegic.value.DoubleValue
7.174

@<SCITEGIC>MOL_PROPERTY
Coulomb
SciTegic.value.DoubleValue
-0.669

@<SCITEGIC>MOL_PROPERTY
VdW
SciTegic.value.DoubleValue
0.739

@<SCITEGIC>MOL_PROPERTY
VdW6
SciTegic.value.DoubleValue
-5.969

@<SCITEGIC>MOL_PROPERTY
VdW12
SciTegic.value.DoubleValue
6.708

@<SCITEGIC>MOL_PROPERTY
Bond
SciTegic.value.DoubleValue
0.116

@<SCITEGIC>MOL_PROPERTY
Angle
SciTegic.value.DoubleValue
2.481

@<SCITEGIC>MOL_PROPERTY
Pdih
SciTegic.value.DoubleValue
4.576

@<SCITEGIC>MOL_PROPERTY
Idih
SciTegic.value.DoubleValue
0.000

@<SCITEGIC>MOL_PROPERTY
Tether
SciTegic.value.DoubleValue
0.000

@<TRIPOS>MOLECULE
guest-7_confgen4.mol2 : confsearch ligand conformer 710
          19          18           1
SMALL
USER_CHARGES
 
@<TRIPOS>ATOM
       1    C1      19.712787   21.768335   21.685401 C.2        1 MOL1         0.6115
       2    O1      18.516574   21.957452   21.784698 O.co2      1 MOL1        -0.6776
       3    O2      20.549710   22.456810   22.235167 O.co2      1 MOL1        -0.6776
       4    C2      20.193112   20.617738   20.805198 C.3        1 MOL1        -0.2013
       5    H1      21.001183   21.003929   20.172751 H          1 MOL1         0.0727
       6    H2      19.376550   20.325739   20.133669 H          1 MOL1         0.0727
       7    C3      20.700521   19.385332   21.598169 C.3        1 MOL1        -0.1910
       8    H3      21.151369   18.670916   20.896116 H          1 MOL1         0.0729
       9    H4      21.497859   19.698570   22.286475 H          1 MOL1         0.0729
      10    C4      19.574053   18.681674   22.387628 C.3        1 MOL1        -0.1909
      11    H5      18.773670   18.382174   21.697181 H          1 MOL1         0.0729
      12    H6      19.129019   19.385429   23.104634 H          1 MOL1         0.0729
      13    C5      20.094832   17.441173   23.142976 C.3        1 MOL1        -0.1884
      14    H7      20.537447   16.731608   22.430207 H          1 MOL1         0.0729
      15    H8      20.893995   17.738315   23.836171 H          1 MOL1         0.0729
      16    C6      18.968585   16.741295   23.929559 C.3        1 MOL1        -0.2899
      17    H9      18.169323   16.405369   23.255956 H          1 MOL1         0.0741
      18    H10     19.356168   15.862232   24.460703 H          1 MOL1         0.0741
      19    H11     18.528466   17.419519   24.672358 H          1 MOL1         0.0741
@<TRIPOS>BOND
    1     1     2    1
    2     1     3    2
    3     1     4    1
    4     4     5    1
    5     4     6    1
    6     4     7    1
    7     7     8    1
    8     7     9    1
    9     7    10    1
   10    10    11    1
   11    10    12    1
   12    10    13    1
   13    13    14    1
   14    13    15    1
   15    13    16    1
   16    16    17    1
   17    16    18    1
   18    16    19    1
@<TRIPOS>SUBSTRUCTURE
       1 MOL1            1 RESIDUE      1      MOL     
@<SCITEGIC>MOL_PROPERTY
VConf Rank
SciTegic.value.IntegerValue
710

@<SCITEGIC>MOL_PROPERTY
Conf_Id
SciTegic.value.IntegerValue
36

@<SCITEGIC>MOL_PROPERTY
Delta U+W
SciTegic.value.DoubleValue
-0.079

@<SCITEGIC>MOL_PROPERTY
U+W
SciTegic.value.DoubleValue
-54.971

@<SCITEGIC>MOL_PROPERTY
Grad RMS
SciTegic.value.DoubleValue
0.000000

@<SCITEGIC>MOL_PROPERTY
U
SciTegic.value.DoubleValue
8.266

@<SCITEGIC>MOL_PROPERTY
W
SciTegic.value.DoubleValue
-63.237

@<SCITEGIC>MOL_PROPERTY
W(PB)
SciTegic.value.DoubleValue
-65.340

@<SCITEGIC>MOL_PROPERTY
W(SA)
SciTegic.value.DoubleValue
2.103

@<SCITEGIC>MOL_PROPERTY
Valence
SciTegic.value.DoubleValue
6.935

@<SCITEGIC>MOL_PROPERTY
Coulomb
SciTegic.value.DoubleValue
0.874

@<SCITEGIC>MOL_PROPERTY
VdW
SciTegic.value.DoubleValue
0.457

@<SCITEGIC>MOL_PROPERTY
VdW6
SciTegic.value.DoubleValue
-6.205

@<SCITEGIC>MOL_PROPERTY
VdW12
SciTegic.value.DoubleValue
6.662

@<SCITEGIC>MOL_PROPERTY
Bond
SciTegic.value.DoubleValue
0.107

@<SCITEGIC>MOL_PROPERTY
Angle
SciTegic.value.DoubleValue
2.420

@<SCITEGIC>MOL_PROPERTY
Pdih
SciTegic.value.DoubleValue
4.407

@<SCITEGIC>MOL_PROPERTY
Idih
SciTegic.value.DoubleValue
0.001

@<SCITEGIC>MOL_PROPERTY
Tether
SciTegic.value.DoubleValue
0.000

@<TRIPOS>MOLECULE
guest-7_confgen4.mol2 : confsearch ligand conformer 711
          19          18           1
SMALL
USER_CHARGES
 
@<TRIPOS>ATOM
       1    C1      18.773202   17.685309   24.516719 C.2        1 MOL1         0.6115
       2    O1      18.845241   16.525678   24.160886 O.co2      1 MOL1        -0.6776
       3    O2      17.735189   18.222961   24.848591 O.co2      1 MOL1        -0.6776
       4    C2      20.058232   18.506947   24.571096 C.3        1 MOL1        -0.2013
       5    H1      20.913253   17.820038   24.580280 H          1 MOL1         0.0727
       6    H2      20.067599   19.037906   25.530316 H          1 MOL1         0.0727
       7    C3      20.204423   19.527944   23.412957 C.3        1 MOL1        -0.1910
       8    H3      19.327642   20.190281   23.398907 H          1 MOL1         0.0729
       9    H4      21.078403   20.164306   23.607215 H          1 MOL1         0.0729
      10    C4      20.367120   18.845668   22.036244 C.3        1 MOL1        -0.1909
      11    H5      19.488341   18.220123   21.826808 H          1 MOL1         0.0729
      12    H6      21.236927   18.174901   22.059413 H          1 MOL1         0.0729
      13    C5      20.542396   19.878876   20.903829 C.3        1 MOL1        -0.1884
      14    H7      19.672505   20.549724   20.876866 H          1 MOL1         0.0729
      15    H8      21.422618   20.504854   21.105795 H          1 MOL1         0.0729
      16    C6      20.704478   19.195024   19.531584 C.3        1 MOL1        -0.2899
      17    H9      19.823310   18.586330   19.289764 H          1 MOL1         0.0741
      18    H10     20.827421   19.943769   18.738267 H          1 MOL1         0.0741
      19    H11     21.586387   18.541176   19.520391 H          1 MOL1         0.0741
@<TRIPOS>BOND
    1     1     2    1
    2     1     3    2
    3     1     4    1
    4     4     5    1
    5     4     6    1
    6     4     7    1
    7     7     8    1
    8     7     9    1
    9     7    10    1
   10    10    11    1
   11    10    12    1
   12    10    13    1
   13    13    14    1
   14    13    15    1
   15    13    16    1
   16    16    17    1
   17    16    18    1
   18    16    19    1
@<TRIPOS>SUBSTRUCTURE
       1 MOL1            1 RESIDUE      1      MOL     
@<SCITEGIC>MOL_PROPERTY
VConf Rank
SciTegic.value.IntegerValue
711

@<SCITEGIC>MOL_PROPERTY
Conf_Id
SciTegic.value.IntegerValue
35

@<SCITEGIC>MOL_PROPERTY
Delta U+W
SciTegic.value.DoubleValue
-0.030

@<SCITEGIC>MOL_PROPERTY
U+W
SciTegic.value.DoubleValue
-54.921

@<SCITEGIC>MOL_PROPERTY
Grad RMS
SciTegic.value.DoubleValue
0.000000

@<SCITEGIC>MOL_PROPERTY
U
SciTegic.value.DoubleValue
8.267

@<SCITEGIC>MOL_PROPERTY
W
SciTegic.value.DoubleValue
-63.188

@<SCITEGIC>MOL_PROPERTY
W(PB)
SciTegic.value.DoubleValue
-65.294

@<SCITEGIC>MOL_PROPERTY
W(SA)
SciTegic.value.DoubleValue
2.106

@<SCITEGIC>MOL_PROPERTY
Valence
SciTegic.value.DoubleValue
6.935

@<SCITEGIC>MOL_PROPERTY
Coulomb
SciTegic.value.DoubleValue
0.875

@<SCITEGIC>MOL_PROPERTY
VdW
SciTegic.value.DoubleValue
0.457

@<SCITEGIC>MOL_PROPERTY
VdW6
SciTegic.value.DoubleValue
-6.205

@<SCITEGIC>MOL_PROPERTY
VdW12
SciTegic.value.DoubleValue
6.662

@<SCITEGIC>MOL_PROPERTY
Bond
SciTegic.value.DoubleValue
0.107

@<SCITEGIC>MOL_PROPERTY
Angle
SciTegic.value.DoubleValue
2.420

@<SCITEGIC>MOL_PROPERTY
Pdih
SciTegic.value.DoubleValue
4.407

@<SCITEGIC>MOL_PROPERTY
Idih
SciTegic.value.DoubleValue
0.001

@<SCITEGIC>MOL_PROPERTY
Tether
SciTegic.value.DoubleValue
0.000

@<TRIPOS>MOLECULE
guest-7_confgen4.mol2 : confsearch ligand conformer 712
          19          18           1
SMALL
USER_CHARGES
 
@<TRIPOS>ATOM
       1    C1      18.575968   21.235972   23.175735 C.2        1 MOL1         0.6115
       2    O1      18.464145   21.317102   24.383055 O.co2      1 MOL1        -0.6776
       3    O2      17.646734   21.371785   22.404551 O.co2      1 MOL1        -0.6776
       4    C2      19.963452   20.970651   22.597833 C.3        1 MOL1        -0.2013
       5    H1      20.664981   21.638562   23.111492 H          1 MOL1         0.0727
       6    H2      19.964628   21.261895   21.540414 H          1 MOL1         0.0727
       7    C3      20.442189   19.503099   22.748909 C.3        1 MOL1        -0.1910
       8    H3      21.496286   19.448122   22.448565 H          1 MOL1         0.0729
       9    H4      20.398089   19.213129   23.807824 H          1 MOL1         0.0729
      10    C4      19.607068   18.515508   21.899250 C.3        1 MOL1        -0.1909
      11    H5      19.683659   18.784387   20.836868 H          1 MOL1         0.0729
      12    H6      18.546523   18.615350   22.168137 H          1 MOL1         0.0729
      13    C5      20.021306   17.038147   22.090670 C.3        1 MOL1        -0.1884
      14    H7      19.943668   16.765631   23.152282 H          1 MOL1         0.0729
      15    H8      19.306373   16.399757   21.553501 H          1 MOL1         0.0729
      16    C6      21.444588   16.729973   21.577527 C.3        1 MOL1        -0.2899
      17    H9      22.205897   17.257915   22.165157 H          1 MOL1         0.0741
      18    H10     21.654616   15.655120   21.651792 H          1 MOL1         0.0741
      19    H11     21.555257   17.023948   20.525635 H          1 MOL1         0.0741
@<TRIPOS>BOND
    1     1     2    1
    2     1     3    2
    3     1     4    1
    4     4     5    1
    5     4     6    1
    6     4     7    1
    7     7     8    1
    8     7     9    1
    9     7    10    1
   10    10    11    1
   11    10    12    1
   12    10    13    1
   13    13    14    1
   14    13    15    1
   15    13    16    1
   16    16    17    1
   17    16    18    1
   18    16    19    1
@<TRIPOS>SUBSTRUCTURE
       1 MOL1            1 RESIDUE      1      MOL     
@<SCITEGIC>MOL_PROPERTY
VConf Rank
SciTegic.value.IntegerValue
712

@<SCITEGIC>MOL_PROPERTY
Conf_Id
SciTegic.value.IntegerValue
74

@<SCITEGIC>MOL_PROPERTY
Delta U+W
SciTegic.value.DoubleValue
0.797

@<SCITEGIC>MOL_PROPERTY
U+W
SciTegic.value.DoubleValue
-54.095

@<SCITEGIC>MOL_PROPERTY
Grad RMS
SciTegic.value.DoubleValue
0.000000

@<SCITEGIC>MOL_PROPERTY
U
SciTegic.value.DoubleValue
8.869

@<SCITEGIC>MOL_PROPERTY
W
SciTegic.value.DoubleValue
-62.964

@<SCITEGIC>MOL_PROPERTY
W(PB)
SciTegic.value.DoubleValue
-65.046

@<SCITEGIC>MOL_PROPERTY
W(SA)
SciTegic.value.DoubleValue
2.082

@<SCITEGIC>MOL_PROPERTY
Valence
SciTegic.value.DoubleValue
7.469

@<SCITEGIC>MOL_PROPERTY
Coulomb
SciTegic.value.DoubleValue
0.762

@<SCITEGIC>MOL_PROPERTY
VdW
SciTegic.value.DoubleValue
0.639

@<SCITEGIC>MOL_PROPERTY
VdW6
SciTegic.value.DoubleValue
-6.782

@<SCITEGIC>MOL_PROPERTY
VdW12
SciTegic.value.DoubleValue
7.421

@<SCITEGIC>MOL_PROPERTY
Bond
SciTegic.value.DoubleValue
0.141

@<SCITEGIC>MOL_PROPERTY
Angle
SciTegic.value.DoubleValue
2.667

@<SCITEGIC>MOL_PROPERTY
Pdih
SciTegic.value.DoubleValue
4.660

@<SCITEGIC>MOL_PROPERTY
Idih
SciTegic.value.DoubleValue
0.001

@<SCITEGIC>MOL_PROPERTY
Tether
SciTegic.value.DoubleValue
0.000

@<TRIPOS>MOLECULE
guest-7_confgen4.mol2 : confsearch ligand conformer 713
          19          18           1
SMALL
USER_CHARGES
 
@<TRIPOS>ATOM
       1    C1      18.343793   21.154836   23.280384 C.2        1 MOL1         0.6115
       2    O1      17.169990   21.395110   23.078202 O.co2      1 MOL1        -0.6776
       3    O2      18.960515   21.575690   24.238955 O.co2      1 MOL1        -0.6776
       4    C2      19.077284   20.261075   22.286705 C.3        1 MOL1        -0.2013
       5    H1      20.121949   20.590403   22.249586 H          1 MOL1         0.0727
       6    H2      18.646252   20.430493   21.292791 H          1 MOL1         0.0727
       7    C3      18.994446   18.757410   22.656461 C.3        1 MOL1        -0.1910
       8    H3      19.462903   18.593729   23.636019 H          1 MOL1         0.0729
       9    H4      17.937612   18.481479   22.775468 H          1 MOL1         0.0729
      10    C4      19.631432   17.823164   21.597139 C.3        1 MOL1        -0.1909
      11    H5      19.080929   17.929064   20.652403 H          1 MOL1         0.0729
      12    H6      19.489828   16.781286   21.915289 H          1 MOL1         0.0729
      13    C5      21.136979   18.063071   21.325712 C.3        1 MOL1        -0.1884
      14    H7      21.469538   17.356976   20.552463 H          1 MOL1         0.0729
      15    H8      21.291766   19.066141   20.906784 H          1 MOL1         0.0729
      16    C6      22.020855   17.879873   22.578149 C.3        1 MOL1        -0.2899
      17    H9      21.865184   16.890544   23.027621 H          1 MOL1         0.0741
      18    H10     23.082815   17.969234   22.315335 H          1 MOL1         0.0741
      19    H11     21.800717   18.641988   23.336428 H          1 MOL1         0.0741
@<TRIPOS>BOND
    1     1     2    1
    2     1     3    2
    3     1     4    1
    4     4     5    1
    5     4     6    1
    6     4     7    1
    7     7     8    1
    8     7     9    1
    9     7    10    1
   10    10    11    1
   11    10    12    1
   12    10    13    1
   13    13    14    1
   14    13    15    1
   15    13    16    1
   16    16    17    1
   17    16    18    1
   18    16    19    1
@<TRIPOS>SUBSTRUCTURE
       1 MOL1            1 RESIDUE      1      MOL     
@<SCITEGIC>MOL_PROPERTY
VConf Rank
SciTegic.value.IntegerValue
713

@<SCITEGIC>MOL_PROPERTY
Conf_Id
SciTegic.value.IntegerValue
67

@<SCITEGIC>MOL_PROPERTY
Delta U+W
SciTegic.value.DoubleValue
0.308

@<SCITEGIC>MOL_PROPERTY
U+W
SciTegic.value.DoubleValue
-54.583

@<SCITEGIC>MOL_PROPERTY
Grad RMS
SciTegic.value.DoubleValue
0.000000

@<SCITEGIC>MOL_PROPERTY
U
SciTegic.value.DoubleValue
8.219

@<SCITEGIC>MOL_PROPERTY
W
SciTegic.value.DoubleValue
-62.802

@<SCITEGIC>MOL_PROPERTY
W(PB)
SciTegic.value.DoubleValue
-64.859

@<SCITEGIC>MOL_PROPERTY
W(SA)
SciTegic.value.DoubleValue
2.057

@<SCITEGIC>MOL_PROPERTY
Valence
SciTegic.value.DoubleValue
7.609

@<SCITEGIC>MOL_PROPERTY
Coulomb
SciTegic.value.DoubleValue
-0.089

@<SCITEGIC>MOL_PROPERTY
VdW
SciTegic.value.DoubleValue
0.699

@<SCITEGIC>MOL_PROPERTY
VdW6
SciTegic.value.DoubleValue
-6.924

@<SCITEGIC>MOL_PROPERTY
VdW12
SciTegic.value.DoubleValue
7.623

@<SCITEGIC>MOL_PROPERTY
Bond
SciTegic.value.DoubleValue
0.163

@<SCITEGIC>MOL_PROPERTY
Angle
SciTegic.value.DoubleValue
2.870

@<SCITEGIC>MOL_PROPERTY
Pdih
SciTegic.value.DoubleValue
4.576

@<SCITEGIC>MOL_PROPERTY
Idih
SciTegic.value.DoubleValue
0.001

@<SCITEGIC>MOL_PROPERTY
Tether
SciTegic.value.DoubleValue
0.000

@<TRIPOS>MOLECULE
guest-7_confgen4.mol2 : confsearch ligand conformer 714
          19          18           1
SMALL
USER_CHARGES
 
@<TRIPOS>ATOM
       1    C1      22.380494   18.557871   20.656105 C.2        1 MOL1         0.6115
       2    O1      23.003227   19.375833   20.008367 O.co2      1 MOL1        -0.6776
       3    O2      22.404807   17.363856   20.432364 O.co2      1 MOL1        -0.6776
       4    C2      21.505868   19.059703   21.799526 C.3        1 MOL1        -0.2013
       5    H1      21.981453   19.950336   22.227249 H          1 MOL1         0.0727
       6    H2      21.498940   18.288117   22.577836 H          1 MOL1         0.0727
       7    C3      20.059316   19.389947   21.348957 C.3        1 MOL1        -0.1910
       8    H3      20.104581   20.095764   20.508141 H          1 MOL1         0.0729
       9    H4      19.580262   18.482552   20.957908 H          1 MOL1         0.0729
      10    C4      19.188780   20.012995   22.469092 C.3        1 MOL1        -0.1909
      11    H5      18.200845   20.255114   22.054193 H          1 MOL1         0.0729
      12    H6      19.632669   20.970657   22.773461 H          1 MOL1         0.0729
      13    C5      19.000279   19.129485   23.726779 C.3        1 MOL1        -0.1884
      14    H7      19.966692   18.960174   24.219721 H          1 MOL1         0.0729
      15    H8      18.382933   19.679060   24.450610 H          1 MOL1         0.0729
      16    C6      18.324619   17.774270   23.426324 C.3        1 MOL1        -0.2899
      17    H9      18.962487   17.141843   22.795904 H          1 MOL1         0.0741
      18    H10     18.130370   17.226965   24.357743 H          1 MOL1         0.0741
      19    H11     17.365642   17.918807   22.912027 H          1 MOL1         0.0741
@<TRIPOS>BOND
    1     1     2    1
    2     1     3    2
    3     1     4    1
    4     4     5    1
    5     4     6    1
    6     4     7    1
    7     7     8    1
    8     7     9    1
    9     7    10    1
   10    10    11    1
   11    10    12    1
   12    10    13    1
   13    13    14    1
   14    13    15    1
   15    13    16    1
   16    16    17    1
   17    16    18    1
   18    16    19    1
@<TRIPOS>SUBSTRUCTURE
       1 MOL1            1 RESIDUE      1      MOL     
@<SCITEGIC>MOL_PROPERTY
VConf Rank
SciTegic.value.IntegerValue
714

@<SCITEGIC>MOL_PROPERTY
Conf_Id
SciTegic.value.IntegerValue
21

@<SCITEGIC>MOL_PROPERTY
Delta U+W
SciTegic.value.DoubleValue
0.319

@<SCITEGIC>MOL_PROPERTY
U+W
SciTegic.value.DoubleValue
-54.572

@<SCITEGIC>MOL_PROPERTY
Grad RMS
SciTegic.value.DoubleValue
0.000000

@<SCITEGIC>MOL_PROPERTY
U
SciTegic.value.DoubleValue
8.220

@<SCITEGIC>MOL_PROPERTY
W
SciTegic.value.DoubleValue
-62.792

@<SCITEGIC>MOL_PROPERTY
W(PB)
SciTegic.value.DoubleValue
-64.830

@<SCITEGIC>MOL_PROPERTY
W(SA)
SciTegic.value.DoubleValue
2.038

@<SCITEGIC>MOL_PROPERTY
Valence
SciTegic.value.DoubleValue
7.609

@<SCITEGIC>MOL_PROPERTY
Coulomb
SciTegic.value.DoubleValue
-0.088

@<SCITEGIC>MOL_PROPERTY
VdW
SciTegic.value.DoubleValue
0.699

@<SCITEGIC>MOL_PROPERTY
VdW6
SciTegic.value.DoubleValue
-6.924

@<SCITEGIC>MOL_PROPERTY
VdW12
SciTegic.value.DoubleValue
7.623

@<SCITEGIC>MOL_PROPERTY
Bond
SciTegic.value.DoubleValue
0.163

@<SCITEGIC>MOL_PROPERTY
Angle
SciTegic.value.DoubleValue
2.870

@<SCITEGIC>MOL_PROPERTY
Pdih
SciTegic.value.DoubleValue
4.576

@<SCITEGIC>MOL_PROPERTY
Idih
SciTegic.value.DoubleValue
0.000

@<SCITEGIC>MOL_PROPERTY
Tether
SciTegic.value.DoubleValue
0.000

@<TRIPOS>MOLECULE
guest-7_confgen4.mol2 : confsearch ligand conformer 715
          19          18           1
SMALL
USER_CHARGES
 
@<TRIPOS>ATOM
       1    C1      21.047735   19.384256   19.670340 C.2        1 MOL1         0.6115
       2    O1      21.142934   20.411197   19.027870 O.co2      1 MOL1        -0.6776
       3    O2      21.735164   18.401968   19.473349 O.co2      1 MOL1        -0.6776
       4    C2      20.022132   19.332473   20.797078 C.3        1 MOL1        -0.2013
       5    H1      19.660775   18.302345   20.875057 H          1 MOL1         0.0727
       6    H2      19.165015   19.949837   20.502805 H          1 MOL1         0.0727
       7    C3      20.592971   19.827708   22.152245 C.3        1 MOL1        -0.1910
       8    H3      21.487181   19.248322   22.420538 H          1 MOL1         0.0729
       9    H4      20.929750   20.864970   22.017842 H          1 MOL1         0.0729
      10    C4      19.561046   19.787612   23.307870 C.3        1 MOL1        -0.1909
      11    H5      18.544586   19.929607   22.916022 H          1 MOL1         0.0729
      12    H6      19.750614   20.647643   23.964668 H          1 MOL1         0.0729
      13    C5      19.620359   18.511832   24.183528 C.3        1 MOL1        -0.1884
      14    H7      20.614834   18.426382   24.642847 H          1 MOL1         0.0729
      15    H8      18.908028   18.624978   25.012369 H          1 MOL1         0.0729
      16    C6      19.293276   17.208420   23.426015 C.3        1 MOL1        -0.2899
      17    H9      19.223740   16.365483   24.125612 H          1 MOL1         0.0741
      18    H10     18.334951   17.289530   22.896853 H          1 MOL1         0.0741
      19    H11     20.076785   16.967716   22.696651 H          1 MOL1         0.0741
@<TRIPOS>BOND
    1     1     2    1
    2     1     3    2
    3     1     4    1
    4     4     5    1
    5     4     6    1
    6     4     7    1
    7     7     8    1
    8     7     9    1
    9     7    10    1
   10    10    11    1
   11    10    12    1
   12    10    13    1
   13    13    14    1
   14    13    15    1
   15    13    16    1
   16    16    17    1
   17    16    18    1
   18    16    19    1
@<TRIPOS>SUBSTRUCTURE
       1 MOL1            1 RESIDUE      1      MOL     
@<SCITEGIC>MOL_PROPERTY
VConf Rank
SciTegic.value.IntegerValue
715

@<SCITEGIC>MOL_PROPERTY
Conf_Id
SciTegic.value.IntegerValue
24

@<SCITEGIC>MOL_PROPERTY
Delta U+W
SciTegic.value.DoubleValue
2.477

@<SCITEGIC>MOL_PROPERTY
U+W
SciTegic.value.DoubleValue
-52.414

@<SCITEGIC>MOL_PROPERTY
Grad RMS
SciTegic.value.DoubleValue
0.000000

@<SCITEGIC>MOL_PROPERTY
U
SciTegic.value.DoubleValue
10.422

@<SCITEGIC>MOL_PROPERTY
W
SciTegic.value.DoubleValue
-62.836

@<SCITEGIC>MOL_PROPERTY
W(PB)
SciTegic.value.DoubleValue
-64.906

@<SCITEGIC>MOL_PROPERTY
W(SA)
SciTegic.value.DoubleValue
2.070

@<SCITEGIC>MOL_PROPERTY
Valence
SciTegic.value.DoubleValue
9.628

@<SCITEGIC>MOL_PROPERTY
Coulomb
SciTegic.value.DoubleValue
0.101

@<SCITEGIC>MOL_PROPERTY
VdW
SciTegic.value.DoubleValue
0.693

@<SCITEGIC>MOL_PROPERTY
VdW6
SciTegic.value.DoubleValue
-6.927

@<SCITEGIC>MOL_PROPERTY
VdW12
SciTegic.value.DoubleValue
7.620

@<SCITEGIC>MOL_PROPERTY
Bond
SciTegic.value.DoubleValue
0.173

@<SCITEGIC>MOL_PROPERTY
Angle
SciTegic.value.DoubleValue
2.989

@<SCITEGIC>MOL_PROPERTY
Pdih
SciTegic.value.DoubleValue
6.465

@<SCITEGIC>MOL_PROPERTY
Idih
SciTegic.value.DoubleValue
0.001

@<SCITEGIC>MOL_PROPERTY
Tether
SciTegic.value.DoubleValue
0.000

@<TRIPOS>MOLECULE
guest-7_confgen4.mol2 : confsearch ligand conformer 716
          19          18           1
SMALL
USER_CHARGES
 
@<TRIPOS>ATOM
       1    C1      21.947934   19.882129   23.741137 C.2        1 MOL1         0.6115
       2    O1      21.322165   20.384017   24.653940 O.co2      1 MOL1        -0.6776
       3    O2      23.056369   19.401309   23.872509 O.co2      1 MOL1        -0.6776
       4    C2      21.323441   19.879986   22.348213 C.3        1 MOL1        -0.2013
       5    H1      22.083084   20.255008   21.652471 H          1 MOL1         0.0727
       6    H2      20.502943   20.604471   22.336549 H          1 MOL1         0.0727
       7    C3      20.840044   18.480882   21.875167 C.3        1 MOL1        -0.1910
       8    H3      20.596616   18.513733   20.804702 H          1 MOL1         0.0729
       9    H4      21.681147   17.780385   21.972040 H          1 MOL1         0.0729
      10    C4      19.631134   17.922839   22.670531 C.3        1 MOL1        -0.1909
      11    H5      19.644351   18.296400   23.703529 H          1 MOL1         0.0729
      12    H6      19.747482   16.833156   22.746934 H          1 MOL1         0.0729
      13    C5      18.250709   18.199343   22.025644 C.3        1 MOL1        -0.1884
      14    H7      18.212561   17.744880   21.026038 H          1 MOL1         0.0729
      15    H8      17.480028   17.692963   22.622957 H          1 MOL1         0.0729
      16    C6      17.890693   19.695764   21.922351 C.3        1 MOL1        -0.2899
      17    H9      18.535965   20.208682   21.198545 H          1 MOL1         0.0741
      18    H10     16.853289   19.818736   21.585531 H          1 MOL1         0.0741
      19    H11     17.992848   20.193177   22.895814 H          1 MOL1         0.0741
@<TRIPOS>BOND
    1     1     2    1
    2     1     3    2
    3     1     4    1
    4     4     5    1
    5     4     6    1
    6     4     7    1
    7     7     8    1
    8     7     9    1
    9     7    10    1
   10    10    11    1
   11    10    12    1
   12    10    13    1
   13    13    14    1
   14    13    15    1
   15    13    16    1
   16    16    17    1
   17    16    18    1
   18    16    19    1
@<TRIPOS>SUBSTRUCTURE
       1 MOL1            1 RESIDUE      1      MOL     
@<SCITEGIC>MOL_PROPERTY
VConf Rank
SciTegic.value.IntegerValue
716

@<SCITEGIC>MOL_PROPERTY
Conf_Id
SciTegic.value.IntegerValue
4

@<SCITEGIC>MOL_PROPERTY
Delta U+W
SciTegic.value.DoubleValue
3.753

@<SCITEGIC>MOL_PROPERTY
U+W
SciTegic.value.DoubleValue
-51.138

@<SCITEGIC>MOL_PROPERTY
Grad RMS
SciTegic.value.DoubleValue
0.000000

@<SCITEGIC>MOL_PROPERTY
U
SciTegic.value.DoubleValue
12.334

@<SCITEGIC>MOL_PROPERTY
W
SciTegic.value.DoubleValue
-63.472

@<SCITEGIC>MOL_PROPERTY
W(PB)
SciTegic.value.DoubleValue
-65.500

@<SCITEGIC>MOL_PROPERTY
W(SA)
SciTegic.value.DoubleValue
2.028

@<SCITEGIC>MOL_PROPERTY
Valence
SciTegic.value.DoubleValue
9.984

@<SCITEGIC>MOL_PROPERTY
Coulomb
SciTegic.value.DoubleValue
1.767

@<SCITEGIC>MOL_PROPERTY
VdW
SciTegic.value.DoubleValue
0.583

@<SCITEGIC>MOL_PROPERTY
VdW6
SciTegic.value.DoubleValue
-7.767

@<SCITEGIC>MOL_PROPERTY
VdW12
SciTegic.value.DoubleValue
8.349

@<SCITEGIC>MOL_PROPERTY
Bond
SciTegic.value.DoubleValue
0.203

@<SCITEGIC>MOL_PROPERTY
Angle
SciTegic.value.DoubleValue
3.191

@<SCITEGIC>MOL_PROPERTY
Pdih
SciTegic.value.DoubleValue
6.589

@<SCITEGIC>MOL_PROPERTY
Idih
SciTegic.value.DoubleValue
0.001

@<SCITEGIC>MOL_PROPERTY
Tether
SciTegic.value.DoubleValue
0.000

@<TRIPOS>MOLECULE
guest-7_confgen4.mol2 : confsearch ligand conformer 717
          19          18           1
SMALL
USER_CHARGES
 
@<TRIPOS>ATOM
       1    C1      18.339718   17.549744   20.840669 C.2        1 MOL1         0.6115
       2    O1      18.486586   16.470187   20.302096 O.co2      1 MOL1        -0.6776
       3    O2      17.301009   17.902606   21.363417 O.co2      1 MOL1        -0.6776
       4    C2      19.515411   18.523353   20.832796 C.3        1 MOL1        -0.2013
       5    H1      19.136127   19.524572   21.060683 H          1 MOL1         0.0727
       6    H2      19.898963   18.559206   19.806464 H          1 MOL1         0.0727
       7    C3      20.667838   18.129476   21.798047 C.3        1 MOL1        -0.1910
       8    H3      20.962485   17.095475   21.570978 H          1 MOL1         0.0729
       9    H4      21.552465   18.747180   21.592839 H          1 MOL1         0.0729
      10    C4      20.299332   18.225092   23.301554 C.3        1 MOL1        -0.1909
      11    H5      20.821654   17.417423   23.832244 H          1 MOL1         0.0729
      12    H6      19.227734   18.032888   23.448320 H          1 MOL1         0.0729
      13    C5      20.695159   19.559671   23.979877 C.3        1 MOL1        -0.1884
      14    H7      20.465356   19.486606   25.051794 H          1 MOL1         0.0729
      15    H8      21.782205   19.702249   23.907741 H          1 MOL1         0.0729
      16    C6      19.976627   20.797533   23.404580 C.3        1 MOL1        -0.2899
      17    H9      18.888419   20.651922   23.395276 H          1 MOL1         0.0741
      18    H10     20.195138   21.685197   24.012102 H          1 MOL1         0.0741
      19    H11     20.309701   21.007834   22.380768 H          1 MOL1         0.0741
@<TRIPOS>BOND
    1     1     2    1
    2     1     3    2
    3     1     4    1
    4     4     5    1
    5     4     6    1
    6     4     7    1
    7     7     8    1
    8     7     9    1
    9     7    10    1
   10    10    11    1
   11    10    12    1
   12    10    13    1
   13    13    14    1
   14    13    15    1
   15    13    16    1
   16    16    17    1
   17    16    18    1
   18    16    19    1
@<TRIPOS>SUBSTRUCTURE
       1 MOL1            1 RESIDUE      1      MOL     
@<SCITEGIC>MOL_PROPERTY
VConf Rank
SciTegic.value.IntegerValue
717

@<SCITEGIC>MOL_PROPERTY
Conf_Id
SciTegic.value.IntegerValue
73

@<SCITEGIC>MOL_PROPERTY
Delta U+W
SciTegic.value.DoubleValue
3.707

@<SCITEGIC>MOL_PROPERTY
U+W
SciTegic.value.DoubleValue
-51.184

@<SCITEGIC>MOL_PROPERTY
Grad RMS
SciTegic.value.DoubleValue
0.000000

@<SCITEGIC>MOL_PROPERTY
U
SciTegic.value.DoubleValue
12.334

@<SCITEGIC>MOL_PROPERTY
W
SciTegic.value.DoubleValue
-63.519

@<SCITEGIC>MOL_PROPERTY
W(PB)
SciTegic.value.DoubleValue
-65.541

@<SCITEGIC>MOL_PROPERTY
W(SA)
SciTegic.value.DoubleValue
2.022

@<SCITEGIC>MOL_PROPERTY
Valence
SciTegic.value.DoubleValue
9.984

@<SCITEGIC>MOL_PROPERTY
Coulomb
SciTegic.value.DoubleValue
1.768

@<SCITEGIC>MOL_PROPERTY
VdW
SciTegic.value.DoubleValue
0.583

@<SCITEGIC>MOL_PROPERTY
VdW6
SciTegic.value.DoubleValue
-7.767

@<SCITEGIC>MOL_PROPERTY
VdW12
SciTegic.value.DoubleValue
8.350

@<SCITEGIC>MOL_PROPERTY
Bond
SciTegic.value.DoubleValue
0.203

@<SCITEGIC>MOL_PROPERTY
Angle
SciTegic.value.DoubleValue
3.192

@<SCITEGIC>MOL_PROPERTY
Pdih
SciTegic.value.DoubleValue
6.589

@<SCITEGIC>MOL_PROPERTY
Idih
SciTegic.value.DoubleValue
0.001

@<SCITEGIC>MOL_PROPERTY
Tether
SciTegic.value.DoubleValue
0.000

@<TRIPOS>MOLECULE
guest-7_confgen4.mol2 : confsearch ligand conformer 718
          19          18           1
SMALL
USER_CHARGES
 
@<TRIPOS>ATOM
       1    C1      18.174621   17.570506   23.730483 C.2        1 MOL1         0.6115
       2    O1      18.707512   17.698339   24.815102 O.co2      1 MOL1        -0.6776
       3    O2      16.972643   17.470132   23.581037 O.co2      1 MOL1        -0.6776
       4    C2      19.061865   17.499615   22.490686 C.3        1 MOL1        -0.2013
       5    H1      18.755839   16.614826   21.920453 H          1 MOL1         0.0727
       6    H2      20.095911   17.322051   22.807728 H          1 MOL1         0.0727
       7    C3      18.978507   18.753238   21.577586 C.3        1 MOL1        -0.1910
       8    H3      19.586234   18.586991   20.678756 H          1 MOL1         0.0729
       9    H4      17.943625   18.863549   21.225502 H          1 MOL1         0.0729
      10    C4      19.412305   20.074733   22.262833 C.3        1 MOL1        -0.1909
      11    H5      18.721075   20.293979   23.088190 H          1 MOL1         0.0729
      12    H6      19.296221   20.898338   21.545342 H          1 MOL1         0.0729
      13    C5      20.860170   20.088766   22.811202 C.3        1 MOL1        -0.1884
      14    H7      21.044853   21.062524   23.285106 H          1 MOL1         0.0729
      15    H8      20.969460   19.339581   23.606955 H          1 MOL1         0.0729
      16    C6      21.929519   19.855313   21.722320 C.3        1 MOL1        -0.2899
      17    H9      21.853492   18.846042   21.298642 H          1 MOL1         0.0741
      18    H10     21.823725   20.581433   20.905883 H          1 MOL1         0.0741
      19    H11     22.937057   19.964091   22.144018 H          1 MOL1         0.0741
@<TRIPOS>BOND
    1     1     2    1
    2     1     3    2
    3     1     4    1
    4     4     5    1
    5     4     6    1
    6     4     7    1
    7     7     8    1
    8     7     9    1
    9     7    10    1
   10    10    11    1
   11    10    12    1
   12    10    13    1
   13    13    14    1
   14    13    15    1
   15    13    16    1
   16    16    17    1
   17    16    18    1
   18    16    19    1
@<TRIPOS>SUBSTRUCTURE
       1 MOL1            1 RESIDUE      1      MOL     
@<SCITEGIC>MOL_PROPERTY
VConf Rank
SciTegic.value.IntegerValue
718

@<SCITEGIC>MOL_PROPERTY
Conf_Id
SciTegic.value.IntegerValue
56

@<SCITEGIC>MOL_PROPERTY
Delta U+W
SciTegic.value.DoubleValue
1.735

@<SCITEGIC>MOL_PROPERTY
U+W
SciTegic.value.DoubleValue
-53.156

@<SCITEGIC>MOL_PROPERTY
Grad RMS
SciTegic.value.DoubleValue
0.000000

@<SCITEGIC>MOL_PROPERTY
U
SciTegic.value.DoubleValue
10.214

@<SCITEGIC>MOL_PROPERTY
W
SciTegic.value.DoubleValue
-63.370

@<SCITEGIC>MOL_PROPERTY
W(PB)
SciTegic.value.DoubleValue
-65.388

@<SCITEGIC>MOL_PROPERTY
W(SA)
SciTegic.value.DoubleValue
2.018

@<SCITEGIC>MOL_PROPERTY
Valence
SciTegic.value.DoubleValue
7.868

@<SCITEGIC>MOL_PROPERTY
Coulomb
SciTegic.value.DoubleValue
1.968

@<SCITEGIC>MOL_PROPERTY
VdW
SciTegic.value.DoubleValue
0.378

@<SCITEGIC>MOL_PROPERTY
VdW6
SciTegic.value.DoubleValue
-8.067

@<SCITEGIC>MOL_PROPERTY
VdW12
SciTegic.value.DoubleValue
8.445

@<SCITEGIC>MOL_PROPERTY
Bond
SciTegic.value.DoubleValue
0.191

@<SCITEGIC>MOL_PROPERTY
Angle
SciTegic.value.DoubleValue
3.117

@<SCITEGIC>MOL_PROPERTY
Pdih
SciTegic.value.DoubleValue
4.559

@<SCITEGIC>MOL_PROPERTY
Idih
SciTegic.value.DoubleValue
0.001

@<SCITEGIC>MOL_PROPERTY
Tether
SciTegic.value.DoubleValue
0.000

@<TRIPOS>MOLECULE
guest-7_confgen4.mol2 : confsearch ligand conformer 719
          19          18           1
SMALL
USER_CHARGES
 
@<TRIPOS>ATOM
       1    C1      18.228459   16.609452   22.689557 C.2        1 MOL1         0.6115
       2    O1      18.280908   15.619900   21.986421 O.co2      1 MOL1        -0.6776
       3    O2      17.338452   16.818774   23.489835 O.co2      1 MOL1        -0.6776
       4    C2      19.327962   17.655487   22.544157 C.3        1 MOL1        -0.2013
       5    H1      20.254639   17.140281   22.264495 H          1 MOL1         0.0727
       6    H2      19.486207   18.108931   23.528970 H          1 MOL1         0.0727
       7    C3      18.984764   18.746524   21.498773 C.3        1 MOL1        -0.1910
       8    H3      18.692402   18.254786   20.560627 H          1 MOL1         0.0729
       9    H4      18.103925   19.308526   21.838585 H          1 MOL1         0.0729
      10    C4      20.143878   19.729261   21.196821 C.3        1 MOL1        -0.1909
      11    H5      19.799317   20.414326   20.410097 H          1 MOL1         0.0729
      12    H6      20.996752   19.186256   20.766993 H          1 MOL1         0.0729
      13    C5      20.603994   20.578669   22.407567 C.3        1 MOL1        -0.1884
      14    H7      20.883503   21.578690   22.048161 H          1 MOL1         0.0729
      15    H8      19.770291   20.727873   23.107556 H          1 MOL1         0.0729
      16    C6      21.822457   19.980030   23.144933 C.3        1 MOL1        -0.2899
      17    H9      22.119687   20.625785   23.981312 H          1 MOL1         0.0741
      18    H10     21.606797   18.985467   23.551076 H          1 MOL1         0.0741
      19    H11     22.682427   19.890480   22.468498 H          1 MOL1         0.0741
@<TRIPOS>BOND
    1     1     2    1
    2     1     3    2
    3     1     4    1
    4     4     5    1
    5     4     6    1
    6     4     7    1
    7     7     8    1
    8     7     9    1
    9     7    10    1
   10    10    11    1
   11    10    12    1
   12    10    13    1
   13    13    14    1
   14    13    15    1
   15    13    16    1
   16    16    17    1
   17    16    18    1
   18    16    19    1
@<TRIPOS>SUBSTRUCTURE
       1 MOL1            1 RESIDUE      1      MOL     
@<SCITEGIC>MOL_PROPERTY
VConf Rank
SciTegic.value.IntegerValue
719

@<SCITEGIC>MOL_PROPERTY
Conf_Id
SciTegic.value.IntegerValue
53

@<SCITEGIC>MOL_PROPERTY
Delta U+W
SciTegic.value.DoubleValue
2.279

@<SCITEGIC>MOL_PROPERTY
U+W
SciTegic.value.DoubleValue
-52.612

@<SCITEGIC>MOL_PROPERTY
Grad RMS
SciTegic.value.DoubleValue
0.000000

@<SCITEGIC>MOL_PROPERTY
U
SciTegic.value.DoubleValue
10.231

@<SCITEGIC>MOL_PROPERTY
W
SciTegic.value.DoubleValue
-62.843

@<SCITEGIC>MOL_PROPERTY
W(PB)
SciTegic.value.DoubleValue
-64.893

@<SCITEGIC>MOL_PROPERTY
W(SA)
SciTegic.value.DoubleValue
2.050

@<SCITEGIC>MOL_PROPERTY
Valence
SciTegic.value.DoubleValue
9.644

@<SCITEGIC>MOL_PROPERTY
Coulomb
SciTegic.value.DoubleValue
-0.164

@<SCITEGIC>MOL_PROPERTY
VdW
SciTegic.value.DoubleValue
0.751

@<SCITEGIC>MOL_PROPERTY
VdW6
SciTegic.value.DoubleValue
-6.881

@<SCITEGIC>MOL_PROPERTY
VdW12
SciTegic.value.DoubleValue
7.631

@<SCITEGIC>MOL_PROPERTY
Bond
SciTegic.value.DoubleValue
0.163

@<SCITEGIC>MOL_PROPERTY
Angle
SciTegic.value.DoubleValue
2.998

@<SCITEGIC>MOL_PROPERTY
Pdih
SciTegic.value.DoubleValue
6.482

@<SCITEGIC>MOL_PROPERTY
Idih
SciTegic.value.DoubleValue
0.001

@<SCITEGIC>MOL_PROPERTY
Tether
SciTegic.value.DoubleValue
0.000

@<TRIPOS>MOLECULE
guest-7_confgen4.mol2 : confsearch ligand conformer 720
          19          18           1
SMALL
USER_CHARGES
 
@<TRIPOS>ATOM
       1    C1      21.213404   20.484281   24.003713 C.2        1 MOL1         0.6115
       2    O1      20.561870   21.497808   23.845218 O.co2      1 MOL1        -0.6776
       3    O2      22.416904   20.429943   23.842837 O.co2      1 MOL1        -0.6776
       4    C2      20.490193   19.233069   24.498604 C.3        1 MOL1        -0.2013
       5    H1      19.428842   19.468359   24.643846 H          1 MOL1         0.0727
       6    H2      20.900708   19.011787   25.490639 H          1 MOL1         0.0727
       7    C3      20.644207   17.976402   23.596277 C.3        1 MOL1        -0.1910
       8    H3      21.691771   17.866021   23.283279 H          1 MOL1         0.0729
       9    H4      20.416488   17.091643   24.206001 H          1 MOL1         0.0729
      10    C4      19.714058   17.947646   22.358266 C.3        1 MOL1        -0.1909
      11    H5      18.668399   18.051145   22.678766 H          1 MOL1         0.0729
      12    H6      19.796884   16.956701   21.891170 H          1 MOL1         0.0729
      13    C5      20.041328   19.023337   21.299325 C.3        1 MOL1        -0.1884
      14    H7      19.837845   20.023419   21.702857 H          1 MOL1         0.0729
      15    H8      21.111137   18.988202   21.050986 H          1 MOL1         0.0729
      16    C6      19.208820   18.825690   20.016476 C.3        1 MOL1        -0.2899
      17    H9      18.134153   18.882312   20.233828 H          1 MOL1         0.0741
      18    H10     19.446788   19.602425   19.278167 H          1 MOL1         0.0741
      19    H11     19.415799   17.849169   19.559436 H          1 MOL1         0.0741
@<TRIPOS>BOND
    1     1     2    1
    2     1     3    2
    3     1     4    1
    4     4     5    1
    5     4     6    1
    6     4     7    1
    7     7     8    1
    8     7     9    1
    9     7    10    1
   10    10    11    1
   11    10    12    1
   12    10    13    1
   13    13    14    1
   14    13    15    1
   15    13    16    1
   16    16    17    1
   17    16    18    1
   18    16    19    1
@<TRIPOS>SUBSTRUCTURE
       1 MOL1            1 RESIDUE      1      MOL     
@<SCITEGIC>MOL_PROPERTY
VConf Rank
SciTegic.value.IntegerValue
720

@<SCITEGIC>MOL_PROPERTY
Conf_Id
SciTegic.value.IntegerValue
25

@<SCITEGIC>MOL_PROPERTY
Delta U+W
SciTegic.value.DoubleValue
2.065

@<SCITEGIC>MOL_PROPERTY
U+W
SciTegic.value.DoubleValue
-52.826

@<SCITEGIC>MOL_PROPERTY
Grad RMS
SciTegic.value.DoubleValue
0.000000

@<SCITEGIC>MOL_PROPERTY
U
SciTegic.value.DoubleValue
10.967

@<SCITEGIC>MOL_PROPERTY
W
SciTegic.value.DoubleValue
-63.794

@<SCITEGIC>MOL_PROPERTY
W(PB)
SciTegic.value.DoubleValue
-65.830

@<SCITEGIC>MOL_PROPERTY
W(SA)
SciTegic.value.DoubleValue
2.036

@<SCITEGIC>MOL_PROPERTY
Valence
SciTegic.value.DoubleValue
8.609

@<SCITEGIC>MOL_PROPERTY
Coulomb
SciTegic.value.DoubleValue
1.892

@<SCITEGIC>MOL_PROPERTY
VdW
SciTegic.value.DoubleValue
0.467

@<SCITEGIC>MOL_PROPERTY
VdW6
SciTegic.value.DoubleValue
-7.569

@<SCITEGIC>MOL_PROPERTY
VdW12
SciTegic.value.DoubleValue
8.036

@<SCITEGIC>MOL_PROPERTY
Bond
SciTegic.value.DoubleValue
0.170

@<SCITEGIC>MOL_PROPERTY
Angle
SciTegic.value.DoubleValue
3.195

@<SCITEGIC>MOL_PROPERTY
Pdih
SciTegic.value.DoubleValue
5.237

@<SCITEGIC>MOL_PROPERTY
Idih
SciTegic.value.DoubleValue
0.007

@<SCITEGIC>MOL_PROPERTY
Tether
SciTegic.value.DoubleValue
0.000

@<TRIPOS>MOLECULE
guest-7_confgen4.mol2 : confsearch ligand conformer 721
          19          18           1
SMALL
USER_CHARGES
 
@<TRIPOS>ATOM
       1    C1      21.368140   19.922432   24.272745 C.2        1 MOL1         0.6115
       2    O1      21.386732   21.119025   24.060454 O.co2      1 MOL1        -0.6776
       3    O2      22.371419   19.242033   24.358421 O.co2      1 MOL1        -0.6776
       4    C2      20.018359   19.249234   24.514367 C.3        1 MOL1        -0.2013
       5    H1      19.603895   19.705961   25.420592 H          1 MOL1         0.0727
       6    H2      20.184177   18.189851   24.744881 H          1 MOL1         0.0727
       7    C3      18.987957   19.393704   23.359150 C.3        1 MOL1        -0.1910
       8    H3      17.987042   19.211964   23.773344 H          1 MOL1         0.0729
       9    H4      18.979423   20.429427   22.992069 H          1 MOL1         0.0729
      10    C4      19.194375   18.413247   22.178145 C.3        1 MOL1        -0.1909
      11    H5      18.328636   18.498889   21.507197 H          1 MOL1         0.0729
      12    H6      19.194615   17.379897   22.551005 H          1 MOL1         0.0729
      13    C5      20.480486   18.671176   21.362688 C.3        1 MOL1        -0.1884
      14    H7      20.532396   19.730121   21.074009 H          1 MOL1         0.0729
      15    H8      21.364916   18.462154   21.977912 H          1 MOL1         0.0729
      16    C6      20.534563   17.790196   20.098256 C.3        1 MOL1        -0.2899
      17    H9      21.457684   17.979203   19.535079 H          1 MOL1         0.0741
      18    H10     20.510085   16.724603   20.361446 H          1 MOL1         0.0741
      19    H11     19.684645   17.999933   19.435710 H          1 MOL1         0.0741
@<TRIPOS>BOND
    1     1     2    1
    2     1     3    2
    3     1     4    1
    4     4     5    1
    5     4     6    1
    6     4     7    1
    7     7     8    1
    8     7     9    1
    9     7    10    1
   10    10    11    1
   11    10    12    1
   12    10    13    1
   13    13    14    1
   14    13    15    1
   15    13    16    1
   16    16    17    1
   17    16    18    1
   18    16    19    1
@<TRIPOS>SUBSTRUCTURE
       1 MOL1            1 RESIDUE      1      MOL     
@<SCITEGIC>MOL_PROPERTY
VConf Rank
SciTegic.value.IntegerValue
721

@<SCITEGIC>MOL_PROPERTY
Conf_Id
SciTegic.value.IntegerValue
52

@<SCITEGIC>MOL_PROPERTY
Delta U+W
SciTegic.value.DoubleValue
2.070

@<SCITEGIC>MOL_PROPERTY
U+W
SciTegic.value.DoubleValue
-52.822

@<SCITEGIC>MOL_PROPERTY
Grad RMS
SciTegic.value.DoubleValue
0.000000

@<SCITEGIC>MOL_PROPERTY
U
SciTegic.value.DoubleValue
10.967

@<SCITEGIC>MOL_PROPERTY
W
SciTegic.value.DoubleValue
-63.789

@<SCITEGIC>MOL_PROPERTY
W(PB)
SciTegic.value.DoubleValue
-65.837

@<SCITEGIC>MOL_PROPERTY
W(SA)
SciTegic.value.DoubleValue
2.048

@<SCITEGIC>MOL_PROPERTY
Valence
SciTegic.value.DoubleValue
8.609

@<SCITEGIC>MOL_PROPERTY
Coulomb
SciTegic.value.DoubleValue
1.892

@<SCITEGIC>MOL_PROPERTY
VdW
SciTegic.value.DoubleValue
0.467

@<SCITEGIC>MOL_PROPERTY
VdW6
SciTegic.value.DoubleValue
-7.569

@<SCITEGIC>MOL_PROPERTY
VdW12
SciTegic.value.DoubleValue
8.035

@<SCITEGIC>MOL_PROPERTY
Bond
SciTegic.value.DoubleValue
0.170

@<SCITEGIC>MOL_PROPERTY
Angle
SciTegic.value.DoubleValue
3.196

@<SCITEGIC>MOL_PROPERTY
Pdih
SciTegic.value.DoubleValue
5.237

@<SCITEGIC>MOL_PROPERTY
Idih
SciTegic.value.DoubleValue
0.007

@<SCITEGIC>MOL_PROPERTY
Tether
SciTegic.value.DoubleValue
0.000

@<TRIPOS>MOLECULE
guest-7_confgen4.mol2 : confsearch ligand conformer 722
          19          18           1
SMALL
USER_CHARGES
 
@<TRIPOS>ATOM
       1    C1      19.242051   16.832209   22.822744 C.2        1 MOL1         0.6115
       2    O1      18.041468   16.812896   23.013387 O.co2      1 MOL1        -0.6776
       3    O2      19.789874   16.169158   21.964285 O.co2      1 MOL1        -0.6776
       4    C2      20.125618   17.627696   23.784976 C.3        1 MOL1        -0.2013
       5    H1      21.146414   17.663761   23.385961 H          1 MOL1         0.0727
       6    H2      20.172300   17.039997   24.708938 H          1 MOL1         0.0727
       7    C3      19.631572   19.062360   24.127072 C.3        1 MOL1        -0.1910
       8    H3      18.542094   19.060359   24.269600 H          1 MOL1         0.0729
       9    H4      20.057905   19.342739   25.099689 H          1 MOL1         0.0729
      10    C4      20.028904   20.162705   23.109946 C.3        1 MOL1        -0.1909
      11    H5      21.123172   20.233617   23.042221 H          1 MOL1         0.0729
      12    H6      19.695105   21.125902   23.519576 H          1 MOL1         0.0729
      13    C5      19.412000   20.003242   21.699276 C.3        1 MOL1        -0.1884
      14    H7      18.504075   19.386004   21.744500 H          1 MOL1         0.0729
      15    H8      19.090868   20.990281   21.339033 H          1 MOL1         0.0729
      16    C6      20.407685   19.418995   20.674391 C.3        1 MOL1        -0.2899
      17    H9      21.273787   20.081559   20.548644 H          1 MOL1         0.0741
      18    H10     20.776559   18.435516   20.988128 H          1 MOL1         0.0741
      19    H11     19.927280   19.301231   19.694615 H          1 MOL1         0.0741
@<TRIPOS>BOND
    1     1     2    1
    2     1     3    2
    3     1     4    1
    4     4     5    1
    5     4     6    1
    6     4     7    1
    7     7     8    1
    8     7     9    1
    9     7    10    1
   10    10    11    1
   11    10    12    1
   12    10    13    1
   13    13    14    1
   14    13    15    1
   15    13    16    1
   16    16    17    1
   17    16    18    1
   18    16    19    1
@<TRIPOS>SUBSTRUCTURE
       1 MOL1            1 RESIDUE      1      MOL     
@<SCITEGIC>MOL_PROPERTY
VConf Rank
SciTegic.value.IntegerValue
722

@<SCITEGIC>MOL_PROPERTY
Conf_Id
SciTegic.value.IntegerValue
66

@<SCITEGIC>MOL_PROPERTY
Delta U+W
SciTegic.value.DoubleValue
5.819

@<SCITEGIC>MOL_PROPERTY
U+W
SciTegic.value.DoubleValue
-49.072

@<SCITEGIC>MOL_PROPERTY
Grad RMS
SciTegic.value.DoubleValue
0.000000

@<SCITEGIC>MOL_PROPERTY
U
SciTegic.value.DoubleValue
15.324

@<SCITEGIC>MOL_PROPERTY
W
SciTegic.value.DoubleValue
-64.396

@<SCITEGIC>MOL_PROPERTY
W(PB)
SciTegic.value.DoubleValue
-66.382

@<SCITEGIC>MOL_PROPERTY
W(SA)
SciTegic.value.DoubleValue
1.986

@<SCITEGIC>MOL_PROPERTY
Valence
SciTegic.value.DoubleValue
11.748

@<SCITEGIC>MOL_PROPERTY
Coulomb
SciTegic.value.DoubleValue
3.201

@<SCITEGIC>MOL_PROPERTY
VdW
SciTegic.value.DoubleValue
0.375

@<SCITEGIC>MOL_PROPERTY
VdW6
SciTegic.value.DoubleValue
-8.854

@<SCITEGIC>MOL_PROPERTY
VdW12
SciTegic.value.DoubleValue
9.229

@<SCITEGIC>MOL_PROPERTY
Bond
SciTegic.value.DoubleValue
0.216

@<SCITEGIC>MOL_PROPERTY
Angle
SciTegic.value.DoubleValue
3.812

@<SCITEGIC>MOL_PROPERTY
Pdih
SciTegic.value.DoubleValue
7.699

@<SCITEGIC>MOL_PROPERTY
Idih
SciTegic.value.DoubleValue
0.022

@<SCITEGIC>MOL_PROPERTY
Tether
SciTegic.value.DoubleValue
0.000

@<TRIPOS>MOLECULE
guest-7_confgen4.mol2 : confsearch ligand conformer 723
          19          18           1
SMALL
USER_CHARGES
 
@<TRIPOS>ATOM
       1    C1      22.271685   16.401339   22.520888 C.2        1 MOL1         0.6115
       2    O1      22.345766   15.210355   22.748331 O.co2      1 MOL1        -0.6776
       3    O2      23.247302   17.105036   22.344462 O.co2      1 MOL1        -0.6776
       4    C2      20.871810   17.014811   22.460216 C.3        1 MOL1        -0.2013
       5    H1      20.382167   16.808002   23.419137 H          1 MOL1         0.0727
       6    H2      20.310356   16.473107   21.689907 H          1 MOL1         0.0727
       7    C3      20.827610   18.538136   22.167026 C.3        1 MOL1        -0.1910
       8    H3      21.396696   19.074485   22.938996 H          1 MOL1         0.0729
       9    H4      21.324858   18.739241   21.207979 H          1 MOL1         0.0729
      10    C4      19.379633   19.072680   22.123597 C.3        1 MOL1        -0.1909
      11    H5      18.884360   18.870423   23.083257 H          1 MOL1         0.0729
      12    H6      18.812491   18.535047   21.351294 H          1 MOL1         0.0729
      13    C5      19.337941   20.587165   21.832065 C.3        1 MOL1        -0.1884
      14    H7      19.902679   21.128751   22.603587 H          1 MOL1         0.0729
      15    H8      19.830707   20.793403   20.871783 H          1 MOL1         0.0729
      16    C6      17.890870   21.117414   21.789531 C.3        1 MOL1        -0.2899
      17    H9      17.383713   20.952410   22.749212 H          1 MOL1         0.0741
      18    H10     17.879828   22.195198   21.581277 H          1 MOL1         0.0741
      19    H11     17.311183   20.614518   21.004369 H          1 MOL1         0.0741
@<TRIPOS>BOND
    1     1     2    1
    2     1     3    2
    3     1     4    1
    4     4     5    1
    5     4     6    1
    6     4     7    1
    7     7     8    1
    8     7     9    1
    9     7    10    1
   10    10    11    1
   11    10    12    1
   12    10    13    1
   13    13    14    1
   14    13    15    1
   15    13    16    1
   16    16    17    1
   17    16    18    1
   18    16    19    1
@<TRIPOS>SUBSTRUCTURE
       1 MOL1            1 RESIDUE      1      MOL     
@<SCITEGIC>MOL_PROPERTY
VConf Rank
SciTegic.value.IntegerValue
723

@<SCITEGIC>MOL_PROPERTY
Conf_Id
SciTegic.value.IntegerValue
0

@<SCITEGIC>MOL_PROPERTY
Delta U+W
SciTegic.value.DoubleValue
0.000

@<SCITEGIC>MOL_PROPERTY
U+W
SciTegic.value.DoubleValue
-54.891

@<SCITEGIC>MOL_PROPERTY
Grad RMS
SciTegic.value.DoubleValue
0.000000

@<SCITEGIC>MOL_PROPERTY
U
SciTegic.value.DoubleValue
6.966

@<SCITEGIC>MOL_PROPERTY
W
SciTegic.value.DoubleValue
-61.857

@<SCITEGIC>MOL_PROPERTY
W(PB)
SciTegic.value.DoubleValue
-63.965

@<SCITEGIC>MOL_PROPERTY
W(SA)
SciTegic.value.DoubleValue
2.108

@<SCITEGIC>MOL_PROPERTY
Valence
SciTegic.value.DoubleValue
7.175

@<SCITEGIC>MOL_PROPERTY
Coulomb
SciTegic.value.DoubleValue
-1.360

@<SCITEGIC>MOL_PROPERTY
VdW
SciTegic.value.DoubleValue
1.151

@<SCITEGIC>MOL_PROPERTY
VdW6
SciTegic.value.DoubleValue
-5.641

@<SCITEGIC>MOL_PROPERTY
VdW12
SciTegic.value.DoubleValue
6.792

@<SCITEGIC>MOL_PROPERTY
Bond
SciTegic.value.DoubleValue
0.119

@<SCITEGIC>MOL_PROPERTY
Angle
SciTegic.value.DoubleValue
2.715

@<SCITEGIC>MOL_PROPERTY
Pdih
SciTegic.value.DoubleValue
4.340

@<SCITEGIC>MOL_PROPERTY
Idih
SciTegic.value.DoubleValue
0.000

@<SCITEGIC>MOL_PROPERTY
Tether
SciTegic.value.DoubleValue
0.000

@<TRIPOS>MOLECULE
guest-7_confgen4.mol2 : confsearch ligand conformer 724
          19          18           1
SMALL
USER_CHARGES
 
@<TRIPOS>ATOM
       1    C1      22.886626   17.456784   22.881558 C.2        1 MOL1         0.6115
       2    O1      23.325659   16.724751   22.016944 O.co2      1 MOL1        -0.6776
       3    O2      23.586586   18.074137   23.659448 O.co2      1 MOL1        -0.6776
       4    C2      21.374833   17.625942   22.982741 C.3        1 MOL1        -0.2013
       5    H1      21.120310   17.793468   24.036256 H          1 MOL1         0.0727
       6    H2      20.905257   16.681551   22.682129 H          1 MOL1         0.0727
       7    C3      20.839509   18.789515   22.112316 C.3        1 MOL1        -0.1910
       8    H3      21.328418   19.725278   22.417054 H          1 MOL1         0.0729
       9    H4      21.113509   18.613359   21.062820 H          1 MOL1         0.0729
      10    C4      19.307597   18.939391   22.232360 C.3        1 MOL1        -0.1909
      11    H5      19.036787   19.113999   23.282772 H          1 MOL1         0.0729
      12    H6      18.821850   18.001970   21.928247 H          1 MOL1         0.0729
      13    C5      18.777122   20.099304   21.364276 C.3        1 MOL1        -0.1884
      14    H7      19.259333   21.039233   21.666765 H          1 MOL1         0.0729
      15    H8      19.044334   19.927281   20.312373 H          1 MOL1         0.0729
      16    C6      17.247272   20.246106   21.486608 C.3        1 MOL1        -0.2899
      17    H9      16.887162   21.074938   20.863337 H          1 MOL1         0.0741
      18    H10     16.737438   19.330172   21.160175 H          1 MOL1         0.0741
      19    H11     16.954055   20.450421   22.524732 H          1 MOL1         0.0741
@<TRIPOS>BOND
    1     1     2    1
    2     1     3    2
    3     1     4    1
    4     4     5    1
    5     4     6    1
    6     4     7    1
    7     7     8    1
    8     7     9    1
    9     7    10    1
   10    10    11    1
   11    10    12    1
   12    10    13    1
   13    13    14    1
   14    13    15    1
   15    13    16    1
   16    16    17    1
   17    16    18    1
   18    16    19    1
@<TRIPOS>SUBSTRUCTURE
       1 MOL1            1 RESIDUE      1      MOL     
@<SCITEGIC>MOL_PROPERTY
VConf Rank
SciTegic.value.IntegerValue
724

@<SCITEGIC>MOL_PROPERTY
Conf_Id
SciTegic.value.IntegerValue
18

@<SCITEGIC>MOL_PROPERTY
Delta U+W
SciTegic.value.DoubleValue
-1.199

@<SCITEGIC>MOL_PROPERTY
U+W
SciTegic.value.DoubleValue
-56.090

@<SCITEGIC>MOL_PROPERTY
Grad RMS
SciTegic.value.DoubleValue
0.000000

@<SCITEGIC>MOL_PROPERTY
U
SciTegic.value.DoubleValue
5.975

@<SCITEGIC>MOL_PROPERTY
W
SciTegic.value.DoubleValue
-62.066

@<SCITEGIC>MOL_PROPERTY
W(PB)
SciTegic.value.DoubleValue
-64.219

@<SCITEGIC>MOL_PROPERTY
W(SA)
SciTegic.value.DoubleValue
2.153

@<SCITEGIC>MOL_PROPERTY
Valence
SciTegic.value.DoubleValue
6.673

@<SCITEGIC>MOL_PROPERTY
Coulomb
SciTegic.value.DoubleValue
-1.307

@<SCITEGIC>MOL_PROPERTY
VdW
SciTegic.value.DoubleValue
0.610

@<SCITEGIC>MOL_PROPERTY
VdW6
SciTegic.value.DoubleValue
-5.351

@<SCITEGIC>MOL_PROPERTY
VdW12
SciTegic.value.DoubleValue
5.961

@<SCITEGIC>MOL_PROPERTY
Bond
SciTegic.value.DoubleValue
0.086

@<SCITEGIC>MOL_PROPERTY
Angle
SciTegic.value.DoubleValue
2.253

@<SCITEGIC>MOL_PROPERTY
Pdih
SciTegic.value.DoubleValue
4.333

@<SCITEGIC>MOL_PROPERTY
Idih
SciTegic.value.DoubleValue
0.001

@<SCITEGIC>MOL_PROPERTY
Tether
SciTegic.value.DoubleValue
0.000

@<TRIPOS>MOLECULE
guest-7_confgen4.mol2 : confsearch ligand conformer 725
          19          18           1
SMALL
USER_CHARGES
 
@<TRIPOS>ATOM
       1    C1      17.936637   20.524707   20.299056 C.2        1 MOL1         0.6115
       2    O1      17.161066   21.365029   20.709710 O.co2      1 MOL1        -0.6776
       3    O2      18.256604   20.418405   19.131759 O.co2      1 MOL1        -0.6776
       4    C2      18.558644   19.564817   21.307064 C.3        1 MOL1        -0.2013
       5    H1      18.716929   18.606054   20.800546 H          1 MOL1         0.0727
       6    H2      17.829835   19.393430   22.108296 H          1 MOL1         0.0727
       7    C3      19.889644   20.096277   21.899661 C.3        1 MOL1        -0.1910
       8    H3      20.625892   20.221859   21.093758 H          1 MOL1         0.0729
       9    H4      19.714290   21.097027   22.318198 H          1 MOL1         0.0729
      10    C4      20.477211   19.191378   23.008469 C.3        1 MOL1        -0.1909
      11    H5      19.742032   19.074754   23.816502 H          1 MOL1         0.0729
      12    H6      21.345648   19.699648   23.449483 H          1 MOL1         0.0729
      13    C5      20.915441   17.800291   22.498232 C.3        1 MOL1        -0.1884
      14    H7      20.046961   17.244134   22.121679 H          1 MOL1         0.0729
      15    H8      21.611837   17.916690   21.656359 H          1 MOL1         0.0729
      16    C6      21.592601   16.977471   23.612544 C.3        1 MOL1        -0.2899
      17    H9      21.895274   15.991790   23.235832 H          1 MOL1         0.0741
      18    H10     22.489957   17.486874   23.987571 H          1 MOL1         0.0741
      19    H11     20.908146   16.822223   24.456834 H          1 MOL1         0.0741
@<TRIPOS>BOND
    1     1     2    1
    2     1     3    2
    3     1     4    1
    4     4     5    1
    5     4     6    1
    6     4     7    1
    7     7     8    1
    8     7     9    1
    9     7    10    1
   10    10    11    1
   11    10    12    1
   12    10    13    1
   13    13    14    1
   14    13    15    1
   15    13    16    1
   16    16    17    1
   17    16    18    1
   18    16    19    1
@<TRIPOS>SUBSTRUCTURE
       1 MOL1            1 RESIDUE      1      MOL     
@<SCITEGIC>MOL_PROPERTY
VConf Rank
SciTegic.value.IntegerValue
725

@<SCITEGIC>MOL_PROPERTY
Conf_Id
SciTegic.value.IntegerValue
34

@<SCITEGIC>MOL_PROPERTY
Delta U+W
SciTegic.value.DoubleValue
-0.563

@<SCITEGIC>MOL_PROPERTY
U+W
SciTegic.value.DoubleValue
-55.455

@<SCITEGIC>MOL_PROPERTY
Grad RMS
SciTegic.value.DoubleValue
0.000000

@<SCITEGIC>MOL_PROPERTY
U
SciTegic.value.DoubleValue
6.914

@<SCITEGIC>MOL_PROPERTY
W
SciTegic.value.DoubleValue
-62.369

@<SCITEGIC>MOL_PROPERTY
W(PB)
SciTegic.value.DoubleValue
-64.446

@<SCITEGIC>MOL_PROPERTY
W(SA)
SciTegic.value.DoubleValue
2.077

@<SCITEGIC>MOL_PROPERTY
Valence
SciTegic.value.DoubleValue
7.196

@<SCITEGIC>MOL_PROPERTY
Coulomb
SciTegic.value.DoubleValue
-1.020

@<SCITEGIC>MOL_PROPERTY
VdW
SciTegic.value.DoubleValue
0.738

@<SCITEGIC>MOL_PROPERTY
VdW6
SciTegic.value.DoubleValue
-6.010

@<SCITEGIC>MOL_PROPERTY
VdW12
SciTegic.value.DoubleValue
6.748

@<SCITEGIC>MOL_PROPERTY
Bond
SciTegic.value.DoubleValue
0.126

@<SCITEGIC>MOL_PROPERTY
Angle
SciTegic.value.DoubleValue
2.499

@<SCITEGIC>MOL_PROPERTY
Pdih
SciTegic.value.DoubleValue
4.570

@<SCITEGIC>MOL_PROPERTY
Idih
SciTegic.value.DoubleValue
0.001

@<SCITEGIC>MOL_PROPERTY
Tether
SciTegic.value.DoubleValue
0.000

@<TRIPOS>MOLECULE
guest-7_confgen4.mol2 : confsearch ligand conformer 726
          19          18           1
SMALL
USER_CHARGES
 
@<TRIPOS>ATOM
       1    C1      17.445946   20.077802   23.795295 C.2        1 MOL1         0.6115
       2    O1      16.723388   19.394779   24.493635 O.co2      1 MOL1        -0.6776
       3    O2      17.131337   21.171549   23.369851 O.co2      1 MOL1        -0.6776
       4    C2      18.813576   19.522333   23.413984 C.3        1 MOL1        -0.2013
       5    H1      19.167590   18.893234   24.239466 H          1 MOL1         0.0727
       6    H2      19.505179   20.368157   23.329657 H          1 MOL1         0.0727
       7    C3      18.783794   18.706978   22.095086 C.3        1 MOL1        -0.1910
       8    H3      18.016534   17.925131   22.181400 H          1 MOL1         0.0729
       9    H4      18.470667   19.358721   21.267746 H          1 MOL1         0.0729
      10    C4      20.136005   18.038514   21.751274 C.3        1 MOL1        -0.1909
      11    H5      19.992116   17.391150   20.875357 H          1 MOL1         0.0729
      12    H6      20.442051   17.381114   22.576604 H          1 MOL1         0.0729
      13    C5      21.262404   19.051556   21.447160 C.3        1 MOL1        -0.1884
      14    H7      20.936836   19.741658   20.656569 H          1 MOL1         0.0729
      15    H8      21.475129   19.659580   22.336214 H          1 MOL1         0.0729
      16    C6      22.557117   18.340733   21.004765 C.3        1 MOL1        -0.2899
      17    H9      22.920700   17.663733   21.788911 H          1 MOL1         0.0741
      18    H10     22.390719   17.751886   20.093196 H          1 MOL1         0.0741
      19    H11     23.347960   19.072732   20.795400 H          1 MOL1         0.0741
@<TRIPOS>BOND
    1     1     2    1
    2     1     3    2
    3     1     4    1
    4     4     5    1
    5     4     6    1
    6     4     7    1
    7     7     8    1
    8     7     9    1
    9     7    10    1
   10    10    11    1
   11    10    12    1
   12    10    13    1
   13    13    14    1
   14    13    15    1
   15    13    16    1
   16    16    17    1
   17    16    18    1
   18    16    19    1
@<TRIPOS>SUBSTRUCTURE
       1 MOL1            1 RESIDUE      1      MOL     
@<SCITEGIC>MOL_PROPERTY
VConf Rank
SciTegic.value.IntegerValue
726

@<SCITEGIC>MOL_PROPERTY
Conf_Id
SciTegic.value.IntegerValue
33

@<SCITEGIC>MOL_PROPERTY
Delta U+W
SciTegic.value.DoubleValue
-0.526

@<SCITEGIC>MOL_PROPERTY
U+W
SciTegic.value.DoubleValue
-55.418

@<SCITEGIC>MOL_PROPERTY
Grad RMS
SciTegic.value.DoubleValue
0.000000

@<SCITEGIC>MOL_PROPERTY
U
SciTegic.value.DoubleValue
6.914

@<SCITEGIC>MOL_PROPERTY
W
SciTegic.value.DoubleValue
-62.332

@<SCITEGIC>MOL_PROPERTY
W(PB)
SciTegic.value.DoubleValue
-64.421

@<SCITEGIC>MOL_PROPERTY
W(SA)
SciTegic.value.DoubleValue
2.090

@<SCITEGIC>MOL_PROPERTY
Valence
SciTegic.value.DoubleValue
7.196

@<SCITEGIC>MOL_PROPERTY
Coulomb
SciTegic.value.DoubleValue
-1.020

@<SCITEGIC>MOL_PROPERTY
VdW
SciTegic.value.DoubleValue
0.738

@<SCITEGIC>MOL_PROPERTY
VdW6
SciTegic.value.DoubleValue
-6.010

@<SCITEGIC>MOL_PROPERTY
VdW12
SciTegic.value.DoubleValue
6.748

@<SCITEGIC>MOL_PROPERTY
Bond
SciTegic.value.DoubleValue
0.126

@<SCITEGIC>MOL_PROPERTY
Angle
SciTegic.value.DoubleValue
2.499

@<SCITEGIC>MOL_PROPERTY
Pdih
SciTegic.value.DoubleValue
4.570

@<SCITEGIC>MOL_PROPERTY
Idih
SciTegic.value.DoubleValue
0.001

@<SCITEGIC>MOL_PROPERTY
Tether
SciTegic.value.DoubleValue
0.000

@<TRIPOS>MOLECULE
guest-7_confgen4.mol2 : confsearch ligand conformer 727
          19          18           1
SMALL
USER_CHARGES
 
@<TRIPOS>ATOM
       1    C1      20.993902   17.926219   19.442916 C.2        1 MOL1         0.6115
       2    O1      21.896002   17.131938   19.620547 O.co2      1 MOL1        -0.6776
       3    O2      20.194693   17.843395   18.531517 O.co2      1 MOL1        -0.6776
       4    C2      20.845915   19.080484   20.427941 C.3        1 MOL1        -0.2013
       5    H1      20.448793   19.944961   19.882366 H          1 MOL1         0.0727
       6    H2      21.845948   19.354144   20.785390 H          1 MOL1         0.0727
       7    C3      19.926963   18.735785   21.625919 C.3        1 MOL1        -0.1910
       8    H3      18.932910   18.454897   21.251486 H          1 MOL1         0.0729
       9    H4      20.333755   17.857697   22.144669 H          1 MOL1         0.0729
      10    C4      19.797887   19.921876   22.609376 C.3        1 MOL1        -0.1909
      11    H5      19.458103   20.808807   22.057204 H          1 MOL1         0.0729
      12    H6      20.785516   20.170881   23.021192 H          1 MOL1         0.0729
      13    C5      18.807707   19.654920   23.766470 C.3        1 MOL1        -0.1884
      14    H7      18.685225   20.580210   24.346194 H          1 MOL1         0.0729
      15    H8      17.817063   19.410915   23.358531 H          1 MOL1         0.0729
      16    C6      19.269065   18.529955   24.718023 C.3        1 MOL1        -0.2899
      17    H9      20.270828   18.738062   25.115915 H          1 MOL1         0.0741
      18    H10     18.580040   18.439574   25.567739 H          1 MOL1         0.0741
      19    H11     19.295676   17.559093   24.207667 H          1 MOL1         0.0741
@<TRIPOS>BOND
    1     1     2    1
    2     1     3    2
    3     1     4    1
    4     4     5    1
    5     4     6    1
    6     4     7    1
    7     7     8    1
    8     7     9    1
    9     7    10    1
   10    10    11    1
   11    10    12    1
   12    10    13    1
   13    13    14    1
   14    13    15    1
   15    13    16    1
   16    16    17    1
   17    16    18    1
   18    16    19    1
@<TRIPOS>SUBSTRUCTURE
       1 MOL1            1 RESIDUE      1      MOL     
@<SCITEGIC>MOL_PROPERTY
VConf Rank
SciTegic.value.IntegerValue
727

@<SCITEGIC>MOL_PROPERTY
Conf_Id
SciTegic.value.IntegerValue
42

@<SCITEGIC>MOL_PROPERTY
Delta U+W
SciTegic.value.DoubleValue
-0.344

@<SCITEGIC>MOL_PROPERTY
U+W
SciTegic.value.DoubleValue
-55.236

@<SCITEGIC>MOL_PROPERTY
Grad RMS
SciTegic.value.DoubleValue
0.000000

@<SCITEGIC>MOL_PROPERTY
U
SciTegic.value.DoubleValue
7.244

@<SCITEGIC>MOL_PROPERTY
W
SciTegic.value.DoubleValue
-62.479

@<SCITEGIC>MOL_PROPERTY
W(PB)
SciTegic.value.DoubleValue
-64.610

@<SCITEGIC>MOL_PROPERTY
W(SA)
SciTegic.value.DoubleValue
2.130

@<SCITEGIC>MOL_PROPERTY
Valence
SciTegic.value.DoubleValue
7.174

@<SCITEGIC>MOL_PROPERTY
Coulomb
SciTegic.value.DoubleValue
-0.669

@<SCITEGIC>MOL_PROPERTY
VdW
SciTegic.value.DoubleValue
0.739

@<SCITEGIC>MOL_PROPERTY
VdW6
SciTegic.value.DoubleValue
-5.969

@<SCITEGIC>MOL_PROPERTY
VdW12
SciTegic.value.DoubleValue
6.708

@<SCITEGIC>MOL_PROPERTY
Bond
SciTegic.value.DoubleValue
0.116

@<SCITEGIC>MOL_PROPERTY
Angle
SciTegic.value.DoubleValue
2.481

@<SCITEGIC>MOL_PROPERTY
Pdih
SciTegic.value.DoubleValue
4.576

@<SCITEGIC>MOL_PROPERTY
Idih
SciTegic.value.DoubleValue
0.000

@<SCITEGIC>MOL_PROPERTY
Tether
SciTegic.value.DoubleValue
0.000

@<TRIPOS>MOLECULE
guest-7_confgen4.mol2 : confsearch ligand conformer 728
          19          18           1
SMALL
USER_CHARGES
 
@<TRIPOS>ATOM
       1    C1      20.149446   16.558624   24.324932 C.2        1 MOL1         0.6115
       2    O1      19.979159   16.989783   25.448019 O.co2      1 MOL1        -0.6776
       3    O2      20.879317   15.621954   24.067668 O.co2      1 MOL1        -0.6776
       4    C2      19.421389   17.241997   23.172789 C.3        1 MOL1        -0.2013
       5    H1      18.462126   17.616642   23.549860 H          1 MOL1         0.0727
       6    H2      19.197216   16.482986   22.413626 H          1 MOL1         0.0727
       7    C3      20.237526   18.399858   22.546912 C.3        1 MOL1        -0.1910
       8    H3      20.465692   19.136704   23.328333 H          1 MOL1         0.0729
       9    H4      21.198407   18.010861   22.182731 H          1 MOL1         0.0729
      10    C4      19.474482   19.076357   21.384685 C.3        1 MOL1        -0.1909
      11    H5      18.536296   19.508308   21.759162 H          1 MOL1         0.0729
      12    H6      19.192926   18.311071   20.648441 H          1 MOL1         0.0729
      13    C5      20.296481   20.170627   20.665323 C.3        1 MOL1        -0.1884
      14    H7      21.233311   19.741032   20.284371 H          1 MOL1         0.0729
      15    H8      19.733073   20.514521   19.786942 H          1 MOL1         0.0729
      16    C6      20.610064   21.387746   21.562061 C.3        1 MOL1        -0.2899
      17    H9      21.269550   21.112830   22.394673 H          1 MOL1         0.0741
      18    H10     21.115764   22.171009   20.982657 H          1 MOL1         0.0741
      19    H11     19.689293   21.816646   21.978452 H          1 MOL1         0.0741
@<TRIPOS>BOND
    1     1     2    1
    2     1     3    2
    3     1     4    1
    4     4     5    1
    5     4     6    1
    6     4     7    1
    7     7     8    1
    8     7     9    1
    9     7    10    1
   10    10    11    1
   11    10    12    1
   12    10    13    1
   13    13    14    1
   14    13    15    1
   15    13    16    1
   16    16    17    1
   17    16    18    1
   18    16    19    1
@<TRIPOS>SUBSTRUCTURE
       1 MOL1            1 RESIDUE      1      MOL     
@<SCITEGIC>MOL_PROPERTY
VConf Rank
SciTegic.value.IntegerValue
728

@<SCITEGIC>MOL_PROPERTY
Conf_Id
SciTegic.value.IntegerValue
41

@<SCITEGIC>MOL_PROPERTY
Delta U+W
SciTegic.value.DoubleValue
-0.361

@<SCITEGIC>MOL_PROPERTY
U+W
SciTegic.value.DoubleValue
-55.252

@<SCITEGIC>MOL_PROPERTY
Grad RMS
SciTegic.value.DoubleValue
0.000000

@<SCITEGIC>MOL_PROPERTY
U
SciTegic.value.DoubleValue
7.244

@<SCITEGIC>MOL_PROPERTY
W
SciTegic.value.DoubleValue
-62.496

@<SCITEGIC>MOL_PROPERTY
W(PB)
SciTegic.value.DoubleValue
-64.596

@<SCITEGIC>MOL_PROPERTY
W(SA)
SciTegic.value.DoubleValue
2.099

@<SCITEGIC>MOL_PROPERTY
Valence
SciTegic.value.DoubleValue
7.174

@<SCITEGIC>MOL_PROPERTY
Coulomb
SciTegic.value.DoubleValue
-0.669

@<SCITEGIC>MOL_PROPERTY
VdW
SciTegic.value.DoubleValue
0.739

@<SCITEGIC>MOL_PROPERTY
VdW6
SciTegic.value.DoubleValue
-5.969

@<SCITEGIC>MOL_PROPERTY
VdW12
SciTegic.value.DoubleValue
6.708

@<SCITEGIC>MOL_PROPERTY
Bond
SciTegic.value.DoubleValue
0.116

@<SCITEGIC>MOL_PROPERTY
Angle
SciTegic.value.DoubleValue
2.481

@<SCITEGIC>MOL_PROPERTY
Pdih
SciTegic.value.DoubleValue
4.576

@<SCITEGIC>MOL_PROPERTY
Idih
SciTegic.value.DoubleValue
0.000

@<SCITEGIC>MOL_PROPERTY
Tether
SciTegic.value.DoubleValue
0.000

@<TRIPOS>MOLECULE
guest-7_confgen4.mol2 : confsearch ligand conformer 729
          19          18           1
SMALL
USER_CHARGES
 
@<TRIPOS>ATOM
       1    C1      19.395028   20.536413   19.975666 C.2        1 MOL1         0.6115
       2    O1      18.403855   19.983842   19.541163 O.co2      1 MOL1        -0.6776
       3    O2      19.479862   21.738480   20.132246 O.co2      1 MOL1        -0.6776
       4    C2      20.608308   19.678339   20.323527 C.3        1 MOL1        -0.2013
       5    H1      21.489984   20.166858   19.892124 H          1 MOL1         0.0727
       6    H2      20.506379   18.707885   19.822713 H          1 MOL1         0.0727
       7    C3      20.822328   19.475011   21.846006 C.3        1 MOL1        -0.1910
       8    H3      21.784470   18.969881   22.006194 H          1 MOL1         0.0729
       9    H4      20.893930   20.455270   22.337532 H          1 MOL1         0.0729
      10    C4      19.695583   18.643271   22.498665 C.3        1 MOL1        -0.1909
      11    H5      19.619343   17.669634   21.995426 H          1 MOL1         0.0729
      12    H6      18.731301   19.150859   22.357463 H          1 MOL1         0.0729
      13    C5      19.945034   18.426901   24.005836 C.3        1 MOL1        -0.1884
      14    H7      20.906484   17.915655   24.153051 H          1 MOL1         0.0729
      15    H8      20.019310   19.399335   24.512125 H          1 MOL1         0.0729
      16    C6      18.819214   17.596673   24.654083 C.3        1 MOL1        -0.2899
      17    H9      18.743219   16.605912   24.187154 H          1 MOL1         0.0741
      18    H10     19.012157   17.452835   25.725143 H          1 MOL1         0.0741
      19    H11     17.849429   18.100555   24.548898 H          1 MOL1         0.0741
@<TRIPOS>BOND
    1     1     2    1
    2     1     3    2
    3     1     4    1
    4     4     5    1
    5     4     6    1
    6     4     7    1
    7     7     8    1
    8     7     9    1
    9     7    10    1
   10    10    11    1
   11    10    12    1
   12    10    13    1
   13    13    14    1
   14    13    15    1
   15    13    16    1
   16    16    17    1
   17    16    18    1
   18    16    19    1
@<TRIPOS>SUBSTRUCTURE
       1 MOL1            1 RESIDUE      1      MOL     
@<SCITEGIC>MOL_PROPERTY
VConf Rank
SciTegic.value.IntegerValue
729

@<SCITEGIC>MOL_PROPERTY
Conf_Id
SciTegic.value.IntegerValue
36

@<SCITEGIC>MOL_PROPERTY
Delta U+W
SciTegic.value.DoubleValue
-0.079

@<SCITEGIC>MOL_PROPERTY
U+W
SciTegic.value.DoubleValue
-54.971

@<SCITEGIC>MOL_PROPERTY
Grad RMS
SciTegic.value.DoubleValue
0.000000

@<SCITEGIC>MOL_PROPERTY
U
SciTegic.value.DoubleValue
8.266

@<SCITEGIC>MOL_PROPERTY
W
SciTegic.value.DoubleValue
-63.237

@<SCITEGIC>MOL_PROPERTY
W(PB)
SciTegic.value.DoubleValue
-65.340

@<SCITEGIC>MOL_PROPERTY
W(SA)
SciTegic.value.DoubleValue
2.103

@<SCITEGIC>MOL_PROPERTY
Valence
SciTegic.value.DoubleValue
6.935

@<SCITEGIC>MOL_PROPERTY
Coulomb
SciTegic.value.DoubleValue
0.874

@<SCITEGIC>MOL_PROPERTY
VdW
SciTegic.value.DoubleValue
0.457

@<SCITEGIC>MOL_PROPERTY
VdW6
SciTegic.value.DoubleValue
-6.205

@<SCITEGIC>MOL_PROPERTY
VdW12
SciTegic.value.DoubleValue
6.662

@<SCITEGIC>MOL_PROPERTY
Bond
SciTegic.value.DoubleValue
0.107

@<SCITEGIC>MOL_PROPERTY
Angle
SciTegic.value.DoubleValue
2.420

@<SCITEGIC>MOL_PROPERTY
Pdih
SciTegic.value.DoubleValue
4.407

@<SCITEGIC>MOL_PROPERTY
Idih
SciTegic.value.DoubleValue
0.001

@<SCITEGIC>MOL_PROPERTY
Tether
SciTegic.value.DoubleValue
0.000

@<TRIPOS>MOLECULE
guest-7_confgen4.mol2 : confsearch ligand conformer 730
          19          18           1
SMALL
USER_CHARGES
 
@<TRIPOS>ATOM
       1    C1      21.446671   20.870133   20.661639 C.2        1 MOL1         0.6115
       2    O1      20.514073   21.198404   19.955203 O.co2      1 MOL1        -0.6776
       3    O2      22.525530   20.516315   20.228560 O.co2      1 MOL1        -0.6776
       4    C2      21.262232   20.924944   22.175681 C.3        1 MOL1        -0.2013
       5    H1      20.400263   21.564735   22.400766 H          1 MOL1         0.0727
       6    H2      22.144557   21.422127   22.595707 H          1 MOL1         0.0727
       7    C3      21.085462   19.535275   22.841012 C.3        1 MOL1        -0.1910
       8    H3      21.941937   18.896815   22.583231 H          1 MOL1         0.0729
       9    H4      21.099947   19.658377   23.932420 H          1 MOL1         0.0729
      10    C4      19.770103   18.839917   22.424336 C.3        1 MOL1        -0.1909
      11    H5      19.755449   18.697665   21.334853 H          1 MOL1         0.0729
      12    H6      18.917956   19.487578   22.672145 H          1 MOL1         0.0729
      13    C5      19.600128   17.474205   23.121863 C.3        1 MOL1        -0.1884
      14    H7      20.450089   16.823456   22.873736 H          1 MOL1         0.0729
      15    H8      19.609765   17.610775   24.212132 H          1 MOL1         0.0729
      16    C6      18.286864   16.782994   22.704075 C.3        1 MOL1        -0.2899
      17    H9      18.263932   16.605654   21.620808 H          1 MOL1         0.0741
      18    H10     18.182315   15.813665   23.208613 H          1 MOL1         0.0741
      19    H11     17.417412   17.398782   22.969148 H          1 MOL1         0.0741
@<TRIPOS>BOND
    1     1     2    1
    2     1     3    2
    3     1     4    1
    4     4     5    1
    5     4     6    1
    6     4     7    1
    7     7     8    1
    8     7     9    1
    9     7    10    1
   10    10    11    1
   11    10    12    1
   12    10    13    1
   13    13    14    1
   14    13    15    1
   15    13    16    1
   16    16    17    1
   17    16    18    1
   18    16    19    1
@<TRIPOS>SUBSTRUCTURE
       1 MOL1            1 RESIDUE      1      MOL     
@<SCITEGIC>MOL_PROPERTY
VConf Rank
SciTegic.value.IntegerValue
730

@<SCITEGIC>MOL_PROPERTY
Conf_Id
SciTegic.value.IntegerValue
35

@<SCITEGIC>MOL_PROPERTY
Delta U+W
SciTegic.value.DoubleValue
-0.030

@<SCITEGIC>MOL_PROPERTY
U+W
SciTegic.value.DoubleValue
-54.921

@<SCITEGIC>MOL_PROPERTY
Grad RMS
SciTegic.value.DoubleValue
0.000000

@<SCITEGIC>MOL_PROPERTY
U
SciTegic.value.DoubleValue
8.267

@<SCITEGIC>MOL_PROPERTY
W
SciTegic.value.DoubleValue
-63.188

@<SCITEGIC>MOL_PROPERTY
W(PB)
SciTegic.value.DoubleValue
-65.294

@<SCITEGIC>MOL_PROPERTY
W(SA)
SciTegic.value.DoubleValue
2.106

@<SCITEGIC>MOL_PROPERTY
Valence
SciTegic.value.DoubleValue
6.935

@<SCITEGIC>MOL_PROPERTY
Coulomb
SciTegic.value.DoubleValue
0.875

@<SCITEGIC>MOL_PROPERTY
VdW
SciTegic.value.DoubleValue
0.457

@<SCITEGIC>MOL_PROPERTY
VdW6
SciTegic.value.DoubleValue
-6.205

@<SCITEGIC>MOL_PROPERTY
VdW12
SciTegic.value.DoubleValue
6.662

@<SCITEGIC>MOL_PROPERTY
Bond
SciTegic.value.DoubleValue
0.107

@<SCITEGIC>MOL_PROPERTY
Angle
SciTegic.value.DoubleValue
2.420

@<SCITEGIC>MOL_PROPERTY
Pdih
SciTegic.value.DoubleValue
4.407

@<SCITEGIC>MOL_PROPERTY
Idih
SciTegic.value.DoubleValue
0.001

@<SCITEGIC>MOL_PROPERTY
Tether
SciTegic.value.DoubleValue
0.000

@<TRIPOS>MOLECULE
guest-7_confgen4.mol2 : confsearch ligand conformer 731
          19          18           1
SMALL
USER_CHARGES
 
@<TRIPOS>ATOM
       1    C1      18.733256   17.047887   20.467192 C.2        1 MOL1         0.6115
       2    O1      18.528572   15.949970   20.946141 O.co2      1 MOL1        -0.6776
       3    O2      19.219625   17.220661   19.367084 O.co2      1 MOL1        -0.6776
       4    C2      18.337221   18.274610   21.284374 C.3        1 MOL1        -0.2013
       5    H1      17.331564   18.092521   21.681352 H          1 MOL1         0.0727
       6    H2      18.260763   19.135898   20.609618 H          1 MOL1         0.0727
       7    C3      19.304288   18.595528   22.453782 C.3        1 MOL1        -0.1910
       8    H3      18.857585   19.388177   23.067391 H          1 MOL1         0.0729
       9    H4      19.401473   17.711261   23.098729 H          1 MOL1         0.0729
      10    C4      20.701933   19.043065   21.962882 C.3        1 MOL1        -0.1909
      11    H5      20.606401   19.949596   21.349781 H          1 MOL1         0.0729
      12    H6      21.119173   18.267612   21.305912 H          1 MOL1         0.0729
      13    C5      21.703913   19.298620   23.112472 C.3        1 MOL1        -0.1884
      14    H7      21.803172   18.392742   23.726347 H          1 MOL1         0.0729
      15    H8      22.695339   19.489831   22.679188 H          1 MOL1         0.0729
      16    C6      21.315231   20.494156   24.008930 C.3        1 MOL1        -0.2899
      17    H9      20.385003   20.298928   24.556821 H          1 MOL1         0.0741
      18    H10     22.101555   20.689755   24.749451 H          1 MOL1         0.0741
      19    H11     21.179363   21.405235   23.411751 H          1 MOL1         0.0741
@<TRIPOS>BOND
    1     1     2    1
    2     1     3    2
    3     1     4    1
    4     4     5    1
    5     4     6    1
    6     4     7    1
    7     7     8    1
    8     7     9    1
    9     7    10    1
   10    10    11    1
   11    10    12    1
   12    10    13    1
   13    13    14    1
   14    13    15    1
   15    13    16    1
   16    16    17    1
   17    16    18    1
   18    16    19    1
@<TRIPOS>SUBSTRUCTURE
       1 MOL1            1 RESIDUE      1      MOL     
@<SCITEGIC>MOL_PROPERTY
VConf Rank
SciTegic.value.IntegerValue
731

@<SCITEGIC>MOL_PROPERTY
Conf_Id
SciTegic.value.IntegerValue
74

@<SCITEGIC>MOL_PROPERTY
Delta U+W
SciTegic.value.DoubleValue
0.797

@<SCITEGIC>MOL_PROPERTY
U+W
SciTegic.value.DoubleValue
-54.095

@<SCITEGIC>MOL_PROPERTY
Grad RMS
SciTegic.value.DoubleValue
0.000000

@<SCITEGIC>MOL_PROPERTY
U
SciTegic.value.DoubleValue
8.869

@<SCITEGIC>MOL_PROPERTY
W
SciTegic.value.DoubleValue
-62.964

@<SCITEGIC>MOL_PROPERTY
W(PB)
SciTegic.value.DoubleValue
-65.046

@<SCITEGIC>MOL_PROPERTY
W(SA)
SciTegic.value.DoubleValue
2.082

@<SCITEGIC>MOL_PROPERTY
Valence
SciTegic.value.DoubleValue
7.469

@<SCITEGIC>MOL_PROPERTY
Coulomb
SciTegic.value.DoubleValue
0.762

@<SCITEGIC>MOL_PROPERTY
VdW
SciTegic.value.DoubleValue
0.639

@<SCITEGIC>MOL_PROPERTY
VdW6
SciTegic.value.DoubleValue
-6.782

@<SCITEGIC>MOL_PROPERTY
VdW12
SciTegic.value.DoubleValue
7.421

@<SCITEGIC>MOL_PROPERTY
Bond
SciTegic.value.DoubleValue
0.141

@<SCITEGIC>MOL_PROPERTY
Angle
SciTegic.value.DoubleValue
2.667

@<SCITEGIC>MOL_PROPERTY
Pdih
SciTegic.value.DoubleValue
4.660

@<SCITEGIC>MOL_PROPERTY
Idih
SciTegic.value.DoubleValue
0.001

@<SCITEGIC>MOL_PROPERTY
Tether
SciTegic.value.DoubleValue
0.000

@<TRIPOS>MOLECULE
guest-7_confgen4.mol2 : confsearch ligand conformer 732
          19          18           1
SMALL
USER_CHARGES
 
@<TRIPOS>ATOM
       1    C1      19.818717   20.688715   19.962395 C.2        1 MOL1         0.6115
       2    O1      18.866187   20.938007   19.250382 O.co2      1 MOL1        -0.6776
       3    O2      20.782893   21.419435   20.075246 O.co2      1 MOL1        -0.6776
       4    C2      19.793629   19.397483   20.772523 C.3        1 MOL1        -0.2013
       5    H1      20.826309   19.042895   20.867384 H          1 MOL1         0.0727
       6    H2      19.241661   18.644581   20.197348 H          1 MOL1         0.0727
       7    C3      19.150715   19.578785   22.171945 C.3        1 MOL1        -0.1910
       8    H3      19.733613   20.306108   22.752471 H          1 MOL1         0.0729
       9    H4      18.152519   20.020483   22.046623 H          1 MOL1         0.0729
      10    C4      19.007868   18.254835   22.964081 C.3        1 MOL1        -0.1909
      11    H5      18.337960   17.580961   22.412800 H          1 MOL1         0.0729
      12    H6      18.506217   18.467208   23.918034 H          1 MOL1         0.0729
      13    C5      20.335474   17.511438   23.251698 C.3        1 MOL1        -0.1884
      14    H7      20.106910   16.587830   23.801049 H          1 MOL1         0.0729
      15    H8      20.805096   17.195901   22.310687 H          1 MOL1         0.0729
      16    C6      21.336723   18.345974   24.079010 C.3        1 MOL1        -0.2899
      17    H9      20.880357   18.691951   25.015525 H          1 MOL1         0.0741
      18    H10     22.219225   17.745138   24.333965 H          1 MOL1         0.0741
      19    H11     21.682713   19.223837   23.518730 H          1 MOL1         0.0741
@<TRIPOS>BOND
    1     1     2    1
    2     1     3    2
    3     1     4    1
    4     4     5    1
    5     4     6    1
    6     4     7    1
    7     7     8    1
    8     7     9    1
    9     7    10    1
   10    10    11    1
   11    10    12    1
   12    10    13    1
   13    13    14    1
   14    13    15    1
   15    13    16    1
   16    16    17    1
   17    16    18    1
   18    16    19    1
@<TRIPOS>SUBSTRUCTURE
       1 MOL1            1 RESIDUE      1      MOL     
@<SCITEGIC>MOL_PROPERTY
VConf Rank
SciTegic.value.IntegerValue
732

@<SCITEGIC>MOL_PROPERTY
Conf_Id
SciTegic.value.IntegerValue
67

@<SCITEGIC>MOL_PROPERTY
Delta U+W
SciTegic.value.DoubleValue
0.308

@<SCITEGIC>MOL_PROPERTY
U+W
SciTegic.value.DoubleValue
-54.583

@<SCITEGIC>MOL_PROPERTY
Grad RMS
SciTegic.value.DoubleValue
0.000000

@<SCITEGIC>MOL_PROPERTY
U
SciTegic.value.DoubleValue
8.219

@<SCITEGIC>MOL_PROPERTY
W
SciTegic.value.DoubleValue
-62.802

@<SCITEGIC>MOL_PROPERTY
W(PB)
SciTegic.value.DoubleValue
-64.859

@<SCITEGIC>MOL_PROPERTY
W(SA)
SciTegic.value.DoubleValue
2.057

@<SCITEGIC>MOL_PROPERTY
Valence
SciTegic.value.DoubleValue
7.609

@<SCITEGIC>MOL_PROPERTY
Coulomb
SciTegic.value.DoubleValue
-0.089

@<SCITEGIC>MOL_PROPERTY
VdW
SciTegic.value.DoubleValue
0.699

@<SCITEGIC>MOL_PROPERTY
VdW6
SciTegic.value.DoubleValue
-6.924

@<SCITEGIC>MOL_PROPERTY
VdW12
SciTegic.value.DoubleValue
7.623

@<SCITEGIC>MOL_PROPERTY
Bond
SciTegic.value.DoubleValue
0.163

@<SCITEGIC>MOL_PROPERTY
Angle
SciTegic.value.DoubleValue
2.870

@<SCITEGIC>MOL_PROPERTY
Pdih
SciTegic.value.DoubleValue
4.576

@<SCITEGIC>MOL_PROPERTY
Idih
SciTegic.value.DoubleValue
0.001

@<SCITEGIC>MOL_PROPERTY
Tether
SciTegic.value.DoubleValue
0.000

@<TRIPOS>MOLECULE
guest-7_confgen4.mol2 : confsearch ligand conformer 733
          19          18           1
SMALL
USER_CHARGES
 
@<TRIPOS>ATOM
       1    C1      20.857721   21.647240   21.644958 C.2        1 MOL1         0.6115
       2    O1      21.441100   22.456141   22.339055 O.co2      1 MOL1        -0.6776
       3    O2      20.183417   21.951199   20.680985 O.co2      1 MOL1        -0.6776
       4    C2      20.962061   20.172205   22.015904 C.3        1 MOL1        -0.2013
       5    H1      21.949023   20.001684   22.462205 H          1 MOL1         0.0727
       6    H2      20.918965   19.590830   21.087839 H          1 MOL1         0.0727
       7    C3      19.847254   19.718397   22.993581 C.3        1 MOL1        -0.1910
       8    H3      19.858535   20.378547   23.871803 H          1 MOL1         0.0729
       9    H4      18.865651   19.858065   22.521642 H          1 MOL1         0.0729
      10    C4      20.004529   18.254268   23.475574 C.3        1 MOL1        -0.1909
      11    H5      19.203835   18.031756   24.194015 H          1 MOL1         0.0729
      12    H6      20.946409   18.162649   24.033480 H          1 MOL1         0.0729
      13    C5      19.983126   17.185002   22.355702 C.3        1 MOL1        -0.1884
      14    H7      20.838566   17.324517   21.681633 H          1 MOL1         0.0729
      15    H8      20.116885   16.195709   22.814492 H          1 MOL1         0.0729
      16    C6      18.672619   17.180417   21.539645 C.3        1 MOL1        -0.2899
      17    H9      18.554460   18.110862   20.969928 H          1 MOL1         0.0741
      18    H10     18.669166   16.348967   20.823060 H          1 MOL1         0.0741
      19    H11     17.800942   17.064894   22.196807 H          1 MOL1         0.0741
@<TRIPOS>BOND
    1     1     2    1
    2     1     3    2
    3     1     4    1
    4     4     5    1
    5     4     6    1
    6     4     7    1
    7     7     8    1
    8     7     9    1
    9     7    10    1
   10    10    11    1
   11    10    12    1
   12    10    13    1
   13    13    14    1
   14    13    15    1
   15    13    16    1
   16    16    17    1
   17    16    18    1
   18    16    19    1
@<TRIPOS>SUBSTRUCTURE
       1 MOL1            1 RESIDUE      1      MOL     
@<SCITEGIC>MOL_PROPERTY
VConf Rank
SciTegic.value.IntegerValue
733

@<SCITEGIC>MOL_PROPERTY
Conf_Id
SciTegic.value.IntegerValue
21

@<SCITEGIC>MOL_PROPERTY
Delta U+W
SciTegic.value.DoubleValue
0.319

@<SCITEGIC>MOL_PROPERTY
U+W
SciTegic.value.DoubleValue
-54.572

@<SCITEGIC>MOL_PROPERTY
Grad RMS
SciTegic.value.DoubleValue
0.000000

@<SCITEGIC>MOL_PROPERTY
U
SciTegic.value.DoubleValue
8.220

@<SCITEGIC>MOL_PROPERTY
W
SciTegic.value.DoubleValue
-62.792

@<SCITEGIC>MOL_PROPERTY
W(PB)
SciTegic.value.DoubleValue
-64.830

@<SCITEGIC>MOL_PROPERTY
W(SA)
SciTegic.value.DoubleValue
2.038

@<SCITEGIC>MOL_PROPERTY
Valence
SciTegic.value.DoubleValue
7.609

@<SCITEGIC>MOL_PROPERTY
Coulomb
SciTegic.value.DoubleValue
-0.088

@<SCITEGIC>MOL_PROPERTY
VdW
SciTegic.value.DoubleValue
0.699

@<SCITEGIC>MOL_PROPERTY
VdW6
SciTegic.value.DoubleValue
-6.924

@<SCITEGIC>MOL_PROPERTY
VdW12
SciTegic.value.DoubleValue
7.623

@<SCITEGIC>MOL_PROPERTY
Bond
SciTegic.value.DoubleValue
0.163

@<SCITEGIC>MOL_PROPERTY
Angle
SciTegic.value.DoubleValue
2.870

@<SCITEGIC>MOL_PROPERTY
Pdih
SciTegic.value.DoubleValue
4.576

@<SCITEGIC>MOL_PROPERTY
Idih
SciTegic.value.DoubleValue
0.000

@<SCITEGIC>MOL_PROPERTY
Tether
SciTegic.value.DoubleValue
0.000

@<TRIPOS>MOLECULE
guest-7_confgen4.mol2 : confsearch ligand conformer 734
          19          18           1
SMALL
USER_CHARGES
 
@<TRIPOS>ATOM
       1    C1      18.828558   16.507715   21.218177 C.2        1 MOL1         0.6115
       2    O1      18.351404   15.537343   21.772382 O.co2      1 MOL1        -0.6776
       3    O2      18.565754   16.825966   20.075416 O.co2      1 MOL1        -0.6776
       4    C2      19.795654   17.383775   22.006419 C.3        1 MOL1        -0.2013
       5    H1      20.520941   17.801720   21.301364 H          1 MOL1         0.0727
       6    H2      20.354584   16.737155   22.693343 H          1 MOL1         0.0727
       7    C3      19.077879   18.507243   22.800276 C.3        1 MOL1        -0.1910
       8    H3      18.470245   19.121346   22.121350 H          1 MOL1         0.0729
       9    H4      18.372690   18.031473   23.495796 H          1 MOL1         0.0729
      10    C4      20.046352   19.403844   23.612750 C.3        1 MOL1        -0.1909
      11    H5      20.933285   18.830369   23.915030 H          1 MOL1         0.0729
      12    H6      19.543667   19.690477   24.546625 H          1 MOL1         0.0729
      13    C5      20.474745   20.707972   22.896064 C.3        1 MOL1        -0.1884
      14    H7      19.586600   21.316760   22.677357 H          1 MOL1         0.0729
      15    H8      21.089774   21.299662   23.588043 H          1 MOL1         0.0729
      16    C6      21.273099   20.482553   21.595482 C.3        1 MOL1        -0.2899
      17    H9      21.656585   21.436366   21.210783 H          1 MOL1         0.0741
      18    H10     22.129533   19.818036   21.768445 H          1 MOL1         0.0741
      19    H11     20.640524   20.042506   20.814455 H          1 MOL1         0.0741
@<TRIPOS>BOND
    1     1     2    1
    2     1     3    2
    3     1     4    1
    4     4     5    1
    5     4     6    1
    6     4     7    1
    7     7     8    1
    8     7     9    1
    9     7    10    1
   10    10    11    1
   11    10    12    1
   12    10    13    1
   13    13    14    1
   14    13    15    1
   15    13    16    1
   16    16    17    1
   17    16    18    1
   18    16    19    1
@<TRIPOS>SUBSTRUCTURE
       1 MOL1            1 RESIDUE      1      MOL     
@<SCITEGIC>MOL_PROPERTY
VConf Rank
SciTegic.value.IntegerValue
734

@<SCITEGIC>MOL_PROPERTY
Conf_Id
SciTegic.value.IntegerValue
24

@<SCITEGIC>MOL_PROPERTY
Delta U+W
SciTegic.value.DoubleValue
2.477

@<SCITEGIC>MOL_PROPERTY
U+W
SciTegic.value.DoubleValue
-52.414

@<SCITEGIC>MOL_PROPERTY
Grad RMS
SciTegic.value.DoubleValue
0.000000

@<SCITEGIC>MOL_PROPERTY
U
SciTegic.value.DoubleValue
10.422

@<SCITEGIC>MOL_PROPERTY
W
SciTegic.value.DoubleValue
-62.836

@<SCITEGIC>MOL_PROPERTY
W(PB)
SciTegic.value.DoubleValue
-64.906

@<SCITEGIC>MOL_PROPERTY
W(SA)
SciTegic.value.DoubleValue
2.070

@<SCITEGIC>MOL_PROPERTY
Valence
SciTegic.value.DoubleValue
9.628

@<SCITEGIC>MOL_PROPERTY
Coulomb
SciTegic.value.DoubleValue
0.101

@<SCITEGIC>MOL_PROPERTY
VdW
SciTegic.value.DoubleValue
0.693

@<SCITEGIC>MOL_PROPERTY
VdW6
SciTegic.value.DoubleValue
-6.927

@<SCITEGIC>MOL_PROPERTY
VdW12
SciTegic.value.DoubleValue
7.620

@<SCITEGIC>MOL_PROPERTY
Bond
SciTegic.value.DoubleValue
0.173

@<SCITEGIC>MOL_PROPERTY
Angle
SciTegic.value.DoubleValue
2.989

@<SCITEGIC>MOL_PROPERTY
Pdih
SciTegic.value.DoubleValue
6.465

@<SCITEGIC>MOL_PROPERTY
Idih
SciTegic.value.DoubleValue
0.001

@<SCITEGIC>MOL_PROPERTY
Tether
SciTegic.value.DoubleValue
0.000

@<TRIPOS>MOLECULE
guest-7_confgen4.mol2 : confsearch ligand conformer 735
          19          18           1
SMALL
USER_CHARGES
 
@<TRIPOS>ATOM
       1    C1      21.280431   20.779968   21.061474 C.2        1 MOL1         0.6115
       2    O1      22.013425   19.972099   20.525975 O.co2      1 MOL1        -0.6776
       3    O2      20.961832   21.836836   20.552947 O.co2      1 MOL1        -0.6776
       4    C2      20.753465   20.466638   22.459459 C.3        1 MOL1        -0.2013
       5    H1      20.926381   21.355605   23.077192 H          1 MOL1         0.0727
       6    H2      21.363721   19.664626   22.886774 H          1 MOL1         0.0727
       7    C3      19.243656   20.100644   22.497728 C.3        1 MOL1        -0.1910
       8    H3      18.889508   20.090777   23.537302 H          1 MOL1         0.0729
       9    H4      18.686602   20.904536   21.996747 H          1 MOL1         0.0729
      10    C4      18.898207   18.752224   21.813692 C.3        1 MOL1        -0.1909
      11    H5      19.602134   18.543555   20.996532 H          1 MOL1         0.0729
      12    H6      17.912924   18.853903   21.338652 H          1 MOL1         0.0729
      13    C5      18.828659   17.539839   22.774522 C.3        1 MOL1        -0.1884
      14    H7      18.058426   17.717352   23.537695 H          1 MOL1         0.0729
      15    H8      18.498221   16.661577   22.203015 H          1 MOL1         0.0729
      16    C6      20.166588   17.204220   23.465075 C.3        1 MOL1        -0.2899
      17    H9      20.450098   17.986881   24.179511 H          1 MOL1         0.0741
      18    H10     20.085404   16.261936   24.022109 H          1 MOL1         0.0741
      19    H11     20.973122   17.094645   22.728202 H          1 MOL1         0.0741
@<TRIPOS>BOND
    1     1     2    1
    2     1     3    2
    3     1     4    1
    4     4     5    1
    5     4     6    1
    6     4     7    1
    7     7     8    1
    8     7     9    1
    9     7    10    1
   10    10    11    1
   11    10    12    1
   12    10    13    1
   13    13    14    1
   14    13    15    1
   15    13    16    1
   16    16    17    1
   17    16    18    1
   18    16    19    1
@<TRIPOS>SUBSTRUCTURE
       1 MOL1            1 RESIDUE      1      MOL     
@<SCITEGIC>MOL_PROPERTY
VConf Rank
SciTegic.value.IntegerValue
735

@<SCITEGIC>MOL_PROPERTY
Conf_Id
SciTegic.value.IntegerValue
4

@<SCITEGIC>MOL_PROPERTY
Delta U+W
SciTegic.value.DoubleValue
3.753

@<SCITEGIC>MOL_PROPERTY
U+W
SciTegic.value.DoubleValue
-51.138

@<SCITEGIC>MOL_PROPERTY
Grad RMS
SciTegic.value.DoubleValue
0.000000

@<SCITEGIC>MOL_PROPERTY
U
SciTegic.value.DoubleValue
12.334

@<SCITEGIC>MOL_PROPERTY
W
SciTegic.value.DoubleValue
-63.472

@<SCITEGIC>MOL_PROPERTY
W(PB)
SciTegic.value.DoubleValue
-65.500

@<SCITEGIC>MOL_PROPERTY
W(SA)
SciTegic.value.DoubleValue
2.028

@<SCITEGIC>MOL_PROPERTY
Valence
SciTegic.value.DoubleValue
9.984

@<SCITEGIC>MOL_PROPERTY
Coulomb
SciTegic.value.DoubleValue
1.767

@<SCITEGIC>MOL_PROPERTY
VdW
SciTegic.value.DoubleValue
0.583

@<SCITEGIC>MOL_PROPERTY
VdW6
SciTegic.value.DoubleValue
-7.767

@<SCITEGIC>MOL_PROPERTY
VdW12
SciTegic.value.DoubleValue
8.349

@<SCITEGIC>MOL_PROPERTY
Bond
SciTegic.value.DoubleValue
0.203

@<SCITEGIC>MOL_PROPERTY
Angle
SciTegic.value.DoubleValue
3.191

@<SCITEGIC>MOL_PROPERTY
Pdih
SciTegic.value.DoubleValue
6.589

@<SCITEGIC>MOL_PROPERTY
Idih
SciTegic.value.DoubleValue
0.001

@<SCITEGIC>MOL_PROPERTY
Tether
SciTegic.value.DoubleValue
0.000

@<TRIPOS>MOLECULE
guest-7_confgen4.mol2 : confsearch ligand conformer 736
          19          18           1
SMALL
USER_CHARGES
 
@<TRIPOS>ATOM
       1    C1      22.052808   20.109378   21.523281 C.2        1 MOL1         0.6115
       2    O1      22.777214   20.931873   22.048458 O.co2      1 MOL1        -0.6776
       3    O2      22.465401   19.179269   20.858933 O.co2      1 MOL1        -0.6776
       4    C2      20.543656   20.272841   21.684437 C.3        1 MOL1        -0.2013
       5    H1      20.047140   19.667577   20.919351 H          1 MOL1         0.0727
       6    H2      20.305736   21.319160   21.460015 H          1 MOL1         0.0727
       7    C3      20.018347   19.919956   23.103754 C.3        1 MOL1        -0.1910
       8    H3      20.595888   20.503287   23.834306 H          1 MOL1         0.0729
       9    H4      18.976752   20.252239   23.208162 H          1 MOL1         0.0729
      10    C4      20.127486   18.416090   23.467002 C.3        1 MOL1        -0.1909
      11    H5      20.350757   18.340230   24.539931 H          1 MOL1         0.0729
      12    H6      20.982340   17.956696   22.952233 H          1 MOL1         0.0729
      13    C5      18.843871   17.592288   23.199445 C.3        1 MOL1        -0.1884
      14    H7      19.004092   16.569394   23.567099 H          1 MOL1         0.0729
      15    H8      18.012022   18.003457   23.787806 H          1 MOL1         0.0729
      16    C6      18.435966   17.524115   21.713334 C.3        1 MOL1        -0.2899
      17    H9      19.274492   17.186363   21.090210 H          1 MOL1         0.0741
      18    H10     17.605231   16.820164   21.575094 H          1 MOL1         0.0741
      19    H11     18.102728   18.503837   21.349393 H          1 MOL1         0.0741
@<TRIPOS>BOND
    1     1     2    1
    2     1     3    2
    3     1     4    1
    4     4     5    1
    5     4     6    1
    6     4     7    1
    7     7     8    1
    8     7     9    1
    9     7    10    1
   10    10    11    1
   11    10    12    1
   12    10    13    1
   13    13    14    1
   14    13    15    1
   15    13    16    1
   16    16    17    1
   17    16    18    1
   18    16    19    1
@<TRIPOS>SUBSTRUCTURE
       1 MOL1            1 RESIDUE      1      MOL     
@<SCITEGIC>MOL_PROPERTY
VConf Rank
SciTegic.value.IntegerValue
736

@<SCITEGIC>MOL_PROPERTY
Conf_Id
SciTegic.value.IntegerValue
73

@<SCITEGIC>MOL_PROPERTY
Delta U+W
SciTegic.value.DoubleValue
3.707

@<SCITEGIC>MOL_PROPERTY
U+W
SciTegic.value.DoubleValue
-51.184

@<SCITEGIC>MOL_PROPERTY
Grad RMS
SciTegic.value.DoubleValue
0.000000

@<SCITEGIC>MOL_PROPERTY
U
SciTegic.value.DoubleValue
12.334

@<SCITEGIC>MOL_PROPERTY
W
SciTegic.value.DoubleValue
-63.519

@<SCITEGIC>MOL_PROPERTY
W(PB)
SciTegic.value.DoubleValue
-65.541

@<SCITEGIC>MOL_PROPERTY
W(SA)
SciTegic.value.DoubleValue
2.022

@<SCITEGIC>MOL_PROPERTY
Valence
SciTegic.value.DoubleValue
9.984

@<SCITEGIC>MOL_PROPERTY
Coulomb
SciTegic.value.DoubleValue
1.768

@<SCITEGIC>MOL_PROPERTY
VdW
SciTegic.value.DoubleValue
0.583

@<SCITEGIC>MOL_PROPERTY
VdW6
SciTegic.value.DoubleValue
-7.767

@<SCITEGIC>MOL_PROPERTY
VdW12
SciTegic.value.DoubleValue
8.350

@<SCITEGIC>MOL_PROPERTY
Bond
SciTegic.value.DoubleValue
0.203

@<SCITEGIC>MOL_PROPERTY
Angle
SciTegic.value.DoubleValue
3.192

@<SCITEGIC>MOL_PROPERTY
Pdih
SciTegic.value.DoubleValue
6.589

@<SCITEGIC>MOL_PROPERTY
Idih
SciTegic.value.DoubleValue
0.001

@<SCITEGIC>MOL_PROPERTY
Tether
SciTegic.value.DoubleValue
0.000

@<TRIPOS>MOLECULE
guest-7_confgen4.mol2 : confsearch ligand conformer 737
          19          18           1
SMALL
USER_CHARGES
 
@<TRIPOS>ATOM
       1    C1      19.698301   16.725403   21.211475 C.2        1 MOL1         0.6115
       2    O1      20.658369   16.876696   20.482029 O.co2      1 MOL1        -0.6776
       3    O2      19.374092   15.651841   21.679997 O.co2      1 MOL1        -0.6776
       4    C2      18.832854   17.940905   21.532229 C.3        1 MOL1        -0.2013
       5    H1      17.791837   17.662678   21.330881 H          1 MOL1         0.0727
       6    H2      19.080709   18.744607   20.829430 H          1 MOL1         0.0727
       7    C3      18.956860   18.439838   22.997820 C.3        1 MOL1        -0.1910
       8    H3      18.250196   19.263910   23.160297 H          1 MOL1         0.0729
       9    H4      18.638830   17.632762   23.672058 H          1 MOL1         0.0729
      10    C4      20.384311   18.890024   23.402553 C.3        1 MOL1        -0.1909
      11    H5      21.060349   18.025424   23.352324 H          1 MOL1         0.0729
      12    H6      20.370287   19.201129   24.455933 H          1 MOL1         0.0729
      13    C5      20.980776   20.036445   22.549813 C.3        1 MOL1        -0.1884
      14    H7      21.992893   20.254825   22.916998 H          1 MOL1         0.0729
      15    H8      21.101054   19.708713   21.508386 H          1 MOL1         0.0729
      16    C6      20.144514   21.333410   22.596932 C.3        1 MOL1        -0.2899
      17    H9      19.160104   21.190186   22.133968 H          1 MOL1         0.0741
      18    H10     19.994146   21.666368   23.632085 H          1 MOL1         0.0741
      19    H11     20.654147   22.138883   22.052614 H          1 MOL1         0.0741
@<TRIPOS>BOND
    1     1     2    1
    2     1     3    2
    3     1     4    1
    4     4     5    1
    5     4     6    1
    6     4     7    1
    7     7     8    1
    8     7     9    1
    9     7    10    1
   10    10    11    1
   11    10    12    1
   12    10    13    1
   13    13    14    1
   14    13    15    1
   15    13    16    1
   16    16    17    1
   17    16    18    1
   18    16    19    1
@<TRIPOS>SUBSTRUCTURE
       1 MOL1            1 RESIDUE      1      MOL     
@<SCITEGIC>MOL_PROPERTY
VConf Rank
SciTegic.value.IntegerValue
737

@<SCITEGIC>MOL_PROPERTY
Conf_Id
SciTegic.value.IntegerValue
56

@<SCITEGIC>MOL_PROPERTY
Delta U+W
SciTegic.value.DoubleValue
1.735

@<SCITEGIC>MOL_PROPERTY
U+W
SciTegic.value.DoubleValue
-53.156

@<SCITEGIC>MOL_PROPERTY
Grad RMS
SciTegic.value.DoubleValue
0.000000

@<SCITEGIC>MOL_PROPERTY
U
SciTegic.value.DoubleValue
10.214

@<SCITEGIC>MOL_PROPERTY
W
SciTegic.value.DoubleValue
-63.370

@<SCITEGIC>MOL_PROPERTY
W(PB)
SciTegic.value.DoubleValue
-65.388

@<SCITEGIC>MOL_PROPERTY
W(SA)
SciTegic.value.DoubleValue
2.018

@<SCITEGIC>MOL_PROPERTY
Valence
SciTegic.value.DoubleValue
7.868

@<SCITEGIC>MOL_PROPERTY
Coulomb
SciTegic.value.DoubleValue
1.968

@<SCITEGIC>MOL_PROPERTY
VdW
SciTegic.value.DoubleValue
0.378

@<SCITEGIC>MOL_PROPERTY
VdW6
SciTegic.value.DoubleValue
-8.067

@<SCITEGIC>MOL_PROPERTY
VdW12
SciTegic.value.DoubleValue
8.445

@<SCITEGIC>MOL_PROPERTY
Bond
SciTegic.value.DoubleValue
0.191

@<SCITEGIC>MOL_PROPERTY
Angle
SciTegic.value.DoubleValue
3.117

@<SCITEGIC>MOL_PROPERTY
Pdih
SciTegic.value.DoubleValue
4.559

@<SCITEGIC>MOL_PROPERTY
Idih
SciTegic.value.DoubleValue
0.001

@<SCITEGIC>MOL_PROPERTY
Tether
SciTegic.value.DoubleValue
0.000

@<TRIPOS>MOLECULE
guest-7_confgen4.mol2 : confsearch ligand conformer 738
          19          18           1
SMALL
USER_CHARGES
 
@<TRIPOS>ATOM
       1    C1      20.226613   21.547337   20.966145 C.2        1 MOL1         0.6115
       2    O1      20.545156   21.666255   19.799632 O.co2      1 MOL1        -0.6776
       3    O2      20.184965   22.475366   21.749344 O.co2      1 MOL1        -0.6776
       4    C2      19.881211   20.154208   21.480077 C.3        1 MOL1        -0.2013
       5    H1      19.438138   19.585545   20.653828 H          1 MOL1         0.0727
       6    H2      19.112813   20.267249   22.252926 H          1 MOL1         0.0727
       7    C3      21.110357   19.402223   22.049899 C.3        1 MOL1        -0.1910
       8    H3      21.915993   19.429053   21.303152 H          1 MOL1         0.0729
       9    H4      21.488436   19.941574   22.929303 H          1 MOL1         0.0729
      10    C4      20.837735   17.923702   22.424259 C.3        1 MOL1        -0.1909
      11    H5      21.788123   17.488035   22.761792 H          1 MOL1         0.0729
      12    H6      20.549863   17.354766   21.529585 H          1 MOL1         0.0729
      13    C5      19.790152   17.723216   23.547416 C.3        1 MOL1        -0.1884
      14    H7      20.095514   16.865425   24.162468 H          1 MOL1         0.0729
      15    H8      19.780377   18.592533   24.219353 H          1 MOL1         0.0729
      16    C6      18.368149   17.443206   23.012410 C.3        1 MOL1        -0.2899
      17    H9      17.668458   17.291464   23.844445 H          1 MOL1         0.0741
      18    H10     17.989218   18.272171   22.404260 H          1 MOL1         0.0741
      19    H11     18.355552   16.536169   22.394140 H          1 MOL1         0.0741
@<TRIPOS>BOND
    1     1     2    1
    2     1     3    2
    3     1     4    1
    4     4     5    1
    5     4     6    1
    6     4     7    1
    7     7     8    1
    8     7     9    1
    9     7    10    1
   10    10    11    1
   11    10    12    1
   12    10    13    1
   13    13    14    1
   14    13    15    1
   15    13    16    1
   16    16    17    1
   17    16    18    1
   18    16    19    1
@<TRIPOS>SUBSTRUCTURE
       1 MOL1            1 RESIDUE      1      MOL     
@<SCITEGIC>MOL_PROPERTY
VConf Rank
SciTegic.value.IntegerValue
738

@<SCITEGIC>MOL_PROPERTY
Conf_Id
SciTegic.value.IntegerValue
53

@<SCITEGIC>MOL_PROPERTY
Delta U+W
SciTegic.value.DoubleValue
2.279

@<SCITEGIC>MOL_PROPERTY
U+W
SciTegic.value.DoubleValue
-52.612

@<SCITEGIC>MOL_PROPERTY
Grad RMS
SciTegic.value.DoubleValue
0.000000

@<SCITEGIC>MOL_PROPERTY
U
SciTegic.value.DoubleValue
10.231

@<SCITEGIC>MOL_PROPERTY
W
SciTegic.value.DoubleValue
-62.843

@<SCITEGIC>MOL_PROPERTY
W(PB)
SciTegic.value.DoubleValue
-64.893

@<SCITEGIC>MOL_PROPERTY
W(SA)
SciTegic.value.DoubleValue
2.050

@<SCITEGIC>MOL_PROPERTY
Valence
SciTegic.value.DoubleValue
9.644

@<SCITEGIC>MOL_PROPERTY
Coulomb
SciTegic.value.DoubleValue
-0.164

@<SCITEGIC>MOL_PROPERTY
VdW
SciTegic.value.DoubleValue
0.751

@<SCITEGIC>MOL_PROPERTY
VdW6
SciTegic.value.DoubleValue
-6.881

@<SCITEGIC>MOL_PROPERTY
VdW12
SciTegic.value.DoubleValue
7.631

@<SCITEGIC>MOL_PROPERTY
Bond
SciTegic.value.DoubleValue
0.163

@<SCITEGIC>MOL_PROPERTY
Angle
SciTegic.value.DoubleValue
2.998

@<SCITEGIC>MOL_PROPERTY
Pdih
SciTegic.value.DoubleValue
6.482

@<SCITEGIC>MOL_PROPERTY
Idih
SciTegic.value.DoubleValue
0.001

@<SCITEGIC>MOL_PROPERTY
Tether
SciTegic.value.DoubleValue
0.000

@<TRIPOS>MOLECULE
guest-7_confgen4.mol2 : confsearch ligand conformer 739
          19          18           1
SMALL
USER_CHARGES
 
@<TRIPOS>ATOM
       1    C1      18.633463   17.118388   23.059041 C.2        1 MOL1         0.6115
       2    O1      19.063844   16.701249   24.116217 O.co2      1 MOL1        -0.6776
       3    O2      18.479688   16.419888   22.076342 O.co2      1 MOL1        -0.6776
       4    C2      18.198185   18.580773   22.985235 C.3        1 MOL1        -0.2013
       5    H1      18.351701   19.048649   23.965259 H          1 MOL1         0.0727
       6    H2      17.116419   18.571883   22.808246 H          1 MOL1         0.0727
       7    C3      18.885149   19.422808   21.873397 C.3        1 MOL1        -0.1910
       8    H3      18.910461   18.853379   20.933901 H          1 MOL1         0.0729
       9    H4      18.256366   20.301685   21.676865 H          1 MOL1         0.0729
      10    C4      20.305693   19.929075   22.226133 C.3        1 MOL1        -0.1909
      11    H5      20.271914   20.503288   23.162068 H          1 MOL1         0.0729
      12    H6      20.622115   20.632594   21.443862 H          1 MOL1         0.0729
      13    C5      21.362864   18.809029   22.342150 C.3        1 MOL1        -0.1884
      14    H7      21.138886   18.167377   23.203847 H          1 MOL1         0.0729
      15    H8      21.328919   18.170770   21.448354 H          1 MOL1         0.0729
      16    C6      22.782930   19.386760   22.507907 C.3        1 MOL1        -0.2899
      17    H9      22.850309   20.008920   23.409980 H          1 MOL1         0.0741
      18    H10     23.520564   18.578726   22.597475 H          1 MOL1         0.0741
      19    H11     23.060128   20.004117   21.643413 H          1 MOL1         0.0741
@<TRIPOS>BOND
    1     1     2    1
    2     1     3    2
    3     1     4    1
    4     4     5    1
    5     4     6    1
    6     4     7    1
    7     7     8    1
    8     7     9    1
    9     7    10    1
   10    10    11    1
   11    10    12    1
   12    10    13    1
   13    13    14    1
   14    13    15    1
   15    13    16    1
   16    16    17    1
   17    16    18    1
   18    16    19    1
@<TRIPOS>SUBSTRUCTURE
       1 MOL1            1 RESIDUE      1      MOL     
@<SCITEGIC>MOL_PROPERTY
VConf Rank
SciTegic.value.IntegerValue
739

@<SCITEGIC>MOL_PROPERTY
Conf_Id
SciTegic.value.IntegerValue
25

@<SCITEGIC>MOL_PROPERTY
Delta U+W
SciTegic.value.DoubleValue
2.065

@<SCITEGIC>MOL_PROPERTY
U+W
SciTegic.value.DoubleValue
-52.826

@<SCITEGIC>MOL_PROPERTY
Grad RMS
SciTegic.value.DoubleValue
0.000000

@<SCITEGIC>MOL_PROPERTY
U
SciTegic.value.DoubleValue
10.967

@<SCITEGIC>MOL_PROPERTY
W
SciTegic.value.DoubleValue
-63.794

@<SCITEGIC>MOL_PROPERTY
W(PB)
SciTegic.value.DoubleValue
-65.830

@<SCITEGIC>MOL_PROPERTY
W(SA)
SciTegic.value.DoubleValue
2.036

@<SCITEGIC>MOL_PROPERTY
Valence
SciTegic.value.DoubleValue
8.609

@<SCITEGIC>MOL_PROPERTY
Coulomb
SciTegic.value.DoubleValue
1.892

@<SCITEGIC>MOL_PROPERTY
VdW
SciTegic.value.DoubleValue
0.467

@<SCITEGIC>MOL_PROPERTY
VdW6
SciTegic.value.DoubleValue
-7.569

@<SCITEGIC>MOL_PROPERTY
VdW12
SciTegic.value.DoubleValue
8.036

@<SCITEGIC>MOL_PROPERTY
Bond
SciTegic.value.DoubleValue
0.170

@<SCITEGIC>MOL_PROPERTY
Angle
SciTegic.value.DoubleValue
3.195

@<SCITEGIC>MOL_PROPERTY
Pdih
SciTegic.value.DoubleValue
5.237

@<SCITEGIC>MOL_PROPERTY
Idih
SciTegic.value.DoubleValue
0.007

@<SCITEGIC>MOL_PROPERTY
Tether
SciTegic.value.DoubleValue
0.000

@<TRIPOS>MOLECULE
guest-7_confgen4.mol2 : confsearch ligand conformer 740
          19          18           1
SMALL
USER_CHARGES
 
@<TRIPOS>ATOM
       1    C1      20.823419   19.872512   20.429867 C.2        1 MOL1         0.6115
       2    O1      20.328352   19.256617   19.506379 O.co2      1 MOL1        -0.6776
       3    O2      22.022007   20.006808   20.578871 O.co2      1 MOL1        -0.6776
       4    C2      19.891757   20.574033   21.416457 C.3        1 MOL1        -0.2013
       5    H1      19.338260   21.323146   20.838448 H          1 MOL1         0.0727
       6    H2      20.495779   21.125420   22.147247 H          1 MOL1         0.0727
       7    C3      18.877781   19.648081   22.145561 C.3        1 MOL1        -0.1910
       8    H3      18.056138   20.273680   22.519654 H          1 MOL1         0.0729
       9    H4      18.423816   18.950870   21.427678 H          1 MOL1         0.0729
      10    C4      19.460665   18.866647   23.349008 C.3        1 MOL1        -0.1909
      11    H5      18.629080   18.376679   23.873801 H          1 MOL1         0.0729
      12    H6      19.906215   19.569847   24.065829 H          1 MOL1         0.0729
      13    C5      20.501167   17.793829   22.959143 C.3        1 MOL1        -0.1884
      14    H7      20.093404   17.149661   22.167833 H          1 MOL1         0.0729
      15    H8      21.401112   18.272200   22.552120 H          1 MOL1         0.0729
      16    C6      20.902468   16.928590   24.170818 C.3        1 MOL1        -0.2899
      17    H9      21.648037   16.177557   23.879063 H          1 MOL1         0.0741
      18    H10     21.337445   17.546669   24.967142 H          1 MOL1         0.0741
      19    H11     20.032642   16.400203   24.582553 H          1 MOL1         0.0741
@<TRIPOS>BOND
    1     1     2    1
    2     1     3    2
    3     1     4    1
    4     4     5    1
    5     4     6    1
    6     4     7    1
    7     7     8    1
    8     7     9    1
    9     7    10    1
   10    10    11    1
   11    10    12    1
   12    10    13    1
   13    13    14    1
   14    13    15    1
   15    13    16    1
   16    16    17    1
   17    16    18    1
   18    16    19    1
@<TRIPOS>SUBSTRUCTURE
       1 MOL1            1 RESIDUE      1      MOL     
@<SCITEGIC>MOL_PROPERTY
VConf Rank
SciTegic.value.IntegerValue
740

@<SCITEGIC>MOL_PROPERTY
Conf_Id
SciTegic.value.IntegerValue
52

@<SCITEGIC>MOL_PROPERTY
Delta U+W
SciTegic.value.DoubleValue
2.070

@<SCITEGIC>MOL_PROPERTY
U+W
SciTegic.value.DoubleValue
-52.822

@<SCITEGIC>MOL_PROPERTY
Grad RMS
SciTegic.value.DoubleValue
0.000000

@<SCITEGIC>MOL_PROPERTY
U
SciTegic.value.DoubleValue
10.967

@<SCITEGIC>MOL_PROPERTY
W
SciTegic.value.DoubleValue
-63.789

@<SCITEGIC>MOL_PROPERTY
W(PB)
SciTegic.value.DoubleValue
-65.837

@<SCITEGIC>MOL_PROPERTY
W(SA)
SciTegic.value.DoubleValue
2.048

@<SCITEGIC>MOL_PROPERTY
Valence
SciTegic.value.DoubleValue
8.609

@<SCITEGIC>MOL_PROPERTY
Coulomb
SciTegic.value.DoubleValue
1.892

@<SCITEGIC>MOL_PROPERTY
VdW
SciTegic.value.DoubleValue
0.467

@<SCITEGIC>MOL_PROPERTY
VdW6
SciTegic.value.DoubleValue
-7.569

@<SCITEGIC>MOL_PROPERTY
VdW12
SciTegic.value.DoubleValue
8.035

@<SCITEGIC>MOL_PROPERTY
Bond
SciTegic.value.DoubleValue
0.170

@<SCITEGIC>MOL_PROPERTY
Angle
SciTegic.value.DoubleValue
3.196

@<SCITEGIC>MOL_PROPERTY
Pdih
SciTegic.value.DoubleValue
5.237

@<SCITEGIC>MOL_PROPERTY
Idih
SciTegic.value.DoubleValue
0.007

@<SCITEGIC>MOL_PROPERTY
Tether
SciTegic.value.DoubleValue
0.000

@<TRIPOS>MOLECULE
guest-7_confgen4.mol2 : confsearch ligand conformer 741
          19          18           1
SMALL
USER_CHARGES
 
@<TRIPOS>ATOM
       1    C1      21.408753   17.447716   22.301376 C.2        1 MOL1         0.6115
       2    O1      21.231387   16.529870   23.078690 O.co2      1 MOL1        -0.6776
       3    O2      21.567946   17.286766   21.107453 O.co2      1 MOL1        -0.6776
       4    C2      21.566594   18.862827   22.859881 C.3        1 MOL1        -0.2013
       5    H1      21.565672   19.577508   22.028155 H          1 MOL1         0.0727
       6    H2      22.567583   18.902736   23.304518 H          1 MOL1         0.0727
       7    C3      20.523397   19.286229   23.933120 C.3        1 MOL1        -0.1910
       8    H3      20.332820   18.451331   24.621528 H          1 MOL1         0.0729
       9    H4      20.972781   20.079564   24.545516 H          1 MOL1         0.0729
      10    C4      19.181777   19.829829   23.378382 C.3        1 MOL1        -0.1909
      11    H5      19.363042   20.726679   22.770238 H          1 MOL1         0.0729
      12    H6      18.584510   20.169721   24.235536 H          1 MOL1         0.0729
      13    C5      18.338093   18.803229   22.584480 C.3        1 MOL1        -0.1884
      14    H7      18.615699   17.778035   22.866026 H          1 MOL1         0.0729
      15    H8      17.282082   18.919918   22.864428 H          1 MOL1         0.0729
      16    C6      18.452870   18.989896   21.056375 C.3        1 MOL1        -0.2899
      17    H9      18.083108   19.978212   20.753978 H          1 MOL1         0.0741
      18    H10     19.491345   18.898692   20.717286 H          1 MOL1         0.0741
      19    H11     17.859273   18.231472   20.530016 H          1 MOL1         0.0741
@<TRIPOS>BOND
    1     1     2    1
    2     1     3    2
    3     1     4    1
    4     4     5    1
    5     4     6    1
    6     4     7    1
    7     7     8    1
    8     7     9    1
    9     7    10    1
   10    10    11    1
   11    10    12    1
   12    10    13    1
   13    13    14    1
   14    13    15    1
   15    13    16    1
   16    16    17    1
   17    16    18    1
   18    16    19    1
@<TRIPOS>SUBSTRUCTURE
       1 MOL1            1 RESIDUE      1      MOL     
@<SCITEGIC>MOL_PROPERTY
VConf Rank
SciTegic.value.IntegerValue
741

@<SCITEGIC>MOL_PROPERTY
Conf_Id
SciTegic.value.IntegerValue
66

@<SCITEGIC>MOL_PROPERTY
Delta U+W
SciTegic.value.DoubleValue
5.819

@<SCITEGIC>MOL_PROPERTY
U+W
SciTegic.value.DoubleValue
-49.072

@<SCITEGIC>MOL_PROPERTY
Grad RMS
SciTegic.value.DoubleValue
0.000000

@<SCITEGIC>MOL_PROPERTY
U
SciTegic.value.DoubleValue
15.324

@<SCITEGIC>MOL_PROPERTY
W
SciTegic.value.DoubleValue
-64.396

@<SCITEGIC>MOL_PROPERTY
W(PB)
SciTegic.value.DoubleValue
-66.382

@<SCITEGIC>MOL_PROPERTY
W(SA)
SciTegic.value.DoubleValue
1.986

@<SCITEGIC>MOL_PROPERTY
Valence
SciTegic.value.DoubleValue
11.748

@<SCITEGIC>MOL_PROPERTY
Coulomb
SciTegic.value.DoubleValue
3.201

@<SCITEGIC>MOL_PROPERTY
VdW
SciTegic.value.DoubleValue
0.375

@<SCITEGIC>MOL_PROPERTY
VdW6
SciTegic.value.DoubleValue
-8.854

@<SCITEGIC>MOL_PROPERTY
VdW12
SciTegic.value.DoubleValue
9.229

@<SCITEGIC>MOL_PROPERTY
Bond
SciTegic.value.DoubleValue
0.216

@<SCITEGIC>MOL_PROPERTY
Angle
SciTegic.value.DoubleValue
3.812

@<SCITEGIC>MOL_PROPERTY
Pdih
SciTegic.value.DoubleValue
7.699

@<SCITEGIC>MOL_PROPERTY
Idih
SciTegic.value.DoubleValue
0.022

@<SCITEGIC>MOL_PROPERTY
Tether
SciTegic.value.DoubleValue
0.000

@<TRIPOS>MOLECULE
guest-7_confgen4.mol2 : confsearch ligand conformer 742
          19          18           1
SMALL
USER_CHARGES
 
@<TRIPOS>ATOM
       1    C1      20.888926   19.192068   25.413958 C.2        1 MOL1         0.6115
       2    O1      20.440507   19.071531   26.536479 O.co2      1 MOL1        -0.6776
       3    O2      22.037972   19.520384   25.190252 O.co2      1 MOL1        -0.6776
       4    C2      19.938789   18.911017   24.248657 C.3        1 MOL1        -0.2013
       5    H1      19.078806   19.582133   24.358582 H          1 MOL1         0.0727
       6    H2      19.564817   17.887675   24.370988 H          1 MOL1         0.0727
       7    C3      20.556257   19.077761   22.834669 C.3        1 MOL1        -0.1910
       8    H3      20.934180   20.103259   22.720668 H          1 MOL1         0.0729
       9    H4      21.420732   18.407063   22.733111 H          1 MOL1         0.0729
      10    C4      19.530432   18.775339   21.720898 C.3        1 MOL1        -0.1909
      11    H5      18.666992   19.446831   21.824431 H          1 MOL1         0.0729
      12    H6      19.153835   17.749726   21.836838 H          1 MOL1         0.0729
      13    C5      20.146251   18.941728   20.316093 C.3        1 MOL1        -0.1884
      14    H7      20.522509   19.967093   20.195479 H          1 MOL1         0.0729
      15    H8      21.009214   18.270110   20.207839 H          1 MOL1         0.0729
      16    C6      19.119325   18.639124   19.206660 C.3        1 MOL1        -0.2899
      17    H9      18.259015   19.318114   19.271945 H          1 MOL1         0.0741
      18    H10     19.573734   18.762218   18.214960 H          1 MOL1         0.0741
      19    H11     18.749364   17.608345   19.284408 H          1 MOL1         0.0741
@<TRIPOS>BOND
    1     1     2    1
    2     1     3    2
    3     1     4    1
    4     4     5    1
    5     4     6    1
    6     4     7    1
    7     7     8    1
    8     7     9    1
    9     7    10    1
   10    10    11    1
   11    10    12    1
   12    10    13    1
   13    13    14    1
   14    13    15    1
   15    13    16    1
   16    16    17    1
   17    16    18    1
   18    16    19    1
@<TRIPOS>SUBSTRUCTURE
       1 MOL1            1 RESIDUE      1      MOL     
@<SCITEGIC>MOL_PROPERTY
VConf Rank
SciTegic.value.IntegerValue
742

@<SCITEGIC>MOL_PROPERTY
Conf_Id
SciTegic.value.IntegerValue
0

@<SCITEGIC>MOL_PROPERTY
Delta U+W
SciTegic.value.DoubleValue
0.000

@<SCITEGIC>MOL_PROPERTY
U+W
SciTegic.value.DoubleValue
-54.891

@<SCITEGIC>MOL_PROPERTY
Grad RMS
SciTegic.value.DoubleValue
0.000000

@<SCITEGIC>MOL_PROPERTY
U
SciTegic.value.DoubleValue
6.966

@<SCITEGIC>MOL_PROPERTY
W
SciTegic.value.DoubleValue
-61.857

@<SCITEGIC>MOL_PROPERTY
W(PB)
SciTegic.value.DoubleValue
-63.965

@<SCITEGIC>MOL_PROPERTY
W(SA)
SciTegic.value.DoubleValue
2.108

@<SCITEGIC>MOL_PROPERTY
Valence
SciTegic.value.DoubleValue
7.175

@<SCITEGIC>MOL_PROPERTY
Coulomb
SciTegic.value.DoubleValue
-1.360

@<SCITEGIC>MOL_PROPERTY
VdW
SciTegic.value.DoubleValue
1.151

@<SCITEGIC>MOL_PROPERTY
VdW6
SciTegic.value.DoubleValue
-5.641

@<SCITEGIC>MOL_PROPERTY
VdW12
SciTegic.value.DoubleValue
6.792

@<SCITEGIC>MOL_PROPERTY
Bond
SciTegic.value.DoubleValue
0.119

@<SCITEGIC>MOL_PROPERTY
Angle
SciTegic.value.DoubleValue
2.715

@<SCITEGIC>MOL_PROPERTY
Pdih
SciTegic.value.DoubleValue
4.340

@<SCITEGIC>MOL_PROPERTY
Idih
SciTegic.value.DoubleValue
0.000

@<SCITEGIC>MOL_PROPERTY
Tether
SciTegic.value.DoubleValue
0.000

@<TRIPOS>MOLECULE
guest-7_confgen4.mol2 : confsearch ligand conformer 743
          19          18           1
SMALL
USER_CHARGES
 
@<TRIPOS>ATOM
       1    C1      21.559540   21.869189   21.693036 C.2        1 MOL1         0.6115
       2    O1      22.005484   22.367847   22.707262 O.co2      1 MOL1        -0.6776
       3    O2      22.059553   22.015665   20.595441 O.co2      1 MOL1        -0.6776
       4    C2      20.315849   20.994770   21.807025 C.3        1 MOL1        -0.2013
       5    H1      19.739503   21.099281   20.879855 H          1 MOL1         0.0727
       6    H2      19.695186   21.389227   22.620612 H          1 MOL1         0.0727
       7    C3      20.649059   19.504407   22.063743 C.3        1 MOL1        -0.1910
       8    H3      21.281051   19.128088   21.247336 H          1 MOL1         0.0729
       9    H4      21.236896   19.418072   22.988157 H          1 MOL1         0.0729
      10    C4      19.373791   18.641330   22.175169 C.3        1 MOL1        -0.1909
      11    H5      18.787682   18.730838   21.250152 H          1 MOL1         0.0729
      12    H6      18.743581   19.020792   22.991280 H          1 MOL1         0.0729
      13    C5      19.708762   17.157144   22.430821 C.3        1 MOL1        -0.1884
      14    H7      20.337595   16.773332   21.615498 H          1 MOL1         0.0729
      15    H8      20.293416   17.063242   23.356486 H          1 MOL1         0.0729
      16    C6      18.433161   16.298332   22.541457 C.3        1 MOL1        -0.2899
      17    H9      18.689577   15.246492   22.723090 H          1 MOL1         0.0741
      18    H10     17.799739   16.640800   23.370261 H          1 MOL1         0.0741
      19    H11     17.844234   16.348756   21.616229 H          1 MOL1         0.0741
@<TRIPOS>BOND
    1     1     2    1
    2     1     3    2
    3     1     4    1
    4     4     5    1
    5     4     6    1
    6     4     7    1
    7     7     8    1
    8     7     9    1
    9     7    10    1
   10    10    11    1
   11    10    12    1
   12    10    13    1
   13    13    14    1
   14    13    15    1
   15    13    16    1
   16    16    17    1
   17    16    18    1
   18    16    19    1
@<TRIPOS>SUBSTRUCTURE
       1 MOL1            1 RESIDUE      1      MOL     
@<SCITEGIC>MOL_PROPERTY
VConf Rank
SciTegic.value.IntegerValue
743

@<SCITEGIC>MOL_PROPERTY
Conf_Id
SciTegic.value.IntegerValue
18

@<SCITEGIC>MOL_PROPERTY
Delta U+W
SciTegic.value.DoubleValue
-1.199

@<SCITEGIC>MOL_PROPERTY
U+W
SciTegic.value.DoubleValue
-56.090

@<SCITEGIC>MOL_PROPERTY
Grad RMS
SciTegic.value.DoubleValue
0.000000

@<SCITEGIC>MOL_PROPERTY
U
SciTegic.value.DoubleValue
5.975

@<SCITEGIC>MOL_PROPERTY
W
SciTegic.value.DoubleValue
-62.066

@<SCITEGIC>MOL_PROPERTY
W(PB)
SciTegic.value.DoubleValue
-64.219

@<SCITEGIC>MOL_PROPERTY
W(SA)
SciTegic.value.DoubleValue
2.153

@<SCITEGIC>MOL_PROPERTY
Valence
SciTegic.value.DoubleValue
6.673

@<SCITEGIC>MOL_PROPERTY
Coulomb
SciTegic.value.DoubleValue
-1.307

@<SCITEGIC>MOL_PROPERTY
VdW
SciTegic.value.DoubleValue
0.610

@<SCITEGIC>MOL_PROPERTY
VdW6
SciTegic.value.DoubleValue
-5.351

@<SCITEGIC>MOL_PROPERTY
VdW12
SciTegic.value.DoubleValue
5.961

@<SCITEGIC>MOL_PROPERTY
Bond
SciTegic.value.DoubleValue
0.086

@<SCITEGIC>MOL_PROPERTY
Angle
SciTegic.value.DoubleValue
2.253

@<SCITEGIC>MOL_PROPERTY
Pdih
SciTegic.value.DoubleValue
4.333

@<SCITEGIC>MOL_PROPERTY
Idih
SciTegic.value.DoubleValue
0.001

@<SCITEGIC>MOL_PROPERTY
Tether
SciTegic.value.DoubleValue
0.000

@<TRIPOS>MOLECULE
guest-7_confgen4.mol2 : confsearch ligand conformer 744
          19          18           1
SMALL
USER_CHARGES
 
@<TRIPOS>ATOM
       1    C1      19.426227   16.027716   20.902907 C.2        1 MOL1         0.6115
       2    O1      18.522911   15.800515   20.122722 O.co2      1 MOL1        -0.6776
       3    O2      20.392198   15.304007   21.042220 O.co2      1 MOL1        -0.6776
       4    C2      19.353888   17.301643   21.737315 C.3        1 MOL1        -0.2013
       5    H1      19.830272   17.095485   22.702405 H          1 MOL1         0.0727
       6    H2      18.297506   17.519161   21.935440 H          1 MOL1         0.0727
       7    C3      20.028112   18.513261   21.042631 C.3        1 MOL1        -0.1910
       8    H3      21.095328   18.301321   20.889525 H          1 MOL1         0.0729
       9    H4      19.589525   18.634930   20.042500 H          1 MOL1         0.0729
      10    C4      19.864850   19.840774   21.820183 C.3        1 MOL1        -0.1909
      11    H5      18.796782   20.054101   21.964163 H          1 MOL1         0.0729
      12    H6      20.264445   20.657440   21.203422 H          1 MOL1         0.0729
      13    C5      20.585682   19.844935   23.186893 C.3        1 MOL1        -0.1884
      14    H7      20.149208   19.084460   23.847596 H          1 MOL1         0.0729
      15    H8      21.643443   19.581539   23.048929 H          1 MOL1         0.0729
      16    C6      20.486509   21.221828   23.873624 C.3        1 MOL1        -0.2899
      17    H9      21.000226   21.208033   24.843672 H          1 MOL1         0.0741
      18    H10     20.948989   22.003318   23.256558 H          1 MOL1         0.0741
      19    H11     19.438551   21.498391   24.048847 H          1 MOL1         0.0741
@<TRIPOS>BOND
    1     1     2    1
    2     1     3    2
    3     1     4    1
    4     4     5    1
    5     4     6    1
    6     4     7    1
    7     7     8    1
    8     7     9    1
    9     7    10    1
   10    10    11    1
   11    10    12    1
   12    10    13    1
   13    13    14    1
   14    13    15    1
   15    13    16    1
   16    16    17    1
   17    16    18    1
   18    16    19    1
@<TRIPOS>SUBSTRUCTURE
       1 MOL1            1 RESIDUE      1      MOL     
@<SCITEGIC>MOL_PROPERTY
VConf Rank
SciTegic.value.IntegerValue
744

@<SCITEGIC>MOL_PROPERTY
Conf_Id
SciTegic.value.IntegerValue
34

@<SCITEGIC>MOL_PROPERTY
Delta U+W
SciTegic.value.DoubleValue
-0.563

@<SCITEGIC>MOL_PROPERTY
U+W
SciTegic.value.DoubleValue
-55.455

@<SCITEGIC>MOL_PROPERTY
Grad RMS
SciTegic.value.DoubleValue
0.000000

@<SCITEGIC>MOL_PROPERTY
U
SciTegic.value.DoubleValue
6.914

@<SCITEGIC>MOL_PROPERTY
W
SciTegic.value.DoubleValue
-62.369

@<SCITEGIC>MOL_PROPERTY
W(PB)
SciTegic.value.DoubleValue
-64.446

@<SCITEGIC>MOL_PROPERTY
W(SA)
SciTegic.value.DoubleValue
2.077

@<SCITEGIC>MOL_PROPERTY
Valence
SciTegic.value.DoubleValue
7.196

@<SCITEGIC>MOL_PROPERTY
Coulomb
SciTegic.value.DoubleValue
-1.020

@<SCITEGIC>MOL_PROPERTY
VdW
SciTegic.value.DoubleValue
0.738

@<SCITEGIC>MOL_PROPERTY
VdW6
SciTegic.value.DoubleValue
-6.010

@<SCITEGIC>MOL_PROPERTY
VdW12
SciTegic.value.DoubleValue
6.748

@<SCITEGIC>MOL_PROPERTY
Bond
SciTegic.value.DoubleValue
0.126

@<SCITEGIC>MOL_PROPERTY
Angle
SciTegic.value.DoubleValue
2.499

@<SCITEGIC>MOL_PROPERTY
Pdih
SciTegic.value.DoubleValue
4.570

@<SCITEGIC>MOL_PROPERTY
Idih
SciTegic.value.DoubleValue
0.001

@<SCITEGIC>MOL_PROPERTY
Tether
SciTegic.value.DoubleValue
0.000

@<TRIPOS>MOLECULE
guest-7_confgen4.mol2 : confsearch ligand conformer 745
          19          18           1
SMALL
USER_CHARGES
 
@<TRIPOS>ATOM
       1    C1      17.239630   18.260452   20.633325 C.2        1 MOL1         0.6115
       2    O1      17.192363   17.654113   19.581466 O.co2      1 MOL1        -0.6776
       3    O2      16.332149   18.951099   21.052548 O.co2      1 MOL1        -0.6776
       4    C2      18.516074   18.167006   21.461767 C.3        1 MOL1        -0.2013
       5    H1      18.954515   17.174883   21.300603 H          1 MOL1         0.0727
       6    H2      18.232948   18.229937   22.518519 H          1 MOL1         0.0727
       7    C3      19.545369   19.270822   21.104947 C.3        1 MOL1        -0.1910
       8    H3      19.737187   19.237462   20.023505 H          1 MOL1         0.0729
       9    H4      19.111007   20.258527   21.312499 H          1 MOL1         0.0729
      10    C4      20.892274   19.124405   21.851897 C.3        1 MOL1        -0.1909
      11    H5      21.594698   19.869217   21.453312 H          1 MOL1         0.0729
      12    H6      21.328010   18.139348   21.635553 H          1 MOL1         0.0729
      13    C5      20.771185   19.316079   23.380331 C.3        1 MOL1        -0.1884
      14    H7      20.288718   20.279380   23.596076 H          1 MOL1         0.0729
      15    H8      20.132337   18.533761   23.810697 H          1 MOL1         0.0729
      16    C6      22.151146   19.269823   24.066505 C.3        1 MOL1        -0.2899
      17    H9      22.645146   18.305383   23.889798 H          1 MOL1         0.0741
      18    H10     22.805905   20.065260   23.687086 H          1 MOL1         0.0741
      19    H11     22.048385   19.404382   25.151135 H          1 MOL1         0.0741
@<TRIPOS>BOND
    1     1     2    1
    2     1     3    2
    3     1     4    1
    4     4     5    1
    5     4     6    1
    6     4     7    1
    7     7     8    1
    8     7     9    1
    9     7    10    1
   10    10    11    1
   11    10    12    1
   12    10    13    1
   13    13    14    1
   14    13    15    1
   15    13    16    1
   16    16    17    1
   17    16    18    1
   18    16    19    1
@<TRIPOS>SUBSTRUCTURE
       1 MOL1            1 RESIDUE      1      MOL     
@<SCITEGIC>MOL_PROPERTY
VConf Rank
SciTegic.value.IntegerValue
745

@<SCITEGIC>MOL_PROPERTY
Conf_Id
SciTegic.value.IntegerValue
33

@<SCITEGIC>MOL_PROPERTY
Delta U+W
SciTegic.value.DoubleValue
-0.526

@<SCITEGIC>MOL_PROPERTY
U+W
SciTegic.value.DoubleValue
-55.418

@<SCITEGIC>MOL_PROPERTY
Grad RMS
SciTegic.value.DoubleValue
0.000000

@<SCITEGIC>MOL_PROPERTY
U
SciTegic.value.DoubleValue
6.914

@<SCITEGIC>MOL_PROPERTY
W
SciTegic.value.DoubleValue
-62.332

@<SCITEGIC>MOL_PROPERTY
W(PB)
SciTegic.value.DoubleValue
-64.421

@<SCITEGIC>MOL_PROPERTY
W(SA)
SciTegic.value.DoubleValue
2.090

@<SCITEGIC>MOL_PROPERTY
Valence
SciTegic.value.DoubleValue
7.196

@<SCITEGIC>MOL_PROPERTY
Coulomb
SciTegic.value.DoubleValue
-1.020

@<SCITEGIC>MOL_PROPERTY
VdW
SciTegic.value.DoubleValue
0.738

@<SCITEGIC>MOL_PROPERTY
VdW6
SciTegic.value.DoubleValue
-6.010

@<SCITEGIC>MOL_PROPERTY
VdW12
SciTegic.value.DoubleValue
6.748

@<SCITEGIC>MOL_PROPERTY
Bond
SciTegic.value.DoubleValue
0.126

@<SCITEGIC>MOL_PROPERTY
Angle
SciTegic.value.DoubleValue
2.499

@<SCITEGIC>MOL_PROPERTY
Pdih
SciTegic.value.DoubleValue
4.570

@<SCITEGIC>MOL_PROPERTY
Idih
SciTegic.value.DoubleValue
0.001

@<SCITEGIC>MOL_PROPERTY
Tether
SciTegic.value.DoubleValue
0.000

@<TRIPOS>MOLECULE
guest-7_confgen4.mol2 : confsearch ligand conformer 746
          19          18           1
SMALL
USER_CHARGES
 
@<TRIPOS>ATOM
       1    C1      20.094444   17.851179   25.200825 C.2        1 MOL1         0.6115
       2    O1      21.233601   17.500921   25.437171 O.co2      1 MOL1        -0.6776
       3    O2      19.359798   18.352999   26.028301 O.co2      1 MOL1        -0.6776
       4    C2      19.563455   17.667016   23.783561 C.3        1 MOL1        -0.2013
       5    H1      18.486859   17.467861   23.846455 H          1 MOL1         0.0727
       6    H2      20.034116   16.773261   23.356471 H          1 MOL1         0.0727
       7    C3      19.828348   18.894374   22.876993 C.3        1 MOL1        -0.1910
       8    H3      19.359226   19.782423   23.322564 H          1 MOL1         0.0729
       9    H4      20.909126   19.085359   22.844333 H          1 MOL1         0.0729
      10    C4      19.283017   18.678784   21.446331 C.3        1 MOL1        -0.1909
      11    H5      18.217230   18.418772   21.505369 H          1 MOL1         0.0729
      12    H6      19.787843   17.820078   20.982885 H          1 MOL1         0.0729
      13    C5      19.435739   19.920347   20.537605 C.3        1 MOL1        -0.1884
      14    H7      18.921689   19.726190   19.586133 H          1 MOL1         0.0729
      15    H8      18.927202   20.780180   20.995213 H          1 MOL1         0.0729
      16    C6      20.906929   20.283923   20.242203 C.3        1 MOL1        -0.2899
      17    H9      21.443887   19.429166   19.810667 H          1 MOL1         0.0741
      18    H10     20.960605   21.113523   19.525387 H          1 MOL1         0.0741
      19    H11     21.432878   20.597458   21.152597 H          1 MOL1         0.0741
@<TRIPOS>BOND
    1     1     2    1
    2     1     3    2
    3     1     4    1
    4     4     5    1
    5     4     6    1
    6     4     7    1
    7     7     8    1
    8     7     9    1
    9     7    10    1
   10    10    11    1
   11    10    12    1
   12    10    13    1
   13    13    14    1
   14    13    15    1
   15    13    16    1
   16    16    17    1
   17    16    18    1
   18    16    19    1
@<TRIPOS>SUBSTRUCTURE
       1 MOL1            1 RESIDUE      1      MOL     
@<SCITEGIC>MOL_PROPERTY
VConf Rank
SciTegic.value.IntegerValue
746

@<SCITEGIC>MOL_PROPERTY
Conf_Id
SciTegic.value.IntegerValue
42

@<SCITEGIC>MOL_PROPERTY
Delta U+W
SciTegic.value.DoubleValue
-0.344

@<SCITEGIC>MOL_PROPERTY
U+W
SciTegic.value.DoubleValue
-55.236

@<SCITEGIC>MOL_PROPERTY
Grad RMS
SciTegic.value.DoubleValue
0.000000

@<SCITEGIC>MOL_PROPERTY
U
SciTegic.value.DoubleValue
7.244

@<SCITEGIC>MOL_PROPERTY
W
SciTegic.value.DoubleValue
-62.479

@<SCITEGIC>MOL_PROPERTY
W(PB)
SciTegic.value.DoubleValue
-64.610

@<SCITEGIC>MOL_PROPERTY
W(SA)
SciTegic.value.DoubleValue
2.130

@<SCITEGIC>MOL_PROPERTY
Valence
SciTegic.value.DoubleValue
7.174

@<SCITEGIC>MOL_PROPERTY
Coulomb
SciTegic.value.DoubleValue
-0.669

@<SCITEGIC>MOL_PROPERTY
VdW
SciTegic.value.DoubleValue
0.739

@<SCITEGIC>MOL_PROPERTY
VdW6
SciTegic.value.DoubleValue
-5.969

@<SCITEGIC>MOL_PROPERTY
VdW12
SciTegic.value.DoubleValue
6.708

@<SCITEGIC>MOL_PROPERTY
Bond
SciTegic.value.DoubleValue
0.116

@<SCITEGIC>MOL_PROPERTY
Angle
SciTegic.value.DoubleValue
2.481

@<SCITEGIC>MOL_PROPERTY
Pdih
SciTegic.value.DoubleValue
4.576

@<SCITEGIC>MOL_PROPERTY
Idih
SciTegic.value.DoubleValue
0.000

@<SCITEGIC>MOL_PROPERTY
Tether
SciTegic.value.DoubleValue
0.000

@<TRIPOS>MOLECULE
guest-7_confgen4.mol2 : confsearch ligand conformer 747
          19          18           1
SMALL
USER_CHARGES
 
@<TRIPOS>ATOM
       1    C1      19.532675   19.736061   25.258197 C.2        1 MOL1         0.6115
       2    O1      18.470378   20.318414   25.350989 O.co2      1 MOL1        -0.6776
       3    O2      20.503470   19.995021   25.941381 O.co2      1 MOL1        -0.6776
       4    C2      19.660206   18.631876   24.214640 C.3        1 MOL1        -0.2013
       5    H1      18.681507   18.148638   24.108068 H          1 MOL1         0.0727
       6    H2      20.354493   17.876243   24.601502 H          1 MOL1         0.0727
       7    C3      20.149434   19.154688   22.841407 C.3        1 MOL1        -0.1910
       8    H3      19.450111   19.921854   22.483601 H          1 MOL1         0.0729
       9    H4      21.125380   19.643755   22.966231 H          1 MOL1         0.0729
      10    C4      20.265992   18.015429   21.802580 C.3        1 MOL1        -0.1909
      11    H5      19.279893   17.558654   21.641421 H          1 MOL1         0.0729
      12    H6      20.912358   17.225569   22.209181 H          1 MOL1         0.0729
      13    C5      20.849225   18.477768   20.447342 C.3        1 MOL1        -0.1884
      14    H7      21.838226   18.930246   20.603767 H          1 MOL1         0.0729
      15    H8      21.008689   17.595153   19.812671 H          1 MOL1         0.0729
      16    C6      19.936440   19.471176   19.696465 C.3        1 MOL1        -0.2899
      17    H9      19.840284   20.418173   20.242080 H          1 MOL1         0.0741
      18    H10     20.350706   19.699336   18.705875 H          1 MOL1         0.0741
      19    H11     18.932049   19.051500   19.554239 H          1 MOL1         0.0741
@<TRIPOS>BOND
    1     1     2    1
    2     1     3    2
    3     1     4    1
    4     4     5    1
    5     4     6    1
    6     4     7    1
    7     7     8    1
    8     7     9    1
    9     7    10    1
   10    10    11    1
   11    10    12    1
   12    10    13    1
   13    13    14    1
   14    13    15    1
   15    13    16    1
   16    16    17    1
   17    16    18    1
   18    16    19    1
@<TRIPOS>SUBSTRUCTURE
       1 MOL1            1 RESIDUE      1      MOL     
@<SCITEGIC>MOL_PROPERTY
VConf Rank
SciTegic.value.IntegerValue
747

@<SCITEGIC>MOL_PROPERTY
Conf_Id
SciTegic.value.IntegerValue
41

@<SCITEGIC>MOL_PROPERTY
Delta U+W
SciTegic.value.DoubleValue
-0.361

@<SCITEGIC>MOL_PROPERTY
U+W
SciTegic.value.DoubleValue
-55.252

@<SCITEGIC>MOL_PROPERTY
Grad RMS
SciTegic.value.DoubleValue
0.000000

@<SCITEGIC>MOL_PROPERTY
U
SciTegic.value.DoubleValue
7.244

@<SCITEGIC>MOL_PROPERTY
W
SciTegic.value.DoubleValue
-62.496

@<SCITEGIC>MOL_PROPERTY
W(PB)
SciTegic.value.DoubleValue
-64.596

@<SCITEGIC>MOL_PROPERTY
W(SA)
SciTegic.value.DoubleValue
2.099

@<SCITEGIC>MOL_PROPERTY
Valence
SciTegic.value.DoubleValue
7.174

@<SCITEGIC>MOL_PROPERTY
Coulomb
SciTegic.value.DoubleValue
-0.669

@<SCITEGIC>MOL_PROPERTY
VdW
SciTegic.value.DoubleValue
0.739

@<SCITEGIC>MOL_PROPERTY
VdW6
SciTegic.value.DoubleValue
-5.969

@<SCITEGIC>MOL_PROPERTY
VdW12
SciTegic.value.DoubleValue
6.708

@<SCITEGIC>MOL_PROPERTY
Bond
SciTegic.value.DoubleValue
0.116

@<SCITEGIC>MOL_PROPERTY
Angle
SciTegic.value.DoubleValue
2.481

@<SCITEGIC>MOL_PROPERTY
Pdih
SciTegic.value.DoubleValue
4.576

@<SCITEGIC>MOL_PROPERTY
Idih
SciTegic.value.DoubleValue
0.000

@<SCITEGIC>MOL_PROPERTY
Tether
SciTegic.value.DoubleValue
0.000

@<TRIPOS>MOLECULE
guest-7_confgen4.mol2 : confsearch ligand conformer 748
          19          18           1
SMALL
USER_CHARGES
 
@<TRIPOS>ATOM
       1    C1      17.536948   20.156107   23.600151 C.2        1 MOL1         0.6115
       2    O1      17.564889   19.576859   24.667972 O.co2      1 MOL1        -0.6776
       3    O2      17.459394   21.364070   23.492952 O.co2      1 MOL1        -0.6776
       4    C2      17.579161   19.321874   22.322803 C.3        1 MOL1        -0.2013
       5    H1      16.798171   19.704623   21.655219 H          1 MOL1         0.0727
       6    H2      17.306929   18.288536   22.569967 H          1 MOL1         0.0727
       7    C3      18.946596   19.354851   21.591965 C.3        1 MOL1        -0.1910
       8    H3      18.844888   18.847983   20.622803 H          1 MOL1         0.0729
       9    H4      19.219095   20.397457   21.376678 H          1 MOL1         0.0729
      10    C4      20.071760   18.677079   22.405562 C.3        1 MOL1        -0.1909
      11    H5      19.788956   17.639315   22.629389 H          1 MOL1         0.0729
      12    H6      20.191372   19.189454   23.370231 H          1 MOL1         0.0729
      13    C5      21.414937   18.693518   21.646477 C.3        1 MOL1        -0.1884
      14    H7      21.302451   18.178586   20.682308 H          1 MOL1         0.0729
      15    H8      21.701431   19.730647   21.423413 H          1 MOL1         0.0729
      16    C6      22.535459   18.016507   22.460762 C.3        1 MOL1        -0.2899
      17    H9      22.288913   16.967587   22.671448 H          1 MOL1         0.0741
      18    H10     23.482991   18.037430   21.906837 H          1 MOL1         0.0741
      19    H11     22.690878   18.531122   23.418080 H          1 MOL1         0.0741
@<TRIPOS>BOND
    1     1     2    1
    2     1     3    2
    3     1     4    1
    4     4     5    1
    5     4     6    1
    6     4     7    1
    7     7     8    1
    8     7     9    1
    9     7    10    1
   10    10    11    1
   11    10    12    1
   12    10    13    1
   13    13    14    1
   14    13    15    1
   15    13    16    1
   16    16    17    1
   17    16    18    1
   18    16    19    1
@<TRIPOS>SUBSTRUCTURE
       1 MOL1            1 RESIDUE      1      MOL     
@<SCITEGIC>MOL_PROPERTY
VConf Rank
SciTegic.value.IntegerValue
748

@<SCITEGIC>MOL_PROPERTY
Conf_Id
SciTegic.value.IntegerValue
36

@<SCITEGIC>MOL_PROPERTY
Delta U+W
SciTegic.value.DoubleValue
-0.079

@<SCITEGIC>MOL_PROPERTY
U+W
SciTegic.value.DoubleValue
-54.971

@<SCITEGIC>MOL_PROPERTY
Grad RMS
SciTegic.value.DoubleValue
0.000000

@<SCITEGIC>MOL_PROPERTY
U
SciTegic.value.DoubleValue
8.266

@<SCITEGIC>MOL_PROPERTY
W
SciTegic.value.DoubleValue
-63.237

@<SCITEGIC>MOL_PROPERTY
W(PB)
SciTegic.value.DoubleValue
-65.340

@<SCITEGIC>MOL_PROPERTY
W(SA)
SciTegic.value.DoubleValue
2.103

@<SCITEGIC>MOL_PROPERTY
Valence
SciTegic.value.DoubleValue
6.935

@<SCITEGIC>MOL_PROPERTY
Coulomb
SciTegic.value.DoubleValue
0.874

@<SCITEGIC>MOL_PROPERTY
VdW
SciTegic.value.DoubleValue
0.457

@<SCITEGIC>MOL_PROPERTY
VdW6
SciTegic.value.DoubleValue
-6.205

@<SCITEGIC>MOL_PROPERTY
VdW12
SciTegic.value.DoubleValue
6.662

@<SCITEGIC>MOL_PROPERTY
Bond
SciTegic.value.DoubleValue
0.107

@<SCITEGIC>MOL_PROPERTY
Angle
SciTegic.value.DoubleValue
2.420

@<SCITEGIC>MOL_PROPERTY
Pdih
SciTegic.value.DoubleValue
4.407

@<SCITEGIC>MOL_PROPERTY
Idih
SciTegic.value.DoubleValue
0.001

@<SCITEGIC>MOL_PROPERTY
Tether
SciTegic.value.DoubleValue
0.000

@<TRIPOS>MOLECULE
guest-7_confgen4.mol2 : confsearch ligand conformer 749
          19          18           1
SMALL
USER_CHARGES
 
@<TRIPOS>ATOM
       1    C1      18.522049   18.952850   19.979832 C.2        1 MOL1         0.6115
       2    O1      18.137384   20.105453   19.989419 O.co2      1 MOL1        -0.6776
       3    O2      17.778900   17.997468   19.871865 O.co2      1 MOL1        -0.6776
       4    C2      20.021470   18.689246   20.087522 C.3        1 MOL1        -0.2013
       5    H1      20.558423   19.612233   19.836996 H          1 MOL1         0.0727
       6    H2      20.280972   17.952507   19.318117 H          1 MOL1         0.0727
       7    C3      20.472791   18.167770   21.476574 C.3        1 MOL1        -0.1910
       8    H3      19.906261   17.259784   21.726049 H          1 MOL1         0.0729
       9    H4      21.530170   17.875527   21.421068 H          1 MOL1         0.0729
      10    C4      20.293231   19.220179   22.593490 C.3        1 MOL1        -0.1909
      11    H5      19.234593   19.505355   22.666854 H          1 MOL1         0.0729
      12    H6      20.850668   20.130449   22.333294 H          1 MOL1         0.0729
      13    C5      20.777471   18.691470   23.959720 C.3        1 MOL1        -0.1884
      14    H7      20.219776   17.782168   24.223577 H          1 MOL1         0.0729
      15    H8      21.837194   18.408556   23.893551 H          1 MOL1         0.0729
      16    C6      20.597002   19.743783   25.071946 C.3        1 MOL1        -0.2899
      17    H9      19.540628   20.022311   25.181213 H          1 MOL1         0.0741
      18    H10     20.945659   19.351410   26.036087 H          1 MOL1         0.0741
      19    H11     21.170044   20.653297   24.848755 H          1 MOL1         0.0741
@<TRIPOS>BOND
    1     1     2    1
    2     1     3    2
    3     1     4    1
    4     4     5    1
    5     4     6    1
    6     4     7    1
    7     7     8    1
    8     7     9    1
    9     7    10    1
   10    10    11    1
   11    10    12    1
   12    10    13    1
   13    13    14    1
   14    13    15    1
   15    13    16    1
   16    16    17    1
   17    16    18    1
   18    16    19    1
@<TRIPOS>SUBSTRUCTURE
       1 MOL1            1 RESIDUE      1      MOL     
@<SCITEGIC>MOL_PROPERTY
VConf Rank
SciTegic.value.IntegerValue
749

@<SCITEGIC>MOL_PROPERTY
Conf_Id
SciTegic.value.IntegerValue
35

@<SCITEGIC>MOL_PROPERTY
Delta U+W
SciTegic.value.DoubleValue
-0.030

@<SCITEGIC>MOL_PROPERTY
U+W
SciTegic.value.DoubleValue
-54.921

@<SCITEGIC>MOL_PROPERTY
Grad RMS
SciTegic.value.DoubleValue
0.000000

@<SCITEGIC>MOL_PROPERTY
U
SciTegic.value.DoubleValue
8.267

@<SCITEGIC>MOL_PROPERTY
W
SciTegic.value.DoubleValue
-63.188

@<SCITEGIC>MOL_PROPERTY
W(PB)
SciTegic.value.DoubleValue
-65.294

@<SCITEGIC>MOL_PROPERTY
W(SA)
SciTegic.value.DoubleValue
2.106

@<SCITEGIC>MOL_PROPERTY
Valence
SciTegic.value.DoubleValue
6.935

@<SCITEGIC>MOL_PROPERTY
Coulomb
SciTegic.value.DoubleValue
0.875

@<SCITEGIC>MOL_PROPERTY
VdW
SciTegic.value.DoubleValue
0.457

@<SCITEGIC>MOL_PROPERTY
VdW6
SciTegic.value.DoubleValue
-6.205

@<SCITEGIC>MOL_PROPERTY
VdW12
SciTegic.value.DoubleValue
6.662

@<SCITEGIC>MOL_PROPERTY
Bond
SciTegic.value.DoubleValue
0.107

@<SCITEGIC>MOL_PROPERTY
Angle
SciTegic.value.DoubleValue
2.420

@<SCITEGIC>MOL_PROPERTY
Pdih
SciTegic.value.DoubleValue
4.407

@<SCITEGIC>MOL_PROPERTY
Idih
SciTegic.value.DoubleValue
0.001

@<SCITEGIC>MOL_PROPERTY
Tether
SciTegic.value.DoubleValue
0.000

@<TRIPOS>MOLECULE
guest-7_confgen4.mol2 : confsearch ligand conformer 750
          19          18           1
SMALL
USER_CHARGES
 
@<TRIPOS>ATOM
       1    C1      21.974042   17.397693   23.979182 C.2        1 MOL1         0.6115
       2    O1      21.625316   17.312514   25.140148 O.co2      1 MOL1        -0.6776
       3    O2      23.092132   17.727729   23.636261 O.co2      1 MOL1        -0.6776
       4    C2      20.957485   17.049872   22.895156 C.3        1 MOL1        -0.2013
       5    H1      20.468667   16.114754   23.192991 H          1 MOL1         0.0727
       6    H2      21.496166   16.843136   21.962396 H          1 MOL1         0.0727
       7    C3      19.882577   18.143233   22.660942 C.3        1 MOL1        -0.1910
       8    H3      19.118253   17.740660   21.984115 H          1 MOL1         0.0729
       9    H4      19.378826   18.367778   23.611280 H          1 MOL1         0.0729
      10    C4      20.476038   19.440947   22.062255 C.3        1 MOL1        -0.1909
      11    H5      20.945688   19.221053   21.093805 H          1 MOL1         0.0729
      12    H6      21.277098   19.807846   22.718542 H          1 MOL1         0.0729
      13    C5      19.433653   20.569600   21.887880 C.3        1 MOL1        -0.1884
      14    H7      18.963610   20.793252   22.855532 H          1 MOL1         0.0729
      15    H8      19.955213   21.485450   21.577372 H          1 MOL1         0.0729
      16    C6      18.344217   20.240927   20.844271 C.3        1 MOL1        -0.2899
      17    H9      17.717968   19.400766   21.169177 H          1 MOL1         0.0741
      18    H10     17.685808   21.105914   20.691852 H          1 MOL1         0.0741
      19    H11     18.792671   19.982929   19.876039 H          1 MOL1         0.0741
@<TRIPOS>BOND
    1     1     2    1
    2     1     3    2
    3     1     4    1
    4     4     5    1
    5     4     6    1
    6     4     7    1
    7     7     8    1
    8     7     9    1
    9     7    10    1
   10    10    11    1
   11    10    12    1
   12    10    13    1
   13    13    14    1
   14    13    15    1
   15    13    16    1
   16    16    17    1
   17    16    18    1
   18    16    19    1
@<TRIPOS>SUBSTRUCTURE
       1 MOL1            1 RESIDUE      1      MOL     
@<SCITEGIC>MOL_PROPERTY
VConf Rank
SciTegic.value.IntegerValue
750

@<SCITEGIC>MOL_PROPERTY
Conf_Id
SciTegic.value.IntegerValue
74

@<SCITEGIC>MOL_PROPERTY
Delta U+W
SciTegic.value.DoubleValue
0.797

@<SCITEGIC>MOL_PROPERTY
U+W
SciTegic.value.DoubleValue
-54.095

@<SCITEGIC>MOL_PROPERTY
Grad RMS
SciTegic.value.DoubleValue
0.000000

@<SCITEGIC>MOL_PROPERTY
U
SciTegic.value.DoubleValue
8.869

@<SCITEGIC>MOL_PROPERTY
W
SciTegic.value.DoubleValue
-62.964

@<SCITEGIC>MOL_PROPERTY
W(PB)
SciTegic.value.DoubleValue
-65.046

@<SCITEGIC>MOL_PROPERTY
W(SA)
SciTegic.value.DoubleValue
2.082

@<SCITEGIC>MOL_PROPERTY
Valence
SciTegic.value.DoubleValue
7.469

@<SCITEGIC>MOL_PROPERTY
Coulomb
SciTegic.value.DoubleValue
0.762

@<SCITEGIC>MOL_PROPERTY
VdW
SciTegic.value.DoubleValue
0.639

@<SCITEGIC>MOL_PROPERTY
VdW6
SciTegic.value.DoubleValue
-6.782

@<SCITEGIC>MOL_PROPERTY
VdW12
SciTegic.value.DoubleValue
7.421

@<SCITEGIC>MOL_PROPERTY
Bond
SciTegic.value.DoubleValue
0.141

@<SCITEGIC>MOL_PROPERTY
Angle
SciTegic.value.DoubleValue
2.667

@<SCITEGIC>MOL_PROPERTY
Pdih
SciTegic.value.DoubleValue
4.660

@<SCITEGIC>MOL_PROPERTY
Idih
SciTegic.value.DoubleValue
0.001

@<SCITEGIC>MOL_PROPERTY
Tether
SciTegic.value.DoubleValue
0.000

@<TRIPOS>MOLECULE
guest-7_confgen4.mol2 : confsearch ligand conformer 751
          19          18           1
SMALL
USER_CHARGES
 
@<TRIPOS>ATOM
       1    C1      22.132639   18.311725   24.188585 C.2        1 MOL1         0.6115
       2    O1      22.379369   18.816313   25.266053 O.co2      1 MOL1        -0.6776
       3    O2      22.496878   17.197459   23.869115 O.co2      1 MOL1        -0.6776
       4    C2      21.304826   19.113667   23.190671 C.3        1 MOL1        -0.2013
       5    H1      21.640673   18.841552   22.183536 H          1 MOL1         0.0727
       6    H2      21.532774   20.176534   23.334576 H          1 MOL1         0.0727
       7    C3      19.780972   18.868405   23.340024 C.3        1 MOL1        -0.1910
       8    H3      19.559803   17.808634   23.156320 H          1 MOL1         0.0729
       9    H4      19.493351   19.062253   24.382568 H          1 MOL1         0.0729
      10    C4      18.916321   19.762324   22.415895 C.3        1 MOL1        -0.1909
      11    H5      19.077302   20.814695   22.686811 H          1 MOL1         0.0729
      12    H6      17.856268   19.556233   22.617380 H          1 MOL1         0.0729
      13    C5      19.179410   19.592735   20.899345 C.3        1 MOL1        -0.1884
      14    H7      18.523544   20.283239   20.351509 H          1 MOL1         0.0729
      15    H8      20.206960   19.894094   20.656583 H          1 MOL1         0.0729
      16    C6      18.923989   18.157481   20.391208 C.3        1 MOL1        -0.2899
      17    H9      17.908280   17.826274   20.643533 H          1 MOL1         0.0741
      18    H10     19.034221   18.110911   19.300110 H          1 MOL1         0.0741
      19    H11     19.637209   17.447039   20.828077 H          1 MOL1         0.0741
@<TRIPOS>BOND
    1     1     2    1
    2     1     3    2
    3     1     4    1
    4     4     5    1
    5     4     6    1
    6     4     7    1
    7     7     8    1
    8     7     9    1
    9     7    10    1
   10    10    11    1
   11    10    12    1
   12    10    13    1
   13    13    14    1
   14    13    15    1
   15    13    16    1
   16    16    17    1
   17    16    18    1
   18    16    19    1
@<TRIPOS>SUBSTRUCTURE
       1 MOL1            1 RESIDUE      1      MOL     
@<SCITEGIC>MOL_PROPERTY
VConf Rank
SciTegic.value.IntegerValue
751

@<SCITEGIC>MOL_PROPERTY
Conf_Id
SciTegic.value.IntegerValue
67

@<SCITEGIC>MOL_PROPERTY
Delta U+W
SciTegic.value.DoubleValue
0.308

@<SCITEGIC>MOL_PROPERTY
U+W
SciTegic.value.DoubleValue
-54.583

@<SCITEGIC>MOL_PROPERTY
Grad RMS
SciTegic.value.DoubleValue
0.000000

@<SCITEGIC>MOL_PROPERTY
U
SciTegic.value.DoubleValue
8.219

@<SCITEGIC>MOL_PROPERTY
W
SciTegic.value.DoubleValue
-62.802

@<SCITEGIC>MOL_PROPERTY
W(PB)
SciTegic.value.DoubleValue
-64.859

@<SCITEGIC>MOL_PROPERTY
W(SA)
SciTegic.value.DoubleValue
2.057

@<SCITEGIC>MOL_PROPERTY
Valence
SciTegic.value.DoubleValue
7.609

@<SCITEGIC>MOL_PROPERTY
Coulomb
SciTegic.value.DoubleValue
-0.089

@<SCITEGIC>MOL_PROPERTY
VdW
SciTegic.value.DoubleValue
0.699

@<SCITEGIC>MOL_PROPERTY
VdW6
SciTegic.value.DoubleValue
-6.924

@<SCITEGIC>MOL_PROPERTY
VdW12
SciTegic.value.DoubleValue
7.623

@<SCITEGIC>MOL_PROPERTY
Bond
SciTegic.value.DoubleValue
0.163

@<SCITEGIC>MOL_PROPERTY
Angle
SciTegic.value.DoubleValue
2.870

@<SCITEGIC>MOL_PROPERTY
Pdih
SciTegic.value.DoubleValue
4.576

@<SCITEGIC>MOL_PROPERTY
Idih
SciTegic.value.DoubleValue
0.001

@<SCITEGIC>MOL_PROPERTY
Tether
SciTegic.value.DoubleValue
0.000

@<TRIPOS>MOLECULE
guest-7_confgen4.mol2 : confsearch ligand conformer 752
          19          18           1
SMALL
USER_CHARGES
 
@<TRIPOS>ATOM
       1    C1      19.338253   18.315028   19.507780 C.2        1 MOL1         0.6115
       2    O1      18.426668   17.650350   19.056516 O.co2      1 MOL1        -0.6776
       3    O2      20.375370   18.526327   18.911070 O.co2      1 MOL1        -0.6776
       4    C2      19.179306   18.899251   20.906935 C.3        1 MOL1        -0.2013
       5    H1      18.117607   19.123732   21.064286 H          1 MOL1         0.0727
       6    H2      19.721522   19.851298   20.934642 H          1 MOL1         0.0727
       7    C3      19.695145   17.947687   22.017352 C.3        1 MOL1        -0.1910
       8    H3      19.198998   16.973779   21.905372 H          1 MOL1         0.0729
       9    H4      20.767310   17.760494   21.871749 H          1 MOL1         0.0729
      10    C4      19.434554   18.471458   23.452092 C.3        1 MOL1        -0.1909
      11    H5      19.788940   17.720475   24.171270 H          1 MOL1         0.0729
      12    H6      18.350441   18.553772   23.609305 H          1 MOL1         0.0729
      13    C5      20.091032   19.833424   23.786732 C.3        1 MOL1        -0.1884
      14    H7      19.673775   20.622830   23.147714 H          1 MOL1         0.0729
      15    H8      19.825248   20.105631   24.817432 H          1 MOL1         0.0729
      16    C6      21.629447   19.818614   23.658434 C.3        1 MOL1        -0.2899
      17    H9      21.941255   19.663849   22.617717 H          1 MOL1         0.0741
      18    H10     22.052136   20.774550   23.993600 H          1 MOL1         0.0741
      19    H11     22.067255   19.020800   24.272311 H          1 MOL1         0.0741
@<TRIPOS>BOND
    1     1     2    1
    2     1     3    2
    3     1     4    1
    4     4     5    1
    5     4     6    1
    6     4     7    1
    7     7     8    1
    8     7     9    1
    9     7    10    1
   10    10    11    1
   11    10    12    1
   12    10    13    1
   13    13    14    1
   14    13    15    1
   15    13    16    1
   16    16    17    1
   17    16    18    1
   18    16    19    1
@<TRIPOS>SUBSTRUCTURE
       1 MOL1            1 RESIDUE      1      MOL     
@<SCITEGIC>MOL_PROPERTY
VConf Rank
SciTegic.value.IntegerValue
752

@<SCITEGIC>MOL_PROPERTY
Conf_Id
SciTegic.value.IntegerValue
21

@<SCITEGIC>MOL_PROPERTY
Delta U+W
SciTegic.value.DoubleValue
0.319

@<SCITEGIC>MOL_PROPERTY
U+W
SciTegic.value.DoubleValue
-54.572

@<SCITEGIC>MOL_PROPERTY
Grad RMS
SciTegic.value.DoubleValue
0.000000

@<SCITEGIC>MOL_PROPERTY
U
SciTegic.value.DoubleValue
8.220

@<SCITEGIC>MOL_PROPERTY
W
SciTegic.value.DoubleValue
-62.792

@<SCITEGIC>MOL_PROPERTY
W(PB)
SciTegic.value.DoubleValue
-64.830

@<SCITEGIC>MOL_PROPERTY
W(SA)
SciTegic.value.DoubleValue
2.038

@<SCITEGIC>MOL_PROPERTY
Valence
SciTegic.value.DoubleValue
7.609

@<SCITEGIC>MOL_PROPERTY
Coulomb
SciTegic.value.DoubleValue
-0.088

@<SCITEGIC>MOL_PROPERTY
VdW
SciTegic.value.DoubleValue
0.699

@<SCITEGIC>MOL_PROPERTY
VdW6
SciTegic.value.DoubleValue
-6.924

@<SCITEGIC>MOL_PROPERTY
VdW12
SciTegic.value.DoubleValue
7.623

@<SCITEGIC>MOL_PROPERTY
Bond
SciTegic.value.DoubleValue
0.163

@<SCITEGIC>MOL_PROPERTY
Angle
SciTegic.value.DoubleValue
2.870

@<SCITEGIC>MOL_PROPERTY
Pdih
SciTegic.value.DoubleValue
4.576

@<SCITEGIC>MOL_PROPERTY
Idih
SciTegic.value.DoubleValue
0.000

@<SCITEGIC>MOL_PROPERTY
Tether
SciTegic.value.DoubleValue
0.000

@<TRIPOS>MOLECULE
guest-7_confgen4.mol2 : confsearch ligand conformer 753
          19          18           1
SMALL
USER_CHARGES
 
@<TRIPOS>ATOM
       1    C1      20.056340   16.072299   21.812707 C.2        1 MOL1         0.6115
       2    O1      19.832698   15.447543   20.794816 O.co2      1 MOL1        -0.6776
       3    O2      20.731055   15.645702   22.728692 O.co2      1 MOL1        -0.6776
       4    C2      19.473428   17.475276   21.939003 C.3        1 MOL1        -0.2013
       5    H1      19.260139   17.656214   22.997111 H          1 MOL1         0.0727
       6    H2      18.511676   17.490529   21.412519 H          1 MOL1         0.0727
       7    C3      20.411191   18.569457   21.363710 C.3        1 MOL1        -0.1910
       8    H3      21.395433   18.517838   21.849390 H          1 MOL1         0.0729
       9    H4      20.581985   18.343576   20.302012 H          1 MOL1         0.0729
      10    C4      19.830811   20.001921   21.478384 C.3        1 MOL1        -0.1909
      11    H5      18.733218   19.972262   21.442224 H          1 MOL1         0.0729
      12    H6      20.143505   20.568894   20.590838 H          1 MOL1         0.0729
      13    C5      20.301001   20.792089   22.724364 C.3        1 MOL1        -0.1884
      14    H7      21.394902   20.893387   22.704961 H          1 MOL1         0.0729
      15    H8      19.897058   21.812004   22.662732 H          1 MOL1         0.0729
      16    C6      19.868801   20.170379   24.068378 C.3        1 MOL1        -0.2899
      17    H9      20.117664   20.842754   24.899518 H          1 MOL1         0.0741
      18    H10     18.786036   19.991142   24.090086 H          1 MOL1         0.0741
      19    H11     20.384933   19.219012   24.248111 H          1 MOL1         0.0741
@<TRIPOS>BOND
    1     1     2    1
    2     1     3    2
    3     1     4    1
    4     4     5    1
    5     4     6    1
    6     4     7    1
    7     7     8    1
    8     7     9    1
    9     7    10    1
   10    10    11    1
   11    10    12    1
   12    10    13    1
   13    13    14    1
   14    13    15    1
   15    13    16    1
   16    16    17    1
   17    16    18    1
   18    16    19    1
@<TRIPOS>SUBSTRUCTURE
       1 MOL1            1 RESIDUE      1      MOL     
@<SCITEGIC>MOL_PROPERTY
VConf Rank
SciTegic.value.IntegerValue
753

@<SCITEGIC>MOL_PROPERTY
Conf_Id
SciTegic.value.IntegerValue
24

@<SCITEGIC>MOL_PROPERTY
Delta U+W
SciTegic.value.DoubleValue
2.477

@<SCITEGIC>MOL_PROPERTY
U+W
SciTegic.value.DoubleValue
-52.414

@<SCITEGIC>MOL_PROPERTY
Grad RMS
SciTegic.value.DoubleValue
0.000000

@<SCITEGIC>MOL_PROPERTY
U
SciTegic.value.DoubleValue
10.422

@<SCITEGIC>MOL_PROPERTY
W
SciTegic.value.DoubleValue
-62.836

@<SCITEGIC>MOL_PROPERTY
W(PB)
SciTegic.value.DoubleValue
-64.906

@<SCITEGIC>MOL_PROPERTY
W(SA)
SciTegic.value.DoubleValue
2.070

@<SCITEGIC>MOL_PROPERTY
Valence
SciTegic.value.DoubleValue
9.628

@<SCITEGIC>MOL_PROPERTY
Coulomb
SciTegic.value.DoubleValue
0.101

@<SCITEGIC>MOL_PROPERTY
VdW
SciTegic.value.DoubleValue
0.693

@<SCITEGIC>MOL_PROPERTY
VdW6
SciTegic.value.DoubleValue
-6.927

@<SCITEGIC>MOL_PROPERTY
VdW12
SciTegic.value.DoubleValue
7.620

@<SCITEGIC>MOL_PROPERTY
Bond
SciTegic.value.DoubleValue
0.173

@<SCITEGIC>MOL_PROPERTY
Angle
SciTegic.value.DoubleValue
2.989

@<SCITEGIC>MOL_PROPERTY
Pdih
SciTegic.value.DoubleValue
6.465

@<SCITEGIC>MOL_PROPERTY
Idih
SciTegic.value.DoubleValue
0.001

@<SCITEGIC>MOL_PROPERTY
Tether
SciTegic.value.DoubleValue
0.000

@<TRIPOS>MOLECULE
guest-7_confgen4.mol2 : confsearch ligand conformer 754
          19          18           1
SMALL
USER_CHARGES
 
@<TRIPOS>ATOM
       1    C1      22.372222   18.295954   22.365785 C.2        1 MOL1         0.6115
       2    O1      22.712359   19.018537   21.449886 O.co2      1 MOL1        -0.6776
       3    O2      23.114858   17.962124   23.268073 O.co2      1 MOL1        -0.6776
       4    C2      20.945333   17.753555   22.370683 C.3        1 MOL1        -0.2013
       5    H1      21.010160   16.674013   22.549971 H          1 MOL1         0.0727
       6    H2      20.524450   17.879943   21.368128 H          1 MOL1         0.0727
       7    C3      20.028398   18.398542   23.446860 C.3        1 MOL1        -0.1910
       8    H3      19.094668   17.826486   23.531316 H          1 MOL1         0.0729
       9    H4      20.529226   18.304221   24.420415 H          1 MOL1         0.0729
      10    C4      19.705450   19.894308   23.194139 C.3        1 MOL1        -0.1909
      11    H5      20.532932   20.382153   22.661140 H          1 MOL1         0.0729
      12    H6      19.641144   20.398132   24.168207 H          1 MOL1         0.0729
      13    C5      18.372343   20.150195   22.448984 C.3        1 MOL1        -0.1884
      14    H7      17.538017   19.737545   23.032784 H          1 MOL1         0.0729
      15    H8      18.204889   21.234875   22.398172 H          1 MOL1         0.0729
      16    C6      18.329242   19.576803   21.017580 C.3        1 MOL1        -0.2899
      17    H9      18.322843   18.479928   21.031006 H          1 MOL1         0.0741
      18    H10     17.419568   19.906284   20.499204 H          1 MOL1         0.0741
      19    H11     19.194702   19.914263   20.432272 H          1 MOL1         0.0741
@<TRIPOS>BOND
    1     1     2    1
    2     1     3    2
    3     1     4    1
    4     4     5    1
    5     4     6    1
    6     4     7    1
    7     7     8    1
    8     7     9    1
    9     7    10    1
   10    10    11    1
   11    10    12    1
   12    10    13    1
   13    13    14    1
   14    13    15    1
   15    13    16    1
   16    16    17    1
   17    16    18    1
   18    16    19    1
@<TRIPOS>SUBSTRUCTURE
       1 MOL1            1 RESIDUE      1      MOL     
@<SCITEGIC>MOL_PROPERTY
VConf Rank
SciTegic.value.IntegerValue
754

@<SCITEGIC>MOL_PROPERTY
Conf_Id
SciTegic.value.IntegerValue
4

@<SCITEGIC>MOL_PROPERTY
Delta U+W
SciTegic.value.DoubleValue
3.753

@<SCITEGIC>MOL_PROPERTY
U+W
SciTegic.value.DoubleValue
-51.138

@<SCITEGIC>MOL_PROPERTY
Grad RMS
SciTegic.value.DoubleValue
0.000000

@<SCITEGIC>MOL_PROPERTY
U
SciTegic.value.DoubleValue
12.334

@<SCITEGIC>MOL_PROPERTY
W
SciTegic.value.DoubleValue
-63.472

@<SCITEGIC>MOL_PROPERTY
W(PB)
SciTegic.value.DoubleValue
-65.500

@<SCITEGIC>MOL_PROPERTY
W(SA)
SciTegic.value.DoubleValue
2.028

@<SCITEGIC>MOL_PROPERTY
Valence
SciTegic.value.DoubleValue
9.984

@<SCITEGIC>MOL_PROPERTY
Coulomb
SciTegic.value.DoubleValue
1.767

@<SCITEGIC>MOL_PROPERTY
VdW
SciTegic.value.DoubleValue
0.583

@<SCITEGIC>MOL_PROPERTY
VdW6
SciTegic.value.DoubleValue
-7.767

@<SCITEGIC>MOL_PROPERTY
VdW12
SciTegic.value.DoubleValue
8.349

@<SCITEGIC>MOL_PROPERTY
Bond
SciTegic.value.DoubleValue
0.203

@<SCITEGIC>MOL_PROPERTY
Angle
SciTegic.value.DoubleValue
3.191

@<SCITEGIC>MOL_PROPERTY
Pdih
SciTegic.value.DoubleValue
6.589

@<SCITEGIC>MOL_PROPERTY
Idih
SciTegic.value.DoubleValue
0.001

@<SCITEGIC>MOL_PROPERTY
Tether
SciTegic.value.DoubleValue
0.000

@<TRIPOS>MOLECULE
guest-7_confgen4.mol2 : confsearch ligand conformer 755
          19          18           1
SMALL
USER_CHARGES
 
@<TRIPOS>ATOM
       1    C1      18.306797   17.201717   21.269003 C.2        1 MOL1         0.6115
       2    O1      18.536403   16.234176   20.570277 O.co2      1 MOL1        -0.6776
       3    O2      17.462009   17.212837   22.142446 O.co2      1 MOL1        -0.6776
       4    C2      19.103620   18.478520   21.013899 C.3        1 MOL1        -0.2013
       5    H1      18.577368   19.314119   21.486193 H          1 MOL1         0.0727
       6    H2      19.080876   18.663727   19.933651 H          1 MOL1         0.0727
       7    C3      20.580683   18.407014   21.491508 C.3        1 MOL1        -0.1910
       8    H3      21.039794   17.515109   21.042889 H          1 MOL1         0.0729
       9    H4      21.141079   19.265384   21.097313 H          1 MOL1         0.0729
      10    C4      20.748683   18.334198   23.031620 C.3        1 MOL1        -0.1909
      11    H5      21.617035   17.697674   23.249759 H          1 MOL1         0.0729
      12    H6      19.887276   17.829051   23.489450 H          1 MOL1         0.0729
      13    C5      20.988322   19.700230   23.720411 C.3        1 MOL1        -0.1884
      14    H7      21.175043   19.523188   24.788561 H          1 MOL1         0.0729
      15    H8      21.902780   20.159808   23.320718 H          1 MOL1         0.0729
      16    C6      19.814239   20.691223   23.582489 C.3        1 MOL1        -0.2899
      17    H9      18.871122   20.231404   23.905883 H          1 MOL1         0.0741
      18    H10     19.987937   21.580840   24.201511 H          1 MOL1         0.0741
      19    H11     19.700860   21.027996   22.544662 H          1 MOL1         0.0741
@<TRIPOS>BOND
    1     1     2    1
    2     1     3    2
    3     1     4    1
    4     4     5    1
    5     4     6    1
    6     4     7    1
    7     7     8    1
    8     7     9    1
    9     7    10    1
   10    10    11    1
   11    10    12    1
   12    10    13    1
   13    13    14    1
   14    13    15    1
   15    13    16    1
   16    16    17    1
   17    16    18    1
   18    16    19    1
@<TRIPOS>SUBSTRUCTURE
       1 MOL1            1 RESIDUE      1      MOL     
@<SCITEGIC>MOL_PROPERTY
VConf Rank
SciTegic.value.IntegerValue
755

@<SCITEGIC>MOL_PROPERTY
Conf_Id
SciTegic.value.IntegerValue
73

@<SCITEGIC>MOL_PROPERTY
Delta U+W
SciTegic.value.DoubleValue
3.707

@<SCITEGIC>MOL_PROPERTY
U+W
SciTegic.value.DoubleValue
-51.184

@<SCITEGIC>MOL_PROPERTY
Grad RMS
SciTegic.value.DoubleValue
0.000000

@<SCITEGIC>MOL_PROPERTY
U
SciTegic.value.DoubleValue
12.334

@<SCITEGIC>MOL_PROPERTY
W
SciTegic.value.DoubleValue
-63.519

@<SCITEGIC>MOL_PROPERTY
W(PB)
SciTegic.value.DoubleValue
-65.541

@<SCITEGIC>MOL_PROPERTY
W(SA)
SciTegic.value.DoubleValue
2.022

@<SCITEGIC>MOL_PROPERTY
Valence
SciTegic.value.DoubleValue
9.984

@<SCITEGIC>MOL_PROPERTY
Coulomb
SciTegic.value.DoubleValue
1.768

@<SCITEGIC>MOL_PROPERTY
VdW
SciTegic.value.DoubleValue
0.583

@<SCITEGIC>MOL_PROPERTY
VdW6
SciTegic.value.DoubleValue
-7.767

@<SCITEGIC>MOL_PROPERTY
VdW12
SciTegic.value.DoubleValue
8.350

@<SCITEGIC>MOL_PROPERTY
Bond
SciTegic.value.DoubleValue
0.203

@<SCITEGIC>MOL_PROPERTY
Angle
SciTegic.value.DoubleValue
3.192

@<SCITEGIC>MOL_PROPERTY
Pdih
SciTegic.value.DoubleValue
6.589

@<SCITEGIC>MOL_PROPERTY
Idih
SciTegic.value.DoubleValue
0.001

@<SCITEGIC>MOL_PROPERTY
Tether
SciTegic.value.DoubleValue
0.000

@<TRIPOS>MOLECULE
guest-7_confgen4.mol2 : confsearch ligand conformer 756
          19          18           1
SMALL
USER_CHARGES
 
@<TRIPOS>ATOM
       1    C1      21.394686   20.633350   21.092238 C.2        1 MOL1         0.6115
       2    O1      20.589283   20.945421   20.237457 O.co2      1 MOL1        -0.6776
       3    O2      22.237438   21.392277   21.529227 O.co2      1 MOL1        -0.6776
       4    C2      21.369704   19.203077   21.624233 C.3        1 MOL1        -0.2013
       5    H1      22.393123   18.814803   21.564845 H          1 MOL1         0.0727
       6    H2      20.764510   18.587138   20.949210 H          1 MOL1         0.0727
       7    C3      20.856765   19.077669   23.084862 C.3        1 MOL1        -0.1910
       8    H3      20.941936   18.032597   23.409570 H          1 MOL1         0.0729
       9    H4      21.523350   19.652756   23.742168 H          1 MOL1         0.0729
      10    C4      19.402916   19.572684   23.297880 C.3        1 MOL1        -0.1909
      11    H5      19.356471   20.649672   23.085696 H          1 MOL1         0.0729
      12    H6      19.145453   19.463171   24.360101 H          1 MOL1         0.0729
      13    C5      18.329554   18.852339   22.445698 C.3        1 MOL1        -0.1884
      14    H7      17.350048   19.296940   22.668847 H          1 MOL1         0.0729
      15    H8      18.509254   19.036897   21.377947 H          1 MOL1         0.0729
      16    C6      18.257116   17.332786   22.709102 C.3        1 MOL1        -0.2899
      17    H9      19.178900   16.828809   22.392505 H          1 MOL1         0.0741
      18    H10     18.099384   17.126139   23.775606 H          1 MOL1         0.0741
      19    H11     17.424737   16.885520   22.150628 H          1 MOL1         0.0741
@<TRIPOS>BOND
    1     1     2    1
    2     1     3    2
    3     1     4    1
    4     4     5    1
    5     4     6    1
    6     4     7    1
    7     7     8    1
    8     7     9    1
    9     7    10    1
   10    10    11    1
   11    10    12    1
   12    10    13    1
   13    13    14    1
   14    13    15    1
   15    13    16    1
   16    16    17    1
   17    16    18    1
   18    16    19    1
@<TRIPOS>SUBSTRUCTURE
       1 MOL1            1 RESIDUE      1      MOL     
@<SCITEGIC>MOL_PROPERTY
VConf Rank
SciTegic.value.IntegerValue
756

@<SCITEGIC>MOL_PROPERTY
Conf_Id
SciTegic.value.IntegerValue
56

@<SCITEGIC>MOL_PROPERTY
Delta U+W
SciTegic.value.DoubleValue
1.735

@<SCITEGIC>MOL_PROPERTY
U+W
SciTegic.value.DoubleValue
-53.156

@<SCITEGIC>MOL_PROPERTY
Grad RMS
SciTegic.value.DoubleValue
0.000000

@<SCITEGIC>MOL_PROPERTY
U
SciTegic.value.DoubleValue
10.214

@<SCITEGIC>MOL_PROPERTY
W
SciTegic.value.DoubleValue
-63.370

@<SCITEGIC>MOL_PROPERTY
W(PB)
SciTegic.value.DoubleValue
-65.388

@<SCITEGIC>MOL_PROPERTY
W(SA)
SciTegic.value.DoubleValue
2.018

@<SCITEGIC>MOL_PROPERTY
Valence
SciTegic.value.DoubleValue
7.868

@<SCITEGIC>MOL_PROPERTY
Coulomb
SciTegic.value.DoubleValue
1.968

@<SCITEGIC>MOL_PROPERTY
VdW
SciTegic.value.DoubleValue
0.378

@<SCITEGIC>MOL_PROPERTY
VdW6
SciTegic.value.DoubleValue
-8.067

@<SCITEGIC>MOL_PROPERTY
VdW12
SciTegic.value.DoubleValue
8.445

@<SCITEGIC>MOL_PROPERTY
Bond
SciTegic.value.DoubleValue
0.191

@<SCITEGIC>MOL_PROPERTY
Angle
SciTegic.value.DoubleValue
3.117

@<SCITEGIC>MOL_PROPERTY
Pdih
SciTegic.value.DoubleValue
4.559

@<SCITEGIC>MOL_PROPERTY
Idih
SciTegic.value.DoubleValue
0.001

@<SCITEGIC>MOL_PROPERTY
Tether
SciTegic.value.DoubleValue
0.000

@<TRIPOS>MOLECULE
guest-7_confgen4.mol2 : confsearch ligand conformer 757
          19          18           1
SMALL
USER_CHARGES
 
@<TRIPOS>ATOM
       1    C1      17.079277   18.411281   22.076852 C.2        1 MOL1         0.6115
       2    O1      16.234213   19.137338   22.561696 O.co2      1 MOL1        -0.6776
       3    O2      16.841623   17.303896   21.636860 O.co2      1 MOL1        -0.6776
       4    C2      18.519947   18.908485   22.038194 C.3        1 MOL1        -0.2013
       5    H1      18.501882   19.999534   21.930196 H          1 MOL1         0.0727
       6    H2      18.989104   18.495047   21.138489 H          1 MOL1         0.0727
       7    C3      19.327779   18.507856   23.298304 C.3        1 MOL1        -0.1910
       8    H3      18.761567   18.811089   24.189850 H          1 MOL1         0.0729
       9    H4      19.408350   17.413008   23.343157 H          1 MOL1         0.0729
      10    C4      20.741436   19.136950   23.377732 C.3        1 MOL1        -0.1909
      11    H5      21.188784   18.824244   24.331182 H          1 MOL1         0.0729
      12    H6      20.665002   20.231726   23.428947 H          1 MOL1         0.0729
      13    C5      21.700681   18.719135   22.235635 C.3        1 MOL1        -0.1884
      14    H7      22.716804   18.633779   22.644962 H          1 MOL1         0.0729
      15    H8      21.436955   17.719856   21.862542 H          1 MOL1         0.0729
      16    C6      21.740341   19.733052   21.070677 C.3        1 MOL1        -0.2899
      17    H9      22.445377   19.401328   20.297529 H          1 MOL1         0.0741
      18    H10     20.758763   19.852439   20.598586 H          1 MOL1         0.0741
      19    H11     22.068937   20.719456   21.423045 H          1 MOL1         0.0741
@<TRIPOS>BOND
    1     1     2    1
    2     1     3    2
    3     1     4    1
    4     4     5    1
    5     4     6    1
    6     4     7    1
    7     7     8    1
    8     7     9    1
    9     7    10    1
   10    10    11    1
   11    10    12    1
   12    10    13    1
   13    13    14    1
   14    13    15    1
   15    13    16    1
   16    16    17    1
   17    16    18    1
   18    16    19    1
@<TRIPOS>SUBSTRUCTURE
       1 MOL1            1 RESIDUE      1      MOL     
@<SCITEGIC>MOL_PROPERTY
VConf Rank
SciTegic.value.IntegerValue
757

@<SCITEGIC>MOL_PROPERTY
Conf_Id
SciTegic.value.IntegerValue
53

@<SCITEGIC>MOL_PROPERTY
Delta U+W
SciTegic.value.DoubleValue
2.279

@<SCITEGIC>MOL_PROPERTY
U+W
SciTegic.value.DoubleValue
-52.612

@<SCITEGIC>MOL_PROPERTY
Grad RMS
SciTegic.value.DoubleValue
0.000000

@<SCITEGIC>MOL_PROPERTY
U
SciTegic.value.DoubleValue
10.231

@<SCITEGIC>MOL_PROPERTY
W
SciTegic.value.DoubleValue
-62.843

@<SCITEGIC>MOL_PROPERTY
W(PB)
SciTegic.value.DoubleValue
-64.893

@<SCITEGIC>MOL_PROPERTY
W(SA)
SciTegic.value.DoubleValue
2.050

@<SCITEGIC>MOL_PROPERTY
Valence
SciTegic.value.DoubleValue
9.644

@<SCITEGIC>MOL_PROPERTY
Coulomb
SciTegic.value.DoubleValue
-0.164

@<SCITEGIC>MOL_PROPERTY
VdW
SciTegic.value.DoubleValue
0.751

@<SCITEGIC>MOL_PROPERTY
VdW6
SciTegic.value.DoubleValue
-6.881

@<SCITEGIC>MOL_PROPERTY
VdW12
SciTegic.value.DoubleValue
7.631

@<SCITEGIC>MOL_PROPERTY
Bond
SciTegic.value.DoubleValue
0.163

@<SCITEGIC>MOL_PROPERTY
Angle
SciTegic.value.DoubleValue
2.998

@<SCITEGIC>MOL_PROPERTY
Pdih
SciTegic.value.DoubleValue
6.482

@<SCITEGIC>MOL_PROPERTY
Idih
SciTegic.value.DoubleValue
0.001

@<SCITEGIC>MOL_PROPERTY
Tether
SciTegic.value.DoubleValue
0.000

@<TRIPOS>MOLECULE
guest-7_confgen4.mol2 : confsearch ligand conformer 758
          19          18           1
SMALL
USER_CHARGES
 
@<TRIPOS>ATOM
       1    C1      17.970745   18.136522   21.830189 C.2        1 MOL1         0.6115
       2    O1      17.254186   18.509421   22.738123 O.co2      1 MOL1        -0.6776
       3    O2      18.058804   16.975934   21.480147 O.co2      1 MOL1        -0.6776
       4    C2      18.746198   19.192323   21.044417 C.3        1 MOL1        -0.2013
       5    H1      18.512682   20.183422   21.451992 H          1 MOL1         0.0727
       6    H2      18.347470   19.171434   20.023534 H          1 MOL1         0.0727
       7    C3      20.285645   18.981929   20.989966 C.3        1 MOL1        -0.1910
       8    H3      20.512483   17.927031   20.781940 H          1 MOL1         0.0729
       9    H4      20.674928   19.548979   20.133619 H          1 MOL1         0.0729
      10    C4      21.050436   19.450757   22.252491 C.3        1 MOL1        -0.1909
      11    H5      20.824909   20.507543   22.450419 H          1 MOL1         0.0729
      12    H6      22.126908   19.399826   22.038892 H          1 MOL1         0.0729
      13    C5      20.755761   18.611724   23.515331 C.3        1 MOL1        -0.1884
      14    H7      19.712748   18.752565   23.826287 H          1 MOL1         0.0729
      15    H8      20.883120   17.543625   23.290961 H          1 MOL1         0.0729
      16    C6      21.680911   19.005514   24.684459 C.3        1 MOL1        -0.2899
      17    H9      21.553714   20.064260   24.945679 H          1 MOL1         0.0741
      18    H10     21.453093   18.406650   25.575809 H          1 MOL1         0.0741
      19    H11     22.734855   18.839900   24.425437 H          1 MOL1         0.0741
@<TRIPOS>BOND
    1     1     2    1
    2     1     3    2
    3     1     4    1
    4     4     5    1
    5     4     6    1
    6     4     7    1
    7     7     8    1
    8     7     9    1
    9     7    10    1
   10    10    11    1
   11    10    12    1
   12    10    13    1
   13    13    14    1
   14    13    15    1
   15    13    16    1
   16    16    17    1
   17    16    18    1
   18    16    19    1
@<TRIPOS>SUBSTRUCTURE
       1 MOL1            1 RESIDUE      1      MOL     
@<SCITEGIC>MOL_PROPERTY
VConf Rank
SciTegic.value.IntegerValue
758

@<SCITEGIC>MOL_PROPERTY
Conf_Id
SciTegic.value.IntegerValue
25

@<SCITEGIC>MOL_PROPERTY
Delta U+W
SciTegic.value.DoubleValue
2.065

@<SCITEGIC>MOL_PROPERTY
U+W
SciTegic.value.DoubleValue
-52.826

@<SCITEGIC>MOL_PROPERTY
Grad RMS
SciTegic.value.DoubleValue
0.000000

@<SCITEGIC>MOL_PROPERTY
U
SciTegic.value.DoubleValue
10.967

@<SCITEGIC>MOL_PROPERTY
W
SciTegic.value.DoubleValue
-63.794

@<SCITEGIC>MOL_PROPERTY
W(PB)
SciTegic.value.DoubleValue
-65.830

@<SCITEGIC>MOL_PROPERTY
W(SA)
SciTegic.value.DoubleValue
2.036

@<SCITEGIC>MOL_PROPERTY
Valence
SciTegic.value.DoubleValue
8.609

@<SCITEGIC>MOL_PROPERTY
Coulomb
SciTegic.value.DoubleValue
1.892

@<SCITEGIC>MOL_PROPERTY
VdW
SciTegic.value.DoubleValue
0.467

@<SCITEGIC>MOL_PROPERTY
VdW6
SciTegic.value.DoubleValue
-7.569

@<SCITEGIC>MOL_PROPERTY
VdW12
SciTegic.value.DoubleValue
8.036

@<SCITEGIC>MOL_PROPERTY
Bond
SciTegic.value.DoubleValue
0.170

@<SCITEGIC>MOL_PROPERTY
Angle
SciTegic.value.DoubleValue
3.195

@<SCITEGIC>MOL_PROPERTY
Pdih
SciTegic.value.DoubleValue
5.237

@<SCITEGIC>MOL_PROPERTY
Idih
SciTegic.value.DoubleValue
0.007

@<SCITEGIC>MOL_PROPERTY
Tether
SciTegic.value.DoubleValue
0.000

@<TRIPOS>MOLECULE
guest-7_confgen4.mol2 : confsearch ligand conformer 759
          19          18           1
SMALL
USER_CHARGES
 
@<TRIPOS>ATOM
       1    C1      21.372227   19.903039   20.726659 C.2        1 MOL1         0.6115
       2    O1      22.244970   20.586612   21.224951 O.co2      1 MOL1        -0.6776
       3    O2      20.508002   20.347822   19.997183 O.co2      1 MOL1        -0.6776
       4    C2      21.402338   18.395591   20.971975 C.3        1 MOL1        -0.2013
       5    H1      22.337136   18.030141   20.531270 H          1 MOL1         0.0727
       6    H2      20.586053   17.926193   20.409599 H          1 MOL1         0.0727
       7    C3      21.344987   17.964401   22.464595 C.3        1 MOL1        -0.1910
       8    H3      21.734962   16.940112   22.536486 H          1 MOL1         0.0729
       9    H4      22.024378   18.588811   23.061322 H          1 MOL1         0.0729
      10    C4      19.927961   17.974079   23.089593 C.3        1 MOL1        -0.1909
      11    H5      19.988817   17.507451   24.082349 H          1 MOL1         0.0729
      12    H6      19.256052   17.342474   22.492558 H          1 MOL1         0.0729
      13    C5      19.316145   19.384090   23.241659 C.3        1 MOL1        -0.1884
      14    H7      20.029689   20.046825   23.750611 H          1 MOL1         0.0729
      15    H8      19.122348   19.819298   22.253001 H          1 MOL1         0.0729
      16    C6      17.994731   19.344540   24.035471 C.3        1 MOL1        -0.2899
      17    H9      17.568962   20.352195   24.127112 H          1 MOL1         0.0741
      18    H10     17.254481   18.708041   23.533219 H          1 MOL1         0.0741
      19    H11     18.155306   18.951337   25.047857 H          1 MOL1         0.0741
@<TRIPOS>BOND
    1     1     2    1
    2     1     3    2
    3     1     4    1
    4     4     5    1
    5     4     6    1
    6     4     7    1
    7     7     8    1
    8     7     9    1
    9     7    10    1
   10    10    11    1
   11    10    12    1
   12    10    13    1
   13    13    14    1
   14    13    15    1
   15    13    16    1
   16    16    17    1
   17    16    18    1
   18    16    19    1
@<TRIPOS>SUBSTRUCTURE
       1 MOL1            1 RESIDUE      1      MOL     
@<SCITEGIC>MOL_PROPERTY
VConf Rank
SciTegic.value.IntegerValue
759

@<SCITEGIC>MOL_PROPERTY
Conf_Id
SciTegic.value.IntegerValue
52

@<SCITEGIC>MOL_PROPERTY
Delta U+W
SciTegic.value.DoubleValue
2.070

@<SCITEGIC>MOL_PROPERTY
U+W
SciTegic.value.DoubleValue
-52.822

@<SCITEGIC>MOL_PROPERTY
Grad RMS
SciTegic.value.DoubleValue
0.000000

@<SCITEGIC>MOL_PROPERTY
U
SciTegic.value.DoubleValue
10.967

@<SCITEGIC>MOL_PROPERTY
W
SciTegic.value.DoubleValue
-63.789

@<SCITEGIC>MOL_PROPERTY
W(PB)
SciTegic.value.DoubleValue
-65.837

@<SCITEGIC>MOL_PROPERTY
W(SA)
SciTegic.value.DoubleValue
2.048

@<SCITEGIC>MOL_PROPERTY
Valence
SciTegic.value.DoubleValue
8.609

@<SCITEGIC>MOL_PROPERTY
Coulomb
SciTegic.value.DoubleValue
1.892

@<SCITEGIC>MOL_PROPERTY
VdW
SciTegic.value.DoubleValue
0.467

@<SCITEGIC>MOL_PROPERTY
VdW6
SciTegic.value.DoubleValue
-7.569

@<SCITEGIC>MOL_PROPERTY
VdW12
SciTegic.value.DoubleValue
8.035

@<SCITEGIC>MOL_PROPERTY
Bond
SciTegic.value.DoubleValue
0.170

@<SCITEGIC>MOL_PROPERTY
Angle
SciTegic.value.DoubleValue
3.196

@<SCITEGIC>MOL_PROPERTY
Pdih
SciTegic.value.DoubleValue
5.237

@<SCITEGIC>MOL_PROPERTY
Idih
SciTegic.value.DoubleValue
0.007

@<SCITEGIC>MOL_PROPERTY
Tether
SciTegic.value.DoubleValue
0.000

@<TRIPOS>MOLECULE
guest-7_confgen4.mol2 : confsearch ligand conformer 760
          19          18           1
SMALL
USER_CHARGES
 
@<TRIPOS>ATOM
       1    C1      19.498643   18.648752   20.501503 C.2        1 MOL1         0.6115
       2    O1      19.691311   19.725564   19.970965 O.co2      1 MOL1        -0.6776
       3    O2      20.025780   17.619523   20.127988 O.co2      1 MOL1        -0.6776
       4    C2      18.449231   18.553701   21.610142 C.3        1 MOL1        -0.2013
       5    H1      18.510455   17.562985   22.076268 H          1 MOL1         0.0727
       6    H2      17.475274   18.603598   21.109949 H          1 MOL1         0.0727
       7    C3      18.512404   19.663905   22.697720 C.3        1 MOL1        -0.1910
       8    H3      18.718267   20.636579   22.229952 H          1 MOL1         0.0729
       9    H4      17.513404   19.754865   23.145022 H          1 MOL1         0.0729
      10    C4      19.517209   19.409229   23.850406 C.3        1 MOL1        -0.1909
      11    H5      19.250818   18.486149   24.383320 H          1 MOL1         0.0729
      12    H6      19.391735   20.219409   24.581728 H          1 MOL1         0.0729
      13    C5      21.005246   19.374563   23.425516 C.3        1 MOL1        -0.1884
      14    H7      21.147201   19.914139   22.478911 H          1 MOL1         0.0729
      15    H8      21.600692   19.913859   24.175018 H          1 MOL1         0.0729
      16    C6      21.561232   17.938788   23.313489 C.3        1 MOL1        -0.2899
      17    H9      21.514985   17.424522   24.282162 H          1 MOL1         0.0741
      18    H10     20.995028   17.344151   22.587162 H          1 MOL1         0.0741
      19    H11     22.609814   17.955945   22.989762 H          1 MOL1         0.0741
@<TRIPOS>BOND
    1     1     2    1
    2     1     3    2
    3     1     4    1
    4     4     5    1
    5     4     6    1
    6     4     7    1
    7     7     8    1
    8     7     9    1
    9     7    10    1
   10    10    11    1
   11    10    12    1
   12    10    13    1
   13    13    14    1
   14    13    15    1
   15    13    16    1
   16    16    17    1
   17    16    18    1
   18    16    19    1
@<TRIPOS>SUBSTRUCTURE
       1 MOL1            1 RESIDUE      1      MOL     
@<SCITEGIC>MOL_PROPERTY
VConf Rank
SciTegic.value.IntegerValue
760

@<SCITEGIC>MOL_PROPERTY
Conf_Id
SciTegic.value.IntegerValue
66

@<SCITEGIC>MOL_PROPERTY
Delta U+W
SciTegic.value.DoubleValue
5.819

@<SCITEGIC>MOL_PROPERTY
U+W
SciTegic.value.DoubleValue
-49.072

@<SCITEGIC>MOL_PROPERTY
Grad RMS
SciTegic.value.DoubleValue
0.000000

@<SCITEGIC>MOL_PROPERTY
U
SciTegic.value.DoubleValue
15.324

@<SCITEGIC>MOL_PROPERTY
W
SciTegic.value.DoubleValue
-64.396

@<SCITEGIC>MOL_PROPERTY
W(PB)
SciTegic.value.DoubleValue
-66.382

@<SCITEGIC>MOL_PROPERTY
W(SA)
SciTegic.value.DoubleValue
1.986

@<SCITEGIC>MOL_PROPERTY
Valence
SciTegic.value.DoubleValue
11.748

@<SCITEGIC>MOL_PROPERTY
Coulomb
SciTegic.value.DoubleValue
3.201

@<SCITEGIC>MOL_PROPERTY
VdW
SciTegic.value.DoubleValue
0.375

@<SCITEGIC>MOL_PROPERTY
VdW6
SciTegic.value.DoubleValue
-8.854

@<SCITEGIC>MOL_PROPERTY
VdW12
SciTegic.value.DoubleValue
9.229

@<SCITEGIC>MOL_PROPERTY
Bond
SciTegic.value.DoubleValue
0.216

@<SCITEGIC>MOL_PROPERTY
Angle
SciTegic.value.DoubleValue
3.812

@<SCITEGIC>MOL_PROPERTY
Pdih
SciTegic.value.DoubleValue
7.699

@<SCITEGIC>MOL_PROPERTY
Idih
SciTegic.value.DoubleValue
0.022

@<SCITEGIC>MOL_PROPERTY
Tether
SciTegic.value.DoubleValue
0.000

@<TRIPOS>MOLECULE
guest-7_confgen4.mol2 : confsearch ligand conformer 761
          19          18           1
SMALL
USER_CHARGES
 
@<TRIPOS>ATOM
       1    C1      18.338486   16.140275   23.290498 C.2        1 MOL1         0.6115
       2    O1      17.662530   15.207396   22.905165 O.co2      1 MOL1        -0.6776
       3    O2      18.633774   16.308042   24.457891 O.co2      1 MOL1        -0.6776
       4    C2      18.825435   17.133118   22.233702 C.3        1 MOL1        -0.2013
       5    H1      17.939368   17.527427   21.722374 H          1 MOL1         0.0727
       6    H2      19.398406   16.565542   21.490996 H          1 MOL1         0.0727
       7    C3      19.685030   18.307219   22.773160 C.3        1 MOL1        -0.1910
       8    H3      19.107417   18.868240   23.520881 H          1 MOL1         0.0729
       9    H4      20.567954   17.905342   23.289307 H          1 MOL1         0.0729
      10    C4      20.132610   19.258173   21.641957 C.3        1 MOL1        -0.1909
      11    H5      19.248407   19.658626   21.127203 H          1 MOL1         0.0729
      12    H6      20.709762   18.695241   20.895530 H          1 MOL1         0.0729
      13    C5      20.986943   20.424634   22.180362 C.3        1 MOL1        -0.1884
      14    H7      20.412360   20.991428   22.926078 H          1 MOL1         0.0729
      15    H8      21.873595   20.028169   22.694323 H          1 MOL1         0.0729
      16    C6      21.431929   21.372026   21.048361 C.3        1 MOL1        -0.2899
      17    H9      20.563695   21.808010   20.536980 H          1 MOL1         0.0741
      18    H10     22.038027   22.195124   21.448688 H          1 MOL1         0.0741
      19    H11     22.035926   20.837489   20.303459 H          1 MOL1         0.0741
@<TRIPOS>BOND
    1     1     2    1
    2     1     3    2
    3     1     4    1
    4     4     5    1
    5     4     6    1
    6     4     7    1
    7     7     8    1
    8     7     9    1
    9     7    10    1
   10    10    11    1
   11    10    12    1
   12    10    13    1
   13    13    14    1
   14    13    15    1
   15    13    16    1
   16    16    17    1
   17    16    18    1
   18    16    19    1
@<TRIPOS>SUBSTRUCTURE
       1 MOL1            1 RESIDUE      1      MOL     
@<SCITEGIC>MOL_PROPERTY
VConf Rank
SciTegic.value.IntegerValue
761

@<SCITEGIC>MOL_PROPERTY
Conf_Id
SciTegic.value.IntegerValue
0

@<SCITEGIC>MOL_PROPERTY
Delta U+W
SciTegic.value.DoubleValue
0.000

@<SCITEGIC>MOL_PROPERTY
U+W
SciTegic.value.DoubleValue
-54.891

@<SCITEGIC>MOL_PROPERTY
Grad RMS
SciTegic.value.DoubleValue
0.000000

@<SCITEGIC>MOL_PROPERTY
U
SciTegic.value.DoubleValue
6.966

@<SCITEGIC>MOL_PROPERTY
W
SciTegic.value.DoubleValue
-61.857

@<SCITEGIC>MOL_PROPERTY
W(PB)
SciTegic.value.DoubleValue
-63.965

@<SCITEGIC>MOL_PROPERTY
W(SA)
SciTegic.value.DoubleValue
2.108

@<SCITEGIC>MOL_PROPERTY
Valence
SciTegic.value.DoubleValue
7.175

@<SCITEGIC>MOL_PROPERTY
Coulomb
SciTegic.value.DoubleValue
-1.360

@<SCITEGIC>MOL_PROPERTY
VdW
SciTegic.value.DoubleValue
1.151

@<SCITEGIC>MOL_PROPERTY
VdW6
SciTegic.value.DoubleValue
-5.641

@<SCITEGIC>MOL_PROPERTY
VdW12
SciTegic.value.DoubleValue
6.792

@<SCITEGIC>MOL_PROPERTY
Bond
SciTegic.value.DoubleValue
0.119

@<SCITEGIC>MOL_PROPERTY
Angle
SciTegic.value.DoubleValue
2.715

@<SCITEGIC>MOL_PROPERTY
Pdih
SciTegic.value.DoubleValue
4.340

@<SCITEGIC>MOL_PROPERTY
Idih
SciTegic.value.DoubleValue
0.000

@<SCITEGIC>MOL_PROPERTY
Tether
SciTegic.value.DoubleValue
0.000

@<TRIPOS>MOLECULE
guest-7_confgen4.mol2 : confsearch ligand conformer 762
          19          18           1
SMALL
USER_CHARGES
 
@<TRIPOS>ATOM
       1    C1      19.959132   20.251169   25.265016 C.2        1 MOL1         0.6115
       2    O1      20.742640   21.165522   25.427046 O.co2      1 MOL1        -0.6776
       3    O2      18.916907   20.141573   25.879782 O.co2      1 MOL1        -0.6776
       4    C2      20.292338   19.194165   24.218074 C.3        1 MOL1        -0.2013
       5    H1      19.877936   18.236782   24.556350 H          1 MOL1         0.0727
       6    H2      21.382614   19.081017   24.182878 H          1 MOL1         0.0727
       7    C3      19.746125   19.545798   22.812329 C.3        1 MOL1        -0.1910
       8    H3      18.655441   19.668127   22.867039 H          1 MOL1         0.0729
       9    H4      20.160107   20.512537   22.493606 H          1 MOL1         0.0729
      10    C4      20.096781   18.460691   21.771555 C.3        1 MOL1        -0.1909
      11    H5      19.682761   17.495285   22.093689 H          1 MOL1         0.0729
      12    H6      21.187631   18.339892   21.720126 H          1 MOL1         0.0729
      13    C5      19.551339   18.813584   20.372150 C.3        1 MOL1        -0.1884
      14    H7      18.460039   18.933396   20.419078 H          1 MOL1         0.0729
      15    H8      19.964818   19.777864   20.045512 H          1 MOL1         0.0729
      16    C6      19.903220   17.727980   19.335522 C.3        1 MOL1        -0.2899
      17    H9      19.508002   17.994757   18.346713 H          1 MOL1         0.0741
      18    H10     20.990929   17.609134   19.245024 H          1 MOL1         0.0741
      19    H11     19.474897   16.758329   19.621421 H          1 MOL1         0.0741
@<TRIPOS>BOND
    1     1     2    1
    2     1     3    2
    3     1     4    1
    4     4     5    1
    5     4     6    1
    6     4     7    1
    7     7     8    1
    8     7     9    1
    9     7    10    1
   10    10    11    1
   11    10    12    1
   12    10    13    1
   13    13    14    1
   14    13    15    1
   15    13    16    1
   16    16    17    1
   17    16    18    1
   18    16    19    1
@<TRIPOS>SUBSTRUCTURE
       1 MOL1            1 RESIDUE      1      MOL     
@<SCITEGIC>MOL_PROPERTY
VConf Rank
SciTegic.value.IntegerValue
762

@<SCITEGIC>MOL_PROPERTY
Conf_Id
SciTegic.value.IntegerValue
18

@<SCITEGIC>MOL_PROPERTY
Delta U+W
SciTegic.value.DoubleValue
-1.199

@<SCITEGIC>MOL_PROPERTY
U+W
SciTegic.value.DoubleValue
-56.090

@<SCITEGIC>MOL_PROPERTY
Grad RMS
SciTegic.value.DoubleValue
0.000000

@<SCITEGIC>MOL_PROPERTY
U
SciTegic.value.DoubleValue
5.975

@<SCITEGIC>MOL_PROPERTY
W
SciTegic.value.DoubleValue
-62.066

@<SCITEGIC>MOL_PROPERTY
W(PB)
SciTegic.value.DoubleValue
-64.219

@<SCITEGIC>MOL_PROPERTY
W(SA)
SciTegic.value.DoubleValue
2.153

@<SCITEGIC>MOL_PROPERTY
Valence
SciTegic.value.DoubleValue
6.673

@<SCITEGIC>MOL_PROPERTY
Coulomb
SciTegic.value.DoubleValue
-1.307

@<SCITEGIC>MOL_PROPERTY
VdW
SciTegic.value.DoubleValue
0.610

@<SCITEGIC>MOL_PROPERTY
VdW6
SciTegic.value.DoubleValue
-5.351

@<SCITEGIC>MOL_PROPERTY
VdW12
SciTegic.value.DoubleValue
5.961

@<SCITEGIC>MOL_PROPERTY
Bond
SciTegic.value.DoubleValue
0.086

@<SCITEGIC>MOL_PROPERTY
Angle
SciTegic.value.DoubleValue
2.253

@<SCITEGIC>MOL_PROPERTY
Pdih
SciTegic.value.DoubleValue
4.333

@<SCITEGIC>MOL_PROPERTY
Idih
SciTegic.value.DoubleValue
0.001

@<SCITEGIC>MOL_PROPERTY
Tether
SciTegic.value.DoubleValue
0.000

@<TRIPOS>MOLECULE
guest-7_confgen4.mol2 : confsearch ligand conformer 763
          19          18           1
SMALL
USER_CHARGES
 
@<TRIPOS>ATOM
       1    C1      18.670222   16.489062   23.822923 C.2        1 MOL1         0.6115
       2    O1      17.496133   16.185114   23.749310 O.co2      1 MOL1        -0.6776
       3    O2      19.531256   15.746682   24.251590 O.co2      1 MOL1        -0.6776
       4    C2      19.088962   17.869861   23.330569 C.3        1 MOL1        -0.2013
       5    H1      19.932350   18.201761   23.946507 H          1 MOL1         0.0727
       6    H2      18.259070   18.562744   23.514150 H          1 MOL1         0.0727
       7    C3      19.471984   17.880580   21.827784 C.3        1 MOL1        -0.1910
       8    H3      20.332360   17.217166   21.663635 H          1 MOL1         0.0729
       9    H4      18.639315   17.457534   21.248891 H          1 MOL1         0.0729
      10    C4      19.788653   19.292749   21.280945 C.3        1 MOL1        -0.1909
      11    H5      18.923499   19.951209   21.438887 H          1 MOL1         0.0729
      12    H6      19.930807   19.221830   20.193850 H          1 MOL1         0.0729
      13    C5      21.048352   19.927565   21.911565 C.3        1 MOL1        -0.1884
      14    H7      20.898004   20.077742   22.988692 H          1 MOL1         0.0729
      15    H8      21.902971   19.246301   21.798549 H          1 MOL1         0.0729
      16    C6      21.384786   21.283292   21.258811 C.3        1 MOL1        -0.2899
      17    H9      22.279362   21.722652   21.719012 H          1 MOL1         0.0741
      18    H10     21.579723   21.165112   20.184838 H          1 MOL1         0.0741
      19    H11     20.556839   21.993903   21.381044 H          1 MOL1         0.0741
@<TRIPOS>BOND
    1     1     2    1
    2     1     3    2
    3     1     4    1
    4     4     5    1
    5     4     6    1
    6     4     7    1
    7     7     8    1
    8     7     9    1
    9     7    10    1
   10    10    11    1
   11    10    12    1
   12    10    13    1
   13    13    14    1
   14    13    15    1
   15    13    16    1
   16    16    17    1
   17    16    18    1
   18    16    19    1
@<TRIPOS>SUBSTRUCTURE
       1 MOL1            1 RESIDUE      1      MOL     
@<SCITEGIC>MOL_PROPERTY
VConf Rank
SciTegic.value.IntegerValue
763

@<SCITEGIC>MOL_PROPERTY
Conf_Id
SciTegic.value.IntegerValue
34

@<SCITEGIC>MOL_PROPERTY
Delta U+W
SciTegic.value.DoubleValue
-0.563

@<SCITEGIC>MOL_PROPERTY
U+W
SciTegic.value.DoubleValue
-55.455

@<SCITEGIC>MOL_PROPERTY
Grad RMS
SciTegic.value.DoubleValue
0.000000

@<SCITEGIC>MOL_PROPERTY
U
SciTegic.value.DoubleValue
6.914

@<SCITEGIC>MOL_PROPERTY
W
SciTegic.value.DoubleValue
-62.369

@<SCITEGIC>MOL_PROPERTY
W(PB)
SciTegic.value.DoubleValue
-64.446

@<SCITEGIC>MOL_PROPERTY
W(SA)
SciTegic.value.DoubleValue
2.077

@<SCITEGIC>MOL_PROPERTY
Valence
SciTegic.value.DoubleValue
7.196

@<SCITEGIC>MOL_PROPERTY
Coulomb
SciTegic.value.DoubleValue
-1.020

@<SCITEGIC>MOL_PROPERTY
VdW
SciTegic.value.DoubleValue
0.738

@<SCITEGIC>MOL_PROPERTY
VdW6
SciTegic.value.DoubleValue
-6.010

@<SCITEGIC>MOL_PROPERTY
VdW12
SciTegic.value.DoubleValue
6.748

@<SCITEGIC>MOL_PROPERTY
Bond
SciTegic.value.DoubleValue
0.126

@<SCITEGIC>MOL_PROPERTY
Angle
SciTegic.value.DoubleValue
2.499

@<SCITEGIC>MOL_PROPERTY
Pdih
SciTegic.value.DoubleValue
4.570

@<SCITEGIC>MOL_PROPERTY
Idih
SciTegic.value.DoubleValue
0.001

@<SCITEGIC>MOL_PROPERTY
Tether
SciTegic.value.DoubleValue
0.000

@<TRIPOS>MOLECULE
guest-7_confgen4.mol2 : confsearch ligand conformer 764
          19          18           1
SMALL
USER_CHARGES
 
@<TRIPOS>ATOM
       1    C1      21.255034   17.025686   24.441118 C.2        1 MOL1         0.6115
       2    O1      20.781989   16.887517   25.551716 O.co2      1 MOL1        -0.6776
       3    O2      22.400653   16.736786   24.157646 O.co2      1 MOL1        -0.6776
       4    C2      20.368956   17.614335   23.349003 C.3        1 MOL1        -0.2013
       5    H1      19.335390   17.305371   23.545968 H          1 MOL1         0.0727
       6    H2      20.668137   17.161648   22.396948 H          1 MOL1         0.0727
       7    C3      20.459209   19.160622   23.271324 C.3        1 MOL1        -0.1910
       8    H3      20.242181   19.576628   24.264933 H          1 MOL1         0.0729
       9    H4      21.489454   19.456388   23.029606 H          1 MOL1         0.0729
      10    C4      19.481829   19.785950   22.247987 C.3        1 MOL1        -0.1909
      11    H5      19.528250   20.879336   22.344760 H          1 MOL1         0.0729
      12    H6      18.452085   19.495373   22.497385 H          1 MOL1         0.0729
      13    C5      19.792742   19.397832   20.785041 C.3        1 MOL1        -0.1884
      14    H7      20.838196   19.641762   20.550965 H          1 MOL1         0.0729
      15    H8      19.677568   18.314644   20.647923 H          1 MOL1         0.0729
      16    C6      18.862826   20.129673   19.796644 C.3        1 MOL1        -0.2899
      17    H9      17.810974   19.881960   19.990682 H          1 MOL1         0.0741
      18    H10     18.979769   21.218211   19.879089 H          1 MOL1         0.0741
      19    H11     19.093805   19.841619   18.762833 H          1 MOL1         0.0741
@<TRIPOS>BOND
    1     1     2    1
    2     1     3    2
    3     1     4    1
    4     4     5    1
    5     4     6    1
    6     4     7    1
    7     7     8    1
    8     7     9    1
    9     7    10    1
   10    10    11    1
   11    10    12    1
   12    10    13    1
   13    13    14    1
   14    13    15    1
   15    13    16    1
   16    16    17    1
   17    16    18    1
   18    16    19    1
@<TRIPOS>SUBSTRUCTURE
       1 MOL1            1 RESIDUE      1      MOL     
@<SCITEGIC>MOL_PROPERTY
VConf Rank
SciTegic.value.IntegerValue
764

@<SCITEGIC>MOL_PROPERTY
Conf_Id
SciTegic.value.IntegerValue
33

@<SCITEGIC>MOL_PROPERTY
Delta U+W
SciTegic.value.DoubleValue
-0.526

@<SCITEGIC>MOL_PROPERTY
U+W
SciTegic.value.DoubleValue
-55.418

@<SCITEGIC>MOL_PROPERTY
Grad RMS
SciTegic.value.DoubleValue
0.000000

@<SCITEGIC>MOL_PROPERTY
U
SciTegic.value.DoubleValue
6.914

@<SCITEGIC>MOL_PROPERTY
W
SciTegic.value.DoubleValue
-62.332

@<SCITEGIC>MOL_PROPERTY
W(PB)
SciTegic.value.DoubleValue
-64.421

@<SCITEGIC>MOL_PROPERTY
W(SA)
SciTegic.value.DoubleValue
2.090

@<SCITEGIC>MOL_PROPERTY
Valence
SciTegic.value.DoubleValue
7.196

@<SCITEGIC>MOL_PROPERTY
Coulomb
SciTegic.value.DoubleValue
-1.020

@<SCITEGIC>MOL_PROPERTY
VdW
SciTegic.value.DoubleValue
0.738

@<SCITEGIC>MOL_PROPERTY
VdW6
SciTegic.value.DoubleValue
-6.010

@<SCITEGIC>MOL_PROPERTY
VdW12
SciTegic.value.DoubleValue
6.748

@<SCITEGIC>MOL_PROPERTY
Bond
SciTegic.value.DoubleValue
0.126

@<SCITEGIC>MOL_PROPERTY
Angle
SciTegic.value.DoubleValue
2.499

@<SCITEGIC>MOL_PROPERTY
Pdih
SciTegic.value.DoubleValue
4.570

@<SCITEGIC>MOL_PROPERTY
Idih
SciTegic.value.DoubleValue
0.001

@<SCITEGIC>MOL_PROPERTY
Tether
SciTegic.value.DoubleValue
0.000

@<TRIPOS>MOLECULE
guest-7_confgen4.mol2 : confsearch ligand conformer 765
          19          18           1
SMALL
USER_CHARGES
 
@<TRIPOS>ATOM
       1    C1      20.941597   21.056337   20.101822 C.2        1 MOL1         0.6115
       2    O1      20.004303   21.487903   19.460378 O.co2      1 MOL1        -0.6776
       3    O2      21.912855   21.721036   20.403610 O.co2      1 MOL1        -0.6776
       4    C2      20.888135   19.605953   20.568756 C.3        1 MOL1        -0.2013
       5    H1      21.913206   19.216730   20.589059 H          1 MOL1         0.0727
       6    H2      20.336055   19.026426   19.819033 H          1 MOL1         0.0727
       7    C3      20.227251   19.445196   21.960098 C.3        1 MOL1        -0.1910
       8    H3      20.785406   20.038431   22.697507 H          1 MOL1         0.0729
       9    H4      19.210528   19.857891   21.920361 H          1 MOL1         0.0729
      10    C4      20.183418   17.965511   22.406496 C.3        1 MOL1        -0.1909
      11    H5      21.200246   17.551043   22.370853 H          1 MOL1         0.0729
      12    H6      19.583928   17.381419   21.694838 H          1 MOL1         0.0729
      13    C5      19.624110   17.771549   23.834831 C.3        1 MOL1        -0.1884
      14    H7      19.736843   16.715707   24.117202 H          1 MOL1         0.0729
      15    H8      20.224681   18.349951   24.550436 H          1 MOL1         0.0729
      16    C6      18.137021   18.165104   23.967237 C.3        1 MOL1        -0.2899
      17    H9      17.520190   17.620305   23.240690 H          1 MOL1         0.0741
      18    H10     17.765131   17.926882   24.972170 H          1 MOL1         0.0741
      19    H11     17.991086   19.240440   23.805686 H          1 MOL1         0.0741
@<TRIPOS>BOND
    1     1     2    1
    2     1     3    2
    3     1     4    1
    4     4     5    1
    5     4     6    1
    6     4     7    1
    7     7     8    1
    8     7     9    1
    9     7    10    1
   10    10    11    1
   11    10    12    1
   12    10    13    1
   13    13    14    1
   14    13    15    1
   15    13    16    1
   16    16    17    1
   17    16    18    1
   18    16    19    1
@<TRIPOS>SUBSTRUCTURE
       1 MOL1            1 RESIDUE      1      MOL     
@<SCITEGIC>MOL_PROPERTY
VConf Rank
SciTegic.value.IntegerValue
765

@<SCITEGIC>MOL_PROPERTY
Conf_Id
SciTegic.value.IntegerValue
42

@<SCITEGIC>MOL_PROPERTY
Delta U+W
SciTegic.value.DoubleValue
-0.344

@<SCITEGIC>MOL_PROPERTY
U+W
SciTegic.value.DoubleValue
-55.236

@<SCITEGIC>MOL_PROPERTY
Grad RMS
SciTegic.value.DoubleValue
0.000000

@<SCITEGIC>MOL_PROPERTY
U
SciTegic.value.DoubleValue
7.244

@<SCITEGIC>MOL_PROPERTY
W
SciTegic.value.DoubleValue
-62.479

@<SCITEGIC>MOL_PROPERTY
W(PB)
SciTegic.value.DoubleValue
-64.610

@<SCITEGIC>MOL_PROPERTY
W(SA)
SciTegic.value.DoubleValue
2.130

@<SCITEGIC>MOL_PROPERTY
Valence
SciTegic.value.DoubleValue
7.174

@<SCITEGIC>MOL_PROPERTY
Coulomb
SciTegic.value.DoubleValue
-0.669

@<SCITEGIC>MOL_PROPERTY
VdW
SciTegic.value.DoubleValue
0.739

@<SCITEGIC>MOL_PROPERTY
VdW6
SciTegic.value.DoubleValue
-5.969

@<SCITEGIC>MOL_PROPERTY
VdW12
SciTegic.value.DoubleValue
6.708

@<SCITEGIC>MOL_PROPERTY
Bond
SciTegic.value.DoubleValue
0.116

@<SCITEGIC>MOL_PROPERTY
Angle
SciTegic.value.DoubleValue
2.481

@<SCITEGIC>MOL_PROPERTY
Pdih
SciTegic.value.DoubleValue
4.576

@<SCITEGIC>MOL_PROPERTY
Idih
SciTegic.value.DoubleValue
0.000

@<SCITEGIC>MOL_PROPERTY
Tether
SciTegic.value.DoubleValue
0.000

@<TRIPOS>MOLECULE
guest-7_confgen4.mol2 : confsearch ligand conformer 766
          19          18           1
SMALL
USER_CHARGES
 
@<TRIPOS>ATOM
       1    C1      18.172034   21.477141   22.020834 C.2        1 MOL1         0.6115
       2    O1      17.464109   21.547789   23.005756 O.co2      1 MOL1        -0.6776
       3    O2      17.811881   21.808157   20.908646 O.co2      1 MOL1        -0.6776
       4    C2      19.583810   20.925792   22.186378 C.3        1 MOL1        -0.2013
       5    H1      19.943306   21.202956   23.184712 H          1 MOL1         0.0727
       6    H2      20.232556   21.426473   21.457594 H          1 MOL1         0.0727
       7    C3      19.656158   19.389984   22.000627 C.3        1 MOL1        -0.1910
       8    H3      18.985674   18.912213   22.727130 H          1 MOL1         0.0729
       9    H4      19.284367   19.127668   21.000527 H          1 MOL1         0.0729
      10    C4      21.097255   18.858326   22.177375 C.3        1 MOL1        -0.1909
      11    H5      21.450933   19.077522   23.194169 H          1 MOL1         0.0729
      12    H6      21.764412   19.399158   21.492253 H          1 MOL1         0.0729
      13    C5      21.231106   17.343361   21.898884 C.3        1 MOL1        -0.1884
      14    H7      20.883472   17.120942   20.880549 H          1 MOL1         0.0729
      15    H8      22.295358   17.071947   21.929650 H          1 MOL1         0.0729
      16    C6      20.465187   16.465899   22.912432 C.3        1 MOL1        -0.2899
      17    H9      19.381501   16.620026   22.837507 H          1 MOL1         0.0741
      18    H10     20.662971   15.402446   22.725639 H          1 MOL1         0.0741
      19    H11     20.775426   16.691754   23.940974 H          1 MOL1         0.0741
@<TRIPOS>BOND
    1     1     2    1
    2     1     3    2
    3     1     4    1
    4     4     5    1
    5     4     6    1
    6     4     7    1
    7     7     8    1
    8     7     9    1
    9     7    10    1
   10    10    11    1
   11    10    12    1
   12    10    13    1
   13    13    14    1
   14    13    15    1
   15    13    16    1
   16    16    17    1
   17    16    18    1
   18    16    19    1
@<TRIPOS>SUBSTRUCTURE
       1 MOL1            1 RESIDUE      1      MOL     
@<SCITEGIC>MOL_PROPERTY
VConf Rank
SciTegic.value.IntegerValue
766

@<SCITEGIC>MOL_PROPERTY
Conf_Id
SciTegic.value.IntegerValue
41

@<SCITEGIC>MOL_PROPERTY
Delta U+W
SciTegic.value.DoubleValue
-0.361

@<SCITEGIC>MOL_PROPERTY
U+W
SciTegic.value.DoubleValue
-55.252

@<SCITEGIC>MOL_PROPERTY
Grad RMS
SciTegic.value.DoubleValue
0.000000

@<SCITEGIC>MOL_PROPERTY
U
SciTegic.value.DoubleValue
7.244

@<SCITEGIC>MOL_PROPERTY
W
SciTegic.value.DoubleValue
-62.496

@<SCITEGIC>MOL_PROPERTY
W(PB)
SciTegic.value.DoubleValue
-64.596

@<SCITEGIC>MOL_PROPERTY
W(SA)
SciTegic.value.DoubleValue
2.099

@<SCITEGIC>MOL_PROPERTY
Valence
SciTegic.value.DoubleValue
7.174

@<SCITEGIC>MOL_PROPERTY
Coulomb
SciTegic.value.DoubleValue
-0.669

@<SCITEGIC>MOL_PROPERTY
VdW
SciTegic.value.DoubleValue
0.739

@<SCITEGIC>MOL_PROPERTY
VdW6
SciTegic.value.DoubleValue
-5.969

@<SCITEGIC>MOL_PROPERTY
VdW12
SciTegic.value.DoubleValue
6.708

@<SCITEGIC>MOL_PROPERTY
Bond
SciTegic.value.DoubleValue
0.116

@<SCITEGIC>MOL_PROPERTY
Angle
SciTegic.value.DoubleValue
2.481

@<SCITEGIC>MOL_PROPERTY
Pdih
SciTegic.value.DoubleValue
4.576

@<SCITEGIC>MOL_PROPERTY
Idih
SciTegic.value.DoubleValue
0.000

@<SCITEGIC>MOL_PROPERTY
Tether
SciTegic.value.DoubleValue
0.000

@<TRIPOS>MOLECULE
guest-7_confgen4.mol2 : confsearch ligand conformer 767
          19          18           1
SMALL
USER_CHARGES
 
@<TRIPOS>ATOM
       1    C1      18.089768   21.109139   23.157227 C.2        1 MOL1         0.6115
       2    O1      18.685022   21.500268   24.141727 O.co2      1 MOL1        -0.6776
       3    O2      17.723709   21.840784   22.258685 O.co2      1 MOL1        -0.6776
       4    C2      17.763663   19.621896   23.051842 C.3        1 MOL1        -0.2013
       5    H1      16.713278   19.537153   22.749153 H          1 MOL1         0.0727
       6    H2      17.843402   19.174073   24.049882 H          1 MOL1         0.0727
       7    C3      18.656095   18.849491   22.045836 C.3        1 MOL1        -0.1910
       8    H3      18.264271   17.829655   21.932063 H          1 MOL1         0.0729
       9    H4      18.588075   19.326575   21.058215 H          1 MOL1         0.0729
      10    C4      20.133401   18.780524   22.493184 C.3        1 MOL1        -0.1909
      11    H5      20.194909   18.314819   23.486343 H          1 MOL1         0.0729
      12    H6      20.537985   19.797283   22.592858 H          1 MOL1         0.0729
      13    C5      20.995986   17.981311   21.494279 C.3        1 MOL1        -0.1884
      14    H7      20.598436   16.961870   21.393666 H          1 MOL1         0.0729
      15    H8      20.938189   18.446448   20.500407 H          1 MOL1         0.0729
      16    C6      22.469325   17.914236   21.943441 C.3        1 MOL1        -0.2899
      17    H9      22.559636   17.424676   22.922002 H          1 MOL1         0.0741
      18    H10     23.068117   17.343150   21.222056 H          1 MOL1         0.0741
      19    H11     22.901952   18.920258   22.022150 H          1 MOL1         0.0741
@<TRIPOS>BOND
    1     1     2    1
    2     1     3    2
    3     1     4    1
    4     4     5    1
    5     4     6    1
    6     4     7    1
    7     7     8    1
    8     7     9    1
    9     7    10    1
   10    10    11    1
   11    10    12    1
   12    10    13    1
   13    13    14    1
   14    13    15    1
   15    13    16    1
   16    16    17    1
   17    16    18    1
   18    16    19    1
@<TRIPOS>SUBSTRUCTURE
       1 MOL1            1 RESIDUE      1      MOL     
@<SCITEGIC>MOL_PROPERTY
VConf Rank
SciTegic.value.IntegerValue
767

@<SCITEGIC>MOL_PROPERTY
Conf_Id
SciTegic.value.IntegerValue
36

@<SCITEGIC>MOL_PROPERTY
Delta U+W
SciTegic.value.DoubleValue
-0.079

@<SCITEGIC>MOL_PROPERTY
U+W
SciTegic.value.DoubleValue
-54.971

@<SCITEGIC>MOL_PROPERTY
Grad RMS
SciTegic.value.DoubleValue
0.000000

@<SCITEGIC>MOL_PROPERTY
U
SciTegic.value.DoubleValue
8.266

@<SCITEGIC>MOL_PROPERTY
W
SciTegic.value.DoubleValue
-63.237

@<SCITEGIC>MOL_PROPERTY
W(PB)
SciTegic.value.DoubleValue
-65.340

@<SCITEGIC>MOL_PROPERTY
W(SA)
SciTegic.value.DoubleValue
2.103

@<SCITEGIC>MOL_PROPERTY
Valence
SciTegic.value.DoubleValue
6.935

@<SCITEGIC>MOL_PROPERTY
Coulomb
SciTegic.value.DoubleValue
0.874

@<SCITEGIC>MOL_PROPERTY
VdW
SciTegic.value.DoubleValue
0.457

@<SCITEGIC>MOL_PROPERTY
VdW6
SciTegic.value.DoubleValue
-6.205

@<SCITEGIC>MOL_PROPERTY
VdW12
SciTegic.value.DoubleValue
6.662

@<SCITEGIC>MOL_PROPERTY
Bond
SciTegic.value.DoubleValue
0.107

@<SCITEGIC>MOL_PROPERTY
Angle
SciTegic.value.DoubleValue
2.420

@<SCITEGIC>MOL_PROPERTY
Pdih
SciTegic.value.DoubleValue
4.407

@<SCITEGIC>MOL_PROPERTY
Idih
SciTegic.value.DoubleValue
0.001

@<SCITEGIC>MOL_PROPERTY
Tether
SciTegic.value.DoubleValue
0.000

@<TRIPOS>MOLECULE
guest-7_confgen4.mol2 : confsearch ligand conformer 768
          19          18           1
SMALL
USER_CHARGES
 
@<TRIPOS>ATOM
       1    C1      21.787166   21.274247   22.673678 C.2        1 MOL1         0.6115
       2    O1      22.032524   21.189085   23.860733 O.co2      1 MOL1        -0.6776
       3    O2      21.358800   22.282014   22.146811 O.co2      1 MOL1        -0.6776
       4    C2      22.050821   20.057464   21.790915 C.3        1 MOL1        -0.2013
       5    H1      22.730330   19.379837   22.322025 H          1 MOL1         0.0727
       6    H2      22.584992   20.408259   20.900009 H          1 MOL1         0.0727
       7    C3      20.767989   19.299809   21.360340 C.3        1 MOL1        -0.1910
       8    H3      20.085444   19.997551   20.855444 H          1 MOL1         0.0729
       9    H4      21.038258   18.532238   20.622557 H          1 MOL1         0.0729
      10    C4      20.045575   18.630104   22.550686 C.3        1 MOL1        -0.1909
      11    H5      19.756603   19.394027   23.285765 H          1 MOL1         0.0729
      12    H6      20.735801   17.943561   23.059878 H          1 MOL1         0.0729
      13    C5      18.790737   17.856405   22.095300 C.3        1 MOL1        -0.1884
      14    H7      18.097449   18.541348   21.587680 H          1 MOL1         0.0729
      15    H8      19.074278   17.087867   21.362916 H          1 MOL1         0.0729
      16    C6      18.072244   17.189393   23.285192 C.3        1 MOL1        -0.2899
      17    H9      17.749507   17.939264   24.019342 H          1 MOL1         0.0741
      18    H10     17.182615   16.644333   22.943788 H          1 MOL1         0.0741
      19    H11     18.733553   16.475012   23.792870 H          1 MOL1         0.0741
@<TRIPOS>BOND
    1     1     2    1
    2     1     3    2
    3     1     4    1
    4     4     5    1
    5     4     6    1
    6     4     7    1
    7     7     8    1
    8     7     9    1
    9     7    10    1
   10    10    11    1
   11    10    12    1
   12    10    13    1
   13    13    14    1
   14    13    15    1
   15    13    16    1
   16    16    17    1
   17    16    18    1
   18    16    19    1
@<TRIPOS>SUBSTRUCTURE
       1 MOL1            1 RESIDUE      1      MOL     
@<SCITEGIC>MOL_PROPERTY
VConf Rank
SciTegic.value.IntegerValue
768

@<SCITEGIC>MOL_PROPERTY
Conf_Id
SciTegic.value.IntegerValue
35

@<SCITEGIC>MOL_PROPERTY
Delta U+W
SciTegic.value.DoubleValue
-0.030

@<SCITEGIC>MOL_PROPERTY
U+W
SciTegic.value.DoubleValue
-54.921

@<SCITEGIC>MOL_PROPERTY
Grad RMS
SciTegic.value.DoubleValue
0.000000

@<SCITEGIC>MOL_PROPERTY
U
SciTegic.value.DoubleValue
8.267

@<SCITEGIC>MOL_PROPERTY
W
SciTegic.value.DoubleValue
-63.188

@<SCITEGIC>MOL_PROPERTY
W(PB)
SciTegic.value.DoubleValue
-65.294

@<SCITEGIC>MOL_PROPERTY
W(SA)
SciTegic.value.DoubleValue
2.106

@<SCITEGIC>MOL_PROPERTY
Valence
SciTegic.value.DoubleValue
6.935

@<SCITEGIC>MOL_PROPERTY
Coulomb
SciTegic.value.DoubleValue
0.875

@<SCITEGIC>MOL_PROPERTY
VdW
SciTegic.value.DoubleValue
0.457

@<SCITEGIC>MOL_PROPERTY
VdW6
SciTegic.value.DoubleValue
-6.205

@<SCITEGIC>MOL_PROPERTY
VdW12
SciTegic.value.DoubleValue
6.662

@<SCITEGIC>MOL_PROPERTY
Bond
SciTegic.value.DoubleValue
0.107

@<SCITEGIC>MOL_PROPERTY
Angle
SciTegic.value.DoubleValue
2.420

@<SCITEGIC>MOL_PROPERTY
Pdih
SciTegic.value.DoubleValue
4.407

@<SCITEGIC>MOL_PROPERTY
Idih
SciTegic.value.DoubleValue
0.001

@<SCITEGIC>MOL_PROPERTY
Tether
SciTegic.value.DoubleValue
0.000

@<TRIPOS>MOLECULE
guest-7_confgen4.mol2 : confsearch ligand conformer 769
          19          18           1
SMALL
USER_CHARGES
 
@<TRIPOS>ATOM
       1    C1      21.293253   21.517228   22.706554 C.2        1 MOL1         0.6115
       2    O1      20.497569   22.362033   23.066970 O.co2      1 MOL1        -0.6776
       3    O2      22.090438   21.686543   21.805181 O.co2      1 MOL1        -0.6776
       4    C2      21.304915   20.179633   23.441525 C.3        1 MOL1        -0.2013
       5    H1      21.272724   20.396356   24.515811 H          1 MOL1         0.0727
       6    H2      22.262177   19.680835   23.247082 H          1 MOL1         0.0727
       7    C3      20.127485   19.241659   23.067913 C.3        1 MOL1        -0.1910
       8    H3      20.135561   18.383451   23.751846 H          1 MOL1         0.0729
       9    H4      19.176964   19.768381   23.230402 H          1 MOL1         0.0729
      10    C4      20.207166   18.742063   21.605470 C.3        1 MOL1        -0.1909
      11    H5      21.140670   18.182690   21.455505 H          1 MOL1         0.0729
      12    H6      20.253067   19.607567   20.930325 H          1 MOL1         0.0729
      13    C5      19.004542   17.863378   21.190215 C.3        1 MOL1        -0.1884
      14    H7      18.069306   18.421102   21.337147 H          1 MOL1         0.0729
      15    H8      19.075757   17.655371   20.113700 H          1 MOL1         0.0729
      16    C6      18.934869   16.521747   21.951261 C.3        1 MOL1        -0.2899
      17    H9      18.745239   16.676615   23.020690 H          1 MOL1         0.0741
      18    H10     18.121476   15.898994   21.556917 H          1 MOL1         0.0741
      19    H11     19.872251   15.960406   21.844681 H          1 MOL1         0.0741
@<TRIPOS>BOND
    1     1     2    1
    2     1     3    2
    3     1     4    1
    4     4     5    1
    5     4     6    1
    6     4     7    1
    7     7     8    1
    8     7     9    1
    9     7    10    1
   10    10    11    1
   11    10    12    1
   12    10    13    1
   13    13    14    1
   14    13    15    1
   15    13    16    1
   16    16    17    1
   17    16    18    1
   18    16    19    1
@<TRIPOS>SUBSTRUCTURE
       1 MOL1            1 RESIDUE      1      MOL     
@<SCITEGIC>MOL_PROPERTY
VConf Rank
SciTegic.value.IntegerValue
769

@<SCITEGIC>MOL_PROPERTY
Conf_Id
SciTegic.value.IntegerValue
74

@<SCITEGIC>MOL_PROPERTY
Delta U+W
SciTegic.value.DoubleValue
0.797

@<SCITEGIC>MOL_PROPERTY
U+W
SciTegic.value.DoubleValue
-54.095

@<SCITEGIC>MOL_PROPERTY
Grad RMS
SciTegic.value.DoubleValue
0.000000

@<SCITEGIC>MOL_PROPERTY
U
SciTegic.value.DoubleValue
8.869

@<SCITEGIC>MOL_PROPERTY
W
SciTegic.value.DoubleValue
-62.964

@<SCITEGIC>MOL_PROPERTY
W(PB)
SciTegic.value.DoubleValue
-65.046

@<SCITEGIC>MOL_PROPERTY
W(SA)
SciTegic.value.DoubleValue
2.082

@<SCITEGIC>MOL_PROPERTY
Valence
SciTegic.value.DoubleValue
7.469

@<SCITEGIC>MOL_PROPERTY
Coulomb
SciTegic.value.DoubleValue
0.762

@<SCITEGIC>MOL_PROPERTY
VdW
SciTegic.value.DoubleValue
0.639

@<SCITEGIC>MOL_PROPERTY
VdW6
SciTegic.value.DoubleValue
-6.782

@<SCITEGIC>MOL_PROPERTY
VdW12
SciTegic.value.DoubleValue
7.421

@<SCITEGIC>MOL_PROPERTY
Bond
SciTegic.value.DoubleValue
0.141

@<SCITEGIC>MOL_PROPERTY
Angle
SciTegic.value.DoubleValue
2.667

@<SCITEGIC>MOL_PROPERTY
Pdih
SciTegic.value.DoubleValue
4.660

@<SCITEGIC>MOL_PROPERTY
Idih
SciTegic.value.DoubleValue
0.001

@<SCITEGIC>MOL_PROPERTY
Tether
SciTegic.value.DoubleValue
0.000

@<TRIPOS>MOLECULE
guest-7_confgen4.mol2 : confsearch ligand conformer 770
          19          18           1
SMALL
USER_CHARGES
 
@<TRIPOS>ATOM
       1    C1      22.046729   17.774155   20.574679 C.2        1 MOL1         0.6115
       2    O1      22.001744   16.778229   19.880035 O.co2      1 MOL1        -0.6776
       3    O2      22.820158   18.691754   20.384571 O.co2      1 MOL1        -0.6776
       4    C2      21.066250   17.886347   21.736700 C.3        1 MOL1        -0.2013
       5    H1      21.559580   18.450589   22.536335 H          1 MOL1         0.0727
       6    H2      20.874569   16.877026   22.119956 H          1 MOL1         0.0727
       7    C3      19.732829   18.567745   21.333867 C.3        1 MOL1        -0.1910
       8    H3      19.932895   19.590507   20.987874 H          1 MOL1         0.0729
       9    H4      19.310080   18.033009   20.472160 H          1 MOL1         0.0729
      10    C4      18.678368   18.584724   22.469011 C.3        1 MOL1        -0.1909
      11    H5      18.418165   17.549430   22.728347 H          1 MOL1         0.0729
      12    H6      17.755885   19.042324   22.086379 H          1 MOL1         0.0729
      13    C5      19.108118   19.327874   23.757787 C.3        1 MOL1        -0.1884
      14    H7      18.291212   19.259878   24.489306 H          1 MOL1         0.0729
      15    H8      19.968807   18.824027   24.217093 H          1 MOL1         0.0729
      16    C6      19.441073   20.816938   23.522786 C.3        1 MOL1        -0.2899
      17    H9      18.601554   21.336231   23.042605 H          1 MOL1         0.0741
      18    H10     19.649281   21.319178   24.476315 H          1 MOL1         0.0741
      19    H11     20.327489   20.931602   22.886088 H          1 MOL1         0.0741
@<TRIPOS>BOND
    1     1     2    1
    2     1     3    2
    3     1     4    1
    4     4     5    1
    5     4     6    1
    6     4     7    1
    7     7     8    1
    8     7     9    1
    9     7    10    1
   10    10    11    1
   11    10    12    1
   12    10    13    1
   13    13    14    1
   14    13    15    1
   15    13    16    1
   16    16    17    1
   17    16    18    1
   18    16    19    1
@<TRIPOS>SUBSTRUCTURE
       1 MOL1            1 RESIDUE      1      MOL     
@<SCITEGIC>MOL_PROPERTY
VConf Rank
SciTegic.value.IntegerValue
770

@<SCITEGIC>MOL_PROPERTY
Conf_Id
SciTegic.value.IntegerValue
67

@<SCITEGIC>MOL_PROPERTY
Delta U+W
SciTegic.value.DoubleValue
0.308

@<SCITEGIC>MOL_PROPERTY
U+W
SciTegic.value.DoubleValue
-54.583

@<SCITEGIC>MOL_PROPERTY
Grad RMS
SciTegic.value.DoubleValue
0.000000

@<SCITEGIC>MOL_PROPERTY
U
SciTegic.value.DoubleValue
8.219

@<SCITEGIC>MOL_PROPERTY
W
SciTegic.value.DoubleValue
-62.802

@<SCITEGIC>MOL_PROPERTY
W(PB)
SciTegic.value.DoubleValue
-64.859

@<SCITEGIC>MOL_PROPERTY
W(SA)
SciTegic.value.DoubleValue
2.057

@<SCITEGIC>MOL_PROPERTY
Valence
SciTegic.value.DoubleValue
7.609

@<SCITEGIC>MOL_PROPERTY
Coulomb
SciTegic.value.DoubleValue
-0.089

@<SCITEGIC>MOL_PROPERTY
VdW
SciTegic.value.DoubleValue
0.699

@<SCITEGIC>MOL_PROPERTY
VdW6
SciTegic.value.DoubleValue
-6.924

@<SCITEGIC>MOL_PROPERTY
VdW12
SciTegic.value.DoubleValue
7.623

@<SCITEGIC>MOL_PROPERTY
Bond
SciTegic.value.DoubleValue
0.163

@<SCITEGIC>MOL_PROPERTY
Angle
SciTegic.value.DoubleValue
2.870

@<SCITEGIC>MOL_PROPERTY
Pdih
SciTegic.value.DoubleValue
4.576

@<SCITEGIC>MOL_PROPERTY
Idih
SciTegic.value.DoubleValue
0.001

@<SCITEGIC>MOL_PROPERTY
Tether
SciTegic.value.DoubleValue
0.000

@<TRIPOS>MOLECULE
guest-7_confgen4.mol2 : confsearch ligand conformer 771
          19          18           1
SMALL
USER_CHARGES
 
@<TRIPOS>ATOM
       1    C1      19.812249   17.832122   19.587504 C.2        1 MOL1         0.6115
       2    O1      19.326315   16.784365   19.210017 O.co2      1 MOL1        -0.6776
       3    O2      20.662667   18.440165   18.968314 O.co2      1 MOL1        -0.6776
       4    C2      19.342957   18.404535   20.920292 C.3        1 MOL1        -0.2013
       5    H1      18.290461   18.129510   21.058016 H          1 MOL1         0.0727
       6    H2      19.387793   19.497238   20.848527 H          1 MOL1         0.0727
       7    C3      20.188119   17.903700   22.120064 C.3        1 MOL1        -0.1910
       8    H3      20.197866   16.805063   22.110051 H          1 MOL1         0.0729
       9    H4      21.232341   18.217559   21.990177 H          1 MOL1         0.0729
      10    C4      19.654658   18.379298   23.494819 C.3        1 MOL1        -0.1909
      11    H5      20.281681   17.945275   24.285544 H          1 MOL1         0.0729
      12    H6      18.647297   17.968378   23.647011 H          1 MOL1         0.0729
      13    C5      19.600100   19.914988   23.686076 C.3        1 MOL1        -0.1884
      14    H7      18.896173   20.361474   22.971411 H          1 MOL1         0.0729
      15    H8      19.194684   20.128619   24.684615 H          1 MOL1         0.0729
      16    C6      20.978814   20.596970   23.553990 C.3        1 MOL1        -0.2899
      17    H9      21.371817   20.507302   22.533315 H          1 MOL1         0.0741
      18    H10     20.902339   21.666614   23.788141 H          1 MOL1         0.0741
      19    H11     21.705934   20.150175   24.244425 H          1 MOL1         0.0741
@<TRIPOS>BOND
    1     1     2    1
    2     1     3    2
    3     1     4    1
    4     4     5    1
    5     4     6    1
    6     4     7    1
    7     7     8    1
    8     7     9    1
    9     7    10    1
   10    10    11    1
   11    10    12    1
   12    10    13    1
   13    13    14    1
   14    13    15    1
   15    13    16    1
   16    16    17    1
   17    16    18    1
   18    16    19    1
@<TRIPOS>SUBSTRUCTURE
       1 MOL1            1 RESIDUE      1      MOL     
@<SCITEGIC>MOL_PROPERTY
VConf Rank
SciTegic.value.IntegerValue
771

@<SCITEGIC>MOL_PROPERTY
Conf_Id
SciTegic.value.IntegerValue
21

@<SCITEGIC>MOL_PROPERTY
Delta U+W
SciTegic.value.DoubleValue
0.319

@<SCITEGIC>MOL_PROPERTY
U+W
SciTegic.value.DoubleValue
-54.572

@<SCITEGIC>MOL_PROPERTY
Grad RMS
SciTegic.value.DoubleValue
0.000000

@<SCITEGIC>MOL_PROPERTY
U
SciTegic.value.DoubleValue
8.220

@<SCITEGIC>MOL_PROPERTY
W
SciTegic.value.DoubleValue
-62.792

@<SCITEGIC>MOL_PROPERTY
W(PB)
SciTegic.value.DoubleValue
-64.830

@<SCITEGIC>MOL_PROPERTY
W(SA)
SciTegic.value.DoubleValue
2.038

@<SCITEGIC>MOL_PROPERTY
Valence
SciTegic.value.DoubleValue
7.609

@<SCITEGIC>MOL_PROPERTY
Coulomb
SciTegic.value.DoubleValue
-0.088

@<SCITEGIC>MOL_PROPERTY
VdW
SciTegic.value.DoubleValue
0.699

@<SCITEGIC>MOL_PROPERTY
VdW6
SciTegic.value.DoubleValue
-6.924

@<SCITEGIC>MOL_PROPERTY
VdW12
SciTegic.value.DoubleValue
7.623

@<SCITEGIC>MOL_PROPERTY
Bond
SciTegic.value.DoubleValue
0.163

@<SCITEGIC>MOL_PROPERTY
Angle
SciTegic.value.DoubleValue
2.870

@<SCITEGIC>MOL_PROPERTY
Pdih
SciTegic.value.DoubleValue
4.576

@<SCITEGIC>MOL_PROPERTY
Idih
SciTegic.value.DoubleValue
0.000

@<SCITEGIC>MOL_PROPERTY
Tether
SciTegic.value.DoubleValue
0.000

@<TRIPOS>MOLECULE
guest-7_confgen4.mol2 : confsearch ligand conformer 772
          19          18           1
SMALL
USER_CHARGES
 
@<TRIPOS>ATOM
       1    C1      22.718703   19.312820   23.185196 C.2        1 MOL1         0.6115
       2    O1      23.283798   18.955964   24.199967 O.co2      1 MOL1        -0.6776
       3    O2      23.298488   19.579778   22.151351 O.co2      1 MOL1        -0.6776
       4    C2      21.197653   19.413180   23.205538 C.3        1 MOL1        -0.2013
       5    H1      20.905319   20.220043   22.526320 H          1 MOL1         0.0727
       6    H2      20.892340   19.718324   24.213534 H          1 MOL1         0.0727
       7    C3      20.502474   18.080424   22.820727 C.3        1 MOL1        -0.1910
       8    H3      20.851468   17.742421   21.835212 H          1 MOL1         0.0729
       9    H4      20.823378   17.312785   23.538464 H          1 MOL1         0.0729
      10    C4      18.955015   18.163134   22.842513 C.3        1 MOL1        -0.1909
      11    H5      18.623479   18.903077   23.583772 H          1 MOL1         0.0729
      12    H6      18.566467   17.196498   23.191252 H          1 MOL1         0.0729
      13    C5      18.303980   18.457657   21.468715 C.3        1 MOL1        -0.1884
      14    H7      18.569448   17.663285   20.757550 H          1 MOL1         0.0729
      15    H8      17.212220   18.414046   21.584269 H          1 MOL1         0.0729
      16    C6      18.682593   19.827835   20.869584 C.3        1 MOL1        -0.2899
      17    H9      18.089985   20.028961   19.967821 H          1 MOL1         0.0741
      18    H10     18.494177   20.637519   21.586445 H          1 MOL1         0.0741
      19    H11     19.740890   19.854529   20.581325 H          1 MOL1         0.0741
@<TRIPOS>BOND
    1     1     2    1
    2     1     3    2
    3     1     4    1
    4     4     5    1
    5     4     6    1
    6     4     7    1
    7     7     8    1
    8     7     9    1
    9     7    10    1
   10    10    11    1
   11    10    12    1
   12    10    13    1
   13    13    14    1
   14    13    15    1
   15    13    16    1
   16    16    17    1
   17    16    18    1
   18    16    19    1
@<TRIPOS>SUBSTRUCTURE
       1 MOL1            1 RESIDUE      1      MOL     
@<SCITEGIC>MOL_PROPERTY
VConf Rank
SciTegic.value.IntegerValue
772

@<SCITEGIC>MOL_PROPERTY
Conf_Id
SciTegic.value.IntegerValue
24

@<SCITEGIC>MOL_PROPERTY
Delta U+W
SciTegic.value.DoubleValue
2.477

@<SCITEGIC>MOL_PROPERTY
U+W
SciTegic.value.DoubleValue
-52.414

@<SCITEGIC>MOL_PROPERTY
Grad RMS
SciTegic.value.DoubleValue
0.000000

@<SCITEGIC>MOL_PROPERTY
U
SciTegic.value.DoubleValue
10.422

@<SCITEGIC>MOL_PROPERTY
W
SciTegic.value.DoubleValue
-62.836

@<SCITEGIC>MOL_PROPERTY
W(PB)
SciTegic.value.DoubleValue
-64.906

@<SCITEGIC>MOL_PROPERTY
W(SA)
SciTegic.value.DoubleValue
2.070

@<SCITEGIC>MOL_PROPERTY
Valence
SciTegic.value.DoubleValue
9.628

@<SCITEGIC>MOL_PROPERTY
Coulomb
SciTegic.value.DoubleValue
0.101

@<SCITEGIC>MOL_PROPERTY
VdW
SciTegic.value.DoubleValue
0.693

@<SCITEGIC>MOL_PROPERTY
VdW6
SciTegic.value.DoubleValue
-6.927

@<SCITEGIC>MOL_PROPERTY
VdW12
SciTegic.value.DoubleValue
7.620

@<SCITEGIC>MOL_PROPERTY
Bond
SciTegic.value.DoubleValue
0.173

@<SCITEGIC>MOL_PROPERTY
Angle
SciTegic.value.DoubleValue
2.989

@<SCITEGIC>MOL_PROPERTY
Pdih
SciTegic.value.DoubleValue
6.465

@<SCITEGIC>MOL_PROPERTY
Idih
SciTegic.value.DoubleValue
0.001

@<SCITEGIC>MOL_PROPERTY
Tether
SciTegic.value.DoubleValue
0.000

@<TRIPOS>MOLECULE
guest-7_confgen4.mol2 : confsearch ligand conformer 773
          19          18           1
SMALL
USER_CHARGES
 
@<TRIPOS>ATOM
       1    C1      22.358888   18.256019   22.484708 C.2        1 MOL1         0.6115
       2    O1      22.121329   17.090692   22.734247 O.co2      1 MOL1        -0.6776
       3    O2      23.328660   18.621815   21.850034 O.co2      1 MOL1        -0.6776
       4    C2      21.406050   19.321607   23.020296 C.3        1 MOL1        -0.2013
       5    H1      22.019658   20.091242   23.502897 H          1 MOL1         0.0727
       6    H2      20.791909   18.871748   23.806864 H          1 MOL1         0.0727
       7    C3      20.519341   19.982061   21.928287 C.3        1 MOL1        -0.1910
       8    H3      20.016853   20.866712   22.341967 H          1 MOL1         0.0729
       9    H4      21.180499   20.354570   21.133528 H          1 MOL1         0.0729
      10    C4      19.469504   19.029492   21.299056 C.3        1 MOL1        -0.1909
      11    H5      19.835480   17.993732   21.307397 H          1 MOL1         0.0729
      12    H6      19.358662   19.297118   20.239399 H          1 MOL1         0.0729
      13    C5      18.064363   19.099267   21.946062 C.3        1 MOL1        -0.1884
      14    H7      17.665900   20.119069   21.854223 H          1 MOL1         0.0729
      15    H8      17.385587   18.451570   21.374305 H          1 MOL1         0.0729
      16    C6      18.028900   18.666564   23.426287 C.3        1 MOL1        -0.2899
      17    H9      18.558095   19.387319   24.061756 H          1 MOL1         0.0741
      18    H10     16.993034   18.608244   23.784558 H          1 MOL1         0.0741
      19    H11     18.490094   17.679020   23.558735 H          1 MOL1         0.0741
@<TRIPOS>BOND
    1     1     2    1
    2     1     3    2
    3     1     4    1
    4     4     5    1
    5     4     6    1
    6     4     7    1
    7     7     8    1
    8     7     9    1
    9     7    10    1
   10    10    11    1
   11    10    12    1
   12    10    13    1
   13    13    14    1
   14    13    15    1
   15    13    16    1
   16    16    17    1
   17    16    18    1
   18    16    19    1
@<TRIPOS>SUBSTRUCTURE
       1 MOL1            1 RESIDUE      1      MOL     
@<SCITEGIC>MOL_PROPERTY
VConf Rank
SciTegic.value.IntegerValue
773

@<SCITEGIC>MOL_PROPERTY
Conf_Id
SciTegic.value.IntegerValue
4

@<SCITEGIC>MOL_PROPERTY
Delta U+W
SciTegic.value.DoubleValue
3.753

@<SCITEGIC>MOL_PROPERTY
U+W
SciTegic.value.DoubleValue
-51.138

@<SCITEGIC>MOL_PROPERTY
Grad RMS
SciTegic.value.DoubleValue
0.000000

@<SCITEGIC>MOL_PROPERTY
U
SciTegic.value.DoubleValue
12.334

@<SCITEGIC>MOL_PROPERTY
W
SciTegic.value.DoubleValue
-63.472

@<SCITEGIC>MOL_PROPERTY
W(PB)
SciTegic.value.DoubleValue
-65.500

@<SCITEGIC>MOL_PROPERTY
W(SA)
SciTegic.value.DoubleValue
2.028

@<SCITEGIC>MOL_PROPERTY
Valence
SciTegic.value.DoubleValue
9.984

@<SCITEGIC>MOL_PROPERTY
Coulomb
SciTegic.value.DoubleValue
1.767

@<SCITEGIC>MOL_PROPERTY
VdW
SciTegic.value.DoubleValue
0.583

@<SCITEGIC>MOL_PROPERTY
VdW6
SciTegic.value.DoubleValue
-7.767

@<SCITEGIC>MOL_PROPERTY
VdW12
SciTegic.value.DoubleValue
8.349

@<SCITEGIC>MOL_PROPERTY
Bond
SciTegic.value.DoubleValue
0.203

@<SCITEGIC>MOL_PROPERTY
Angle
SciTegic.value.DoubleValue
3.191

@<SCITEGIC>MOL_PROPERTY
Pdih
SciTegic.value.DoubleValue
6.589

@<SCITEGIC>MOL_PROPERTY
Idih
SciTegic.value.DoubleValue
0.001

@<SCITEGIC>MOL_PROPERTY
Tether
SciTegic.value.DoubleValue
0.000

@<TRIPOS>MOLECULE
guest-7_confgen4.mol2 : confsearch ligand conformer 774
          19          18           1
SMALL
USER_CHARGES
 
@<TRIPOS>ATOM
       1    C1      17.605719   19.881332   21.730315 C.2        1 MOL1         0.6115
       2    O1      17.082076   19.994772   20.639443 O.co2      1 MOL1        -0.6776
       3    O2      17.009651   19.521062   22.726107 O.co2      1 MOL1        -0.6776
       4    C2      19.084089   20.239154   21.859212 C.3        1 MOL1        -0.2013
       5    H1      19.312300   20.387370   22.919486 H          1 MOL1         0.0727
       6    H2      19.226090   21.209392   21.369078 H          1 MOL1         0.0727
       7    C3      20.043978   19.196543   21.221628 C.3        1 MOL1        -0.1910
       8    H3      19.728149   19.035776   20.181465 H          1 MOL1         0.0729
       9    H4      21.059925   19.610299   21.167862 H          1 MOL1         0.0729
      10    C4      20.073330   17.828535   21.951810 C.3        1 MOL1        -0.1909
      11    H5      20.210089   17.042378   21.196802 H          1 MOL1         0.0729
      12    H6      19.102526   17.622637   22.422927 H          1 MOL1         0.0729
      13    C5      21.209444   17.676474   22.992975 C.3        1 MOL1        -0.1884
      14    H7      21.187078   16.650270   23.384841 H          1 MOL1         0.0729
      15    H8      22.182782   17.794872   22.497197 H          1 MOL1         0.0729
      16    C6      21.115090   18.659276   24.178199 C.3        1 MOL1        -0.2899
      17    H9      20.123449   18.615757   24.647498 H          1 MOL1         0.0741
      18    H10     21.863376   18.412294   24.942298 H          1 MOL1         0.0741
      19    H11     21.302786   19.690022   23.853102 H          1 MOL1         0.0741
@<TRIPOS>BOND
    1     1     2    1
    2     1     3    2
    3     1     4    1
    4     4     5    1
    5     4     6    1
    6     4     7    1
    7     7     8    1
    8     7     9    1
    9     7    10    1
   10    10    11    1
   11    10    12    1
   12    10    13    1
   13    13    14    1
   14    13    15    1
   15    13    16    1
   16    16    17    1
   17    16    18    1
   18    16    19    1
@<TRIPOS>SUBSTRUCTURE
       1 MOL1            1 RESIDUE      1      MOL     
@<SCITEGIC>MOL_PROPERTY
VConf Rank
SciTegic.value.IntegerValue
774

@<SCITEGIC>MOL_PROPERTY
Conf_Id
SciTegic.value.IntegerValue
73

@<SCITEGIC>MOL_PROPERTY
Delta U+W
SciTegic.value.DoubleValue
3.707

@<SCITEGIC>MOL_PROPERTY
U+W
SciTegic.value.DoubleValue
-51.184

@<SCITEGIC>MOL_PROPERTY
Grad RMS
SciTegic.value.DoubleValue
0.000000

@<SCITEGIC>MOL_PROPERTY
U
SciTegic.value.DoubleValue
12.334

@<SCITEGIC>MOL_PROPERTY
W
SciTegic.value.DoubleValue
-63.519

@<SCITEGIC>MOL_PROPERTY
W(PB)
SciTegic.value.DoubleValue
-65.541

@<SCITEGIC>MOL_PROPERTY
W(SA)
SciTegic.value.DoubleValue
2.022

@<SCITEGIC>MOL_PROPERTY
Valence
SciTegic.value.DoubleValue
9.984

@<SCITEGIC>MOL_PROPERTY
Coulomb
SciTegic.value.DoubleValue
1.768

@<SCITEGIC>MOL_PROPERTY
VdW
SciTegic.value.DoubleValue
0.583

@<SCITEGIC>MOL_PROPERTY
VdW6
SciTegic.value.DoubleValue
-7.767

@<SCITEGIC>MOL_PROPERTY
VdW12
SciTegic.value.DoubleValue
8.350

@<SCITEGIC>MOL_PROPERTY
Bond
SciTegic.value.DoubleValue
0.203

@<SCITEGIC>MOL_PROPERTY
Angle
SciTegic.value.DoubleValue
3.192

@<SCITEGIC>MOL_PROPERTY
Pdih
SciTegic.value.DoubleValue
6.589

@<SCITEGIC>MOL_PROPERTY
Idih
SciTegic.value.DoubleValue
0.001

@<SCITEGIC>MOL_PROPERTY
Tether
SciTegic.value.DoubleValue
0.000

@<TRIPOS>MOLECULE
guest-7_confgen4.mol2 : confsearch ligand conformer 775
          19          18           1
SMALL
USER_CHARGES
 
@<TRIPOS>ATOM
       1    C1      21.228352   18.019622   24.339841 C.2        1 MOL1         0.6115
       2    O1      22.097687   17.516842   23.655604 O.co2      1 MOL1        -0.6776
       3    O2      21.429236   18.486226   25.443964 O.co2      1 MOL1        -0.6776
       4    C2      19.800977   18.038640   23.799877 C.3        1 MOL1        -0.2013
       5    H1      19.150702   17.629551   24.581834 H          1 MOL1         0.0727
       6    H2      19.736848   17.348723   22.950643 H          1 MOL1         0.0727
       7    C3      19.293470   19.449927   23.396173 C.3        1 MOL1        -0.1910
       8    H3      18.241137   19.382291   23.091401 H          1 MOL1         0.0729
       9    H4      19.309041   20.096496   24.284326 H          1 MOL1         0.0729
      10    C4      20.118447   20.130311   22.273416 C.3        1 MOL1        -0.1909
      11    H5      21.141376   20.303197   22.635089 H          1 MOL1         0.0729
      12    H6      19.695242   21.125074   22.078639 H          1 MOL1         0.0729
      13    C5      20.189437   19.346571   20.940026 C.3        1 MOL1        -0.1884
      14    H7      20.809537   19.914859   20.233328 H          1 MOL1         0.0729
      15    H8      20.705073   18.388788   21.092395 H          1 MOL1         0.0729
      16    C6      18.806052   19.100090   20.300365 C.3        1 MOL1        -0.2899
      17    H9      18.190644   18.439131   20.923516 H          1 MOL1         0.0741
      18    H10     18.264638   20.044555   20.159404 H          1 MOL1         0.0741
      19    H11     18.916732   18.623153   19.317982 H          1 MOL1         0.0741
@<TRIPOS>BOND
    1     1     2    1
    2     1     3    2
    3     1     4    1
    4     4     5    1
    5     4     6    1
    6     4     7    1
    7     7     8    1
    8     7     9    1
    9     7    10    1
   10    10    11    1
   11    10    12    1
   12    10    13    1
   13    13    14    1
   14    13    15    1
   15    13    16    1
   16    16    17    1
   17    16    18    1
   18    16    19    1
@<TRIPOS>SUBSTRUCTURE
       1 MOL1            1 RESIDUE      1      MOL     
@<SCITEGIC>MOL_PROPERTY
VConf Rank
SciTegic.value.IntegerValue
775

@<SCITEGIC>MOL_PROPERTY
Conf_Id
SciTegic.value.IntegerValue
56

@<SCITEGIC>MOL_PROPERTY
Delta U+W
SciTegic.value.DoubleValue
1.735

@<SCITEGIC>MOL_PROPERTY
U+W
SciTegic.value.DoubleValue
-53.156

@<SCITEGIC>MOL_PROPERTY
Grad RMS
SciTegic.value.DoubleValue
0.000000

@<SCITEGIC>MOL_PROPERTY
U
SciTegic.value.DoubleValue
10.214

@<SCITEGIC>MOL_PROPERTY
W
SciTegic.value.DoubleValue
-63.370

@<SCITEGIC>MOL_PROPERTY
W(PB)
SciTegic.value.DoubleValue
-65.388

@<SCITEGIC>MOL_PROPERTY
W(SA)
SciTegic.value.DoubleValue
2.018

@<SCITEGIC>MOL_PROPERTY
Valence
SciTegic.value.DoubleValue
7.868

@<SCITEGIC>MOL_PROPERTY
Coulomb
SciTegic.value.DoubleValue
1.968

@<SCITEGIC>MOL_PROPERTY
VdW
SciTegic.value.DoubleValue
0.378

@<SCITEGIC>MOL_PROPERTY
VdW6
SciTegic.value.DoubleValue
-8.067

@<SCITEGIC>MOL_PROPERTY
VdW12
SciTegic.value.DoubleValue
8.445

@<SCITEGIC>MOL_PROPERTY
Bond
SciTegic.value.DoubleValue
0.191

@<SCITEGIC>MOL_PROPERTY
Angle
SciTegic.value.DoubleValue
3.117

@<SCITEGIC>MOL_PROPERTY
Pdih
SciTegic.value.DoubleValue
4.559

@<SCITEGIC>MOL_PROPERTY
Idih
SciTegic.value.DoubleValue
0.001

@<SCITEGIC>MOL_PROPERTY
Tether
SciTegic.value.DoubleValue
0.000

@<TRIPOS>MOLECULE
guest-7_confgen4.mol2 : confsearch ligand conformer 776
          19          18           1
SMALL
USER_CHARGES
 
@<TRIPOS>ATOM
       1    C1      18.414821   18.276586   19.884917 C.2        1 MOL1         0.6115
       2    O1      17.205353   18.160181   19.885120 O.co2      1 MOL1        -0.6776
       3    O2      19.122403   17.937540   18.957151 O.co2      1 MOL1        -0.6776
       4    C2      19.082503   18.860020   21.125096 C.3        1 MOL1        -0.2013
       5    H1      18.389270   19.577067   21.580782 H          1 MOL1         0.0727
       6    H2      19.965377   19.418320   20.794424 H          1 MOL1         0.0727
       7    C3      19.486795   17.776067   22.155906 C.3        1 MOL1        -0.1910
       8    H3      18.612773   17.142363   22.360611 H          1 MOL1         0.0729
       9    H4      20.245592   17.118286   21.710097 H          1 MOL1         0.0729
      10    C4      20.011204   18.337709   23.501285 C.3        1 MOL1        -0.1909
      11    H5      20.211746   17.481998   24.160462 H          1 MOL1         0.0729
      12    H6      19.224098   18.920072   23.999599 H          1 MOL1         0.0729
      13    C5      21.309467   19.175206   23.390750 C.3        1 MOL1        -0.1884
      14    H7      21.924852   18.987024   24.281385 H          1 MOL1         0.0729
      15    H8      21.906636   18.841269   22.530993 H          1 MOL1         0.0729
      16    C6      21.049172   20.695580   23.304515 C.3        1 MOL1        -0.2899
      17    H9      21.998038   21.244273   23.245662 H          1 MOL1         0.0741
      18    H10     20.455356   20.959621   22.422311 H          1 MOL1         0.0741
      19    H11     20.511368   21.050317   24.193368 H          1 MOL1         0.0741
@<TRIPOS>BOND
    1     1     2    1
    2     1     3    2
    3     1     4    1
    4     4     5    1
    5     4     6    1
    6     4     7    1
    7     7     8    1
    8     7     9    1
    9     7    10    1
   10    10    11    1
   11    10    12    1
   12    10    13    1
   13    13    14    1
   14    13    15    1
   15    13    16    1
   16    16    17    1
   17    16    18    1
   18    16    19    1
@<TRIPOS>SUBSTRUCTURE
       1 MOL1            1 RESIDUE      1      MOL     
@<SCITEGIC>MOL_PROPERTY
VConf Rank
SciTegic.value.IntegerValue
776

@<SCITEGIC>MOL_PROPERTY
Conf_Id
SciTegic.value.IntegerValue
53

@<SCITEGIC>MOL_PROPERTY
Delta U+W
SciTegic.value.DoubleValue
2.279

@<SCITEGIC>MOL_PROPERTY
U+W
SciTegic.value.DoubleValue
-52.612

@<SCITEGIC>MOL_PROPERTY
Grad RMS
SciTegic.value.DoubleValue
0.000000

@<SCITEGIC>MOL_PROPERTY
U
SciTegic.value.DoubleValue
10.231

@<SCITEGIC>MOL_PROPERTY
W
SciTegic.value.DoubleValue
-62.843

@<SCITEGIC>MOL_PROPERTY
W(PB)
SciTegic.value.DoubleValue
-64.893

@<SCITEGIC>MOL_PROPERTY
W(SA)
SciTegic.value.DoubleValue
2.050

@<SCITEGIC>MOL_PROPERTY
Valence
SciTegic.value.DoubleValue
9.644

@<SCITEGIC>MOL_PROPERTY
Coulomb
SciTegic.value.DoubleValue
-0.164

@<SCITEGIC>MOL_PROPERTY
VdW
SciTegic.value.DoubleValue
0.751

@<SCITEGIC>MOL_PROPERTY
VdW6
SciTegic.value.DoubleValue
-6.881

@<SCITEGIC>MOL_PROPERTY
VdW12
SciTegic.value.DoubleValue
7.631

@<SCITEGIC>MOL_PROPERTY
Bond
SciTegic.value.DoubleValue
0.163

@<SCITEGIC>MOL_PROPERTY
Angle
SciTegic.value.DoubleValue
2.998

@<SCITEGIC>MOL_PROPERTY
Pdih
SciTegic.value.DoubleValue
6.482

@<SCITEGIC>MOL_PROPERTY
Idih
SciTegic.value.DoubleValue
0.001

@<SCITEGIC>MOL_PROPERTY
Tether
SciTegic.value.DoubleValue
0.000

@<TRIPOS>MOLECULE
guest-7_confgen4.mol2 : confsearch ligand conformer 777
          19          18           1
SMALL
USER_CHARGES
 
@<TRIPOS>ATOM
       1    C1      21.563354   20.879979   22.449170 C.2        1 MOL1         0.6115
       2    O1      20.777933   21.773620   22.201432 O.co2      1 MOL1        -0.6776
       3    O2      22.542876   20.642078   21.770063 O.co2      1 MOL1        -0.6776
       4    C2      21.344276   20.059954   23.719227 C.3        1 MOL1        -0.2013
       5    H1      20.455497   20.437815   24.239050 H          1 MOL1         0.0727
       6    H2      22.200558   20.267157   24.371509 H          1 MOL1         0.0727
       7    C3      21.231036   18.524005   23.506713 C.3        1 MOL1        -0.1910
       8    H3      22.011052   18.183439   22.811635 H          1 MOL1         0.0729
       9    H4      21.445508   18.032698   24.465377 H          1 MOL1         0.0729
      10    C4      19.841888   18.035227   23.027089 C.3        1 MOL1        -0.1909
      11    H5      19.068042   18.372848   23.729947 H          1 MOL1         0.0729
      12    H6      19.834184   16.937231   23.063897 H          1 MOL1         0.0729
      13    C5      19.475300   18.485467   21.595841 C.3        1 MOL1        -0.1884
      14    H7      19.346718   19.574925   21.564948 H          1 MOL1         0.0729
      15    H8      20.294498   18.238552   20.906388 H          1 MOL1         0.0729
      16    C6      18.173936   17.816954   21.108626 C.3        1 MOL1        -0.2899
      17    H9      17.332860   18.069574   21.767513 H          1 MOL1         0.0741
      18    H10     17.923079   18.153686   20.094364 H          1 MOL1         0.0741
      19    H11     18.277004   16.724148   21.086905 H          1 MOL1         0.0741
@<TRIPOS>BOND
    1     1     2    1
    2     1     3    2
    3     1     4    1
    4     4     5    1
    5     4     6    1
    6     4     7    1
    7     7     8    1
    8     7     9    1
    9     7    10    1
   10    10    11    1
   11    10    12    1
   12    10    13    1
   13    13    14    1
   14    13    15    1
   15    13    16    1
   16    16    17    1
   17    16    18    1
   18    16    19    1
@<TRIPOS>SUBSTRUCTURE
       1 MOL1            1 RESIDUE      1      MOL     
@<SCITEGIC>MOL_PROPERTY
VConf Rank
SciTegic.value.IntegerValue
777

@<SCITEGIC>MOL_PROPERTY
Conf_Id
SciTegic.value.IntegerValue
25

@<SCITEGIC>MOL_PROPERTY
Delta U+W
SciTegic.value.DoubleValue
2.065

@<SCITEGIC>MOL_PROPERTY
U+W
SciTegic.value.DoubleValue
-52.826

@<SCITEGIC>MOL_PROPERTY
Grad RMS
SciTegic.value.DoubleValue
0.000000

@<SCITEGIC>MOL_PROPERTY
U
SciTegic.value.DoubleValue
10.967

@<SCITEGIC>MOL_PROPERTY
W
SciTegic.value.DoubleValue
-63.794

@<SCITEGIC>MOL_PROPERTY
W(PB)
SciTegic.value.DoubleValue
-65.830

@<SCITEGIC>MOL_PROPERTY
W(SA)
SciTegic.value.DoubleValue
2.036

@<SCITEGIC>MOL_PROPERTY
Valence
SciTegic.value.DoubleValue
8.609

@<SCITEGIC>MOL_PROPERTY
Coulomb
SciTegic.value.DoubleValue
1.892

@<SCITEGIC>MOL_PROPERTY
VdW
SciTegic.value.DoubleValue
0.467

@<SCITEGIC>MOL_PROPERTY
VdW6
SciTegic.value.DoubleValue
-7.569

@<SCITEGIC>MOL_PROPERTY
VdW12
SciTegic.value.DoubleValue
8.036

@<SCITEGIC>MOL_PROPERTY
Bond
SciTegic.value.DoubleValue
0.170

@<SCITEGIC>MOL_PROPERTY
Angle
SciTegic.value.DoubleValue
3.195

@<SCITEGIC>MOL_PROPERTY
Pdih
SciTegic.value.DoubleValue
5.237

@<SCITEGIC>MOL_PROPERTY
Idih
SciTegic.value.DoubleValue
0.007

@<SCITEGIC>MOL_PROPERTY
Tether
SciTegic.value.DoubleValue
0.000

@<TRIPOS>MOLECULE
guest-7_confgen4.mol2 : confsearch ligand conformer 778
          19          18           1
SMALL
USER_CHARGES
 
@<TRIPOS>ATOM
       1    C1      18.765074   16.972995   21.783721 C.2        1 MOL1         0.6115
       2    O1      19.050568   16.712466   20.631390 O.co2      1 MOL1        -0.6776
       3    O2      17.645204   17.278706   22.143282 O.co2      1 MOL1        -0.6776
       4    C2      19.852816   16.841900   22.848199 C.3        1 MOL1        -0.2013
       5    H1      20.147657   15.786168   22.859305 H          1 MOL1         0.0727
       6    H2      19.417243   17.056135   23.831715 H          1 MOL1         0.0727
       7    C3      21.116874   17.717093   22.617285 C.3        1 MOL1        -0.1910
       8    H3      21.940335   17.283342   23.200543 H          1 MOL1         0.0729
       9    H4      21.427440   17.656433   21.564949 H          1 MOL1         0.0729
      10    C4      20.967634   19.198843   23.042517 C.3        1 MOL1        -0.1909
      11    H5      21.956622   19.673409   22.981678 H          1 MOL1         0.0729
      12    H6      20.664213   19.252278   24.096992 H          1 MOL1         0.0729
      13    C5      19.976593   20.006250   22.175622 C.3        1 MOL1        -0.1884
      14    H7      20.217491   19.872399   21.111926 H          1 MOL1         0.0729
      15    H8      18.955488   19.632176   22.323336 H          1 MOL1         0.0729
      16    C6      20.011941   21.507533   22.525959 C.3        1 MOL1        -0.2899
      17    H9      19.296613   22.065316   21.907713 H          1 MOL1         0.0741
      18    H10     19.749064   21.670664   23.579355 H          1 MOL1         0.0741
      19    H11     21.010672   21.928944   22.351982 H          1 MOL1         0.0741
@<TRIPOS>BOND
    1     1     2    1
    2     1     3    2
    3     1     4    1
    4     4     5    1
    5     4     6    1
    6     4     7    1
    7     7     8    1
    8     7     9    1
    9     7    10    1
   10    10    11    1
   11    10    12    1
   12    10    13    1
   13    13    14    1
   14    13    15    1
   15    13    16    1
   16    16    17    1
   17    16    18    1
   18    16    19    1
@<TRIPOS>SUBSTRUCTURE
       1 MOL1            1 RESIDUE      1      MOL     
@<SCITEGIC>MOL_PROPERTY
VConf Rank
SciTegic.value.IntegerValue
778

@<SCITEGIC>MOL_PROPERTY
Conf_Id
SciTegic.value.IntegerValue
52

@<SCITEGIC>MOL_PROPERTY
Delta U+W
SciTegic.value.DoubleValue
2.070

@<SCITEGIC>MOL_PROPERTY
U+W
SciTegic.value.DoubleValue
-52.822

@<SCITEGIC>MOL_PROPERTY
Grad RMS
SciTegic.value.DoubleValue
0.000000

@<SCITEGIC>MOL_PROPERTY
U
SciTegic.value.DoubleValue
10.967

@<SCITEGIC>MOL_PROPERTY
W
SciTegic.value.DoubleValue
-63.789

@<SCITEGIC>MOL_PROPERTY
W(PB)
SciTegic.value.DoubleValue
-65.837

@<SCITEGIC>MOL_PROPERTY
W(SA)
SciTegic.value.DoubleValue
2.048

@<SCITEGIC>MOL_PROPERTY
Valence
SciTegic.value.DoubleValue
8.609

@<SCITEGIC>MOL_PROPERTY
Coulomb
SciTegic.value.DoubleValue
1.892

@<SCITEGIC>MOL_PROPERTY
VdW
SciTegic.value.DoubleValue
0.467

@<SCITEGIC>MOL_PROPERTY
VdW6
SciTegic.value.DoubleValue
-7.569

@<SCITEGIC>MOL_PROPERTY
VdW12
SciTegic.value.DoubleValue
8.035

@<SCITEGIC>MOL_PROPERTY
Bond
SciTegic.value.DoubleValue
0.170

@<SCITEGIC>MOL_PROPERTY
Angle
SciTegic.value.DoubleValue
3.196

@<SCITEGIC>MOL_PROPERTY
Pdih
SciTegic.value.DoubleValue
5.237

@<SCITEGIC>MOL_PROPERTY
Idih
SciTegic.value.DoubleValue
0.007

@<SCITEGIC>MOL_PROPERTY
Tether
SciTegic.value.DoubleValue
0.000

@<TRIPOS>MOLECULE
guest-7_confgen4.mol2 : confsearch ligand conformer 779
          19          18           1
SMALL
USER_CHARGES
 
@<TRIPOS>ATOM
       1    C1      21.741840   19.845989   22.861109 C.2        1 MOL1         0.6115
       2    O1      21.555343   21.047287   22.846340 O.co2      1 MOL1        -0.6776
       3    O2      22.356551   19.279189   23.742906 O.co2      1 MOL1        -0.6776
       4    C2      21.295403   19.018722   21.654583 C.3        1 MOL1        -0.2013
       5    H1      21.397859   17.953481   21.893959 H          1 MOL1         0.0727
       6    H2      22.018149   19.230561   20.858318 H          1 MOL1         0.0727
       7    C3      19.863396   19.314867   21.124466 C.3        1 MOL1        -0.1910
       8    H3      19.674356   20.397164   21.137827 H          1 MOL1         0.0729
       9    H4      19.827729   19.020095   20.067019 H          1 MOL1         0.0729
      10    C4      18.716713   18.569622   21.854471 C.3        1 MOL1        -0.1909
      11    H5      18.851692   17.483849   21.754898 H          1 MOL1         0.0729
      12    H6      17.783064   18.801274   21.323808 H          1 MOL1         0.0729
      13    C5      18.529426   18.954066   23.342126 C.3        1 MOL1        -0.1884
      14    H7      18.956284   19.947239   23.538985 H          1 MOL1         0.0729
      15    H8      17.454628   19.037716   23.554164 H          1 MOL1         0.0729
      16    C6      19.129470   17.910759   24.308863 C.3        1 MOL1        -0.2899
      17    H9      18.637935   16.936767   24.187745 H          1 MOL1         0.0741
      18    H10     20.202885   17.772209   24.134758 H          1 MOL1         0.0741
      19    H11     18.996008   18.229372   25.350637 H          1 MOL1         0.0741
@<TRIPOS>BOND
    1     1     2    1
    2     1     3    2
    3     1     4    1
    4     4     5    1
    5     4     6    1
    6     4     7    1
    7     7     8    1
    8     7     9    1
    9     7    10    1
   10    10    11    1
   11    10    12    1
   12    10    13    1
   13    13    14    1
   14    13    15    1
   15    13    16    1
   16    16    17    1
   17    16    18    1
   18    16    19    1
@<TRIPOS>SUBSTRUCTURE
       1 MOL1            1 RESIDUE      1      MOL     
@<SCITEGIC>MOL_PROPERTY
VConf Rank
SciTegic.value.IntegerValue
779

@<SCITEGIC>MOL_PROPERTY
Conf_Id
SciTegic.value.IntegerValue
66

@<SCITEGIC>MOL_PROPERTY
Delta U+W
SciTegic.value.DoubleValue
5.819

@<SCITEGIC>MOL_PROPERTY
U+W
SciTegic.value.DoubleValue
-49.072

@<SCITEGIC>MOL_PROPERTY
Grad RMS
SciTegic.value.DoubleValue
0.000000

@<SCITEGIC>MOL_PROPERTY
U
SciTegic.value.DoubleValue
15.324

@<SCITEGIC>MOL_PROPERTY
W
SciTegic.value.DoubleValue
-64.396

@<SCITEGIC>MOL_PROPERTY
W(PB)
SciTegic.value.DoubleValue
-66.382

@<SCITEGIC>MOL_PROPERTY
W(SA)
SciTegic.value.DoubleValue
1.986

@<SCITEGIC>MOL_PROPERTY
Valence
SciTegic.value.DoubleValue
11.748

@<SCITEGIC>MOL_PROPERTY
Coulomb
SciTegic.value.DoubleValue
3.201

@<SCITEGIC>MOL_PROPERTY
VdW
SciTegic.value.DoubleValue
0.375

@<SCITEGIC>MOL_PROPERTY
VdW6
SciTegic.value.DoubleValue
-8.854

@<SCITEGIC>MOL_PROPERTY
VdW12
SciTegic.value.DoubleValue
9.229

@<SCITEGIC>MOL_PROPERTY
Bond
SciTegic.value.DoubleValue
0.216

@<SCITEGIC>MOL_PROPERTY
Angle
SciTegic.value.DoubleValue
3.812

@<SCITEGIC>MOL_PROPERTY
Pdih
SciTegic.value.DoubleValue
7.699

@<SCITEGIC>MOL_PROPERTY
Idih
SciTegic.value.DoubleValue
0.022

@<SCITEGIC>MOL_PROPERTY
Tether
SciTegic.value.DoubleValue
0.000

@<TRIPOS>MOLECULE
guest-7_confgen4.mol2 : confsearch ligand conformer 780
          19          18           1
SMALL
USER_CHARGES
 
@<TRIPOS>ATOM
       1    C1      21.689889   21.375444   20.498017 C.2        1 MOL1         0.6115
       2    O1      21.602089   22.547912   20.192610 O.co2      1 MOL1        -0.6776
       3    O2      22.646017   20.683581   20.205975 O.co2      1 MOL1        -0.6776
       4    C2      20.527040   20.770297   21.286214 C.3        1 MOL1        -0.2013
       5    H1      19.618400   20.911909   20.689247 H          1 MOL1         0.0727
       6    H2      20.406621   21.364570   22.199662 H          1 MOL1         0.0727
       7    C3      20.684281   19.270713   21.653580 C.3        1 MOL1        -0.1910
       8    H3      20.810310   18.681653   20.734563 H          1 MOL1         0.0729
       9    H4      21.599387   19.134785   22.246515 H          1 MOL1         0.0729
      10    C4      19.468596   18.743220   22.446122 C.3        1 MOL1        -0.1909
      11    H5      18.554857   18.880252   21.851601 H          1 MOL1         0.0729
      12    H6      19.344375   19.333580   23.364379 H          1 MOL1         0.0729
      13    C5      19.626897   17.252338   22.810271 C.3        1 MOL1        -0.1884
      14    H7      19.749553   16.658091   21.894127 H          1 MOL1         0.0729
      15    H8      20.538902   17.111381   23.406821 H          1 MOL1         0.0729
      16    C6      18.411412   16.729066   23.601328 C.3        1 MOL1        -0.2899
      17    H9      17.488576   16.828955   23.014968 H          1 MOL1         0.0741
      18    H10     18.540599   15.668097   23.851855 H          1 MOL1         0.0741
      19    H11     18.283854   17.285676   24.539057 H          1 MOL1         0.0741
@<TRIPOS>BOND
    1     1     2    1
    2     1     3    2
    3     1     4    1
    4     4     5    1
    5     4     6    1
    6     4     7    1
    7     7     8    1
    8     7     9    1
    9     7    10    1
   10    10    11    1
   11    10    12    1
   12    10    13    1
   13    13    14    1
   14    13    15    1
   15    13    16    1
   16    16    17    1
   17    16    18    1
   18    16    19    1
@<TRIPOS>SUBSTRUCTURE
       1 MOL1            1 RESIDUE      1      MOL     
@<SCITEGIC>MOL_PROPERTY
VConf Rank
SciTegic.value.IntegerValue
780

@<SCITEGIC>MOL_PROPERTY
Conf_Id
SciTegic.value.IntegerValue
0

@<SCITEGIC>MOL_PROPERTY
Delta U+W
SciTegic.value.DoubleValue
0.000

@<SCITEGIC>MOL_PROPERTY
U+W
SciTegic.value.DoubleValue
-54.891

@<SCITEGIC>MOL_PROPERTY
Grad RMS
SciTegic.value.DoubleValue
0.000000

@<SCITEGIC>MOL_PROPERTY
U
SciTegic.value.DoubleValue
6.966

@<SCITEGIC>MOL_PROPERTY
W
SciTegic.value.DoubleValue
-61.857

@<SCITEGIC>MOL_PROPERTY
W(PB)
SciTegic.value.DoubleValue
-63.965

@<SCITEGIC>MOL_PROPERTY
W(SA)
SciTegic.value.DoubleValue
2.108

@<SCITEGIC>MOL_PROPERTY
Valence
SciTegic.value.DoubleValue
7.175

@<SCITEGIC>MOL_PROPERTY
Coulomb
SciTegic.value.DoubleValue
-1.360

@<SCITEGIC>MOL_PROPERTY
VdW
SciTegic.value.DoubleValue
1.151

@<SCITEGIC>MOL_PROPERTY
VdW6
SciTegic.value.DoubleValue
-5.641

@<SCITEGIC>MOL_PROPERTY
VdW12
SciTegic.value.DoubleValue
6.792

@<SCITEGIC>MOL_PROPERTY
Bond
SciTegic.value.DoubleValue
0.119

@<SCITEGIC>MOL_PROPERTY
Angle
SciTegic.value.DoubleValue
2.715

@<SCITEGIC>MOL_PROPERTY
Pdih
SciTegic.value.DoubleValue
4.340

@<SCITEGIC>MOL_PROPERTY
Idih
SciTegic.value.DoubleValue
0.000

@<SCITEGIC>MOL_PROPERTY
Tether
SciTegic.value.DoubleValue
0.000

@<TRIPOS>MOLECULE
guest-7_confgen4.mol2 : confsearch ligand conformer 781
          19          18           1
SMALL
USER_CHARGES
 
@<TRIPOS>ATOM
       1    C1      16.878799   19.341281   20.704380 C.2        1 MOL1         0.6115
       2    O1      16.653336   20.460922   20.289952 O.co2      1 MOL1        -0.6776
       3    O2      16.401824   18.335294   20.217895 O.co2      1 MOL1        -0.6776
       4    C2      17.828688   19.188799   21.887102 C.3        1 MOL1        -0.2013
       5    H1      17.508475   18.317709   22.471402 H          1 MOL1         0.0727
       6    H2      17.716119   20.069753   22.530524 H          1 MOL1         0.0727
       7    C3      19.307128   19.028151   21.455220 C.3        1 MOL1        -0.1910
       8    H3      19.400799   18.149691   20.801703 H          1 MOL1         0.0729
       9    H4      19.608414   19.901810   20.860665 H          1 MOL1         0.0729
      10    C4      20.247466   18.875842   22.670207 C.3        1 MOL1        -0.1909
      11    H5      19.942861   18.002510   23.263249 H          1 MOL1         0.0729
      12    H6      20.150586   19.754915   23.322155 H          1 MOL1         0.0729
      13    C5      21.719576   18.715907   22.236980 C.3        1 MOL1        -0.1884
      14    H7      21.820933   17.836365   21.586116 H          1 MOL1         0.0729
      15    H8      22.028667   19.588622   21.645097 H          1 MOL1         0.0729
      16    C6      22.655627   18.564015   23.452584 C.3        1 MOL1        -0.2899
      17    H9      23.697811   18.451410   23.126575 H          1 MOL1         0.0741
      18    H10     22.597938   19.444990   24.105254 H          1 MOL1         0.0741
      19    H11     22.388612   17.679615   24.045848 H          1 MOL1         0.0741
@<TRIPOS>BOND
    1     1     2    1
    2     1     3    2
    3     1     4    1
    4     4     5    1
    5     4     6    1
    6     4     7    1
    7     7     8    1
    8     7     9    1
    9     7    10    1
   10    10    11    1
   11    10    12    1
   12    10    13    1
   13    13    14    1
   14    13    15    1
   15    13    16    1
   16    16    17    1
   17    16    18    1
   18    16    19    1
@<TRIPOS>SUBSTRUCTURE
       1 MOL1            1 RESIDUE      1      MOL     
@<SCITEGIC>MOL_PROPERTY
VConf Rank
SciTegic.value.IntegerValue
781

@<SCITEGIC>MOL_PROPERTY
Conf_Id
SciTegic.value.IntegerValue
18

@<SCITEGIC>MOL_PROPERTY
Delta U+W
SciTegic.value.DoubleValue
-1.199

@<SCITEGIC>MOL_PROPERTY
U+W
SciTegic.value.DoubleValue
-56.090

@<SCITEGIC>MOL_PROPERTY
Grad RMS
SciTegic.value.DoubleValue
0.000000

@<SCITEGIC>MOL_PROPERTY
U
SciTegic.value.DoubleValue
5.975

@<SCITEGIC>MOL_PROPERTY
W
SciTegic.value.DoubleValue
-62.066

@<SCITEGIC>MOL_PROPERTY
W(PB)
SciTegic.value.DoubleValue
-64.219

@<SCITEGIC>MOL_PROPERTY
W(SA)
SciTegic.value.DoubleValue
2.153

@<SCITEGIC>MOL_PROPERTY
Valence
SciTegic.value.DoubleValue
6.673

@<SCITEGIC>MOL_PROPERTY
Coulomb
SciTegic.value.DoubleValue
-1.307

@<SCITEGIC>MOL_PROPERTY
VdW
SciTegic.value.DoubleValue
0.610

@<SCITEGIC>MOL_PROPERTY
VdW6
SciTegic.value.DoubleValue
-5.351

@<SCITEGIC>MOL_PROPERTY
VdW12
SciTegic.value.DoubleValue
5.961

@<SCITEGIC>MOL_PROPERTY
Bond
SciTegic.value.DoubleValue
0.086

@<SCITEGIC>MOL_PROPERTY
Angle
SciTegic.value.DoubleValue
2.253

@<SCITEGIC>MOL_PROPERTY
Pdih
SciTegic.value.DoubleValue
4.333

@<SCITEGIC>MOL_PROPERTY
Idih
SciTegic.value.DoubleValue
0.001

@<SCITEGIC>MOL_PROPERTY
Tether
SciTegic.value.DoubleValue
0.000

@<TRIPOS>MOLECULE
guest-7_confgen4.mol2 : confsearch ligand conformer 782
          19          18           1
SMALL
USER_CHARGES
 
@<TRIPOS>ATOM
       1    C1      22.662198   20.521861   21.414461 C.2        1 MOL1         0.6115
       2    O1      23.505908   20.851171   22.224396 O.co2      1 MOL1        -0.6776
       3    O2      22.864388   20.466933   20.217647 O.co2      1 MOL1        -0.6776
       4    C2      21.280420   20.135948   21.930331 C.3        1 MOL1        -0.2013
       5    H1      20.546969   20.430740   21.171391 H          1 MOL1         0.0727
       6    H2      21.074973   20.729079   22.829496 H          1 MOL1         0.0727
       7    C3      21.159591   18.622931   22.248704 C.3        1 MOL1        -0.1910
       8    H3      21.323467   18.040680   21.331404 H          1 MOL1         0.0729
       9    H4      21.965218   18.343211   22.941628 H          1 MOL1         0.0729
      10    C4      19.803311   18.231099   22.881560 C.3        1 MOL1        -0.1909
      11    H5      19.646404   18.808710   23.802837 H          1 MOL1         0.0729
      12    H6      19.850496   17.175134   23.181102 H          1 MOL1         0.0729
      13    C5      18.601473   18.430025   21.931020 C.3        1 MOL1        -0.1884
      14    H7      18.489844   19.492729   21.678910 H          1 MOL1         0.0729
      15    H8      18.781108   17.893691   20.989030 H          1 MOL1         0.0729
      16    C6      17.289993   17.925122   22.565339 C.3        1 MOL1        -0.2899
      17    H9      16.445846   18.075821   21.879922 H          1 MOL1         0.0741
      18    H10     17.351763   16.853520   22.796072 H          1 MOL1         0.0741
      19    H11     17.071279   18.464452   23.496303 H          1 MOL1         0.0741
@<TRIPOS>BOND
    1     1     2    1
    2     1     3    2
    3     1     4    1
    4     4     5    1
    5     4     6    1
    6     4     7    1
    7     7     8    1
    8     7     9    1
    9     7    10    1
   10    10    11    1
   11    10    12    1
   12    10    13    1
   13    13    14    1
   14    13    15    1
   15    13    16    1
   16    16    17    1
   17    16    18    1
   18    16    19    1
@<TRIPOS>SUBSTRUCTURE
       1 MOL1            1 RESIDUE      1      MOL     
@<SCITEGIC>MOL_PROPERTY
VConf Rank
SciTegic.value.IntegerValue
782

@<SCITEGIC>MOL_PROPERTY
Conf_Id
SciTegic.value.IntegerValue
34

@<SCITEGIC>MOL_PROPERTY
Delta U+W
SciTegic.value.DoubleValue
-0.563

@<SCITEGIC>MOL_PROPERTY
U+W
SciTegic.value.DoubleValue
-55.455

@<SCITEGIC>MOL_PROPERTY
Grad RMS
SciTegic.value.DoubleValue
0.000000

@<SCITEGIC>MOL_PROPERTY
U
SciTegic.value.DoubleValue
6.914

@<SCITEGIC>MOL_PROPERTY
W
SciTegic.value.DoubleValue
-62.369

@<SCITEGIC>MOL_PROPERTY
W(PB)
SciTegic.value.DoubleValue
-64.446

@<SCITEGIC>MOL_PROPERTY
W(SA)
SciTegic.value.DoubleValue
2.077

@<SCITEGIC>MOL_PROPERTY
Valence
SciTegic.value.DoubleValue
7.196

@<SCITEGIC>MOL_PROPERTY
Coulomb
SciTegic.value.DoubleValue
-1.020

@<SCITEGIC>MOL_PROPERTY
VdW
SciTegic.value.DoubleValue
0.738

@<SCITEGIC>MOL_PROPERTY
VdW6
SciTegic.value.DoubleValue
-6.010

@<SCITEGIC>MOL_PROPERTY
VdW12
SciTegic.value.DoubleValue
6.748

@<SCITEGIC>MOL_PROPERTY
Bond
SciTegic.value.DoubleValue
0.126

@<SCITEGIC>MOL_PROPERTY
Angle
SciTegic.value.DoubleValue
2.499

@<SCITEGIC>MOL_PROPERTY
Pdih
SciTegic.value.DoubleValue
4.570

@<SCITEGIC>MOL_PROPERTY
Idih
SciTegic.value.DoubleValue
0.001

@<SCITEGIC>MOL_PROPERTY
Tether
SciTegic.value.DoubleValue
0.000

@<TRIPOS>MOLECULE
guest-7_confgen4.mol2 : confsearch ligand conformer 783
          19          18           1
SMALL
USER_CHARGES
 
@<TRIPOS>ATOM
       1    C1      21.607567   16.271697   22.982508 C.2        1 MOL1         0.6115
       2    O1      21.838994   15.365068   22.207424 O.co2      1 MOL1        -0.6776
       3    O2      21.673205   16.156860   24.190302 O.co2      1 MOL1        -0.6776
       4    C2      21.190645   17.621172   22.408528 C.3        1 MOL1        -0.2013
       5    H1      21.690429   17.748441   21.440783 H          1 MOL1         0.0727
       6    H2      21.573182   18.400404   23.077339 H          1 MOL1         0.0727
       7    C3      19.654732   17.752413   22.238450 C.3        1 MOL1        -0.1910
       8    H3      19.292933   16.905529   21.639024 H          1 MOL1         0.0729
       9    H4      19.168277   17.667791   23.220036 H          1 MOL1         0.0729
      10    C4      19.219436   19.068126   21.550742 C.3        1 MOL1        -0.1909
      11    H5      18.137543   19.023030   21.365035 H          1 MOL1         0.0729
      12    H6      19.700743   19.145615   20.566188 H          1 MOL1         0.0729
      13    C5      19.533415   20.330380   22.384795 C.3        1 MOL1        -0.1884
      14    H7      19.095033   20.230758   23.387375 H          1 MOL1         0.0729
      15    H8      20.618051   20.436212   22.517944 H          1 MOL1         0.0729
      16    C6      18.984759   21.603826   21.710572 C.3        1 MOL1        -0.2899
      17    H9      19.427834   21.743150   20.715746 H          1 MOL1         0.0741
      18    H10     17.894222   21.549434   21.595865 H          1 MOL1         0.0741
      19    H11     19.218045   22.491435   22.312915 H          1 MOL1         0.0741
@<TRIPOS>BOND
    1     1     2    1
    2     1     3    2
    3     1     4    1
    4     4     5    1
    5     4     6    1
    6     4     7    1
    7     7     8    1
    8     7     9    1
    9     7    10    1
   10    10    11    1
   11    10    12    1
   12    10    13    1
   13    13    14    1
   14    13    15    1
   15    13    16    1
   16    16    17    1
   17    16    18    1
   18    16    19    1
@<TRIPOS>SUBSTRUCTURE
       1 MOL1            1 RESIDUE      1      MOL     
@<SCITEGIC>MOL_PROPERTY
VConf Rank
SciTegic.value.IntegerValue
783

@<SCITEGIC>MOL_PROPERTY
Conf_Id
SciTegic.value.IntegerValue
33

@<SCITEGIC>MOL_PROPERTY
Delta U+W
SciTegic.value.DoubleValue
-0.526

@<SCITEGIC>MOL_PROPERTY
U+W
SciTegic.value.DoubleValue
-55.418

@<SCITEGIC>MOL_PROPERTY
Grad RMS
SciTegic.value.DoubleValue
0.000000

@<SCITEGIC>MOL_PROPERTY
U
SciTegic.value.DoubleValue
6.914

@<SCITEGIC>MOL_PROPERTY
W
SciTegic.value.DoubleValue
-62.332

@<SCITEGIC>MOL_PROPERTY
W(PB)
SciTegic.value.DoubleValue
-64.421

@<SCITEGIC>MOL_PROPERTY
W(SA)
SciTegic.value.DoubleValue
2.090

@<SCITEGIC>MOL_PROPERTY
Valence
SciTegic.value.DoubleValue
7.196

@<SCITEGIC>MOL_PROPERTY
Coulomb
SciTegic.value.DoubleValue
-1.020

@<SCITEGIC>MOL_PROPERTY
VdW
SciTegic.value.DoubleValue
0.738

@<SCITEGIC>MOL_PROPERTY
VdW6
SciTegic.value.DoubleValue
-6.010

@<SCITEGIC>MOL_PROPERTY
VdW12
SciTegic.value.DoubleValue
6.748

@<SCITEGIC>MOL_PROPERTY
Bond
SciTegic.value.DoubleValue
0.126

@<SCITEGIC>MOL_PROPERTY
Angle
SciTegic.value.DoubleValue
2.499

@<SCITEGIC>MOL_PROPERTY
Pdih
SciTegic.value.DoubleValue
4.570

@<SCITEGIC>MOL_PROPERTY
Idih
SciTegic.value.DoubleValue
0.001

@<SCITEGIC>MOL_PROPERTY
Tether
SciTegic.value.DoubleValue
0.000

@<TRIPOS>MOLECULE
guest-7_confgen4.mol2 : confsearch ligand conformer 784
          19          18           1
SMALL
USER_CHARGES
 
@<TRIPOS>ATOM
       1    C1      18.752640   21.846112   22.835614 C.2        1 MOL1         0.6115
       2    O1      17.634957   21.754734   23.303217 O.co2      1 MOL1        -0.6776
       3    O2      19.548832   22.704967   23.159173 O.co2      1 MOL1        -0.6776
       4    C2      19.186203   20.815950   21.798652 C.3        1 MOL1        -0.2013
       5    H1      19.875470   21.305308   21.099997 H          1 MOL1         0.0727
       6    H2      18.301039   20.516508   21.224590 H          1 MOL1         0.0727
       7    C3      19.858477   19.571906   22.430192 C.3        1 MOL1        -0.1910
       8    H3      20.736937   19.888919   23.009028 H          1 MOL1         0.0729
       9    H4      19.157715   19.110386   23.138396 H          1 MOL1         0.0729
      10    C4      20.284352   18.543507   21.357026 C.3        1 MOL1        -0.1909
      11    H5      20.926991   19.042492   20.618769 H          1 MOL1         0.0729
      12    H6      19.399135   18.189840   20.810841 H          1 MOL1         0.0729
      13    C5      21.051601   17.332969   21.937125 C.3        1 MOL1        -0.1884
      14    H7      21.418143   16.716234   21.104941 H          1 MOL1         0.0729
      15    H8      21.940969   17.682405   22.479569 H          1 MOL1         0.0729
      16    C6      20.189396   16.451569   22.866419 C.3        1 MOL1        -0.2899
      17    H9      19.278875   16.114070   22.354361 H          1 MOL1         0.0741
      18    H10     20.750249   15.561640   23.180126 H          1 MOL1         0.0741
      19    H11     19.894010   16.994295   23.773028 H          1 MOL1         0.0741
@<TRIPOS>BOND
    1     1     2    1
    2     1     3    2
    3     1     4    1
    4     4     5    1
    5     4     6    1
    6     4     7    1
    7     7     8    1
    8     7     9    1
    9     7    10    1
   10    10    11    1
   11    10    12    1
   12    10    13    1
   13    13    14    1
   14    13    15    1
   15    13    16    1
   16    16    17    1
   17    16    18    1
   18    16    19    1
@<TRIPOS>SUBSTRUCTURE
       1 MOL1            1 RESIDUE      1      MOL     
@<SCITEGIC>MOL_PROPERTY
VConf Rank
SciTegic.value.IntegerValue
784

@<SCITEGIC>MOL_PROPERTY
Conf_Id
SciTegic.value.IntegerValue
42

@<SCITEGIC>MOL_PROPERTY
Delta U+W
SciTegic.value.DoubleValue
-0.344

@<SCITEGIC>MOL_PROPERTY
U+W
SciTegic.value.DoubleValue
-55.236

@<SCITEGIC>MOL_PROPERTY
Grad RMS
SciTegic.value.DoubleValue
0.000000

@<SCITEGIC>MOL_PROPERTY
U
SciTegic.value.DoubleValue
7.244

@<SCITEGIC>MOL_PROPERTY
W
SciTegic.value.DoubleValue
-62.479

@<SCITEGIC>MOL_PROPERTY
W(PB)
SciTegic.value.DoubleValue
-64.610

@<SCITEGIC>MOL_PROPERTY
W(SA)
SciTegic.value.DoubleValue
2.130

@<SCITEGIC>MOL_PROPERTY
Valence
SciTegic.value.DoubleValue
7.174

@<SCITEGIC>MOL_PROPERTY
Coulomb
SciTegic.value.DoubleValue
-0.669

@<SCITEGIC>MOL_PROPERTY
VdW
SciTegic.value.DoubleValue
0.739

@<SCITEGIC>MOL_PROPERTY
VdW6
SciTegic.value.DoubleValue
-5.969

@<SCITEGIC>MOL_PROPERTY
VdW12
SciTegic.value.DoubleValue
6.708

@<SCITEGIC>MOL_PROPERTY
Bond
SciTegic.value.DoubleValue
0.116

@<SCITEGIC>MOL_PROPERTY
Angle
SciTegic.value.DoubleValue
2.481

@<SCITEGIC>MOL_PROPERTY
Pdih
SciTegic.value.DoubleValue
4.576

@<SCITEGIC>MOL_PROPERTY
Idih
SciTegic.value.DoubleValue
0.000

@<SCITEGIC>MOL_PROPERTY
Tether
SciTegic.value.DoubleValue
0.000

@<TRIPOS>MOLECULE
guest-7_confgen4.mol2 : confsearch ligand conformer 785
          19          18           1
SMALL
USER_CHARGES
 
@<TRIPOS>ATOM
       1    C1      21.082940   18.411114   19.283081 C.2        1 MOL1         0.6115
       2    O1      21.525669   19.439166   18.810513 O.co2      1 MOL1        -0.6776
       3    O2      20.491492   17.572200   18.632959 O.co2      1 MOL1        -0.6776
       4    C2      21.263505   18.168833   20.777469 C.3        1 MOL1        -0.2013
       5    H1      22.208514   18.631770   21.086297 H          1 MOL1         0.0727
       6    H2      21.364089   17.088593   20.937605 H          1 MOL1         0.0727
       7    C3      20.093580   18.728449   21.623962 C.3        1 MOL1        -0.1910
       8    H3      20.000487   19.805744   21.433202 H          1 MOL1         0.0729
       9    H4      19.153829   18.262584   21.296736 H          1 MOL1         0.0729
      10    C4      20.304635   18.472161   23.134071 C.3        1 MOL1        -0.1909
      11    H5      21.218848   18.979320   23.471725 H          1 MOL1         0.0729
      12    H6      20.467062   17.397597   23.295072 H          1 MOL1         0.0729
      13    C5      19.110596   18.924164   24.006170 C.3        1 MOL1        -0.1884
      14    H7      18.195125   18.414676   23.675020 H          1 MOL1         0.0729
      15    H8      19.288082   18.601561   25.041385 H          1 MOL1         0.0729
      16    C6      18.888411   20.452011   23.993158 C.3        1 MOL1        -0.2899
      17    H9      18.594403   20.805809   22.997101 H          1 MOL1         0.0741
      18    H10     18.089713   20.729512   24.693169 H          1 MOL1         0.0741
      19    H11     19.800534   20.984289   24.292943 H          1 MOL1         0.0741
@<TRIPOS>BOND
    1     1     2    1
    2     1     3    2
    3     1     4    1
    4     4     5    1
    5     4     6    1
    6     4     7    1
    7     7     8    1
    8     7     9    1
    9     7    10    1
   10    10    11    1
   11    10    12    1
   12    10    13    1
   13    13    14    1
   14    13    15    1
   15    13    16    1
   16    16    17    1
   17    16    18    1
   18    16    19    1
@<TRIPOS>SUBSTRUCTURE
       1 MOL1            1 RESIDUE      1      MOL     
@<SCITEGIC>MOL_PROPERTY
VConf Rank
SciTegic.value.IntegerValue
785

@<SCITEGIC>MOL_PROPERTY
Conf_Id
SciTegic.value.IntegerValue
41

@<SCITEGIC>MOL_PROPERTY
Delta U+W
SciTegic.value.DoubleValue
-0.361

@<SCITEGIC>MOL_PROPERTY
U+W
SciTegic.value.DoubleValue
-55.252

@<SCITEGIC>MOL_PROPERTY
Grad RMS
SciTegic.value.DoubleValue
0.000000

@<SCITEGIC>MOL_PROPERTY
U
SciTegic.value.DoubleValue
7.244

@<SCITEGIC>MOL_PROPERTY
W
SciTegic.value.DoubleValue
-62.496

@<SCITEGIC>MOL_PROPERTY
W(PB)
SciTegic.value.DoubleValue
-64.596

@<SCITEGIC>MOL_PROPERTY
W(SA)
SciTegic.value.DoubleValue
2.099

@<SCITEGIC>MOL_PROPERTY
Valence
SciTegic.value.DoubleValue
7.174

@<SCITEGIC>MOL_PROPERTY
Coulomb
SciTegic.value.DoubleValue
-0.669

@<SCITEGIC>MOL_PROPERTY
VdW
SciTegic.value.DoubleValue
0.739

@<SCITEGIC>MOL_PROPERTY
VdW6
SciTegic.value.DoubleValue
-5.969

@<SCITEGIC>MOL_PROPERTY
VdW12
SciTegic.value.DoubleValue
6.708

@<SCITEGIC>MOL_PROPERTY
Bond
SciTegic.value.DoubleValue
0.116

@<SCITEGIC>MOL_PROPERTY
Angle
SciTegic.value.DoubleValue
2.481

@<SCITEGIC>MOL_PROPERTY
Pdih
SciTegic.value.DoubleValue
4.576

@<SCITEGIC>MOL_PROPERTY
Idih
SciTegic.value.DoubleValue
0.000

@<SCITEGIC>MOL_PROPERTY
Tether
SciTegic.value.DoubleValue
0.000

@<TRIPOS>MOLECULE
guest-7_confgen4.mol2 : confsearch ligand conformer 786
          19          18           1
SMALL
USER_CHARGES
 
@<TRIPOS>ATOM
       1    C1      17.435747   17.990214   23.566881 C.2        1 MOL1         0.6115
       2    O1      16.964645   17.371073   22.633459 O.co2      1 MOL1        -0.6776
       3    O2      17.588589   17.519332   24.676652 O.co2      1 MOL1        -0.6776
       4    C2      17.837559   19.445206   23.341293 C.3        1 MOL1        -0.2013
       5    H1      17.439417   20.029090   24.179550 H          1 MOL1         0.0727
       6    H2      17.338721   19.810069   22.435190 H          1 MOL1         0.0727
       7    C3      19.368632   19.668444   23.236080 C.3        1 MOL1        -0.1910
       8    H3      19.570672   20.747927   23.215293 H          1 MOL1         0.0729
       9    H4      19.856902   19.272472   24.137428 H          1 MOL1         0.0729
      10    C4      19.979916   19.011598   21.978226 C.3        1 MOL1        -0.1909
      11    H5      19.479715   19.400909   21.080861 H          1 MOL1         0.0729
      12    H6      19.796744   17.928363   22.000000 H          1 MOL1         0.0729
      13    C5      21.497207   19.272913   21.877489 C.3        1 MOL1        -0.1884
      14    H7      21.686294   20.355031   21.851098 H          1 MOL1         0.0729
      15    H8      22.000382   18.882271   22.772859 H          1 MOL1         0.0729
      16    C6      22.104111   18.616382   20.621460 C.3        1 MOL1        -0.2899
      17    H9      21.640300   19.012202   19.708436 H          1 MOL1         0.0741
      18    H10     23.182941   18.811608   20.565780 H          1 MOL1         0.0741
      19    H11     21.956724   17.528504   20.636981 H          1 MOL1         0.0741
@<TRIPOS>BOND
    1     1     2    1
    2     1     3    2
    3     1     4    1
    4     4     5    1
    5     4     6    1
    6     4     7    1
    7     7     8    1
    8     7     9    1
    9     7    10    1
   10    10    11    1
   11    10    12    1
   12    10    13    1
   13    13    14    1
   14    13    15    1
   15    13    16    1
   16    16    17    1
   17    16    18    1
   18    16    19    1
@<TRIPOS>SUBSTRUCTURE
       1 MOL1            1 RESIDUE      1      MOL     
@<SCITEGIC>MOL_PROPERTY
VConf Rank
SciTegic.value.IntegerValue
786

@<SCITEGIC>MOL_PROPERTY
Conf_Id
SciTegic.value.IntegerValue
36

@<SCITEGIC>MOL_PROPERTY
Delta U+W
SciTegic.value.DoubleValue
-0.079

@<SCITEGIC>MOL_PROPERTY
U+W
SciTegic.value.DoubleValue
-54.971

@<SCITEGIC>MOL_PROPERTY
Grad RMS
SciTegic.value.DoubleValue
0.000000

@<SCITEGIC>MOL_PROPERTY
U
SciTegic.value.DoubleValue
8.266

@<SCITEGIC>MOL_PROPERTY
W
SciTegic.value.DoubleValue
-63.237

@<SCITEGIC>MOL_PROPERTY
W(PB)
SciTegic.value.DoubleValue
-65.340

@<SCITEGIC>MOL_PROPERTY
W(SA)
SciTegic.value.DoubleValue
2.103

@<SCITEGIC>MOL_PROPERTY
Valence
SciTegic.value.DoubleValue
6.935

@<SCITEGIC>MOL_PROPERTY
Coulomb
SciTegic.value.DoubleValue
0.874

@<SCITEGIC>MOL_PROPERTY
VdW
SciTegic.value.DoubleValue
0.457

@<SCITEGIC>MOL_PROPERTY
VdW6
SciTegic.value.DoubleValue
-6.205

@<SCITEGIC>MOL_PROPERTY
VdW12
SciTegic.value.DoubleValue
6.662

@<SCITEGIC>MOL_PROPERTY
Bond
SciTegic.value.DoubleValue
0.107

@<SCITEGIC>MOL_PROPERTY
Angle
SciTegic.value.DoubleValue
2.420

@<SCITEGIC>MOL_PROPERTY
Pdih
SciTegic.value.DoubleValue
4.407

@<SCITEGIC>MOL_PROPERTY
Idih
SciTegic.value.DoubleValue
0.001

@<SCITEGIC>MOL_PROPERTY
Tether
SciTegic.value.DoubleValue
0.000

@<TRIPOS>MOLECULE
guest-7_confgen4.mol2 : confsearch ligand conformer 787
          19          18           1
SMALL
USER_CHARGES
 
@<TRIPOS>ATOM
       1    C1      21.806504   21.272542   22.112198 C.2        1 MOL1         0.6115
       2    O1      22.142134   21.405202   23.272502 O.co2      1 MOL1        -0.6776
       3    O2      21.338524   22.171165   21.441262 O.co2      1 MOL1        -0.6776
       4    C2      22.002357   19.909890   21.453285 C.3        1 MOL1        -0.2013
       5    H1      22.720901   19.333010   22.048173 H          1 MOL1         0.0727
       6    H2      22.466523   20.082360   20.475065 H          1 MOL1         0.0727
       7    C3      20.690686   19.103317   21.268756 C.3        1 MOL1        -0.1910
       8    H3      19.971114   19.704856   20.696045 H          1 MOL1         0.0729
       9    H4      20.904017   18.208815   20.668013 H          1 MOL1         0.0729
      10    C4      20.061934   18.675486   22.613725 C.3        1 MOL1        -0.1909
      11    H5      19.829750   19.566158   23.213905 H          1 MOL1         0.0729
      12    H6      20.789488   18.085639   23.187986 H          1 MOL1         0.0729
      13    C5      18.776282   17.848170   22.405755 C.3        1 MOL1        -0.1884
      14    H7      18.045795   18.436776   21.833561 H          1 MOL1         0.0729
      15    H8      19.003259   16.953536   21.809481 H          1 MOL1         0.0729
      16    C6      18.151402   17.422847   23.749483 C.3        1 MOL1        -0.2899
      17    H9      17.885488   18.300004   24.353907 H          1 MOL1         0.0741
      18    H10     17.238504   16.836280   23.583221 H          1 MOL1         0.0741
      19    H11     18.850022   16.805764   24.329608 H          1 MOL1         0.0741
@<TRIPOS>BOND
    1     1     2    1
    2     1     3    2
    3     1     4    1
    4     4     5    1
    5     4     6    1
    6     4     7    1
    7     7     8    1
    8     7     9    1
    9     7    10    1
   10    10    11    1
   11    10    12    1
   12    10    13    1
   13    13    14    1
   14    13    15    1
   15    13    16    1
   16    16    17    1
   17    16    18    1
   18    16    19    1
@<TRIPOS>SUBSTRUCTURE
       1 MOL1            1 RESIDUE      1      MOL     
@<SCITEGIC>MOL_PROPERTY
VConf Rank
SciTegic.value.IntegerValue
787

@<SCITEGIC>MOL_PROPERTY
Conf_Id
SciTegic.value.IntegerValue
35

@<SCITEGIC>MOL_PROPERTY
Delta U+W
SciTegic.value.DoubleValue
-0.030

@<SCITEGIC>MOL_PROPERTY
U+W
SciTegic.value.DoubleValue
-54.921

@<SCITEGIC>MOL_PROPERTY
Grad RMS
SciTegic.value.DoubleValue
0.000000

@<SCITEGIC>MOL_PROPERTY
U
SciTegic.value.DoubleValue
8.267

@<SCITEGIC>MOL_PROPERTY
W
SciTegic.value.DoubleValue
-63.188

@<SCITEGIC>MOL_PROPERTY
W(PB)
SciTegic.value.DoubleValue
-65.294

@<SCITEGIC>MOL_PROPERTY
W(SA)
SciTegic.value.DoubleValue
2.106

@<SCITEGIC>MOL_PROPERTY
Valence
SciTegic.value.DoubleValue
6.935

@<SCITEGIC>MOL_PROPERTY
Coulomb
SciTegic.value.DoubleValue
0.875

@<SCITEGIC>MOL_PROPERTY
VdW
SciTegic.value.DoubleValue
0.457

@<SCITEGIC>MOL_PROPERTY
VdW6
SciTegic.value.DoubleValue
-6.205

@<SCITEGIC>MOL_PROPERTY
VdW12
SciTegic.value.DoubleValue
6.662

@<SCITEGIC>MOL_PROPERTY
Bond
SciTegic.value.DoubleValue
0.107

@<SCITEGIC>MOL_PROPERTY
Angle
SciTegic.value.DoubleValue
2.420

@<SCITEGIC>MOL_PROPERTY
Pdih
SciTegic.value.DoubleValue
4.407

@<SCITEGIC>MOL_PROPERTY
Idih
SciTegic.value.DoubleValue
0.001

@<SCITEGIC>MOL_PROPERTY
Tether
SciTegic.value.DoubleValue
0.000

@<TRIPOS>MOLECULE
guest-7_confgen4.mol2 : confsearch ligand conformer 788
          19          18           1
SMALL
USER_CHARGES
 
@<TRIPOS>ATOM
       1    C1      21.557990   21.055446   23.599563 C.2        1 MOL1         0.6115
       2    O1      21.264647   21.206928   24.769055 O.co2      1 MOL1        -0.6776
       3    O2      21.625163   21.968316   22.800313 O.co2      1 MOL1        -0.6776
       4    C2      21.880284   19.644310   23.115518 C.3        1 MOL1        -0.2013
       5    H1      22.553827   19.191461   23.852649 H          1 MOL1         0.0727
       6    H2      22.440609   19.715343   22.175333 H          1 MOL1         0.0727
       7    C3      20.634699   18.739132   22.928716 C.3        1 MOL1        -0.1910
       8    H3      20.975253   17.714560   22.732186 H          1 MOL1         0.0729
       9    H4      20.062599   18.709344   23.866342 H          1 MOL1         0.0729
      10    C4      19.722781   19.214918   21.772551 C.3        1 MOL1        -0.1909
      11    H5      20.286015   19.207243   20.829404 H          1 MOL1         0.0729
      12    H6      19.430141   20.258927   21.949836 H          1 MOL1         0.0729
      13    C5      18.438205   18.368739   21.615462 C.3        1 MOL1        -0.1884
      14    H7      17.871550   18.376276   22.556821 H          1 MOL1         0.0729
      15    H8      17.794297   18.843044   20.862044 H          1 MOL1         0.0729
      16    C6      18.713750   16.911424   21.186131 C.3        1 MOL1        -0.2899
      17    H9      19.256087   16.359805   21.964083 H          1 MOL1         0.0741
      18    H10     17.770541   16.381593   21.000194 H          1 MOL1         0.0741
      19    H11     19.306989   16.879244   20.262996 H          1 MOL1         0.0741
@<TRIPOS>BOND
    1     1     2    1
    2     1     3    2
    3     1     4    1
    4     4     5    1
    5     4     6    1
    6     4     7    1
    7     7     8    1
    8     7     9    1
    9     7    10    1
   10    10    11    1
   11    10    12    1
   12    10    13    1
   13    13    14    1
   14    13    15    1
   15    13    16    1
   16    16    17    1
   17    16    18    1
   18    16    19    1
@<TRIPOS>SUBSTRUCTURE
       1 MOL1            1 RESIDUE      1      MOL     
@<SCITEGIC>MOL_PROPERTY
VConf Rank
SciTegic.value.IntegerValue
788

@<SCITEGIC>MOL_PROPERTY
Conf_Id
SciTegic.value.IntegerValue
74

@<SCITEGIC>MOL_PROPERTY
Delta U+W
SciTegic.value.DoubleValue
0.797

@<SCITEGIC>MOL_PROPERTY
U+W
SciTegic.value.DoubleValue
-54.095

@<SCITEGIC>MOL_PROPERTY
Grad RMS
SciTegic.value.DoubleValue
0.000000

@<SCITEGIC>MOL_PROPERTY
U
SciTegic.value.DoubleValue
8.869

@<SCITEGIC>MOL_PROPERTY
W
SciTegic.value.DoubleValue
-62.964

@<SCITEGIC>MOL_PROPERTY
W(PB)
SciTegic.value.DoubleValue
-65.046

@<SCITEGIC>MOL_PROPERTY
W(SA)
SciTegic.value.DoubleValue
2.082

@<SCITEGIC>MOL_PROPERTY
Valence
SciTegic.value.DoubleValue
7.469

@<SCITEGIC>MOL_PROPERTY
Coulomb
SciTegic.value.DoubleValue
0.762

@<SCITEGIC>MOL_PROPERTY
VdW
SciTegic.value.DoubleValue
0.639

@<SCITEGIC>MOL_PROPERTY
VdW6
SciTegic.value.DoubleValue
-6.782

@<SCITEGIC>MOL_PROPERTY
VdW12
SciTegic.value.DoubleValue
7.421

@<SCITEGIC>MOL_PROPERTY
Bond
SciTegic.value.DoubleValue
0.141

@<SCITEGIC>MOL_PROPERTY
Angle
SciTegic.value.DoubleValue
2.667

@<SCITEGIC>MOL_PROPERTY
Pdih
SciTegic.value.DoubleValue
4.660

@<SCITEGIC>MOL_PROPERTY
Idih
SciTegic.value.DoubleValue
0.001

@<SCITEGIC>MOL_PROPERTY
Tether
SciTegic.value.DoubleValue
0.000

@<TRIPOS>MOLECULE
guest-7_confgen4.mol2 : confsearch ligand conformer 789
          19          18           1
SMALL
USER_CHARGES
 
@<TRIPOS>ATOM
       1    C1      22.055669   17.983035   24.138201 C.2        1 MOL1         0.6115
       2    O1      22.703350   16.955515   24.104517 O.co2      1 MOL1        -0.6776
       3    O2      22.418797   18.987673   24.717134 O.co2      1 MOL1        -0.6776
       4    C2      20.723544   18.019015   23.397685 C.3        1 MOL1        -0.2013
       5    H1      20.052762   18.687176   23.949746 H          1 MOL1         0.0727
       6    H2      20.285803   17.014318   23.434043 H          1 MOL1         0.0727
       7    C3      20.866678   18.487211   21.926327 C.3        1 MOL1        -0.1910
       8    H3      21.269925   19.508311   21.903409 H          1 MOL1         0.0729
       9    H4      21.613114   17.854757   21.426293 H          1 MOL1         0.0729
      10    C4      19.543773   18.417377   21.122726 C.3        1 MOL1        -0.1909
      11    H5      19.213032   17.371024   21.072240 H          1 MOL1         0.0729
      12    H6      19.744270   18.722196   20.086547 H          1 MOL1         0.0729
      13    C5      18.385422   19.279257   21.682445 C.3        1 MOL1        -0.1884
      14    H7      17.503468   19.137165   21.042878 H          1 MOL1         0.0729
      15    H8      18.096337   18.924157   22.680414 H          1 MOL1         0.0729
      16    C6      18.717685   20.785729   21.741940 C.3        1 MOL1        -0.2899
      17    H9      19.031829   21.157946   20.758172 H          1 MOL1         0.0741
      18    H10     17.837504   21.361143   22.056573 H          1 MOL1         0.0741
      19    H11     19.521827   20.988561   22.460607 H          1 MOL1         0.0741
@<TRIPOS>BOND
    1     1     2    1
    2     1     3    2
    3     1     4    1
    4     4     5    1
    5     4     6    1
    6     4     7    1
    7     7     8    1
    8     7     9    1
    9     7    10    1
   10    10    11    1
   11    10    12    1
   12    10    13    1
   13    13    14    1
   14    13    15    1
   15    13    16    1
   16    16    17    1
   17    16    18    1
   18    16    19    1
@<TRIPOS>SUBSTRUCTURE
       1 MOL1            1 RESIDUE      1      MOL     
@<SCITEGIC>MOL_PROPERTY
VConf Rank
SciTegic.value.IntegerValue
789

@<SCITEGIC>MOL_PROPERTY
Conf_Id
SciTegic.value.IntegerValue
67

@<SCITEGIC>MOL_PROPERTY
Delta U+W
SciTegic.value.DoubleValue
0.308

@<SCITEGIC>MOL_PROPERTY
U+W
SciTegic.value.DoubleValue
-54.583

@<SCITEGIC>MOL_PROPERTY
Grad RMS
SciTegic.value.DoubleValue
0.000000

@<SCITEGIC>MOL_PROPERTY
U
SciTegic.value.DoubleValue
8.219

@<SCITEGIC>MOL_PROPERTY
W
SciTegic.value.DoubleValue
-62.802

@<SCITEGIC>MOL_PROPERTY
W(PB)
SciTegic.value.DoubleValue
-64.859

@<SCITEGIC>MOL_PROPERTY
W(SA)
SciTegic.value.DoubleValue
2.057

@<SCITEGIC>MOL_PROPERTY
Valence
SciTegic.value.DoubleValue
7.609

@<SCITEGIC>MOL_PROPERTY
Coulomb
SciTegic.value.DoubleValue
-0.089

@<SCITEGIC>MOL_PROPERTY
VdW
SciTegic.value.DoubleValue
0.699

@<SCITEGIC>MOL_PROPERTY
VdW6
SciTegic.value.DoubleValue
-6.924

@<SCITEGIC>MOL_PROPERTY
VdW12
SciTegic.value.DoubleValue
7.623

@<SCITEGIC>MOL_PROPERTY
Bond
SciTegic.value.DoubleValue
0.163

@<SCITEGIC>MOL_PROPERTY
Angle
SciTegic.value.DoubleValue
2.870

@<SCITEGIC>MOL_PROPERTY
Pdih
SciTegic.value.DoubleValue
4.576

@<SCITEGIC>MOL_PROPERTY
Idih
SciTegic.value.DoubleValue
0.001

@<SCITEGIC>MOL_PROPERTY
Tether
SciTegic.value.DoubleValue
0.000

@<TRIPOS>MOLECULE
guest-7_confgen4.mol2 : confsearch ligand conformer 790
          19          18           1
SMALL
USER_CHARGES
 
@<TRIPOS>ATOM
       1    C1      20.719538   18.534316   25.109172 C.2        1 MOL1         0.6115
       2    O1      20.039194   18.660058   26.108043 O.co2      1 MOL1        -0.6776
       3    O2      21.932714   18.601588   25.109498 O.co2      1 MOL1        -0.6776
       4    C2      20.010650   18.298705   23.780194 C.3        1 MOL1        -0.2013
       5    H1      19.096407   17.726519   23.977979 H          1 MOL1         0.0727
       6    H2      20.661392   17.670105   23.161682 H          1 MOL1         0.0727
       7    C3      19.666791   19.617624   23.040735 C.3        1 MOL1        -0.1910
       8    H3      19.092143   20.262725   23.719575 H          1 MOL1         0.0729
       9    H4      20.592157   20.163642   22.814148 H          1 MOL1         0.0729
      10    C4      18.841689   19.405076   21.746612 C.3        1 MOL1        -0.1909
      11    H5      18.605793   20.386795   21.313759 H          1 MOL1         0.0729
      12    H6      17.877055   18.950443   22.010397 H          1 MOL1         0.0729
      13    C5      19.524202   18.532339   20.664759 C.3        1 MOL1        -0.1884
      14    H7      19.675781   17.511880   21.040653 H          1 MOL1         0.0729
      15    H8      18.842703   18.441616   19.807782 H          1 MOL1         0.0729
      16    C6      20.867970   19.110259   20.171103 C.3        1 MOL1        -0.2899
      17    H9      21.619143   19.112040   20.971105 H          1 MOL1         0.0741
      18    H10     21.264596   18.507665   19.343828 H          1 MOL1         0.0741
      19    H11     20.744345   20.139956   19.811282 H          1 MOL1         0.0741
@<TRIPOS>BOND
    1     1     2    1
    2     1     3    2
    3     1     4    1
    4     4     5    1
    5     4     6    1
    6     4     7    1
    7     7     8    1
    8     7     9    1
    9     7    10    1
   10    10    11    1
   11    10    12    1
   12    10    13    1
   13    13    14    1
   14    13    15    1
   15    13    16    1
   16    16    17    1
   17    16    18    1
   18    16    19    1
@<TRIPOS>SUBSTRUCTURE
       1 MOL1            1 RESIDUE      1      MOL     
@<SCITEGIC>MOL_PROPERTY
VConf Rank
SciTegic.value.IntegerValue
790

@<SCITEGIC>MOL_PROPERTY
Conf_Id
SciTegic.value.IntegerValue
21

@<SCITEGIC>MOL_PROPERTY
Delta U+W
SciTegic.value.DoubleValue
0.319

@<SCITEGIC>MOL_PROPERTY
U+W
SciTegic.value.DoubleValue
-54.572

@<SCITEGIC>MOL_PROPERTY
Grad RMS
SciTegic.value.DoubleValue
0.000000

@<SCITEGIC>MOL_PROPERTY
U
SciTegic.value.DoubleValue
8.220

@<SCITEGIC>MOL_PROPERTY
W
SciTegic.value.DoubleValue
-62.792

@<SCITEGIC>MOL_PROPERTY
W(PB)
SciTegic.value.DoubleValue
-64.830

@<SCITEGIC>MOL_PROPERTY
W(SA)
SciTegic.value.DoubleValue
2.038

@<SCITEGIC>MOL_PROPERTY
Valence
SciTegic.value.DoubleValue
7.609

@<SCITEGIC>MOL_PROPERTY
Coulomb
SciTegic.value.DoubleValue
-0.088

@<SCITEGIC>MOL_PROPERTY
VdW
SciTegic.value.DoubleValue
0.699

@<SCITEGIC>MOL_PROPERTY
VdW6
SciTegic.value.DoubleValue
-6.924

@<SCITEGIC>MOL_PROPERTY
VdW12
SciTegic.value.DoubleValue
7.623

@<SCITEGIC>MOL_PROPERTY
Bond
SciTegic.value.DoubleValue
0.163

@<SCITEGIC>MOL_PROPERTY
Angle
SciTegic.value.DoubleValue
2.870

@<SCITEGIC>MOL_PROPERTY
Pdih
SciTegic.value.DoubleValue
4.576

@<SCITEGIC>MOL_PROPERTY
Idih
SciTegic.value.DoubleValue
0.000

@<SCITEGIC>MOL_PROPERTY
Tether
SciTegic.value.DoubleValue
0.000

@<TRIPOS>MOLECULE
guest-7_confgen4.mol2 : confsearch ligand conformer 791
          19          18           1
SMALL
USER_CHARGES
 
@<TRIPOS>ATOM
       1    C1      18.379770   19.413007   19.964662 C.2        1 MOL1         0.6115
       2    O1      17.895659   18.637453   19.164293 O.co2      1 MOL1        -0.6776
       3    O2      17.961688   20.539201   20.146730 O.co2      1 MOL1        -0.6776
       4    C2      19.564991   18.940201   20.798800 C.3        1 MOL1        -0.2013
       5    H1      20.200761   19.807846   21.000822 H          1 MOL1         0.0727
       6    H2      20.154974   18.248070   20.186215 H          1 MOL1         0.0727
       7    C3      19.132722   18.245990   22.117438 C.3        1 MOL1        -0.1910
       8    H3      18.492694   18.917432   22.706346 H          1 MOL1         0.0729
       9    H4      18.508170   17.380997   21.854541 H          1 MOL1         0.0729
      10    C4      20.325906   17.753244   22.975028 C.3        1 MOL1        -0.1909
      11    H5      21.178399   17.498116   22.330773 H          1 MOL1         0.0729
      12    H6      20.030144   16.815053   23.464207 H          1 MOL1         0.0729
      13    C5      20.773260   18.735617   24.085310 C.3        1 MOL1        -0.1884
      14    H7      19.938235   18.915096   24.776525 H          1 MOL1         0.0729
      15    H8      21.564170   18.255019   24.677493 H          1 MOL1         0.0729
      16    C6      21.301632   20.086398   23.560041 C.3        1 MOL1        -0.2899
      17    H9      21.721645   20.679779   24.382416 H          1 MOL1         0.0741
      18    H10     22.091172   19.937267   22.812135 H          1 MOL1         0.0741
      19    H11     20.495883   20.676495   23.105781 H          1 MOL1         0.0741
@<TRIPOS>BOND
    1     1     2    1
    2     1     3    2
    3     1     4    1
    4     4     5    1
    5     4     6    1
    6     4     7    1
    7     7     8    1
    8     7     9    1
    9     7    10    1
   10    10    11    1
   11    10    12    1
   12    10    13    1
   13    13    14    1
   14    13    15    1
   15    13    16    1
   16    16    17    1
   17    16    18    1
   18    16    19    1
@<TRIPOS>SUBSTRUCTURE
       1 MOL1            1 RESIDUE      1      MOL     
@<SCITEGIC>MOL_PROPERTY
VConf Rank
SciTegic.value.IntegerValue
791

@<SCITEGIC>MOL_PROPERTY
Conf_Id
SciTegic.value.IntegerValue
24

@<SCITEGIC>MOL_PROPERTY
Delta U+W
SciTegic.value.DoubleValue
2.477

@<SCITEGIC>MOL_PROPERTY
U+W
SciTegic.value.DoubleValue
-52.414

@<SCITEGIC>MOL_PROPERTY
Grad RMS
SciTegic.value.DoubleValue
0.000000

@<SCITEGIC>MOL_PROPERTY
U
SciTegic.value.DoubleValue
10.422

@<SCITEGIC>MOL_PROPERTY
W
SciTegic.value.DoubleValue
-62.836

@<SCITEGIC>MOL_PROPERTY
W(PB)
SciTegic.value.DoubleValue
-64.906

@<SCITEGIC>MOL_PROPERTY
W(SA)
SciTegic.value.DoubleValue
2.070

@<SCITEGIC>MOL_PROPERTY
Valence
SciTegic.value.DoubleValue
9.628

@<SCITEGIC>MOL_PROPERTY
Coulomb
SciTegic.value.DoubleValue
0.101

@<SCITEGIC>MOL_PROPERTY
VdW
SciTegic.value.DoubleValue
0.693

@<SCITEGIC>MOL_PROPERTY
VdW6
SciTegic.value.DoubleValue
-6.927

@<SCITEGIC>MOL_PROPERTY
VdW12
SciTegic.value.DoubleValue
7.620

@<SCITEGIC>MOL_PROPERTY
Bond
SciTegic.value.DoubleValue
0.173

@<SCITEGIC>MOL_PROPERTY
Angle
SciTegic.value.DoubleValue
2.989

@<SCITEGIC>MOL_PROPERTY
Pdih
SciTegic.value.DoubleValue
6.465

@<SCITEGIC>MOL_PROPERTY
Idih
SciTegic.value.DoubleValue
0.001

@<SCITEGIC>MOL_PROPERTY
Tether
SciTegic.value.DoubleValue
0.000

@<TRIPOS>MOLECULE
guest-7_confgen4.mol2 : confsearch ligand conformer 792
          19          18           1
SMALL
USER_CHARGES
 
@<TRIPOS>ATOM
       1    C1      22.427356   19.527652   22.608292 C.2        1 MOL1         0.6115
       2    O1      22.480513   20.339789   21.705907 O.co2      1 MOL1        -0.6776
       3    O2      23.154161   19.558307   23.581888 O.co2      1 MOL1        -0.6776
       4    C2      21.414515   18.390482   22.502322 C.3        1 MOL1        -0.2013
       5    H1      21.950536   17.458692   22.717275 H          1 MOL1         0.0727
       6    H2      21.076434   18.324916   21.463267 H          1 MOL1         0.0727
       7    C3      20.209586   18.525555   23.474351 C.3        1 MOL1        -0.1910
       8    H3      19.638941   17.587321   23.492081 H          1 MOL1         0.0729
       9    H4      20.606277   18.656769   24.490695 H          1 MOL1         0.0729
      10    C4      19.261241   19.709595   23.151602 C.3        1 MOL1        -0.1909
      11    H5      19.817716   20.531168   22.680264 H          1 MOL1         0.0729
      12    H6      18.884029   20.112481   24.101432 H          1 MOL1         0.0729
      13    C5      18.033887   19.336087   22.284422 C.3        1 MOL1        -0.1884
      14    H7      17.432216   18.577370   22.803597 H          1 MOL1         0.0729
      15    H8      17.393024   20.223320   22.188161 H          1 MOL1         0.0729
      16    C6      18.389994   18.829150   20.871709 C.3        1 MOL1        -0.2899
      17    H9      18.886215   17.851815   20.915708 H          1 MOL1         0.0741
      18    H10     17.482355   18.711981   20.265704 H          1 MOL1         0.0741
      19    H11     19.053809   19.535411   20.355927 H          1 MOL1         0.0741
@<TRIPOS>BOND
    1     1     2    1
    2     1     3    2
    3     1     4    1
    4     4     5    1
    5     4     6    1
    6     4     7    1
    7     7     8    1
    8     7     9    1
    9     7    10    1
   10    10    11    1
   11    10    12    1
   12    10    13    1
   13    13    14    1
   14    13    15    1
   15    13    16    1
   16    16    17    1
   17    16    18    1
   18    16    19    1
@<TRIPOS>SUBSTRUCTURE
       1 MOL1            1 RESIDUE      1      MOL     
@<SCITEGIC>MOL_PROPERTY
VConf Rank
SciTegic.value.IntegerValue
792

@<SCITEGIC>MOL_PROPERTY
Conf_Id
SciTegic.value.IntegerValue
4

@<SCITEGIC>MOL_PROPERTY
Delta U+W
SciTegic.value.DoubleValue
3.753

@<SCITEGIC>MOL_PROPERTY
U+W
SciTegic.value.DoubleValue
-51.138

@<SCITEGIC>MOL_PROPERTY
Grad RMS
SciTegic.value.DoubleValue
0.000000

@<SCITEGIC>MOL_PROPERTY
U
SciTegic.value.DoubleValue
12.334

@<SCITEGIC>MOL_PROPERTY
W
SciTegic.value.DoubleValue
-63.472

@<SCITEGIC>MOL_PROPERTY
W(PB)
SciTegic.value.DoubleValue
-65.500

@<SCITEGIC>MOL_PROPERTY
W(SA)
SciTegic.value.DoubleValue
2.028

@<SCITEGIC>MOL_PROPERTY
Valence
SciTegic.value.DoubleValue
9.984

@<SCITEGIC>MOL_PROPERTY
Coulomb
SciTegic.value.DoubleValue
1.767

@<SCITEGIC>MOL_PROPERTY
VdW
SciTegic.value.DoubleValue
0.583

@<SCITEGIC>MOL_PROPERTY
VdW6
SciTegic.value.DoubleValue
-7.767

@<SCITEGIC>MOL_PROPERTY
VdW12
SciTegic.value.DoubleValue
8.349

@<SCITEGIC>MOL_PROPERTY
Bond
SciTegic.value.DoubleValue
0.203

@<SCITEGIC>MOL_PROPERTY
Angle
SciTegic.value.DoubleValue
3.191

@<SCITEGIC>MOL_PROPERTY
Pdih
SciTegic.value.DoubleValue
6.589

@<SCITEGIC>MOL_PROPERTY
Idih
SciTegic.value.DoubleValue
0.001

@<SCITEGIC>MOL_PROPERTY
Tether
SciTegic.value.DoubleValue
0.000

@<TRIPOS>MOLECULE
guest-7_confgen4.mol2 : confsearch ligand conformer 793
          19          18           1
SMALL
USER_CHARGES
 
@<TRIPOS>ATOM
       1    C1      21.991932   18.563883   20.863922 C.2        1 MOL1         0.6115
       2    O1      23.071091   19.122666   20.848068 O.co2      1 MOL1        -0.6776
       3    O2      21.855140   17.365338   20.717395 O.co2      1 MOL1        -0.6776
       4    C2      20.741482   19.419689   21.048851 C.3        1 MOL1        -0.2013
       5    H1      19.872657   18.834919   20.730393 H          1 MOL1         0.0727
       6    H2      20.822264   20.264750   20.355236 H          1 MOL1         0.0727
       7    C3      20.553024   19.958187   22.494341 C.3        1 MOL1        -0.1910
       8    H3      21.477143   20.475739   22.787048 H          1 MOL1         0.0729
       9    H4      19.763056   20.721091   22.507065 H          1 MOL1         0.0729
      10    C4      20.239876   18.862087   23.545995 C.3        1 MOL1        -0.1909
      11    H5      20.718459   19.150838   24.491703 H          1 MOL1         0.0729
      12    H6      20.702643   17.908405   23.257648 H          1 MOL1         0.0729
      13    C5      18.732383   18.653443   23.832063 C.3        1 MOL1        -0.1884
      14    H7      18.630643   17.920591   24.644300 H          1 MOL1         0.0729
      15    H8      18.294629   19.589255   24.206000 H          1 MOL1         0.0729
      16    C6      17.921902   18.158321   22.616525 C.3        1 MOL1        -0.2899
      17    H9      18.380866   17.263693   22.175527 H          1 MOL1         0.0741
      18    H10     16.897807   17.901571   22.916672 H          1 MOL1         0.0741
      19    H11     17.854933   18.933750   21.843492 H          1 MOL1         0.0741
@<TRIPOS>BOND
    1     1     2    1
    2     1     3    2
    3     1     4    1
    4     4     5    1
    5     4     6    1
    6     4     7    1
    7     7     8    1
    8     7     9    1
    9     7    10    1
   10    10    11    1
   11    10    12    1
   12    10    13    1
   13    13    14    1
   14    13    15    1
   15    13    16    1
   16    16    17    1
   17    16    18    1
   18    16    19    1
@<TRIPOS>SUBSTRUCTURE
       1 MOL1            1 RESIDUE      1      MOL     
@<SCITEGIC>MOL_PROPERTY
VConf Rank
SciTegic.value.IntegerValue
793

@<SCITEGIC>MOL_PROPERTY
Conf_Id
SciTegic.value.IntegerValue
73

@<SCITEGIC>MOL_PROPERTY
Delta U+W
SciTegic.value.DoubleValue
3.707

@<SCITEGIC>MOL_PROPERTY
U+W
SciTegic.value.DoubleValue
-51.184

@<SCITEGIC>MOL_PROPERTY
Grad RMS
SciTegic.value.DoubleValue
0.000000

@<SCITEGIC>MOL_PROPERTY
U
SciTegic.value.DoubleValue
12.334

@<SCITEGIC>MOL_PROPERTY
W
SciTegic.value.DoubleValue
-63.519

@<SCITEGIC>MOL_PROPERTY
W(PB)
SciTegic.value.DoubleValue
-65.541

@<SCITEGIC>MOL_PROPERTY
W(SA)
SciTegic.value.DoubleValue
2.022

@<SCITEGIC>MOL_PROPERTY
Valence
SciTegic.value.DoubleValue
9.984

@<SCITEGIC>MOL_PROPERTY
Coulomb
SciTegic.value.DoubleValue
1.768

@<SCITEGIC>MOL_PROPERTY
VdW
SciTegic.value.DoubleValue
0.583

@<SCITEGIC>MOL_PROPERTY
VdW6
SciTegic.value.DoubleValue
-7.767

@<SCITEGIC>MOL_PROPERTY
VdW12
SciTegic.value.DoubleValue
8.350

@<SCITEGIC>MOL_PROPERTY
Bond
SciTegic.value.DoubleValue
0.203

@<SCITEGIC>MOL_PROPERTY
Angle
SciTegic.value.DoubleValue
3.192

@<SCITEGIC>MOL_PROPERTY
Pdih
SciTegic.value.DoubleValue
6.589

@<SCITEGIC>MOL_PROPERTY
Idih
SciTegic.value.DoubleValue
0.001

@<SCITEGIC>MOL_PROPERTY
Tether
SciTegic.value.DoubleValue
0.000

@<TRIPOS>MOLECULE
guest-7_confgen4.mol2 : confsearch ligand conformer 794
          19          18           1
SMALL
USER_CHARGES
 
@<TRIPOS>ATOM
       1    C1      22.074092   19.276393   23.687079 C.2        1 MOL1         0.6115
       2    O1      22.709272   18.466229   23.041407 O.co2      1 MOL1        -0.6776
       3    O2      22.560021   20.282217   24.165985 O.co2      1 MOL1        -0.6776
       4    C2      20.593907   19.002603   23.938903 C.3        1 MOL1        -0.2013
       5    H1      20.420189   19.112578   25.015656 H          1 MOL1         0.0727
       6    H2      20.383668   17.954672   23.696135 H          1 MOL1         0.0727
       7    C3      19.632944   19.945677   23.164674 C.3        1 MOL1        -0.1910
       8    H3      18.598121   19.729018   23.459742 H          1 MOL1         0.0729
       9    H4      19.825937   20.980270   23.480081 H          1 MOL1         0.0729
      10    C4      19.762444   19.865712   21.621648 C.3        1 MOL1        -0.1909
      11    H5      20.766582   20.201680   21.328536 H          1 MOL1         0.0729
      12    H6      19.061492   20.581765   21.171619 H          1 MOL1         0.0729
      13    C5      19.509492   18.465864   21.010373 C.3        1 MOL1        -0.1884
      14    H7      19.645336   18.530106   19.922111 H          1 MOL1         0.0729
      15    H8      20.266912   17.755462   21.368269 H          1 MOL1         0.0729
      16    C6      18.096778   17.916151   21.303167 C.3        1 MOL1        -0.2899
      17    H9      17.956256   17.728221   22.375010 H          1 MOL1         0.0741
      18    H10     17.324203   18.622259   20.972179 H          1 MOL1         0.0741
      19    H11     17.936986   16.967171   20.775248 H          1 MOL1         0.0741
@<TRIPOS>BOND
    1     1     2    1
    2     1     3    2
    3     1     4    1
    4     4     5    1
    5     4     6    1
    6     4     7    1
    7     7     8    1
    8     7     9    1
    9     7    10    1
   10    10    11    1
   11    10    12    1
   12    10    13    1
   13    13    14    1
   14    13    15    1
   15    13    16    1
   16    16    17    1
   17    16    18    1
   18    16    19    1
@<TRIPOS>SUBSTRUCTURE
       1 MOL1            1 RESIDUE      1      MOL     
@<SCITEGIC>MOL_PROPERTY
VConf Rank
SciTegic.value.IntegerValue
794

@<SCITEGIC>MOL_PROPERTY
Conf_Id
SciTegic.value.IntegerValue
56

@<SCITEGIC>MOL_PROPERTY
Delta U+W
SciTegic.value.DoubleValue
1.735

@<SCITEGIC>MOL_PROPERTY
U+W
SciTegic.value.DoubleValue
-53.156

@<SCITEGIC>MOL_PROPERTY
Grad RMS
SciTegic.value.DoubleValue
0.000000

@<SCITEGIC>MOL_PROPERTY
U
SciTegic.value.DoubleValue
10.214

@<SCITEGIC>MOL_PROPERTY
W
SciTegic.value.DoubleValue
-63.370

@<SCITEGIC>MOL_PROPERTY
W(PB)
SciTegic.value.DoubleValue
-65.388

@<SCITEGIC>MOL_PROPERTY
W(SA)
SciTegic.value.DoubleValue
2.018

@<SCITEGIC>MOL_PROPERTY
Valence
SciTegic.value.DoubleValue
7.868

@<SCITEGIC>MOL_PROPERTY
Coulomb
SciTegic.value.DoubleValue
1.968

@<SCITEGIC>MOL_PROPERTY
VdW
SciTegic.value.DoubleValue
0.378

@<SCITEGIC>MOL_PROPERTY
VdW6
SciTegic.value.DoubleValue
-8.067

@<SCITEGIC>MOL_PROPERTY
VdW12
SciTegic.value.DoubleValue
8.445

@<SCITEGIC>MOL_PROPERTY
Bond
SciTegic.value.DoubleValue
0.191

@<SCITEGIC>MOL_PROPERTY
Angle
SciTegic.value.DoubleValue
3.117

@<SCITEGIC>MOL_PROPERTY
Pdih
SciTegic.value.DoubleValue
4.559

@<SCITEGIC>MOL_PROPERTY
Idih
SciTegic.value.DoubleValue
0.001

@<SCITEGIC>MOL_PROPERTY
Tether
SciTegic.value.DoubleValue
0.000

@<TRIPOS>MOLECULE
guest-7_confgen4.mol2 : confsearch ligand conformer 795
          19          18           1
SMALL
USER_CHARGES
 
@<TRIPOS>ATOM
       1    C1      20.579976   19.598608   19.500184 C.2        1 MOL1         0.6115
       2    O1      21.680511   19.432157   19.012863 O.co2      1 MOL1        -0.6776
       3    O2      19.693257   20.228152   18.958172 O.co2      1 MOL1        -0.6776
       4    C2      20.303998   19.003196   20.876250 C.3        1 MOL1        -0.2013
       5    H1      20.895432   18.085247   20.976019 H          1 MOL1         0.0727
       6    H2      19.246078   18.719874   20.908561 H          1 MOL1         0.0727
       7    C3      20.634057   19.981736   22.031454 C.3        1 MOL1        -0.1910
       8    H3      21.656642   20.358694   21.891370 H          1 MOL1         0.0729
       9    H4      19.972343   20.856303   21.964661 H          1 MOL1         0.0729
      10    C4      20.530701   19.358336   23.446085 C.3        1 MOL1        -0.1909
      11    H5      20.837183   20.126995   24.168722 H          1 MOL1         0.0729
      12    H6      21.257934   18.541782   23.552727 H          1 MOL1         0.0729
      13    C5      19.113719   18.868810   23.835487 C.3        1 MOL1        -0.1884
      14    H7      18.960419   19.056135   24.907284 H          1 MOL1         0.0729
      15    H8      18.349101   19.457714   23.310263 H          1 MOL1         0.0729
      16    C6      18.897772   17.360533   23.580158 C.3        1 MOL1        -0.2899
      17    H9      17.887725   17.060378   23.887711 H          1 MOL1         0.0741
      18    H10     19.014612   17.103971   22.521318 H          1 MOL1         0.0741
      19    H11     19.615363   16.760880   24.155145 H          1 MOL1         0.0741
@<TRIPOS>BOND
    1     1     2    1
    2     1     3    2
    3     1     4    1
    4     4     5    1
    5     4     6    1
    6     4     7    1
    7     7     8    1
    8     7     9    1
    9     7    10    1
   10    10    11    1
   11    10    12    1
   12    10    13    1
   13    13    14    1
   14    13    15    1
   15    13    16    1
   16    16    17    1
   17    16    18    1
   18    16    19    1
@<TRIPOS>SUBSTRUCTURE
       1 MOL1            1 RESIDUE      1      MOL     
@<SCITEGIC>MOL_PROPERTY
VConf Rank
SciTegic.value.IntegerValue
795

@<SCITEGIC>MOL_PROPERTY
Conf_Id
SciTegic.value.IntegerValue
53

@<SCITEGIC>MOL_PROPERTY
Delta U+W
SciTegic.value.DoubleValue
2.279

@<SCITEGIC>MOL_PROPERTY
U+W
SciTegic.value.DoubleValue
-52.612

@<SCITEGIC>MOL_PROPERTY
Grad RMS
SciTegic.value.DoubleValue
0.000000

@<SCITEGIC>MOL_PROPERTY
U
SciTegic.value.DoubleValue
10.231

@<SCITEGIC>MOL_PROPERTY
W
SciTegic.value.DoubleValue
-62.843

@<SCITEGIC>MOL_PROPERTY
W(PB)
SciTegic.value.DoubleValue
-64.893

@<SCITEGIC>MOL_PROPERTY
W(SA)
SciTegic.value.DoubleValue
2.050

@<SCITEGIC>MOL_PROPERTY
Valence
SciTegic.value.DoubleValue
9.644

@<SCITEGIC>MOL_PROPERTY
Coulomb
SciTegic.value.DoubleValue
-0.164

@<SCITEGIC>MOL_PROPERTY
VdW
SciTegic.value.DoubleValue
0.751

@<SCITEGIC>MOL_PROPERTY
VdW6
SciTegic.value.DoubleValue
-6.881

@<SCITEGIC>MOL_PROPERTY
VdW12
SciTegic.value.DoubleValue
7.631

@<SCITEGIC>MOL_PROPERTY
Bond
SciTegic.value.DoubleValue
0.163

@<SCITEGIC>MOL_PROPERTY
Angle
SciTegic.value.DoubleValue
2.998

@<SCITEGIC>MOL_PROPERTY
Pdih
SciTegic.value.DoubleValue
6.482

@<SCITEGIC>MOL_PROPERTY
Idih
SciTegic.value.DoubleValue
0.001

@<SCITEGIC>MOL_PROPERTY
Tether
SciTegic.value.DoubleValue
0.000

@<TRIPOS>MOLECULE
guest-7_confgen4.mol2 : confsearch ligand conformer 796
          19          18           1
SMALL
USER_CHARGES
 
@<TRIPOS>ATOM
       1    C1      21.080198   18.099830   20.408933 C.2        1 MOL1         0.6115
       2    O1      20.163563   17.462608   19.928745 O.co2      1 MOL1        -0.6776
       3    O2      22.180666   17.631157   20.624718 O.co2      1 MOL1        -0.6776
       4    C2      20.855990   19.584557   20.689646 C.3        1 MOL1        -0.2013
       5    H1      19.836304   19.854499   20.389156 H          1 MOL1         0.0727
       6    H2      21.533913   20.130148   20.023033 H          1 MOL1         0.0727
       7    C3      21.121034   20.030733   22.155184 C.3        1 MOL1        -0.1910
       8    H3      22.054700   19.581044   22.520685 H          1 MOL1         0.0729
       9    H4      21.289116   21.116165   22.153658 H          1 MOL1         0.0729
      10    C4      19.966084   19.734118   23.143509 C.3        1 MOL1        -0.1909
      11    H5      19.037814   20.192392   22.775901 H          1 MOL1         0.0729
      12    H6      20.197019   20.227679   24.097488 H          1 MOL1         0.0729
      13    C5      19.733433   18.230194   23.407443 C.3        1 MOL1        -0.1884
      14    H7      19.372274   17.739017   22.494910 H          1 MOL1         0.0729
      15    H8      20.683143   17.748207   23.677880 H          1 MOL1         0.0729
      16    C6      18.704111   18.006315   24.533591 C.3        1 MOL1        -0.2899
      17    H9      17.736775   18.457148   24.275969 H          1 MOL1         0.0741
      18    H10     18.543911   16.933570   24.702704 H          1 MOL1         0.0741
      19    H11     19.049550   18.449974   25.476542 H          1 MOL1         0.0741
@<TRIPOS>BOND
    1     1     2    1
    2     1     3    2
    3     1     4    1
    4     4     5    1
    5     4     6    1
    6     4     7    1
    7     7     8    1
    8     7     9    1
    9     7    10    1
   10    10    11    1
   11    10    12    1
   12    10    13    1
   13    13    14    1
   14    13    15    1
   15    13    16    1
   16    16    17    1
   17    16    18    1
   18    16    19    1
@<TRIPOS>SUBSTRUCTURE
       1 MOL1            1 RESIDUE      1      MOL     
@<SCITEGIC>MOL_PROPERTY
VConf Rank
SciTegic.value.IntegerValue
796

@<SCITEGIC>MOL_PROPERTY
Conf_Id
SciTegic.value.IntegerValue
25

@<SCITEGIC>MOL_PROPERTY
Delta U+W
SciTegic.value.DoubleValue
2.065

@<SCITEGIC>MOL_PROPERTY
U+W
SciTegic.value.DoubleValue
-52.826

@<SCITEGIC>MOL_PROPERTY
Grad RMS
SciTegic.value.DoubleValue
0.000000

@<SCITEGIC>MOL_PROPERTY
U
SciTegic.value.DoubleValue
10.967

@<SCITEGIC>MOL_PROPERTY
W
SciTegic.value.DoubleValue
-63.794

@<SCITEGIC>MOL_PROPERTY
W(PB)
SciTegic.value.DoubleValue
-65.830

@<SCITEGIC>MOL_PROPERTY
W(SA)
SciTegic.value.DoubleValue
2.036

@<SCITEGIC>MOL_PROPERTY
Valence
SciTegic.value.DoubleValue
8.609

@<SCITEGIC>MOL_PROPERTY
Coulomb
SciTegic.value.DoubleValue
1.892

@<SCITEGIC>MOL_PROPERTY
VdW
SciTegic.value.DoubleValue
0.467

@<SCITEGIC>MOL_PROPERTY
VdW6
SciTegic.value.DoubleValue
-7.569

@<SCITEGIC>MOL_PROPERTY
VdW12
SciTegic.value.DoubleValue
8.036

@<SCITEGIC>MOL_PROPERTY
Bond
SciTegic.value.DoubleValue
0.170

@<SCITEGIC>MOL_PROPERTY
Angle
SciTegic.value.DoubleValue
3.195

@<SCITEGIC>MOL_PROPERTY
Pdih
SciTegic.value.DoubleValue
5.237

@<SCITEGIC>MOL_PROPERTY
Idih
SciTegic.value.DoubleValue
0.007

@<SCITEGIC>MOL_PROPERTY
Tether
SciTegic.value.DoubleValue
0.000

@<TRIPOS>MOLECULE
guest-7_confgen4.mol2 : confsearch ligand conformer 797
          19          18           1
SMALL
USER_CHARGES
 
@<TRIPOS>ATOM
       1    C1      18.866555   20.448104   23.822458 C.2        1 MOL1         0.6115
       2    O1      18.394118   19.871905   24.782691 O.co2      1 MOL1        -0.6776
       3    O2      18.194769   21.030831   22.994215 O.co2      1 MOL1        -0.6776
       4    C2      20.386953   20.503765   23.685440 C.3        1 MOL1        -0.2013
       5    H1      20.755169   21.055258   24.558307 H          1 MOL1         0.0727
       6    H2      20.644054   21.103837   22.804113 H          1 MOL1         0.0727
       7    C3      21.099070   19.123150   23.622828 C.3        1 MOL1        -0.1910
       8    H3      22.152891   19.272991   23.893799 H          1 MOL1         0.0729
       9    H4      20.683165   18.452064   24.387164 H          1 MOL1         0.0729
      10    C4      21.062400   18.435610   22.235520 C.3        1 MOL1        -0.1909
      11    H5      21.721815   17.557603   22.271392 H          1 MOL1         0.0729
      12    H6      21.486053   19.108791   21.477772 H          1 MOL1         0.0729
      13    C5      19.653856   17.979598   21.795481 C.3        1 MOL1        -0.1884
      14    H7      19.186751   17.388764   22.595559 H          1 MOL1         0.0729
      15    H8      19.011586   18.852826   21.624110 H          1 MOL1         0.0729
      16    C6      19.709139   17.141299   20.502409 C.3        1 MOL1        -0.2899
      17    H9      18.700360   16.832689   20.198815 H          1 MOL1         0.0741
      18    H10     20.149164   17.719061   19.679046 H          1 MOL1         0.0741
      19    H11     20.311675   16.234906   20.646352 H          1 MOL1         0.0741
@<TRIPOS>BOND
    1     1     2    1
    2     1     3    2
    3     1     4    1
    4     4     5    1
    5     4     6    1
    6     4     7    1
    7     7     8    1
    8     7     9    1
    9     7    10    1
   10    10    11    1
   11    10    12    1
   12    10    13    1
   13    13    14    1
   14    13    15    1
   15    13    16    1
   16    16    17    1
   17    16    18    1
   18    16    19    1
@<TRIPOS>SUBSTRUCTURE
       1 MOL1            1 RESIDUE      1      MOL     
@<SCITEGIC>MOL_PROPERTY
VConf Rank
SciTegic.value.IntegerValue
797

@<SCITEGIC>MOL_PROPERTY
Conf_Id
SciTegic.value.IntegerValue
52

@<SCITEGIC>MOL_PROPERTY
Delta U+W
SciTegic.value.DoubleValue
2.070

@<SCITEGIC>MOL_PROPERTY
U+W
SciTegic.value.DoubleValue
-52.822

@<SCITEGIC>MOL_PROPERTY
Grad RMS
SciTegic.value.DoubleValue
0.000000

@<SCITEGIC>MOL_PROPERTY
U
SciTegic.value.DoubleValue
10.967

@<SCITEGIC>MOL_PROPERTY
W
SciTegic.value.DoubleValue
-63.789

@<SCITEGIC>MOL_PROPERTY
W(PB)
SciTegic.value.DoubleValue
-65.837

@<SCITEGIC>MOL_PROPERTY
W(SA)
SciTegic.value.DoubleValue
2.048

@<SCITEGIC>MOL_PROPERTY
Valence
SciTegic.value.DoubleValue
8.609

@<SCITEGIC>MOL_PROPERTY
Coulomb
SciTegic.value.DoubleValue
1.892

@<SCITEGIC>MOL_PROPERTY
VdW
SciTegic.value.DoubleValue
0.467

@<SCITEGIC>MOL_PROPERTY
VdW6
SciTegic.value.DoubleValue
-7.569

@<SCITEGIC>MOL_PROPERTY
VdW12
SciTegic.value.DoubleValue
8.035

@<SCITEGIC>MOL_PROPERTY
Bond
SciTegic.value.DoubleValue
0.170

@<SCITEGIC>MOL_PROPERTY
Angle
SciTegic.value.DoubleValue
3.196

@<SCITEGIC>MOL_PROPERTY
Pdih
SciTegic.value.DoubleValue
5.237

@<SCITEGIC>MOL_PROPERTY
Idih
SciTegic.value.DoubleValue
0.007

@<SCITEGIC>MOL_PROPERTY
Tether
SciTegic.value.DoubleValue
0.000

@<TRIPOS>MOLECULE
guest-7_confgen4.mol2 : confsearch ligand conformer 798
          19          18           1
SMALL
USER_CHARGES
 
@<TRIPOS>ATOM
       1    C1      18.529259   20.579307   22.568160 C.2        1 MOL1         0.6115
       2    O1      17.471957   20.244970   23.066605 O.co2      1 MOL1        -0.6776
       3    O2      19.148451   21.563978   22.919903 O.co2      1 MOL1        -0.6776
       4    C2      19.048292   19.802549   21.357114 C.3        1 MOL1        -0.2013
       5    H1      20.069658   20.132204   21.131999 H          1 MOL1         0.0727
       6    H2      18.426361   20.112585   20.509556 H          1 MOL1         0.0727
       7    C3      18.998046   18.252485   21.476049 C.3        1 MOL1        -0.1910
       8    H3      18.058956   17.942836   21.955120 H          1 MOL1         0.0729
       9    H4      18.964068   17.837331   20.459757 H          1 MOL1         0.0729
      10    C4      20.201890   17.602059   22.204667 C.3        1 MOL1        -0.1909
      11    H5      21.132880   17.828724   21.667156 H          1 MOL1         0.0729
      12    H6      20.078816   16.512508   22.136133 H          1 MOL1         0.0729
      13    C5      20.340270   17.974661   23.700665 C.3        1 MOL1        -0.1884
      14    H7      19.374488   18.308863   24.104310 H          1 MOL1         0.0729
      15    H8      20.610793   17.072953   24.267134 H          1 MOL1         0.0729
      16    C6      21.425776   19.043069   23.952267 C.3        1 MOL1        -0.2899
      17    H9      22.413550   18.677858   23.642654 H          1 MOL1         0.0741
      18    H10     21.217251   19.965933   23.398579 H          1 MOL1         0.0741
      19    H11     21.477969   19.295353   25.019153 H          1 MOL1         0.0741
@<TRIPOS>BOND
    1     1     2    1
    2     1     3    2
    3     1     4    1
    4     4     5    1
    5     4     6    1
    6     4     7    1
    7     7     8    1
    8     7     9    1
    9     7    10    1
   10    10    11    1
   11    10    12    1
   12    10    13    1
   13    13    14    1
   14    13    15    1
   15    13    16    1
   16    16    17    1
   17    16    18    1
   18    16    19    1
@<TRIPOS>SUBSTRUCTURE
       1 MOL1            1 RESIDUE      1      MOL     
@<SCITEGIC>MOL_PROPERTY
VConf Rank
SciTegic.value.IntegerValue
798

@<SCITEGIC>MOL_PROPERTY
Conf_Id
SciTegic.value.IntegerValue
66

@<SCITEGIC>MOL_PROPERTY
Delta U+W
SciTegic.value.DoubleValue
5.819

@<SCITEGIC>MOL_PROPERTY
U+W
SciTegic.value.DoubleValue
-49.072

@<SCITEGIC>MOL_PROPERTY
Grad RMS
SciTegic.value.DoubleValue
0.000000

@<SCITEGIC>MOL_PROPERTY
U
SciTegic.value.DoubleValue
15.324

@<SCITEGIC>MOL_PROPERTY
W
SciTegic.value.DoubleValue
-64.396

@<SCITEGIC>MOL_PROPERTY
W(PB)
SciTegic.value.DoubleValue
-66.382

@<SCITEGIC>MOL_PROPERTY
W(SA)
SciTegic.value.DoubleValue
1.986

@<SCITEGIC>MOL_PROPERTY
Valence
SciTegic.value.DoubleValue
11.748

@<SCITEGIC>MOL_PROPERTY
Coulomb
SciTegic.value.DoubleValue
3.201

@<SCITEGIC>MOL_PROPERTY
VdW
SciTegic.value.DoubleValue
0.375

@<SCITEGIC>MOL_PROPERTY
VdW6
SciTegic.value.DoubleValue
-8.854

@<SCITEGIC>MOL_PROPERTY
VdW12
SciTegic.value.DoubleValue
9.229

@<SCITEGIC>MOL_PROPERTY
Bond
SciTegic.value.DoubleValue
0.216

@<SCITEGIC>MOL_PROPERTY
Angle
SciTegic.value.DoubleValue
3.812

@<SCITEGIC>MOL_PROPERTY
Pdih
SciTegic.value.DoubleValue
7.699

@<SCITEGIC>MOL_PROPERTY
Idih
SciTegic.value.DoubleValue
0.022

@<SCITEGIC>MOL_PROPERTY
Tether
SciTegic.value.DoubleValue
0.000

@<TRIPOS>MOLECULE
guest-7_confgen4.mol2 : confsearch ligand conformer 799
          19          18           1
SMALL
USER_CHARGES
 
@<TRIPOS>ATOM
       1    C1      20.941637   20.231024   25.132196 C.2        1 MOL1         0.6115
       2    O1      21.029211   21.292607   25.716177 O.co2      1 MOL1        -0.6776
       3    O2      21.261535   19.170172   25.632599 O.co2      1 MOL1        -0.6776
       4    C2      20.400379   20.263530   23.701931 C.3        1 MOL1        -0.2013
       5    H1      21.047613   20.932269   23.122339 H          1 MOL1         0.0727
       6    H2      19.408371   20.729003   23.738065 H          1 MOL1         0.0727
       7    C3      20.306622   18.884153   22.996977 C.3        1 MOL1        -0.1910
       8    H3      21.302537   18.420631   22.969245 H          1 MOL1         0.0729
       9    H4      19.661620   18.217138   23.585648 H          1 MOL1         0.0729
      10    C4      19.751826   19.009556   21.561450 C.3        1 MOL1        -0.1909
      11    H5      20.398035   19.676929   20.974784 H          1 MOL1         0.0729
      12    H6      18.756231   19.473277   21.591505 H          1 MOL1         0.0729
      13    C5      19.659479   17.637240   20.862441 C.3        1 MOL1        -0.1884
      14    H7      20.653893   17.170878   20.828691 H          1 MOL1         0.0729
      15    H8      19.012195   16.967292   21.445267 H          1 MOL1         0.0729
      16    C6      19.105323   17.766230   19.429519 C.3        1 MOL1        -0.2899
      17    H9      19.751419   18.406498   18.814671 H          1 MOL1         0.0741
      18    H10     19.046380   16.781692   18.947523 H          1 MOL1         0.0741
      19    H11     18.097352   18.201402   19.435885 H          1 MOL1         0.0741
@<TRIPOS>BOND
    1     1     2    1
    2     1     3    2
    3     1     4    1
    4     4     5    1
    5     4     6    1
    6     4     7    1
    7     7     8    1
    8     7     9    1
    9     7    10    1
   10    10    11    1
   11    10    12    1
   12    10    13    1
   13    13    14    1
   14    13    15    1
   15    13    16    1
   16    16    17    1
   17    16    18    1
   18    16    19    1
@<TRIPOS>SUBSTRUCTURE
       1 MOL1            1 RESIDUE      1      MOL     
@<SCITEGIC>MOL_PROPERTY
VConf Rank
SciTegic.value.IntegerValue
799

@<SCITEGIC>MOL_PROPERTY
Conf_Id
SciTegic.value.IntegerValue
0

@<SCITEGIC>MOL_PROPERTY
Delta U+W
SciTegic.value.DoubleValue
0.000

@<SCITEGIC>MOL_PROPERTY
U+W
SciTegic.value.DoubleValue
-54.891

@<SCITEGIC>MOL_PROPERTY
Grad RMS
SciTegic.value.DoubleValue
0.000000

@<SCITEGIC>MOL_PROPERTY
U
SciTegic.value.DoubleValue
6.966

@<SCITEGIC>MOL_PROPERTY
W
SciTegic.value.DoubleValue
-61.857

@<SCITEGIC>MOL_PROPERTY
W(PB)
SciTegic.value.DoubleValue
-63.965

@<SCITEGIC>MOL_PROPERTY
W(SA)
SciTegic.value.DoubleValue
2.108

@<SCITEGIC>MOL_PROPERTY
Valence
SciTegic.value.DoubleValue
7.175

@<SCITEGIC>MOL_PROPERTY
Coulomb
SciTegic.value.DoubleValue
-1.360

@<SCITEGIC>MOL_PROPERTY
VdW
SciTegic.value.DoubleValue
1.151

@<SCITEGIC>MOL_PROPERTY
VdW6
SciTegic.value.DoubleValue
-5.641

@<SCITEGIC>MOL_PROPERTY
VdW12
SciTegic.value.DoubleValue
6.792

@<SCITEGIC>MOL_PROPERTY
Bond
SciTegic.value.DoubleValue
0.119

@<SCITEGIC>MOL_PROPERTY
Angle
SciTegic.value.DoubleValue
2.715

@<SCITEGIC>MOL_PROPERTY
Pdih
SciTegic.value.DoubleValue
4.340

@<SCITEGIC>MOL_PROPERTY
Idih
SciTegic.value.DoubleValue
0.000

@<SCITEGIC>MOL_PROPERTY
Tether
SciTegic.value.DoubleValue
0.000

@<TRIPOS>MOLECULE
guest-7_confgen4.mol2 : confsearch ligand conformer 800
          19          18           1
SMALL
USER_CHARGES
 
@<TRIPOS>ATOM
       1    C1      22.703535   20.661081   21.253723 C.2        1 MOL1         0.6115
       2    O1      22.515756   21.830635   20.983420 O.co2      1 MOL1        -0.6776
       3    O2      23.742043   20.236960   21.720417 O.co2      1 MOL1        -0.6776
       4    C2      21.566189   19.674696   21.013180 C.3        1 MOL1        -0.2013
       5    H1      22.005821   18.705148   20.749663 H          1 MOL1         0.0727
       6    H2      20.994893   20.018825   20.142583 H          1 MOL1         0.0727
       7    C3      20.632026   19.522212   22.238824 C.3        1 MOL1        -0.1910
       8    H3      21.221047   19.189464   23.104781 H          1 MOL1         0.0729
       9    H4      20.210170   20.503300   22.497770 H          1 MOL1         0.0729
      10    C4      19.489812   18.518981   21.969561 C.3        1 MOL1        -0.1909
      11    H5      19.914734   17.539653   21.709656 H          1 MOL1         0.0729
      12    H6      18.903656   18.853728   21.102636 H          1 MOL1         0.0729
      13    C5      18.560862   18.369028   23.192238 C.3        1 MOL1        -0.1884
      14    H7      19.143264   18.032442   24.061151 H          1 MOL1         0.0729
      15    H8      18.132219   19.346354   23.454141 H          1 MOL1         0.0729
      16    C6      17.421624   17.366570   22.919896 C.3        1 MOL1        -0.2899
      17    H9      16.771088   17.272132   23.799096 H          1 MOL1         0.0741
      18    H10     16.803141   17.695072   22.074325 H          1 MOL1         0.0741
      19    H11     17.821777   16.371321   22.685847 H          1 MOL1         0.0741
@<TRIPOS>BOND
    1     1     2    1
    2     1     3    2
    3     1     4    1
    4     4     5    1
    5     4     6    1
    6     4     7    1
    7     7     8    1
    8     7     9    1
    9     7    10    1
   10    10    11    1
   11    10    12    1
   12    10    13    1
   13    13    14    1
   14    13    15    1
   15    13    16    1
   16    16    17    1
   17    16    18    1
   18    16    19    1
@<TRIPOS>SUBSTRUCTURE
       1 MOL1            1 RESIDUE      1      MOL     
@<SCITEGIC>MOL_PROPERTY
VConf Rank
SciTegic.value.IntegerValue
800

@<SCITEGIC>MOL_PROPERTY
Conf_Id
SciTegic.value.IntegerValue
18

@<SCITEGIC>MOL_PROPERTY
Delta U+W
SciTegic.value.DoubleValue
-1.199

@<SCITEGIC>MOL_PROPERTY
U+W
SciTegic.value.DoubleValue
-56.090

@<SCITEGIC>MOL_PROPERTY
Grad RMS
SciTegic.value.DoubleValue
0.000000

@<SCITEGIC>MOL_PROPERTY
U
SciTegic.value.DoubleValue
5.975

@<SCITEGIC>MOL_PROPERTY
W
SciTegic.value.DoubleValue
-62.066

@<SCITEGIC>MOL_PROPERTY
W(PB)
SciTegic.value.DoubleValue
-64.219

@<SCITEGIC>MOL_PROPERTY
W(SA)
SciTegic.value.DoubleValue
2.153

@<SCITEGIC>MOL_PROPERTY
Valence
SciTegic.value.DoubleValue
6.673

@<SCITEGIC>MOL_PROPERTY
Coulomb
SciTegic.value.DoubleValue
-1.307

@<SCITEGIC>MOL_PROPERTY
VdW
SciTegic.value.DoubleValue
0.610

@<SCITEGIC>MOL_PROPERTY
VdW6
SciTegic.value.DoubleValue
-5.351

@<SCITEGIC>MOL_PROPERTY
VdW12
SciTegic.value.DoubleValue
5.961

@<SCITEGIC>MOL_PROPERTY
Bond
SciTegic.value.DoubleValue
0.086

@<SCITEGIC>MOL_PROPERTY
Angle
SciTegic.value.DoubleValue
2.253

@<SCITEGIC>MOL_PROPERTY
Pdih
SciTegic.value.DoubleValue
4.333

@<SCITEGIC>MOL_PROPERTY
Idih
SciTegic.value.DoubleValue
0.001

@<SCITEGIC>MOL_PROPERTY
Tether
SciTegic.value.DoubleValue
0.000

@<TRIPOS>MOLECULE
guest-7_confgen4.mol2 : confsearch ligand conformer 801
          19          18           1
SMALL
USER_CHARGES
 
@<TRIPOS>ATOM
       1    C1      23.189046   18.678795   22.170897 C.2        1 MOL1         0.6115
       2    O1      23.933369   19.612489   21.946204 O.co2      1 MOL1        -0.6776
       3    O2      23.543239   17.653150   22.717579 O.co2      1 MOL1        -0.6776
       4    C2      21.725732   18.810093   21.763669 C.3        1 MOL1        -0.2013
       5    H1      21.366182   17.812808   21.486199 H          1 MOL1         0.0727
       6    H2      21.677597   19.435545   20.864223 H          1 MOL1         0.0727
       7    C3      20.842813   19.417115   22.884900 C.3        1 MOL1        -0.1910
       8    H3      20.863490   18.759401   23.764840 H          1 MOL1         0.0729
       9    H4      21.283104   20.372755   23.201633 H          1 MOL1         0.0729
      10    C4      19.378446   19.665488   22.451917 C.3        1 MOL1        -0.1909
      11    H5      19.360863   20.330130   21.577303 H          1 MOL1         0.0729
      12    H6      18.862133   20.201593   23.260017 H          1 MOL1         0.0729
      13    C5      18.602792   18.367202   22.135177 C.3        1 MOL1        -0.1884
      14    H7      19.058664   17.852986   21.278951 H          1 MOL1         0.0729
      15    H8      18.663266   17.681022   22.991195 H          1 MOL1         0.0729
      16    C6      17.122639   18.657263   21.815362 C.3        1 MOL1        -0.2899
      17    H9      16.586153   17.726455   21.589822 H          1 MOL1         0.0741
      18    H10     16.623267   19.138231   22.666645 H          1 MOL1         0.0741
      19    H11     17.031853   19.320340   20.945021 H          1 MOL1         0.0741
@<TRIPOS>BOND
    1     1     2    1
    2     1     3    2
    3     1     4    1
    4     4     5    1
    5     4     6    1
    6     4     7    1
    7     7     8    1
    8     7     9    1
    9     7    10    1
   10    10    11    1
   11    10    12    1
   12    10    13    1
   13    13    14    1
   14    13    15    1
   15    13    16    1
   16    16    17    1
   17    16    18    1
   18    16    19    1
@<TRIPOS>SUBSTRUCTURE
       1 MOL1            1 RESIDUE      1      MOL     
@<SCITEGIC>MOL_PROPERTY
VConf Rank
SciTegic.value.IntegerValue
801

@<SCITEGIC>MOL_PROPERTY
Conf_Id
SciTegic.value.IntegerValue
34

@<SCITEGIC>MOL_PROPERTY
Delta U+W
SciTegic.value.DoubleValue
-0.563

@<SCITEGIC>MOL_PROPERTY
U+W
SciTegic.value.DoubleValue
-55.455

@<SCITEGIC>MOL_PROPERTY
Grad RMS
SciTegic.value.DoubleValue
0.000000

@<SCITEGIC>MOL_PROPERTY
U
SciTegic.value.DoubleValue
6.914

@<SCITEGIC>MOL_PROPERTY
W
SciTegic.value.DoubleValue
-62.369

@<SCITEGIC>MOL_PROPERTY
W(PB)
SciTegic.value.DoubleValue
-64.446

@<SCITEGIC>MOL_PROPERTY
W(SA)
SciTegic.value.DoubleValue
2.077

@<SCITEGIC>MOL_PROPERTY
Valence
SciTegic.value.DoubleValue
7.196

@<SCITEGIC>MOL_PROPERTY
Coulomb
SciTegic.value.DoubleValue
-1.020

@<SCITEGIC>MOL_PROPERTY
VdW
SciTegic.value.DoubleValue
0.738

@<SCITEGIC>MOL_PROPERTY
VdW6
SciTegic.value.DoubleValue
-6.010

@<SCITEGIC>MOL_PROPERTY
VdW12
SciTegic.value.DoubleValue
6.748

@<SCITEGIC>MOL_PROPERTY
Bond
SciTegic.value.DoubleValue
0.126

@<SCITEGIC>MOL_PROPERTY
Angle
SciTegic.value.DoubleValue
2.499

@<SCITEGIC>MOL_PROPERTY
Pdih
SciTegic.value.DoubleValue
4.570

@<SCITEGIC>MOL_PROPERTY
Idih
SciTegic.value.DoubleValue
0.001

@<SCITEGIC>MOL_PROPERTY
Tether
SciTegic.value.DoubleValue
0.000

@<TRIPOS>MOLECULE
guest-7_confgen4.mol2 : confsearch ligand conformer 802
          19          18           1
SMALL
USER_CHARGES
 
@<TRIPOS>ATOM
       1    C1      20.366510   15.732958   22.125023 C.2        1 MOL1         0.6115
       2    O1      19.544181   14.945877   22.549954 O.co2      1 MOL1        -0.6776
       3    O2      21.531728   15.448588   21.930955 O.co2      1 MOL1        -0.6776
       4    C2      19.916357   17.161541   21.840643 C.3        1 MOL1        -0.2013
       5    H1      18.868000   17.130651   21.520478 H          1 MOL1         0.0727
       6    H2      20.504293   17.534034   20.994224 H          1 MOL1         0.0727
       7    C3      20.073138   18.095914   23.068465 C.3        1 MOL1        -0.1910
       8    H3      19.547512   17.646734   23.922500 H          1 MOL1         0.0729
       9    H4      21.133004   18.154051   23.352391 H          1 MOL1         0.0729
      10    C4      19.515019   19.520051   22.836383 C.3        1 MOL1        -0.1909
      11    H5      19.558567   20.070593   23.786130 H          1 MOL1         0.0729
      12    H6      18.453198   19.458963   22.561039 H          1 MOL1         0.0729
      13    C5      20.287438   20.314717   21.759635 C.3        1 MOL1        -0.1884
      14    H7      21.357525   20.332435   22.008368 H          1 MOL1         0.0729
      15    H8      20.193007   19.820630   20.783764 H          1 MOL1         0.0729
      16    C6      19.765425   21.760700   21.641736 C.3        1 MOL1        -0.2899
      17    H9      18.702645   21.773028   21.366504 H          1 MOL1         0.0741
      18    H10     19.880036   22.298908   22.591780 H          1 MOL1         0.0741
      19    H11     20.321466   22.310968   20.871597 H          1 MOL1         0.0741
@<TRIPOS>BOND
    1     1     2    1
    2     1     3    2
    3     1     4    1
    4     4     5    1
    5     4     6    1
    6     4     7    1
    7     7     8    1
    8     7     9    1
    9     7    10    1
   10    10    11    1
   11    10    12    1
   12    10    13    1
   13    13    14    1
   14    13    15    1
   15    13    16    1
   16    16    17    1
   17    16    18    1
   18    16    19    1
@<TRIPOS>SUBSTRUCTURE
       1 MOL1            1 RESIDUE      1      MOL     
@<SCITEGIC>MOL_PROPERTY
VConf Rank
SciTegic.value.IntegerValue
802

@<SCITEGIC>MOL_PROPERTY
Conf_Id
SciTegic.value.IntegerValue
33

@<SCITEGIC>MOL_PROPERTY
Delta U+W
SciTegic.value.DoubleValue
-0.526

@<SCITEGIC>MOL_PROPERTY
U+W
SciTegic.value.DoubleValue
-55.418

@<SCITEGIC>MOL_PROPERTY
Grad RMS
SciTegic.value.DoubleValue
0.000000

@<SCITEGIC>MOL_PROPERTY
U
SciTegic.value.DoubleValue
6.914

@<SCITEGIC>MOL_PROPERTY
W
SciTegic.value.DoubleValue
-62.332

@<SCITEGIC>MOL_PROPERTY
W(PB)
SciTegic.value.DoubleValue
-64.421

@<SCITEGIC>MOL_PROPERTY
W(SA)
SciTegic.value.DoubleValue
2.090

@<SCITEGIC>MOL_PROPERTY
Valence
SciTegic.value.DoubleValue
7.196

@<SCITEGIC>MOL_PROPERTY
Coulomb
SciTegic.value.DoubleValue
-1.020

@<SCITEGIC>MOL_PROPERTY
VdW
SciTegic.value.DoubleValue
0.738

@<SCITEGIC>MOL_PROPERTY
VdW6
SciTegic.value.DoubleValue
-6.010

@<SCITEGIC>MOL_PROPERTY
VdW12
SciTegic.value.DoubleValue
6.748

@<SCITEGIC>MOL_PROPERTY
Bond
SciTegic.value.DoubleValue
0.126

@<SCITEGIC>MOL_PROPERTY
Angle
SciTegic.value.DoubleValue
2.499

@<SCITEGIC>MOL_PROPERTY
Pdih
SciTegic.value.DoubleValue
4.570

@<SCITEGIC>MOL_PROPERTY
Idih
SciTegic.value.DoubleValue
0.001

@<SCITEGIC>MOL_PROPERTY
Tether
SciTegic.value.DoubleValue
0.000

@<TRIPOS>MOLECULE
guest-7_confgen4.mol2 : confsearch ligand conformer 803
          19          18           1
SMALL
USER_CHARGES
 
@<TRIPOS>ATOM
       1    C1      20.843136   20.699304   19.761648 C.2        1 MOL1         0.6115
       2    O1      21.871671   21.284367   20.037394 O.co2      1 MOL1        -0.6776
       3    O2      20.588775   20.272484   18.652879 O.co2      1 MOL1        -0.6776
       4    C2      19.823226   20.472811   20.872047 C.3        1 MOL1        -0.2013
       5    H1      18.822352   20.491842   20.424199 H          1 MOL1         0.0727
       6    H2      19.883209   21.318345   21.567893 H          1 MOL1         0.0727
       7    C3      20.044611   19.140873   21.630581 C.3        1 MOL1        -0.1910
       8    H3      19.991084   18.305147   20.919289 H          1 MOL1         0.0729
       9    H4      21.057835   19.137056   22.053644 H          1 MOL1         0.0729
      10    C4      18.999412   18.939130   22.751973 C.3        1 MOL1        -0.1909
      11    H5      17.992202   19.017611   22.320276 H          1 MOL1         0.0729
      12    H6      19.086142   19.748923   23.489347 H          1 MOL1         0.0729
      13    C5      19.121963   17.573699   23.466932 C.3        1 MOL1        -0.1884
      14    H7      18.277505   17.462128   24.160968 H          1 MOL1         0.0729
      15    H8      19.030111   16.760901   22.733278 H          1 MOL1         0.0729
      16    C6      20.438780   17.413866   24.257058 C.3        1 MOL1        -0.2899
      17    H9      20.566687   18.232435   24.977295 H          1 MOL1         0.0741
      18    H10     20.438632   16.469044   24.815854 H          1 MOL1         0.0741
      19    H11     21.308656   17.403848   23.588508 H          1 MOL1         0.0741
@<TRIPOS>BOND
    1     1     2    1
    2     1     3    2
    3     1     4    1
    4     4     5    1
    5     4     6    1
    6     4     7    1
    7     7     8    1
    8     7     9    1
    9     7    10    1
   10    10    11    1
   11    10    12    1
   12    10    13    1
   13    13    14    1
   14    13    15    1
   15    13    16    1
   16    16    17    1
   17    16    18    1
   18    16    19    1
@<TRIPOS>SUBSTRUCTURE
       1 MOL1            1 RESIDUE      1      MOL     
@<SCITEGIC>MOL_PROPERTY
VConf Rank
SciTegic.value.IntegerValue
803

@<SCITEGIC>MOL_PROPERTY
Conf_Id
SciTegic.value.IntegerValue
42

@<SCITEGIC>MOL_PROPERTY
Delta U+W
SciTegic.value.DoubleValue
-0.344

@<SCITEGIC>MOL_PROPERTY
U+W
SciTegic.value.DoubleValue
-55.236

@<SCITEGIC>MOL_PROPERTY
Grad RMS
SciTegic.value.DoubleValue
0.000000

@<SCITEGIC>MOL_PROPERTY
U
SciTegic.value.DoubleValue
7.244

@<SCITEGIC>MOL_PROPERTY
W
SciTegic.value.DoubleValue
-62.479

@<SCITEGIC>MOL_PROPERTY
W(PB)
SciTegic.value.DoubleValue
-64.610

@<SCITEGIC>MOL_PROPERTY
W(SA)
SciTegic.value.DoubleValue
2.130

@<SCITEGIC>MOL_PROPERTY
Valence
SciTegic.value.DoubleValue
7.174

@<SCITEGIC>MOL_PROPERTY
Coulomb
SciTegic.value.DoubleValue
-0.669

@<SCITEGIC>MOL_PROPERTY
VdW
SciTegic.value.DoubleValue
0.739

@<SCITEGIC>MOL_PROPERTY
VdW6
SciTegic.value.DoubleValue
-5.969

@<SCITEGIC>MOL_PROPERTY
VdW12
SciTegic.value.DoubleValue
6.708

@<SCITEGIC>MOL_PROPERTY
Bond
SciTegic.value.DoubleValue
0.116

@<SCITEGIC>MOL_PROPERTY
Angle
SciTegic.value.DoubleValue
2.481

@<SCITEGIC>MOL_PROPERTY
Pdih
SciTegic.value.DoubleValue
4.576

@<SCITEGIC>MOL_PROPERTY
Idih
SciTegic.value.DoubleValue
0.000

@<SCITEGIC>MOL_PROPERTY
Tether
SciTegic.value.DoubleValue
0.000

@<TRIPOS>MOLECULE
guest-7_confgen4.mol2 : confsearch ligand conformer 804
          19          18           1
SMALL
USER_CHARGES
 
@<TRIPOS>ATOM
       1    C1      19.087263   17.917570   19.398143 C.2        1 MOL1         0.6115
       2    O1      18.276803   18.695845   18.935908 O.co2      1 MOL1        -0.6776
       3    O2      19.037709   16.715460   19.228665 O.co2      1 MOL1        -0.6776
       4    C2      20.218334   18.478382   20.252934 C.3        1 MOL1        -0.2013
       5    H1      20.469445   19.476475   19.874145 H          1 MOL1         0.0727
       6    H2      21.101497   17.844715   20.107445 H          1 MOL1         0.0727
       7    C3      19.856090   18.554022   21.756763 C.3        1 MOL1        -0.1910
       8    H3      18.959800   19.177076   21.875463 H          1 MOL1         0.0729
       9    H4      19.598203   17.549175   22.118724 H          1 MOL1         0.0729
      10    C4      21.018694   19.129125   22.598349 C.3        1 MOL1        -0.1909
      11    H5      21.243783   20.152669   22.268651 H          1 MOL1         0.0729
      12    H6      21.923790   18.535364   22.410623 H          1 MOL1         0.0729
      13    C5      20.736191   19.126065   24.118471 C.3        1 MOL1        -0.1884
      14    H7      20.516067   18.102892   24.453120 H          1 MOL1         0.0729
      15    H8      21.648164   19.435989   24.647146 H          1 MOL1         0.0729
      16    C6      19.581418   20.065938   24.527117 C.3        1 MOL1        -0.2899
      17    H9      18.623449   19.727362   24.113103 H          1 MOL1         0.0741
      18    H10     19.479072   20.095400   25.619636 H          1 MOL1         0.0741
      19    H11     19.765746   21.090028   24.177231 H          1 MOL1         0.0741
@<TRIPOS>BOND
    1     1     2    1
    2     1     3    2
    3     1     4    1
    4     4     5    1
    5     4     6    1
    6     4     7    1
    7     7     8    1
    8     7     9    1
    9     7    10    1
   10    10    11    1
   11    10    12    1
   12    10    13    1
   13    13    14    1
   14    13    15    1
   15    13    16    1
   16    16    17    1
   17    16    18    1
   18    16    19    1
@<TRIPOS>SUBSTRUCTURE
       1 MOL1            1 RESIDUE      1      MOL     
@<SCITEGIC>MOL_PROPERTY
VConf Rank
SciTegic.value.IntegerValue
804

@<SCITEGIC>MOL_PROPERTY
Conf_Id
SciTegic.value.IntegerValue
41

@<SCITEGIC>MOL_PROPERTY
Delta U+W
SciTegic.value.DoubleValue
-0.361

@<SCITEGIC>MOL_PROPERTY
U+W
SciTegic.value.DoubleValue
-55.252

@<SCITEGIC>MOL_PROPERTY
Grad RMS
SciTegic.value.DoubleValue
0.000000

@<SCITEGIC>MOL_PROPERTY
U
SciTegic.value.DoubleValue
7.244

@<SCITEGIC>MOL_PROPERTY
W
SciTegic.value.DoubleValue
-62.496

@<SCITEGIC>MOL_PROPERTY
W(PB)
SciTegic.value.DoubleValue
-64.596

@<SCITEGIC>MOL_PROPERTY
W(SA)
SciTegic.value.DoubleValue
2.099

@<SCITEGIC>MOL_PROPERTY
Valence
SciTegic.value.DoubleValue
7.174

@<SCITEGIC>MOL_PROPERTY
Coulomb
SciTegic.value.DoubleValue
-0.669

@<SCITEGIC>MOL_PROPERTY
VdW
SciTegic.value.DoubleValue
0.739

@<SCITEGIC>MOL_PROPERTY
VdW6
SciTegic.value.DoubleValue
-5.969

@<SCITEGIC>MOL_PROPERTY
VdW12
SciTegic.value.DoubleValue
6.708

@<SCITEGIC>MOL_PROPERTY
Bond
SciTegic.value.DoubleValue
0.116

@<SCITEGIC>MOL_PROPERTY
Angle
SciTegic.value.DoubleValue
2.481

@<SCITEGIC>MOL_PROPERTY
Pdih
SciTegic.value.DoubleValue
4.576

@<SCITEGIC>MOL_PROPERTY
Idih
SciTegic.value.DoubleValue
0.000

@<SCITEGIC>MOL_PROPERTY
Tether
SciTegic.value.DoubleValue
0.000

@<TRIPOS>MOLECULE
guest-7_confgen4.mol2 : confsearch ligand conformer 805
          19          18           1
SMALL
USER_CHARGES
 
@<TRIPOS>ATOM
       1    C1      20.201351   19.542071   19.558626 C.2        1 MOL1         0.6115
       2    O1      19.476039   20.509818   19.440556 O.co2      1 MOL1        -0.6776
       3    O2      21.357383   19.519337   19.184791 O.co2      1 MOL1        -0.6776
       4    C2      19.624706   18.278081   20.190411 C.3        1 MOL1        -0.2013
       5    H1      19.917618   17.432122   19.557427 H          1 MOL1         0.0727
       6    H2      18.530035   18.336707   20.155125 H          1 MOL1         0.0727
       7    C3      20.100507   18.025441   21.644673 C.3        1 MOL1        -0.1910
       8    H3      19.752136   17.034669   21.966454 H          1 MOL1         0.0729
       9    H4      21.198822   17.997792   21.668591 H          1 MOL1         0.0729
      10    C4      19.582148   19.093487   22.633557 C.3        1 MOL1        -0.1909
      11    H5      18.484619   19.126338   22.596415 H          1 MOL1         0.0729
      12    H6      19.940766   20.086178   22.327975 H          1 MOL1         0.0729
      13    C5      20.041078   18.805051   24.078131 C.3        1 MOL1        -0.1884
      14    H7      19.681611   17.814880   24.390819 H          1 MOL1         0.0729
      15    H8      21.138744   18.774039   24.118620 H          1 MOL1         0.0729
      16    C6      19.522237   19.872337   25.062347 C.3        1 MOL1        -0.2899
      17    H9      18.424769   19.903352   25.065309 H          1 MOL1         0.0741
      18    H10     19.857976   19.652250   26.084075 H          1 MOL1         0.0741
      19    H11     19.892675   20.869659   24.791116 H          1 MOL1         0.0741
@<TRIPOS>BOND
    1     1     2    1
    2     1     3    2
    3     1     4    1
    4     4     5    1
    5     4     6    1
    6     4     7    1
    7     7     8    1
    8     7     9    1
    9     7    10    1
   10    10    11    1
   11    10    12    1
   12    10    13    1
   13    13    14    1
   14    13    15    1
   15    13    16    1
   16    16    17    1
   17    16    18    1
   18    16    19    1
@<TRIPOS>SUBSTRUCTURE
       1 MOL1            1 RESIDUE      1      MOL     
@<SCITEGIC>MOL_PROPERTY
VConf Rank
SciTegic.value.IntegerValue
805

@<SCITEGIC>MOL_PROPERTY
Conf_Id
SciTegic.value.IntegerValue
36

@<SCITEGIC>MOL_PROPERTY
Delta U+W
SciTegic.value.DoubleValue
-0.079

@<SCITEGIC>MOL_PROPERTY
U+W
SciTegic.value.DoubleValue
-54.971

@<SCITEGIC>MOL_PROPERTY
Grad RMS
SciTegic.value.DoubleValue
0.000000

@<SCITEGIC>MOL_PROPERTY
U
SciTegic.value.DoubleValue
8.266

@<SCITEGIC>MOL_PROPERTY
W
SciTegic.value.DoubleValue
-63.237

@<SCITEGIC>MOL_PROPERTY
W(PB)
SciTegic.value.DoubleValue
-65.340

@<SCITEGIC>MOL_PROPERTY
W(SA)
SciTegic.value.DoubleValue
2.103

@<SCITEGIC>MOL_PROPERTY
Valence
SciTegic.value.DoubleValue
6.935

@<SCITEGIC>MOL_PROPERTY
Coulomb
SciTegic.value.DoubleValue
0.874

@<SCITEGIC>MOL_PROPERTY
VdW
SciTegic.value.DoubleValue
0.457

@<SCITEGIC>MOL_PROPERTY
VdW6
SciTegic.value.DoubleValue
-6.205

@<SCITEGIC>MOL_PROPERTY
VdW12
SciTegic.value.DoubleValue
6.662

@<SCITEGIC>MOL_PROPERTY
Bond
SciTegic.value.DoubleValue
0.107

@<SCITEGIC>MOL_PROPERTY
Angle
SciTegic.value.DoubleValue
2.420

@<SCITEGIC>MOL_PROPERTY
Pdih
SciTegic.value.DoubleValue
4.407

@<SCITEGIC>MOL_PROPERTY
Idih
SciTegic.value.DoubleValue
0.001

@<SCITEGIC>MOL_PROPERTY
Tether
SciTegic.value.DoubleValue
0.000

@<TRIPOS>MOLECULE
guest-7_confgen4.mol2 : confsearch ligand conformer 806
          19          18           1
SMALL
USER_CHARGES
 
@<TRIPOS>ATOM
       1    C1      21.342742   21.326522   23.405925 C.2        1 MOL1         0.6115
       2    O1      20.409794   22.098117   23.301989 O.co2      1 MOL1        -0.6776
       3    O2      22.459444   21.562565   22.988861 O.co2      1 MOL1        -0.6776
       4    C2      21.106793   19.997151   24.117575 C.3        1 MOL1        -0.2013
       5    H1      20.190036   20.077024   24.714370 H          1 MOL1         0.0727
       6    H2      21.933115   19.851882   24.823408 H          1 MOL1         0.0727
       7    C3      21.020066   18.777134   23.164093 C.3        1 MOL1        -0.1910
       8    H3      21.932276   18.727028   22.553361 H          1 MOL1         0.0729
       9    H4      20.990238   17.857506   23.764034 H          1 MOL1         0.0729
      10    C4      19.777936   18.827134   22.246528 C.3        1 MOL1        -0.1909
      11    H5      19.809056   19.736438   21.630395 H          1 MOL1         0.0729
      12    H6      18.869622   18.890315   22.861348 H          1 MOL1         0.0729
      13    C5      19.695058   17.589167   21.329373 C.3        1 MOL1        -0.1884
      14    H7      20.601450   17.524866   20.711479 H          1 MOL1         0.0729
      15    H8      19.659366   16.676571   21.940377 H          1 MOL1         0.0729
      16    C6      18.454722   17.642039   20.415180 C.3        1 MOL1        -0.2899
      17    H9      18.480186   18.529965   19.769903 H          1 MOL1         0.0741
      18    H10     18.411634   16.755047   19.769830 H          1 MOL1         0.0741
      19    H11     17.531153   17.675348   21.007900 H          1 MOL1         0.0741
@<TRIPOS>BOND
    1     1     2    1
    2     1     3    2
    3     1     4    1
    4     4     5    1
    5     4     6    1
    6     4     7    1
    7     7     8    1
    8     7     9    1
    9     7    10    1
   10    10    11    1
   11    10    12    1
   12    10    13    1
   13    13    14    1
   14    13    15    1
   15    13    16    1
   16    16    17    1
   17    16    18    1
   18    16    19    1
@<TRIPOS>SUBSTRUCTURE
       1 MOL1            1 RESIDUE      1      MOL     
@<SCITEGIC>MOL_PROPERTY
VConf Rank
SciTegic.value.IntegerValue
806

@<SCITEGIC>MOL_PROPERTY
Conf_Id
SciTegic.value.IntegerValue
35

@<SCITEGIC>MOL_PROPERTY
Delta U+W
SciTegic.value.DoubleValue
-0.030

@<SCITEGIC>MOL_PROPERTY
U+W
SciTegic.value.DoubleValue
-54.921

@<SCITEGIC>MOL_PROPERTY
Grad RMS
SciTegic.value.DoubleValue
0.000000

@<SCITEGIC>MOL_PROPERTY
U
SciTegic.value.DoubleValue
8.267

@<SCITEGIC>MOL_PROPERTY
W
SciTegic.value.DoubleValue
-63.188

@<SCITEGIC>MOL_PROPERTY
W(PB)
SciTegic.value.DoubleValue
-65.294

@<SCITEGIC>MOL_PROPERTY
W(SA)
SciTegic.value.DoubleValue
2.106

@<SCITEGIC>MOL_PROPERTY
Valence
SciTegic.value.DoubleValue
6.935

@<SCITEGIC>MOL_PROPERTY
Coulomb
SciTegic.value.DoubleValue
0.875

@<SCITEGIC>MOL_PROPERTY
VdW
SciTegic.value.DoubleValue
0.457

@<SCITEGIC>MOL_PROPERTY
VdW6
SciTegic.value.DoubleValue
-6.205

@<SCITEGIC>MOL_PROPERTY
VdW12
SciTegic.value.DoubleValue
6.662

@<SCITEGIC>MOL_PROPERTY
Bond
SciTegic.value.DoubleValue
0.107

@<SCITEGIC>MOL_PROPERTY
Angle
SciTegic.value.DoubleValue
2.420

@<SCITEGIC>MOL_PROPERTY
Pdih
SciTegic.value.DoubleValue
4.407

@<SCITEGIC>MOL_PROPERTY
Idih
SciTegic.value.DoubleValue
0.001

@<SCITEGIC>MOL_PROPERTY
Tether
SciTegic.value.DoubleValue
0.000

@<TRIPOS>MOLECULE
guest-7_confgen4.mol2 : confsearch ligand conformer 807
          19          18           1
SMALL
USER_CHARGES
 
@<TRIPOS>ATOM
       1    C1      22.057523   19.611353   24.342247 C.2        1 MOL1         0.6115
       2    O1      21.574936   20.193524   25.293506 O.co2      1 MOL1        -0.6776
       3    O2      23.052782   19.990519   23.757150 O.co2      1 MOL1        -0.6776
       4    C2      21.388328   18.322648   23.872250 C.3        1 MOL1        -0.2013
       5    H1      21.180432   17.718264   24.763089 H          1 MOL1         0.0727
       6    H2      22.105005   17.756483   23.264969 H          1 MOL1         0.0727
       7    C3      20.073612   18.544540   23.079782 C.3        1 MOL1        -0.1910
       8    H3      19.593316   17.570410   22.922498 H          1 MOL1         0.0729
       9    H4      19.381181   19.146104   23.684753 H          1 MOL1         0.0729
      10    C4      20.312013   19.233371   21.714732 C.3        1 MOL1        -0.1909
      11    H5      20.973939   18.611544   21.096668 H          1 MOL1         0.0729
      12    H6      20.841213   20.182420   21.876835 H          1 MOL1         0.0729
      13    C5      19.007073   19.529278   20.939876 C.3        1 MOL1        -0.1884
      14    H7      18.343714   20.152995   21.554890 H          1 MOL1         0.0729
      15    H8      19.253698   20.123465   20.049180 H          1 MOL1         0.0729
      16    C6      18.257267   18.255175   20.494375 C.3        1 MOL1        -0.2899
      17    H9      17.886477   17.686058   21.355910 H          1 MOL1         0.0741
      18    H10     17.391507   18.517401   19.872576 H          1 MOL1         0.0741
      19    H11     18.911411   17.600503   19.903913 H          1 MOL1         0.0741
@<TRIPOS>BOND
    1     1     2    1
    2     1     3    2
    3     1     4    1
    4     4     5    1
    5     4     6    1
    6     4     7    1
    7     7     8    1
    8     7     9    1
    9     7    10    1
   10    10    11    1
   11    10    12    1
   12    10    13    1
   13    13    14    1
   14    13    15    1
   15    13    16    1
   16    16    17    1
   17    16    18    1
   18    16    19    1
@<TRIPOS>SUBSTRUCTURE
       1 MOL1            1 RESIDUE      1      MOL     
@<SCITEGIC>MOL_PROPERTY
VConf Rank
SciTegic.value.IntegerValue
807

@<SCITEGIC>MOL_PROPERTY
Conf_Id
SciTegic.value.IntegerValue
74

@<SCITEGIC>MOL_PROPERTY
Delta U+W
SciTegic.value.DoubleValue
0.797

@<SCITEGIC>MOL_PROPERTY
U+W
SciTegic.value.DoubleValue
-54.095

@<SCITEGIC>MOL_PROPERTY
Grad RMS
SciTegic.value.DoubleValue
0.000000

@<SCITEGIC>MOL_PROPERTY
U
SciTegic.value.DoubleValue
8.869

@<SCITEGIC>MOL_PROPERTY
W
SciTegic.value.DoubleValue
-62.964

@<SCITEGIC>MOL_PROPERTY
W(PB)
SciTegic.value.DoubleValue
-65.046

@<SCITEGIC>MOL_PROPERTY
W(SA)
SciTegic.value.DoubleValue
2.082

@<SCITEGIC>MOL_PROPERTY
Valence
SciTegic.value.DoubleValue
7.469

@<SCITEGIC>MOL_PROPERTY
Coulomb
SciTegic.value.DoubleValue
0.762

@<SCITEGIC>MOL_PROPERTY
VdW
SciTegic.value.DoubleValue
0.639

@<SCITEGIC>MOL_PROPERTY
VdW6
SciTegic.value.DoubleValue
-6.782

@<SCITEGIC>MOL_PROPERTY
VdW12
SciTegic.value.DoubleValue
7.421

@<SCITEGIC>MOL_PROPERTY
Bond
SciTegic.value.DoubleValue
0.141

@<SCITEGIC>MOL_PROPERTY
Angle
SciTegic.value.DoubleValue
2.667

@<SCITEGIC>MOL_PROPERTY
Pdih
SciTegic.value.DoubleValue
4.660

@<SCITEGIC>MOL_PROPERTY
Idih
SciTegic.value.DoubleValue
0.001

@<SCITEGIC>MOL_PROPERTY
Tether
SciTegic.value.DoubleValue
0.000

@<TRIPOS>MOLECULE
guest-7_confgen4.mol2 : confsearch ligand conformer 808
          19          18           1
SMALL
USER_CHARGES
 
@<TRIPOS>ATOM
       1    C1      20.493184   16.296553   23.481710 C.2        1 MOL1         0.6115
       2    O1      19.703708   15.436836   23.819401 O.co2      1 MOL1        -0.6776
       3    O2      21.655840   16.071839   23.209574 O.co2      1 MOL1        -0.6776
       4    C2      19.992208   17.732521   23.375695 C.3        1 MOL1        -0.2013
       5    H1      20.824311   18.396401   23.636517 H          1 MOL1         0.0727
       6    H2      19.210149   17.877565   24.130480 H          1 MOL1         0.0727
       7    C3      19.445071   18.075264   21.965817 C.3        1 MOL1        -0.1910
       8    H3      20.246590   17.963418   21.223634 H          1 MOL1         0.0729
       9    H4      18.677067   17.337023   21.696801 H          1 MOL1         0.0729
      10    C4      18.822688   19.490982   21.870363 C.3        1 MOL1        -0.1909
      11    H5      17.959251   19.546364   22.547270 H          1 MOL1         0.0729
      12    H6      18.422942   19.632693   20.857001 H          1 MOL1         0.0729
      13    C5      19.786225   20.658703   22.195823 C.3        1 MOL1        -0.1884
      14    H7      19.231989   21.603430   22.109839 H          1 MOL1         0.0729
      15    H8      20.118500   20.596389   23.240485 H          1 MOL1         0.0729
      16    C6      21.013928   20.716879   21.261609 C.3        1 MOL1        -0.2899
      17    H9      20.705112   20.756646   20.208954 H          1 MOL1         0.0741
      18    H10     21.614996   21.610827   21.472296 H          1 MOL1         0.0741
      19    H11     21.661029   19.841234   21.398626 H          1 MOL1         0.0741
@<TRIPOS>BOND
    1     1     2    1
    2     1     3    2
    3     1     4    1
    4     4     5    1
    5     4     6    1
    6     4     7    1
    7     7     8    1
    8     7     9    1
    9     7    10    1
   10    10    11    1
   11    10    12    1
   12    10    13    1
   13    13    14    1
   14    13    15    1
   15    13    16    1
   16    16    17    1
   17    16    18    1
   18    16    19    1
@<TRIPOS>SUBSTRUCTURE
       1 MOL1            1 RESIDUE      1      MOL     
@<SCITEGIC>MOL_PROPERTY
VConf Rank
SciTegic.value.IntegerValue
808

@<SCITEGIC>MOL_PROPERTY
Conf_Id
SciTegic.value.IntegerValue
67

@<SCITEGIC>MOL_PROPERTY
Delta U+W
SciTegic.value.DoubleValue
0.308

@<SCITEGIC>MOL_PROPERTY
U+W
SciTegic.value.DoubleValue
-54.583

@<SCITEGIC>MOL_PROPERTY
Grad RMS
SciTegic.value.DoubleValue
0.000000

@<SCITEGIC>MOL_PROPERTY
U
SciTegic.value.DoubleValue
8.219

@<SCITEGIC>MOL_PROPERTY
W
SciTegic.value.DoubleValue
-62.802

@<SCITEGIC>MOL_PROPERTY
W(PB)
SciTegic.value.DoubleValue
-64.859

@<SCITEGIC>MOL_PROPERTY
W(SA)
SciTegic.value.DoubleValue
2.057

@<SCITEGIC>MOL_PROPERTY
Valence
SciTegic.value.DoubleValue
7.609

@<SCITEGIC>MOL_PROPERTY
Coulomb
SciTegic.value.DoubleValue
-0.089

@<SCITEGIC>MOL_PROPERTY
VdW
SciTegic.value.DoubleValue
0.699

@<SCITEGIC>MOL_PROPERTY
VdW6
SciTegic.value.DoubleValue
-6.924

@<SCITEGIC>MOL_PROPERTY
VdW12
SciTegic.value.DoubleValue
7.623

@<SCITEGIC>MOL_PROPERTY
Bond
SciTegic.value.DoubleValue
0.163

@<SCITEGIC>MOL_PROPERTY
Angle
SciTegic.value.DoubleValue
2.870

@<SCITEGIC>MOL_PROPERTY
Pdih
SciTegic.value.DoubleValue
4.576

@<SCITEGIC>MOL_PROPERTY
Idih
SciTegic.value.DoubleValue
0.001

@<SCITEGIC>MOL_PROPERTY
Tether
SciTegic.value.DoubleValue
0.000

@<TRIPOS>MOLECULE
guest-7_confgen4.mol2 : confsearch ligand conformer 809
          19          18           1
SMALL
USER_CHARGES
 
@<TRIPOS>ATOM
       1    C1      19.468099   17.641313   24.882327 C.2        1 MOL1         0.6115
       2    O1      19.822889   17.978545   25.994452 O.co2      1 MOL1        -0.6776
       3    O2      19.165787   16.501320   24.590189 O.co2      1 MOL1        -0.6776
       4    C2      19.418473   18.703192   23.789548 C.3        1 MOL1        -0.2013
       5    H1      19.155245   19.660217   24.255562 H          1 MOL1         0.0727
       6    H2      18.604711   18.439303   23.104483 H          1 MOL1         0.0727
       7    C3      20.757218   18.834190   23.018062 C.3        1 MOL1        -0.1910
       8    H3      21.565500   19.007653   23.741795 H          1 MOL1         0.0729
       9    H4      20.991302   17.881711   22.524336 H          1 MOL1         0.0729
      10    C4      20.765696   19.987943   21.983894 C.3        1 MOL1        -0.1909
      11    H5      21.759586   20.036864   21.518524 H          1 MOL1         0.0729
      12    H6      20.631645   20.941150   22.513252 H          1 MOL1         0.0729
      13    C5      19.696035   19.882756   20.869147 C.3        1 MOL1        -0.1884
      14    H7      18.689017   19.937333   21.303365 H          1 MOL1         0.0729
      15    H8      19.790126   20.757342   20.210872 H          1 MOL1         0.0729
      16    C6      19.826260   18.602964   20.015581 C.3        1 MOL1        -0.2899
      17    H9      19.624696   17.703923   20.611706 H          1 MOL1         0.0741
      18    H10     19.107866   18.619809   19.185858 H          1 MOL1         0.0741
      19    H11     20.834112   18.515821   19.589353 H          1 MOL1         0.0741
@<TRIPOS>BOND
    1     1     2    1
    2     1     3    2
    3     1     4    1
    4     4     5    1
    5     4     6    1
    6     4     7    1
    7     7     8    1
    8     7     9    1
    9     7    10    1
   10    10    11    1
   11    10    12    1
   12    10    13    1
   13    13    14    1
   14    13    15    1
   15    13    16    1
   16    16    17    1
   17    16    18    1
   18    16    19    1
@<TRIPOS>SUBSTRUCTURE
       1 MOL1            1 RESIDUE      1      MOL     
@<SCITEGIC>MOL_PROPERTY
VConf Rank
SciTegic.value.IntegerValue
809

@<SCITEGIC>MOL_PROPERTY
Conf_Id
SciTegic.value.IntegerValue
21

@<SCITEGIC>MOL_PROPERTY
Delta U+W
SciTegic.value.DoubleValue
0.319

@<SCITEGIC>MOL_PROPERTY
U+W
SciTegic.value.DoubleValue
-54.572

@<SCITEGIC>MOL_PROPERTY
Grad RMS
SciTegic.value.DoubleValue
0.000000

@<SCITEGIC>MOL_PROPERTY
U
SciTegic.value.DoubleValue
8.220

@<SCITEGIC>MOL_PROPERTY
W
SciTegic.value.DoubleValue
-62.792

@<SCITEGIC>MOL_PROPERTY
W(PB)
SciTegic.value.DoubleValue
-64.830

@<SCITEGIC>MOL_PROPERTY
W(SA)
SciTegic.value.DoubleValue
2.038

@<SCITEGIC>MOL_PROPERTY
Valence
SciTegic.value.DoubleValue
7.609

@<SCITEGIC>MOL_PROPERTY
Coulomb
SciTegic.value.DoubleValue
-0.088

@<SCITEGIC>MOL_PROPERTY
VdW
SciTegic.value.DoubleValue
0.699

@<SCITEGIC>MOL_PROPERTY
VdW6
SciTegic.value.DoubleValue
-6.924

@<SCITEGIC>MOL_PROPERTY
VdW12
SciTegic.value.DoubleValue
7.623

@<SCITEGIC>MOL_PROPERTY
Bond
SciTegic.value.DoubleValue
0.163

@<SCITEGIC>MOL_PROPERTY
Angle
SciTegic.value.DoubleValue
2.870

@<SCITEGIC>MOL_PROPERTY
Pdih
SciTegic.value.DoubleValue
4.576

@<SCITEGIC>MOL_PROPERTY
Idih
SciTegic.value.DoubleValue
0.000

@<SCITEGIC>MOL_PROPERTY
Tether
SciTegic.value.DoubleValue
0.000

@<TRIPOS>MOLECULE
guest-7_confgen4.mol2 : confsearch ligand conformer 810
          19          18           1
SMALL
USER_CHARGES
 
@<TRIPOS>ATOM
       1    C1      22.348617   17.295309   21.938608 C.2        1 MOL1         0.6115
       2    O1      23.525928   17.586537   22.013192 O.co2      1 MOL1        -0.6776
       3    O2      21.927234   16.162490   22.062750 O.co2      1 MOL1        -0.6776
       4    C2      21.344002   18.415615   21.694181 C.3        1 MOL1        -0.2013
       5    H1      20.512933   18.000910   21.115245 H          1 MOL1         0.0727
       6    H2      21.826904   19.171092   21.062956 H          1 MOL1         0.0727
       7    C3      20.838332   19.066464   23.008824 C.3        1 MOL1        -0.1910
       8    H3      20.406417   18.301014   23.668231 H          1 MOL1         0.0729
       9    H4      21.709524   19.472448   23.541362 H          1 MOL1         0.0729
      10    C4      19.820476   20.212196   22.778151 C.3        1 MOL1        -0.1909
      11    H5      20.014664   20.706371   21.816392 H          1 MOL1         0.0729
      12    H6      19.989281   20.978588   23.546996 H          1 MOL1         0.0729
      13    C5      18.334798   19.784516   22.866237 C.3        1 MOL1        -0.1884
      14    H7      18.128658   19.372824   23.863871 H          1 MOL1         0.0729
      15    H8      17.707871   20.681536   22.768707 H          1 MOL1         0.0729
      16    C6      17.905452   18.763138   21.792858 C.3        1 MOL1        -0.2899
      17    H9      16.820021   18.603644   21.827744 H          1 MOL1         0.0741
      18    H10     18.163824   19.116569   20.786226 H          1 MOL1         0.0741
      19    H11     18.386938   17.791018   21.957024 H          1 MOL1         0.0741
@<TRIPOS>BOND
    1     1     2    1
    2     1     3    2
    3     1     4    1
    4     4     5    1
    5     4     6    1
    6     4     7    1
    7     7     8    1
    8     7     9    1
    9     7    10    1
   10    10    11    1
   11    10    12    1
   12    10    13    1
   13    13    14    1
   14    13    15    1
   15    13    16    1
   16    16    17    1
   17    16    18    1
   18    16    19    1
@<TRIPOS>SUBSTRUCTURE
       1 MOL1            1 RESIDUE      1      MOL     
@<SCITEGIC>MOL_PROPERTY
VConf Rank
SciTegic.value.IntegerValue
810

@<SCITEGIC>MOL_PROPERTY
Conf_Id
SciTegic.value.IntegerValue
24

@<SCITEGIC>MOL_PROPERTY
Delta U+W
SciTegic.value.DoubleValue
2.477

@<SCITEGIC>MOL_PROPERTY
U+W
SciTegic.value.DoubleValue
-52.414

@<SCITEGIC>MOL_PROPERTY
Grad RMS
SciTegic.value.DoubleValue
0.000000

@<SCITEGIC>MOL_PROPERTY
U
SciTegic.value.DoubleValue
10.422

@<SCITEGIC>MOL_PROPERTY
W
SciTegic.value.DoubleValue
-62.836

@<SCITEGIC>MOL_PROPERTY
W(PB)
SciTegic.value.DoubleValue
-64.906

@<SCITEGIC>MOL_PROPERTY
W(SA)
SciTegic.value.DoubleValue
2.070

@<SCITEGIC>MOL_PROPERTY
Valence
SciTegic.value.DoubleValue
9.628

@<SCITEGIC>MOL_PROPERTY
Coulomb
SciTegic.value.DoubleValue
0.101

@<SCITEGIC>MOL_PROPERTY
VdW
SciTegic.value.DoubleValue
0.693

@<SCITEGIC>MOL_PROPERTY
VdW6
SciTegic.value.DoubleValue
-6.927

@<SCITEGIC>MOL_PROPERTY
VdW12
SciTegic.value.DoubleValue
7.620

@<SCITEGIC>MOL_PROPERTY
Bond
SciTegic.value.DoubleValue
0.173

@<SCITEGIC>MOL_PROPERTY
Angle
SciTegic.value.DoubleValue
2.989

@<SCITEGIC>MOL_PROPERTY
Pdih
SciTegic.value.DoubleValue
6.465

@<SCITEGIC>MOL_PROPERTY
Idih
SciTegic.value.DoubleValue
0.001

@<SCITEGIC>MOL_PROPERTY
Tether
SciTegic.value.DoubleValue
0.000

@<TRIPOS>MOLECULE
guest-7_confgen4.mol2 : confsearch ligand conformer 811
          19          18           1
SMALL
USER_CHARGES
 
@<TRIPOS>ATOM
       1    C1      21.722848   20.397932   23.644220 C.2        1 MOL1         0.6115
       2    O1      21.534497   19.906794   24.739664 O.co2      1 MOL1        -0.6776
       3    O2      22.807178   20.794072   23.264253 O.co2      1 MOL1        -0.6776
       4    C2      20.530337   20.553616   22.704053 C.3        1 MOL1        -0.2013
       5    H1      20.548068   21.582685   22.326614 H          1 MOL1         0.0727
       6    H2      19.612132   20.450974   23.291076 H          1 MOL1         0.0727
       7    C3      20.539404   19.566398   21.503946 C.3        1 MOL1        -0.1910
       8    H3      19.779522   19.866248   20.769847 H          1 MOL1         0.0729
       9    H4      21.507364   19.662314   20.992685 H          1 MOL1         0.0729
      10    C4      20.328522   18.081678   21.899687 C.3        1 MOL1        -0.1909
      11    H5      20.723856   17.891779   22.906889 H          1 MOL1         0.0729
      12    H6      20.929652   17.459973   21.222258 H          1 MOL1         0.0729
      13    C5      18.863172   17.590023   21.805183 C.3        1 MOL1        -0.1884
      14    H7      18.502837   17.699705   20.773035 H          1 MOL1         0.0729
      15    H8      18.842513   16.513740   22.025056 H          1 MOL1         0.0729
      16    C6      17.893205   18.308446   22.765698 C.3        1 MOL1        -0.2899
      17    H9      17.752770   19.356794   22.474835 H          1 MOL1         0.0741
      18    H10     16.907592   17.825710   22.748091 H          1 MOL1         0.0741
      19    H11     18.267335   18.278980   23.797514 H          1 MOL1         0.0741
@<TRIPOS>BOND
    1     1     2    1
    2     1     3    2
    3     1     4    1
    4     4     5    1
    5     4     6    1
    6     4     7    1
    7     7     8    1
    8     7     9    1
    9     7    10    1
   10    10    11    1
   11    10    12    1
   12    10    13    1
   13    13    14    1
   14    13    15    1
   15    13    16    1
   16    16    17    1
   17    16    18    1
   18    16    19    1
@<TRIPOS>SUBSTRUCTURE
       1 MOL1            1 RESIDUE      1      MOL     
@<SCITEGIC>MOL_PROPERTY
VConf Rank
SciTegic.value.IntegerValue
811

@<SCITEGIC>MOL_PROPERTY
Conf_Id
SciTegic.value.IntegerValue
4

@<SCITEGIC>MOL_PROPERTY
Delta U+W
SciTegic.value.DoubleValue
3.753

@<SCITEGIC>MOL_PROPERTY
U+W
SciTegic.value.DoubleValue
-51.138

@<SCITEGIC>MOL_PROPERTY
Grad RMS
SciTegic.value.DoubleValue
0.000000

@<SCITEGIC>MOL_PROPERTY
U
SciTegic.value.DoubleValue
12.334

@<SCITEGIC>MOL_PROPERTY
W
SciTegic.value.DoubleValue
-63.472

@<SCITEGIC>MOL_PROPERTY
W(PB)
SciTegic.value.DoubleValue
-65.500

@<SCITEGIC>MOL_PROPERTY
W(SA)
SciTegic.value.DoubleValue
2.028

@<SCITEGIC>MOL_PROPERTY
Valence
SciTegic.value.DoubleValue
9.984

@<SCITEGIC>MOL_PROPERTY
Coulomb
SciTegic.value.DoubleValue
1.767

@<SCITEGIC>MOL_PROPERTY
VdW
SciTegic.value.DoubleValue
0.583

@<SCITEGIC>MOL_PROPERTY
VdW6
SciTegic.value.DoubleValue
-7.767

@<SCITEGIC>MOL_PROPERTY
VdW12
SciTegic.value.DoubleValue
8.349

@<SCITEGIC>MOL_PROPERTY
Bond
SciTegic.value.DoubleValue
0.203

@<SCITEGIC>MOL_PROPERTY
Angle
SciTegic.value.DoubleValue
3.191

@<SCITEGIC>MOL_PROPERTY
Pdih
SciTegic.value.DoubleValue
6.589

@<SCITEGIC>MOL_PROPERTY
Idih
SciTegic.value.DoubleValue
0.001

@<SCITEGIC>MOL_PROPERTY
Tether
SciTegic.value.DoubleValue
0.000

@<TRIPOS>MOLECULE
guest-7_confgen4.mol2 : confsearch ligand conformer 812
          19          18           1
SMALL
USER_CHARGES
 
@<TRIPOS>ATOM
       1    C1      17.739427   19.274359   23.791475 C.2        1 MOL1         0.6115
       2    O1      17.285495   18.668033   24.741943 O.co2      1 MOL1        -0.6776
       3    O2      17.736060   20.486511   23.705628 O.co2      1 MOL1        -0.6776
       4    C2      18.317487   18.466440   22.632448 C.3        1 MOL1        -0.2013
       5    H1      18.385465   19.119340   21.756475 H          1 MOL1         0.0727
       6    H2      17.587891   17.686137   22.386333 H          1 MOL1         0.0727
       7    C3      19.689221   17.806471   22.945061 C.3        1 MOL1        -0.1910
       8    H3      19.581409   17.220135   23.868165 H          1 MOL1         0.0729
       9    H4      19.942931   17.084643   22.157134 H          1 MOL1         0.0729
      10    C4      20.853750   18.814589   23.126837 C.3        1 MOL1        -0.1909
      11    H5      21.531706   18.416991   23.894350 H          1 MOL1         0.0729
      12    H6      20.479502   19.767390   23.525476 H          1 MOL1         0.0729
      13    C5      21.693340   19.068383   21.850679 C.3        1 MOL1        -0.1884
      14    H7      22.532928   19.727144   22.111984 H          1 MOL1         0.0729
      15    H8      22.138742   18.124244   21.508014 H          1 MOL1         0.0729
      16    C6      20.903014   19.712155   20.692879 C.3        1 MOL1        -0.2899
      17    H9      20.384843   20.620505   21.027372 H          1 MOL1         0.0741
      18    H10     21.579150   19.989180   19.873810 H          1 MOL1         0.0741
      19    H11     20.159566   19.015565   20.286182 H          1 MOL1         0.0741
@<TRIPOS>BOND
    1     1     2    1
    2     1     3    2
    3     1     4    1
    4     4     5    1
    5     4     6    1
    6     4     7    1
    7     7     8    1
    8     7     9    1
    9     7    10    1
   10    10    11    1
   11    10    12    1
   12    10    13    1
   13    13    14    1
   14    13    15    1
   15    13    16    1
   16    16    17    1
   17    16    18    1
   18    16    19    1
@<TRIPOS>SUBSTRUCTURE
       1 MOL1            1 RESIDUE      1      MOL     
@<SCITEGIC>MOL_PROPERTY
VConf Rank
SciTegic.value.IntegerValue
812

@<SCITEGIC>MOL_PROPERTY
Conf_Id
SciTegic.value.IntegerValue
73

@<SCITEGIC>MOL_PROPERTY
Delta U+W
SciTegic.value.DoubleValue
3.707

@<SCITEGIC>MOL_PROPERTY
U+W
SciTegic.value.DoubleValue
-51.184

@<SCITEGIC>MOL_PROPERTY
Grad RMS
SciTegic.value.DoubleValue
0.000000

@<SCITEGIC>MOL_PROPERTY
U
SciTegic.value.DoubleValue
12.334

@<SCITEGIC>MOL_PROPERTY
W
SciTegic.value.DoubleValue
-63.519

@<SCITEGIC>MOL_PROPERTY
W(PB)
SciTegic.value.DoubleValue
-65.541

@<SCITEGIC>MOL_PROPERTY
W(SA)
SciTegic.value.DoubleValue
2.022

@<SCITEGIC>MOL_PROPERTY
Valence
SciTegic.value.DoubleValue
9.984

@<SCITEGIC>MOL_PROPERTY
Coulomb
SciTegic.value.DoubleValue
1.768

@<SCITEGIC>MOL_PROPERTY
VdW
SciTegic.value.DoubleValue
0.583

@<SCITEGIC>MOL_PROPERTY
VdW6
SciTegic.value.DoubleValue
-7.767

@<SCITEGIC>MOL_PROPERTY
VdW12
SciTegic.value.DoubleValue
8.350

@<SCITEGIC>MOL_PROPERTY
Bond
SciTegic.value.DoubleValue
0.203

@<SCITEGIC>MOL_PROPERTY
Angle
SciTegic.value.DoubleValue
3.192

@<SCITEGIC>MOL_PROPERTY
Pdih
SciTegic.value.DoubleValue
6.589

@<SCITEGIC>MOL_PROPERTY
Idih
SciTegic.value.DoubleValue
0.001

@<SCITEGIC>MOL_PROPERTY
Tether
SciTegic.value.DoubleValue
0.000

@<TRIPOS>MOLECULE
guest-7_confgen4.mol2 : confsearch ligand conformer 813
          19          18           1
SMALL
USER_CHARGES
 
@<TRIPOS>ATOM
       1    C1      20.001203   16.474983   21.962030 C.2        1 MOL1         0.6115
       2    O1      21.056457   16.494636   21.359729 O.co2      1 MOL1        -0.6776
       3    O2      19.659708   15.561865   22.687809 O.co2      1 MOL1        -0.6776
       4    C2      19.037149   17.643092   21.773753 C.3        1 MOL1        -0.2013
       5    H1      18.056329   17.220309   21.526942 H          1 MOL1         0.0727
       6    H2      19.353858   18.223246   20.899446 H          1 MOL1         0.0727
       7    C3      18.901863   18.561841   23.018689 C.3        1 MOL1        -0.1910
       8    H3      18.138764   19.326165   22.822850 H          1 MOL1         0.0729
       9    H4      18.520665   17.963385   23.857528 H          1 MOL1         0.0729
      10    C4      20.222942   19.244831   23.457286 C.3        1 MOL1        -0.1909
      11    H5      20.939982   18.472203   23.767098 H          1 MOL1         0.0729
      12    H6      20.026325   19.850223   24.352515 H          1 MOL1         0.0729
      13    C5      20.890420   20.139645   22.384440 C.3        1 MOL1        -0.1884
      14    H7      21.819309   20.551742   22.801860 H          1 MOL1         0.0729
      15    H8      21.190725   19.532063   21.520088 H          1 MOL1         0.0729
      16    C6      19.994661   21.307197   21.917417 C.3        1 MOL1        -0.2899
      17    H9      19.104636   20.940910   21.390539 H          1 MOL1         0.0741
      18    H10     19.665427   21.915040   22.770144 H          1 MOL1         0.0741
      19    H11     20.544208   21.960670   21.227659 H          1 MOL1         0.0741
@<TRIPOS>BOND
    1     1     2    1
    2     1     3    2
    3     1     4    1
    4     4     5    1
    5     4     6    1
    6     4     7    1
    7     7     8    1
    8     7     9    1
    9     7    10    1
   10    10    11    1
   11    10    12    1
   12    10    13    1
   13    13    14    1
   14    13    15    1
   15    13    16    1
   16    16    17    1
   17    16    18    1
   18    16    19    1
@<TRIPOS>SUBSTRUCTURE
       1 MOL1            1 RESIDUE      1      MOL     
@<SCITEGIC>MOL_PROPERTY
VConf Rank
SciTegic.value.IntegerValue
813

@<SCITEGIC>MOL_PROPERTY
Conf_Id
SciTegic.value.IntegerValue
56

@<SCITEGIC>MOL_PROPERTY
Delta U+W
SciTegic.value.DoubleValue
1.735

@<SCITEGIC>MOL_PROPERTY
U+W
SciTegic.value.DoubleValue
-53.156

@<SCITEGIC>MOL_PROPERTY
Grad RMS
SciTegic.value.DoubleValue
0.000000

@<SCITEGIC>MOL_PROPERTY
U
SciTegic.value.DoubleValue
10.214

@<SCITEGIC>MOL_PROPERTY
W
SciTegic.value.DoubleValue
-63.370

@<SCITEGIC>MOL_PROPERTY
W(PB)
SciTegic.value.DoubleValue
-65.388

@<SCITEGIC>MOL_PROPERTY
W(SA)
SciTegic.value.DoubleValue
2.018

@<SCITEGIC>MOL_PROPERTY
Valence
SciTegic.value.DoubleValue
7.868

@<SCITEGIC>MOL_PROPERTY
Coulomb
SciTegic.value.DoubleValue
1.968

@<SCITEGIC>MOL_PROPERTY
VdW
SciTegic.value.DoubleValue
0.378

@<SCITEGIC>MOL_PROPERTY
VdW6
SciTegic.value.DoubleValue
-8.067

@<SCITEGIC>MOL_PROPERTY
VdW12
SciTegic.value.DoubleValue
8.445

@<SCITEGIC>MOL_PROPERTY
Bond
SciTegic.value.DoubleValue
0.191

@<SCITEGIC>MOL_PROPERTY
Angle
SciTegic.value.DoubleValue
3.117

@<SCITEGIC>MOL_PROPERTY
Pdih
SciTegic.value.DoubleValue
4.559

@<SCITEGIC>MOL_PROPERTY
Idih
SciTegic.value.DoubleValue
0.001

@<SCITEGIC>MOL_PROPERTY
Tether
SciTegic.value.DoubleValue
0.000

@<TRIPOS>MOLECULE
guest-7_confgen4.mol2 : confsearch ligand conformer 814
          19          18           1
SMALL
USER_CHARGES
 
@<TRIPOS>ATOM
       1    C1      19.378503   17.889655   24.962370 C.2        1 MOL1         0.6115
       2    O1      19.542961   18.535878   25.978102 O.co2      1 MOL1        -0.6776
       3    O2      19.156289   16.695112   24.954461 O.co2      1 MOL1        -0.6776
       4    C2      19.477779   18.613355   23.624222 C.3        1 MOL1        -0.2013
       5    H1      19.133429   19.644535   23.767297 H          1 MOL1         0.0727
       6    H2      18.782701   18.125915   22.931561 H          1 MOL1         0.0727
       7    C3      20.913305   18.603636   23.041002 C.3        1 MOL1        -0.1910
       8    H3      21.608046   18.966145   23.811276 H          1 MOL1         0.0729
       9    H4      21.208404   17.567763   22.824027 H          1 MOL1         0.0729
      10    C4      21.092782   19.472355   21.770724 C.3        1 MOL1        -0.1909
      11    H5      22.153211   19.427265   21.487122 H          1 MOL1         0.0729
      12    H6      20.890735   20.526958   22.003079 H          1 MOL1         0.0729
      13    C5      20.248911   19.020233   20.553113 C.3        1 MOL1        -0.1884
      14    H7      20.833467   19.191345   19.638588 H          1 MOL1         0.0729
      15    H8      20.063038   17.938250   20.598609 H          1 MOL1         0.0729
      16    C6      18.915270   19.787963   20.416292 C.3        1 MOL1        -0.2899
      17    H9      18.364101   19.444322   19.531420 H          1 MOL1         0.0741
      18    H10     18.268849   19.643939   21.289226 H          1 MOL1         0.0741
      19    H11     19.095042   20.864875   20.301945 H          1 MOL1         0.0741
@<TRIPOS>BOND
    1     1     2    1
    2     1     3    2
    3     1     4    1
    4     4     5    1
    5     4     6    1
    6     4     7    1
    7     7     8    1
    8     7     9    1
    9     7    10    1
   10    10    11    1
   11    10    12    1
   12    10    13    1
   13    13    14    1
   14    13    15    1
   15    13    16    1
   16    16    17    1
   17    16    18    1
   18    16    19    1
@<TRIPOS>SUBSTRUCTURE
       1 MOL1            1 RESIDUE      1      MOL     
@<SCITEGIC>MOL_PROPERTY
VConf Rank
SciTegic.value.IntegerValue
814

@<SCITEGIC>MOL_PROPERTY
Conf_Id
SciTegic.value.IntegerValue
53

@<SCITEGIC>MOL_PROPERTY
Delta U+W
SciTegic.value.DoubleValue
2.279

@<SCITEGIC>MOL_PROPERTY
U+W
SciTegic.value.DoubleValue
-52.612

@<SCITEGIC>MOL_PROPERTY
Grad RMS
SciTegic.value.DoubleValue
0.000000

@<SCITEGIC>MOL_PROPERTY
U
SciTegic.value.DoubleValue
10.231

@<SCITEGIC>MOL_PROPERTY
W
SciTegic.value.DoubleValue
-62.843

@<SCITEGIC>MOL_PROPERTY
W(PB)
SciTegic.value.DoubleValue
-64.893

@<SCITEGIC>MOL_PROPERTY
W(SA)
SciTegic.value.DoubleValue
2.050

@<SCITEGIC>MOL_PROPERTY
Valence
SciTegic.value.DoubleValue
9.644

@<SCITEGIC>MOL_PROPERTY
Coulomb
SciTegic.value.DoubleValue
-0.164

@<SCITEGIC>MOL_PROPERTY
VdW
SciTegic.value.DoubleValue
0.751

@<SCITEGIC>MOL_PROPERTY
VdW6
SciTegic.value.DoubleValue
-6.881

@<SCITEGIC>MOL_PROPERTY
VdW12
SciTegic.value.DoubleValue
7.631

@<SCITEGIC>MOL_PROPERTY
Bond
SciTegic.value.DoubleValue
0.163

@<SCITEGIC>MOL_PROPERTY
Angle
SciTegic.value.DoubleValue
2.998

@<SCITEGIC>MOL_PROPERTY
Pdih
SciTegic.value.DoubleValue
6.482

@<SCITEGIC>MOL_PROPERTY
Idih
SciTegic.value.DoubleValue
0.001

@<SCITEGIC>MOL_PROPERTY
Tether
SciTegic.value.DoubleValue
0.000

@<TRIPOS>MOLECULE
guest-7_confgen4.mol2 : confsearch ligand conformer 815
          19          18           1
SMALL
USER_CHARGES
 
@<TRIPOS>ATOM
       1    C1      21.999675   19.852883   23.760896 C.2        1 MOL1         0.6115
       2    O1      22.280823   20.856780   23.136395 O.co2      1 MOL1        -0.6776
       3    O2      22.798329   18.969246   24.002936 O.co2      1 MOL1        -0.6776
       4    C2      20.587389   19.730485   24.330059 C.3        1 MOL1        -0.2013
       5    H1      20.017940   20.630552   24.068277 H          1 MOL1         0.0727
       6    H2      20.693413   19.733053   25.421103 H          1 MOL1         0.0727
       7    C3      19.806753   18.456164   23.901296 C.3        1 MOL1        -0.1910
       8    H3      20.459863   17.575249   23.971849 H          1 MOL1         0.0729
       9    H4      18.999774   18.292670   24.628257 H          1 MOL1         0.0729
      10    C4      19.165071   18.530312   22.493666 C.3        1 MOL1        -0.1909
      11    H5      18.508180   19.408707   22.432420 H          1 MOL1         0.0729
      12    H6      18.517956   17.651695   22.366055 H          1 MOL1         0.0729
      13    C5      20.187342   18.564885   21.336367 C.3        1 MOL1        -0.1884
      14    H7      20.758596   19.501468   21.366169 H          1 MOL1         0.0729
      15    H8      20.908810   17.744214   21.452037 H          1 MOL1         0.0729
      16    C6      19.492617   18.449372   19.964562 C.3        1 MOL1        -0.2899
      17    H9      18.783858   19.274074   19.813287 H          1 MOL1         0.0741
      18    H10     20.231412   18.484157   19.153379 H          1 MOL1         0.0741
      19    H11     18.941797   17.503391   19.880682 H          1 MOL1         0.0741
@<TRIPOS>BOND
    1     1     2    1
    2     1     3    2
    3     1     4    1
    4     4     5    1
    5     4     6    1
    6     4     7    1
    7     7     8    1
    8     7     9    1
    9     7    10    1
   10    10    11    1
   11    10    12    1
   12    10    13    1
   13    13    14    1
   14    13    15    1
   15    13    16    1
   16    16    17    1
   17    16    18    1
   18    16    19    1
@<TRIPOS>SUBSTRUCTURE
       1 MOL1            1 RESIDUE      1      MOL     
@<SCITEGIC>MOL_PROPERTY
VConf Rank
SciTegic.value.IntegerValue
815

@<SCITEGIC>MOL_PROPERTY
Conf_Id
SciTegic.value.IntegerValue
25

@<SCITEGIC>MOL_PROPERTY
Delta U+W
SciTegic.value.DoubleValue
2.065

@<SCITEGIC>MOL_PROPERTY
U+W
SciTegic.value.DoubleValue
-52.826

@<SCITEGIC>MOL_PROPERTY
Grad RMS
SciTegic.value.DoubleValue
0.000000

@<SCITEGIC>MOL_PROPERTY
U
SciTegic.value.DoubleValue
10.967

@<SCITEGIC>MOL_PROPERTY
W
SciTegic.value.DoubleValue
-63.794

@<SCITEGIC>MOL_PROPERTY
W(PB)
SciTegic.value.DoubleValue
-65.830

@<SCITEGIC>MOL_PROPERTY
W(SA)
SciTegic.value.DoubleValue
2.036

@<SCITEGIC>MOL_PROPERTY
Valence
SciTegic.value.DoubleValue
8.609

@<SCITEGIC>MOL_PROPERTY
Coulomb
SciTegic.value.DoubleValue
1.892

@<SCITEGIC>MOL_PROPERTY
VdW
SciTegic.value.DoubleValue
0.467

@<SCITEGIC>MOL_PROPERTY
VdW6
SciTegic.value.DoubleValue
-7.569

@<SCITEGIC>MOL_PROPERTY
VdW12
SciTegic.value.DoubleValue
8.036

@<SCITEGIC>MOL_PROPERTY
Bond
SciTegic.value.DoubleValue
0.170

@<SCITEGIC>MOL_PROPERTY
Angle
SciTegic.value.DoubleValue
3.195

@<SCITEGIC>MOL_PROPERTY
Pdih
SciTegic.value.DoubleValue
5.237

@<SCITEGIC>MOL_PROPERTY
Idih
SciTegic.value.DoubleValue
0.007

@<SCITEGIC>MOL_PROPERTY
Tether
SciTegic.value.DoubleValue
0.000

@<TRIPOS>MOLECULE
guest-7_confgen4.mol2 : confsearch ligand conformer 816
          19          18           1
SMALL
USER_CHARGES
 
@<TRIPOS>ATOM
       1    C1      18.762361   17.182673   21.384284 C.2        1 MOL1         0.6115
       2    O1      18.364779   17.650285   20.335229 O.co2      1 MOL1        -0.6776
       3    O2      18.022944   16.784712   22.262773 O.co2      1 MOL1        -0.6776
       4    C2      20.268422   17.021114   21.582181 C.3        1 MOL1        -0.2013
       5    H1      20.607219   16.319707   20.810904 H          1 MOL1         0.0727
       6    H2      20.451307   16.536417   22.548900 H          1 MOL1         0.0727
       7    C3      21.097067   18.331979   21.472144 C.3        1 MOL1        -0.1910
       8    H3      22.139758   18.057046   21.263281 H          1 MOL1         0.0729
       9    H4      20.759518   18.916941   20.605298 H          1 MOL1         0.0729
      10    C4      21.088344   19.214777   22.744650 C.3        1 MOL1        -0.1909
      11    H5      21.822785   20.020206   22.607201 H          1 MOL1         0.0729
      12    H6      21.433581   18.626145   23.605557 H          1 MOL1         0.0729
      13    C5      19.715256   19.845698   23.064250 C.3        1 MOL1        -0.1884
      14    H7      19.320523   20.350606   22.171698 H          1 MOL1         0.0729
      15    H8      18.995141   19.063276   23.335649 H          1 MOL1         0.0729
      16    C6      19.813514   20.855744   24.225280 C.3        1 MOL1        -0.2899
      17    H9      18.828823   21.288194   24.445316 H          1 MOL1         0.0741
      18    H10     20.181879   20.369368   25.138025 H          1 MOL1         0.0741
      19    H11     20.496322   21.678162   23.974846 H          1 MOL1         0.0741
@<TRIPOS>BOND
    1     1     2    1
    2     1     3    2
    3     1     4    1
    4     4     5    1
    5     4     6    1
    6     4     7    1
    7     7     8    1
    8     7     9    1
    9     7    10    1
   10    10    11    1
   11    10    12    1
   12    10    13    1
   13    13    14    1
   14    13    15    1
   15    13    16    1
   16    16    17    1
   17    16    18    1
   18    16    19    1
@<TRIPOS>SUBSTRUCTURE
       1 MOL1            1 RESIDUE      1      MOL     
@<SCITEGIC>MOL_PROPERTY
VConf Rank
SciTegic.value.IntegerValue
816

@<SCITEGIC>MOL_PROPERTY
Conf_Id
SciTegic.value.IntegerValue
52

@<SCITEGIC>MOL_PROPERTY
Delta U+W
SciTegic.value.DoubleValue
2.070

@<SCITEGIC>MOL_PROPERTY
U+W
SciTegic.value.DoubleValue
-52.822

@<SCITEGIC>MOL_PROPERTY
Grad RMS
SciTegic.value.DoubleValue
0.000000

@<SCITEGIC>MOL_PROPERTY
U
SciTegic.value.DoubleValue
10.967

@<SCITEGIC>MOL_PROPERTY
W
SciTegic.value.DoubleValue
-63.789

@<SCITEGIC>MOL_PROPERTY
W(PB)
SciTegic.value.DoubleValue
-65.837

@<SCITEGIC>MOL_PROPERTY
W(SA)
SciTegic.value.DoubleValue
2.048

@<SCITEGIC>MOL_PROPERTY
Valence
SciTegic.value.DoubleValue
8.609

@<SCITEGIC>MOL_PROPERTY
Coulomb
SciTegic.value.DoubleValue
1.892

@<SCITEGIC>MOL_PROPERTY
VdW
SciTegic.value.DoubleValue
0.467

@<SCITEGIC>MOL_PROPERTY
VdW6
SciTegic.value.DoubleValue
-7.569

@<SCITEGIC>MOL_PROPERTY
VdW12
SciTegic.value.DoubleValue
8.035

@<SCITEGIC>MOL_PROPERTY
Bond
SciTegic.value.DoubleValue
0.170

@<SCITEGIC>MOL_PROPERTY
Angle
SciTegic.value.DoubleValue
3.196

@<SCITEGIC>MOL_PROPERTY
Pdih
SciTegic.value.DoubleValue
5.237

@<SCITEGIC>MOL_PROPERTY
Idih
SciTegic.value.DoubleValue
0.007

@<SCITEGIC>MOL_PROPERTY
Tether
SciTegic.value.DoubleValue
0.000

@<TRIPOS>MOLECULE
guest-7_confgen4.mol2 : confsearch ligand conformer 817
          19          18           1
SMALL
USER_CHARGES
 
@<TRIPOS>ATOM
       1    C1      20.178074   17.336160   24.057777 C.2        1 MOL1         0.6115
       2    O1      21.314286   16.928871   23.911993 O.co2      1 MOL1        -0.6776
       3    O2      19.733675   17.698104   25.129320 O.co2      1 MOL1        -0.6776
       4    C2      19.217760   17.274561   22.868918 C.3        1 MOL1        -0.2013
       5    H1      18.297535   17.813461   23.124478 H          1 MOL1         0.0727
       6    H2      18.941119   16.219865   22.757740 H          1 MOL1         0.0727
       7    C3      19.783999   17.790346   21.515142 C.3        1 MOL1        -0.1910
       8    H3      20.822288   17.453489   21.389593 H          1 MOL1         0.0729
       9    H4      19.216015   17.309803   20.707164 H          1 MOL1         0.0729
      10    C4      19.696295   19.322811   21.298260 C.3        1 MOL1        -0.1909
      11    H5      18.646528   19.645899   21.323579 H          1 MOL1         0.0729
      12    H6      20.045221   19.531509   20.277641 H          1 MOL1         0.0729
      13    C5      20.543947   20.171614   22.276528 C.3        1 MOL1        -0.1884
      14    H7      21.359900   19.569605   22.699801 H          1 MOL1         0.0729
      15    H8      21.025363   20.984300   21.715343 H          1 MOL1         0.0729
      16    C6      19.700651   20.802019   23.405493 C.3        1 MOL1        -0.2899
      17    H9      18.945106   21.484467   22.995183 H          1 MOL1         0.0741
      18    H10     19.181539   20.036907   23.994438 H          1 MOL1         0.0741
      19    H11     20.339431   21.376434   24.088593 H          1 MOL1         0.0741
@<TRIPOS>BOND
    1     1     2    1
    2     1     3    2
    3     1     4    1
    4     4     5    1
    5     4     6    1
    6     4     7    1
    7     7     8    1
    8     7     9    1
    9     7    10    1
   10    10    11    1
   11    10    12    1
   12    10    13    1
   13    13    14    1
   14    13    15    1
   15    13    16    1
   16    16    17    1
   17    16    18    1
   18    16    19    1
@<TRIPOS>SUBSTRUCTURE
       1 MOL1            1 RESIDUE      1      MOL     
@<SCITEGIC>MOL_PROPERTY
VConf Rank
SciTegic.value.IntegerValue
817

@<SCITEGIC>MOL_PROPERTY
Conf_Id
SciTegic.value.IntegerValue
66

@<SCITEGIC>MOL_PROPERTY
Delta U+W
SciTegic.value.DoubleValue
5.819

@<SCITEGIC>MOL_PROPERTY
U+W
SciTegic.value.DoubleValue
-49.072

@<SCITEGIC>MOL_PROPERTY
Grad RMS
SciTegic.value.DoubleValue
0.000000

@<SCITEGIC>MOL_PROPERTY
U
SciTegic.value.DoubleValue
15.324

@<SCITEGIC>MOL_PROPERTY
W
SciTegic.value.DoubleValue
-64.396

@<SCITEGIC>MOL_PROPERTY
W(PB)
SciTegic.value.DoubleValue
-66.382

@<SCITEGIC>MOL_PROPERTY
W(SA)
SciTegic.value.DoubleValue
1.986

@<SCITEGIC>MOL_PROPERTY
Valence
SciTegic.value.DoubleValue
11.748

@<SCITEGIC>MOL_PROPERTY
Coulomb
SciTegic.value.DoubleValue
3.201

@<SCITEGIC>MOL_PROPERTY
VdW
SciTegic.value.DoubleValue
0.375

@<SCITEGIC>MOL_PROPERTY
VdW6
SciTegic.value.DoubleValue
-8.854

@<SCITEGIC>MOL_PROPERTY
VdW12
SciTegic.value.DoubleValue
9.229

@<SCITEGIC>MOL_PROPERTY
Bond
SciTegic.value.DoubleValue
0.216

@<SCITEGIC>MOL_PROPERTY
Angle
SciTegic.value.DoubleValue
3.812

@<SCITEGIC>MOL_PROPERTY
Pdih
SciTegic.value.DoubleValue
7.699

@<SCITEGIC>MOL_PROPERTY
Idih
SciTegic.value.DoubleValue
0.022

@<SCITEGIC>MOL_PROPERTY
Tether
SciTegic.value.DoubleValue
0.000

@<TRIPOS>MOLECULE
guest-7_confgen4.mol2 : confsearch ligand conformer 818
          19          18           1
SMALL
USER_CHARGES
 
@<TRIPOS>ATOM
       1    C1      18.968842   19.389108   25.361490 C.2        1 MOL1         0.6115
       2    O1      19.400647   19.698119   26.454064 O.co2      1 MOL1        -0.6776
       3    O2      17.798931   19.126296   25.160534 O.co2      1 MOL1        -0.6776
       4    C2      19.968491   19.336824   24.204924 C.3        1 MOL1        -0.2013
       5    H1      20.756753   18.628371   24.485615 H          1 MOL1         0.0727
       6    H2      20.436741   20.325519   24.132303 H          1 MOL1         0.0727
       7    C3      19.370770   18.937780   22.829450 C.3        1 MOL1        -0.1910
       8    H3      18.898187   17.949060   22.910491 H          1 MOL1         0.0729
       9    H4      18.577803   19.647958   22.556837 H          1 MOL1         0.0729
      10    C4      20.446603   18.910159   21.722164 C.3        1 MOL1        -0.1909
      11    H5      21.238417   18.199708   21.996826 H          1 MOL1         0.0729
      12    H6      20.917832   19.899511   21.642941 H          1 MOL1         0.0729
      13    C5      19.850344   18.513210   20.355671 C.3        1 MOL1        -0.1884
      14    H7      19.379584   17.523104   20.430286 H          1 MOL1         0.0729
      15    H8      19.059127   19.222765   20.076386 H          1 MOL1         0.0729
      16    C6      20.927190   18.486564   19.252638 C.3        1 MOL1        -0.2899
      17    H9      21.716051   17.761188   19.491280 H          1 MOL1         0.0741
      18    H10     20.486142   18.202623   18.288292 H          1 MOL1         0.0741
      19    H11     21.393202   19.473655   19.134723 H          1 MOL1         0.0741
@<TRIPOS>BOND
    1     1     2    1
    2     1     3    2
    3     1     4    1
    4     4     5    1
    5     4     6    1
    6     4     7    1
    7     7     8    1
    8     7     9    1
    9     7    10    1
   10    10    11    1
   11    10    12    1
   12    10    13    1
   13    13    14    1
   14    13    15    1
   15    13    16    1
   16    16    17    1
   17    16    18    1
   18    16    19    1
@<TRIPOS>SUBSTRUCTURE
       1 MOL1            1 RESIDUE      1      MOL     
@<SCITEGIC>MOL_PROPERTY
VConf Rank
SciTegic.value.IntegerValue
818

@<SCITEGIC>MOL_PROPERTY
Conf_Id
SciTegic.value.IntegerValue
0

@<SCITEGIC>MOL_PROPERTY
Delta U+W
SciTegic.value.DoubleValue
0.000

@<SCITEGIC>MOL_PROPERTY
U+W
SciTegic.value.DoubleValue
-54.891

@<SCITEGIC>MOL_PROPERTY
Grad RMS
SciTegic.value.DoubleValue
0.000000

@<SCITEGIC>MOL_PROPERTY
U
SciTegic.value.DoubleValue
6.966

@<SCITEGIC>MOL_PROPERTY
W
SciTegic.value.DoubleValue
-61.857

@<SCITEGIC>MOL_PROPERTY
W(PB)
SciTegic.value.DoubleValue
-63.965

@<SCITEGIC>MOL_PROPERTY
W(SA)
SciTegic.value.DoubleValue
2.108

@<SCITEGIC>MOL_PROPERTY
Valence
SciTegic.value.DoubleValue
7.175

@<SCITEGIC>MOL_PROPERTY
Coulomb
SciTegic.value.DoubleValue
-1.360

@<SCITEGIC>MOL_PROPERTY
VdW
SciTegic.value.DoubleValue
1.151

@<SCITEGIC>MOL_PROPERTY
VdW6
SciTegic.value.DoubleValue
-5.641

@<SCITEGIC>MOL_PROPERTY
VdW12
SciTegic.value.DoubleValue
6.792

@<SCITEGIC>MOL_PROPERTY
Bond
SciTegic.value.DoubleValue
0.119

@<SCITEGIC>MOL_PROPERTY
Angle
SciTegic.value.DoubleValue
2.715

@<SCITEGIC>MOL_PROPERTY
Pdih
SciTegic.value.DoubleValue
4.340

@<SCITEGIC>MOL_PROPERTY
Idih
SciTegic.value.DoubleValue
0.000

@<SCITEGIC>MOL_PROPERTY
Tether
SciTegic.value.DoubleValue
0.000

@<TRIPOS>MOLECULE
guest-7_confgen4.mol2 : confsearch ligand conformer 819
          19          18           1
SMALL
USER_CHARGES
 
@<TRIPOS>ATOM
       1    C1      18.862250   21.249440   24.377934 C.2        1 MOL1         0.6115
       2    O1      17.655916   21.369041   24.459380 O.co2      1 MOL1        -0.6776
       3    O2      19.622526   21.455198   25.303043 O.co2      1 MOL1        -0.6776
       4    C2      19.452875   20.796400   23.047412 C.3        1 MOL1        -0.2013
       5    H1      20.440774   21.259787   22.937549 H          1 MOL1         0.0727
       6    H2      18.819737   21.188360   22.242274 H          1 MOL1         0.0727
       7    C3      19.569561   19.256420   22.933574 C.3        1 MOL1        -0.1910
       8    H3      20.195775   18.878404   23.753640 H          1 MOL1         0.0729
       9    H4      18.574613   18.806950   23.058493 H          1 MOL1         0.0729
      10    C4      20.169719   18.824164   21.578364 C.3        1 MOL1        -0.1909
      11    H5      21.163639   19.276173   21.455876 H          1 MOL1         0.0729
      12    H6      19.542196   19.204613   20.760644 H          1 MOL1         0.0729
      13    C5      20.284855   17.289599   21.467790 C.3        1 MOL1        -0.1884
      14    H7      20.913483   16.905372   22.283074 H          1 MOL1         0.0729
      15    H8      19.292205   16.833822   21.587822 H          1 MOL1         0.0729
      16    C6      20.884517   16.861571   20.113481 C.3        1 MOL1        -0.2899
      17    H9      20.959239   15.768079   20.051833 H          1 MOL1         0.0741
      18    H10     20.258179   17.206041   19.280135 H          1 MOL1         0.0741
      19    H11     21.891598   17.278167   19.980591 H          1 MOL1         0.0741
@<TRIPOS>BOND
    1     1     2    1
    2     1     3    2
    3     1     4    1
    4     4     5    1
    5     4     6    1
    6     4     7    1
    7     7     8    1
    8     7     9    1
    9     7    10    1
   10    10    11    1
   11    10    12    1
   12    10    13    1
   13    13    14    1
   14    13    15    1
   15    13    16    1
   16    16    17    1
   17    16    18    1
   18    16    19    1
@<TRIPOS>SUBSTRUCTURE
       1 MOL1            1 RESIDUE      1      MOL     
@<SCITEGIC>MOL_PROPERTY
VConf Rank
SciTegic.value.IntegerValue
819

@<SCITEGIC>MOL_PROPERTY
Conf_Id
SciTegic.value.IntegerValue
18

@<SCITEGIC>MOL_PROPERTY
Delta U+W
SciTegic.value.DoubleValue
-1.199

@<SCITEGIC>MOL_PROPERTY
U+W
SciTegic.value.DoubleValue
-56.090

@<SCITEGIC>MOL_PROPERTY
Grad RMS
SciTegic.value.DoubleValue
0.000000

@<SCITEGIC>MOL_PROPERTY
U
SciTegic.value.DoubleValue
5.975

@<SCITEGIC>MOL_PROPERTY
W
SciTegic.value.DoubleValue
-62.066

@<SCITEGIC>MOL_PROPERTY
W(PB)
SciTegic.value.DoubleValue
-64.219

@<SCITEGIC>MOL_PROPERTY
W(SA)
SciTegic.value.DoubleValue
2.153

@<SCITEGIC>MOL_PROPERTY
Valence
SciTegic.value.DoubleValue
6.673

@<SCITEGIC>MOL_PROPERTY
Coulomb
SciTegic.value.DoubleValue
-1.307

@<SCITEGIC>MOL_PROPERTY
VdW
SciTegic.value.DoubleValue
0.610

@<SCITEGIC>MOL_PROPERTY
VdW6
SciTegic.value.DoubleValue
-5.351

@<SCITEGIC>MOL_PROPERTY
VdW12
SciTegic.value.DoubleValue
5.961

@<SCITEGIC>MOL_PROPERTY
Bond
SciTegic.value.DoubleValue
0.086

@<SCITEGIC>MOL_PROPERTY
Angle
SciTegic.value.DoubleValue
2.253

@<SCITEGIC>MOL_PROPERTY
Pdih
SciTegic.value.DoubleValue
4.333

@<SCITEGIC>MOL_PROPERTY
Idih
SciTegic.value.DoubleValue
0.001

@<SCITEGIC>MOL_PROPERTY
Tether
SciTegic.value.DoubleValue
0.000

@<TRIPOS>MOLECULE
guest-7_confgen4.mol2 : confsearch ligand conformer 820
          19          18           1
SMALL
USER_CHARGES
 
@<TRIPOS>ATOM
       1    C1      19.623738   19.911291   25.220097 C.2        1 MOL1         0.6115
       2    O1      19.273033   21.034142   25.524234 O.co2      1 MOL1        -0.6776
       3    O2      19.569716   18.962045   25.976586 O.co2      1 MOL1        -0.6776
       4    C2      20.139853   19.676479   23.804876 C.3        1 MOL1        -0.2013
       5    H1      20.899856   18.888535   23.853689 H          1 MOL1         0.0727
       6    H2      20.641186   20.592161   23.469165 H          1 MOL1         0.0727
       7    C3      19.013482   19.288773   22.811823 C.3        1 MOL1        -0.1910
       8    H3      18.548321   18.346913   23.134058 H          1 MOL1         0.0729
       9    H4      18.226336   20.054225   22.855489 H          1 MOL1         0.0729
      10    C4      19.497822   19.158945   21.348234 C.3        1 MOL1        -0.1909
      11    H5      19.954649   20.104844   21.026378 H          1 MOL1         0.0729
      12    H6      18.621997   19.001761   20.703844 H          1 MOL1         0.0729
      13    C5      20.495044   17.998696   21.131711 C.3        1 MOL1        -0.1884
      14    H7      21.411846   18.174461   21.709588 H          1 MOL1         0.0729
      15    H8      20.057945   17.060495   21.500481 H          1 MOL1         0.0729
      16    C6      20.863677   17.841115   19.642904 C.3        1 MOL1        -0.2899
      17    H9      21.574312   17.015720   19.505753 H          1 MOL1         0.0741
      18    H10     19.973232   17.625424   19.037948 H          1 MOL1         0.0741
      19    H11     21.328602   18.756835   19.254693 H          1 MOL1         0.0741
@<TRIPOS>BOND
    1     1     2    1
    2     1     3    2
    3     1     4    1
    4     4     5    1
    5     4     6    1
    6     4     7    1
    7     7     8    1
    8     7     9    1
    9     7    10    1
   10    10    11    1
   11    10    12    1
   12    10    13    1
   13    13    14    1
   14    13    15    1
   15    13    16    1
   16    16    17    1
   17    16    18    1
   18    16    19    1
@<TRIPOS>SUBSTRUCTURE
       1 MOL1            1 RESIDUE      1      MOL     
@<SCITEGIC>MOL_PROPERTY
VConf Rank
SciTegic.value.IntegerValue
820

@<SCITEGIC>MOL_PROPERTY
Conf_Id
SciTegic.value.IntegerValue
34

@<SCITEGIC>MOL_PROPERTY
Delta U+W
SciTegic.value.DoubleValue
-0.563

@<SCITEGIC>MOL_PROPERTY
U+W
SciTegic.value.DoubleValue
-55.455

@<SCITEGIC>MOL_PROPERTY
Grad RMS
SciTegic.value.DoubleValue
0.000000

@<SCITEGIC>MOL_PROPERTY
U
SciTegic.value.DoubleValue
6.914

@<SCITEGIC>MOL_PROPERTY
W
SciTegic.value.DoubleValue
-62.369

@<SCITEGIC>MOL_PROPERTY
W(PB)
SciTegic.value.DoubleValue
-64.446

@<SCITEGIC>MOL_PROPERTY
W(SA)
SciTegic.value.DoubleValue
2.077

@<SCITEGIC>MOL_PROPERTY
Valence
SciTegic.value.DoubleValue
7.196

@<SCITEGIC>MOL_PROPERTY
Coulomb
SciTegic.value.DoubleValue
-1.020

@<SCITEGIC>MOL_PROPERTY
VdW
SciTegic.value.DoubleValue
0.738

@<SCITEGIC>MOL_PROPERTY
VdW6
SciTegic.value.DoubleValue
-6.010

@<SCITEGIC>MOL_PROPERTY
VdW12
SciTegic.value.DoubleValue
6.748

@<SCITEGIC>MOL_PROPERTY
Bond
SciTegic.value.DoubleValue
0.126

@<SCITEGIC>MOL_PROPERTY
Angle
SciTegic.value.DoubleValue
2.499

@<SCITEGIC>MOL_PROPERTY
Pdih
SciTegic.value.DoubleValue
4.570

@<SCITEGIC>MOL_PROPERTY
Idih
SciTegic.value.DoubleValue
0.001

@<SCITEGIC>MOL_PROPERTY
Tether
SciTegic.value.DoubleValue
0.000

@<TRIPOS>MOLECULE
guest-7_confgen4.mol2 : confsearch ligand conformer 821
          19          18           1
SMALL
USER_CHARGES
 
@<TRIPOS>ATOM
       1    C1      20.644918   21.514493   23.960433 C.2        1 MOL1         0.6115
       2    O1      21.452145   21.517833   24.868543 O.co2      1 MOL1        -0.6776
       3    O2      19.785089   22.361741   23.822136 O.co2      1 MOL1        -0.6776
       4    C2      20.700231   20.372548   22.951839 C.3        1 MOL1        -0.2013
       5    H1      21.746103   20.059163   22.849596 H          1 MOL1         0.0727
       6    H2      20.383084   20.769659   21.980981 H          1 MOL1         0.0727
       7    C3      19.818052   19.165178   23.363174 C.3        1 MOL1        -0.1910
       8    H3      20.101668   18.850764   24.377141 H          1 MOL1         0.0729
       9    H4      18.767051   19.480760   23.418975 H          1 MOL1         0.0729
      10    C4      19.949903   17.951455   22.412902 C.3        1 MOL1        -0.1909
      11    H5      19.389088   17.109969   22.842322 H          1 MOL1         0.0729
      12    H6      21.000355   17.633096   22.365943 H          1 MOL1         0.0729
      13    C5      19.425297   18.228391   20.986155 C.3        1 MOL1        -0.1884
      14    H7      18.390939   18.595621   21.036281 H          1 MOL1         0.0729
      15    H8      20.022779   19.016395   20.509261 H          1 MOL1         0.0729
      16    C6      19.476482   16.961004   20.109585 C.3        1 MOL1        -0.2899
      17    H9      20.504915   16.587303   20.019693 H          1 MOL1         0.0741
      18    H10     18.857182   16.161692   20.537316 H          1 MOL1         0.0741
      19    H11     19.103764   17.174276   19.099294 H          1 MOL1         0.0741
@<TRIPOS>BOND
    1     1     2    1
    2     1     3    2
    3     1     4    1
    4     4     5    1
    5     4     6    1
    6     4     7    1
    7     7     8    1
    8     7     9    1
    9     7    10    1
   10    10    11    1
   11    10    12    1
   12    10    13    1
   13    13    14    1
   14    13    15    1
   15    13    16    1
   16    16    17    1
   17    16    18    1
   18    16    19    1
@<TRIPOS>SUBSTRUCTURE
       1 MOL1            1 RESIDUE      1      MOL     
@<SCITEGIC>MOL_PROPERTY
VConf Rank
SciTegic.value.IntegerValue
821

@<SCITEGIC>MOL_PROPERTY
Conf_Id
SciTegic.value.IntegerValue
33

@<SCITEGIC>MOL_PROPERTY
Delta U+W
SciTegic.value.DoubleValue
-0.526

@<SCITEGIC>MOL_PROPERTY
U+W
SciTegic.value.DoubleValue
-55.418

@<SCITEGIC>MOL_PROPERTY
Grad RMS
SciTegic.value.DoubleValue
0.000000

@<SCITEGIC>MOL_PROPERTY
U
SciTegic.value.DoubleValue
6.914

@<SCITEGIC>MOL_PROPERTY
W
SciTegic.value.DoubleValue
-62.332

@<SCITEGIC>MOL_PROPERTY
W(PB)
SciTegic.value.DoubleValue
-64.421

@<SCITEGIC>MOL_PROPERTY
W(SA)
SciTegic.value.DoubleValue
2.090

@<SCITEGIC>MOL_PROPERTY
Valence
SciTegic.value.DoubleValue
7.196

@<SCITEGIC>MOL_PROPERTY
Coulomb
SciTegic.value.DoubleValue
-1.020

@<SCITEGIC>MOL_PROPERTY
VdW
SciTegic.value.DoubleValue
0.738

@<SCITEGIC>MOL_PROPERTY
VdW6
SciTegic.value.DoubleValue
-6.010

@<SCITEGIC>MOL_PROPERTY
VdW12
SciTegic.value.DoubleValue
6.748

@<SCITEGIC>MOL_PROPERTY
Bond
SciTegic.value.DoubleValue
0.126

@<SCITEGIC>MOL_PROPERTY
Angle
SciTegic.value.DoubleValue
2.499

@<SCITEGIC>MOL_PROPERTY
Pdih
SciTegic.value.DoubleValue
4.570

@<SCITEGIC>MOL_PROPERTY
Idih
SciTegic.value.DoubleValue
0.001

@<SCITEGIC>MOL_PROPERTY
Tether
SciTegic.value.DoubleValue
0.000

@<TRIPOS>MOLECULE
guest-7_confgen4.mol2 : confsearch ligand conformer 822
          19          18           1
SMALL
USER_CHARGES
 
@<TRIPOS>ATOM
       1    C1      19.344188   15.836219   22.307064 C.2        1 MOL1         0.6115
       2    O1      20.365387   15.228913   22.052998 O.co2      1 MOL1        -0.6776
       3    O2      18.503774   15.440756   23.090363 O.co2      1 MOL1        -0.6776
       4    C2      19.112815   17.176619   21.618373 C.3        1 MOL1        -0.2013
       5    H1      18.033247   17.302531   21.472233 H          1 MOL1         0.0727
       6    H2      19.571741   17.132503   20.623302 H          1 MOL1         0.0727
       7    C3      19.687316   18.371793   22.418341 C.3        1 MOL1        -0.1910
       8    H3      19.225360   18.396806   23.414940 H          1 MOL1         0.0729
       9    H4      20.763661   18.214653   22.568039 H          1 MOL1         0.0729
      10    C4      19.441716   19.716464   21.695704 C.3        1 MOL1        -0.1909
      11    H5      18.367365   19.821580   21.491464 H          1 MOL1         0.0729
      12    H6      19.945134   19.709666   20.719215 H          1 MOL1         0.0729
      13    C5      19.909109   20.945111   22.509679 C.3        1 MOL1        -0.1884
      14    H7      19.593584   21.856957   21.984108 H          1 MOL1         0.0729
      15    H8      19.403446   20.958463   23.485104 H          1 MOL1         0.0729
      16    C6      21.438332   20.995009   22.716651 C.3        1 MOL1        -0.2899
      17    H9      21.966545   20.953203   21.755193 H          1 MOL1         0.0741
      18    H10     21.727078   21.926457   23.220608 H          1 MOL1         0.0741
      19    H11     21.786191   20.160111   23.337686 H          1 MOL1         0.0741
@<TRIPOS>BOND
    1     1     2    1
    2     1     3    2
    3     1     4    1
    4     4     5    1
    5     4     6    1
    6     4     7    1
    7     7     8    1
    8     7     9    1
    9     7    10    1
   10    10    11    1
   11    10    12    1
   12    10    13    1
   13    13    14    1
   14    13    15    1
   15    13    16    1
   16    16    17    1
   17    16    18    1
   18    16    19    1
@<TRIPOS>SUBSTRUCTURE
       1 MOL1            1 RESIDUE      1      MOL     
@<SCITEGIC>MOL_PROPERTY
VConf Rank
SciTegic.value.IntegerValue
822

@<SCITEGIC>MOL_PROPERTY
Conf_Id
SciTegic.value.IntegerValue
42

@<SCITEGIC>MOL_PROPERTY
Delta U+W
SciTegic.value.DoubleValue
-0.344

@<SCITEGIC>MOL_PROPERTY
U+W
SciTegic.value.DoubleValue
-55.236

@<SCITEGIC>MOL_PROPERTY
Grad RMS
SciTegic.value.DoubleValue
0.000000

@<SCITEGIC>MOL_PROPERTY
U
SciTegic.value.DoubleValue
7.244

@<SCITEGIC>MOL_PROPERTY
W
SciTegic.value.DoubleValue
-62.479

@<SCITEGIC>MOL_PROPERTY
W(PB)
SciTegic.value.DoubleValue
-64.610

@<SCITEGIC>MOL_PROPERTY
W(SA)
SciTegic.value.DoubleValue
2.130

@<SCITEGIC>MOL_PROPERTY
Valence
SciTegic.value.DoubleValue
7.174

@<SCITEGIC>MOL_PROPERTY
Coulomb
SciTegic.value.DoubleValue
-0.669

@<SCITEGIC>MOL_PROPERTY
VdW
SciTegic.value.DoubleValue
0.739

@<SCITEGIC>MOL_PROPERTY
VdW6
SciTegic.value.DoubleValue
-5.969

@<SCITEGIC>MOL_PROPERTY
VdW12
SciTegic.value.DoubleValue
6.708

@<SCITEGIC>MOL_PROPERTY
Bond
SciTegic.value.DoubleValue
0.116

@<SCITEGIC>MOL_PROPERTY
Angle
SciTegic.value.DoubleValue
2.481

@<SCITEGIC>MOL_PROPERTY
Pdih
SciTegic.value.DoubleValue
4.576

@<SCITEGIC>MOL_PROPERTY
Idih
SciTegic.value.DoubleValue
0.000

@<SCITEGIC>MOL_PROPERTY
Tether
SciTegic.value.DoubleValue
0.000

@<TRIPOS>MOLECULE
guest-7_confgen4.mol2 : confsearch ligand conformer 823
          19          18           1
SMALL
USER_CHARGES
 
@<TRIPOS>ATOM
       1    C1      23.009693   20.077740   22.463834 C.2        1 MOL1         0.6115
       2    O1      22.974232   21.267108   22.709532 O.co2      1 MOL1        -0.6776
       3    O2      23.859433   19.560151   21.766491 O.co2      1 MOL1        -0.6776
       4    C2      21.917484   19.188581   23.047765 C.3        1 MOL1        -0.2013
       5    H1      21.616098   19.609045   24.014773 H          1 MOL1         0.0727
       6    H2      22.351509   18.200913   23.244775 H          1 MOL1         0.0727
       7    C3      20.686964   19.056101   22.116791 C.3        1 MOL1        -0.1910
       8    H3      20.281606   20.057195   21.919008 H          1 MOL1         0.0729
       9    H4      21.006313   18.642842   21.150110 H          1 MOL1         0.0729
      10    C4      19.594883   18.152862   22.734995 C.3        1 MOL1        -0.1909
      11    H5      19.240672   18.592086   23.677663 H          1 MOL1         0.0729
      12    H6      20.037872   17.180762   22.991459 H          1 MOL1         0.0729
      13    C5      18.392579   17.911258   21.793357 C.3        1 MOL1        -0.1884
      14    H7      18.742267   17.466701   20.851330 H          1 MOL1         0.0729
      15    H8      17.725088   17.171569   22.256562 H          1 MOL1         0.0729
      16    C6      17.583656   19.191959   21.494524 C.3        1 MOL1        -0.2899
      17    H9      18.178854   19.918888   20.927903 H          1 MOL1         0.0741
      18    H10     16.694308   18.953304   20.896991 H          1 MOL1         0.0741
      19    H11     17.248005   19.670488   22.423774 H          1 MOL1         0.0741
@<TRIPOS>BOND
    1     1     2    1
    2     1     3    2
    3     1     4    1
    4     4     5    1
    5     4     6    1
    6     4     7    1
    7     7     8    1
    8     7     9    1
    9     7    10    1
   10    10    11    1
   11    10    12    1
   12    10    13    1
   13    13    14    1
   14    13    15    1
   15    13    16    1
   16    16    17    1
   17    16    18    1
   18    16    19    1
@<TRIPOS>SUBSTRUCTURE
       1 MOL1            1 RESIDUE      1      MOL     
@<SCITEGIC>MOL_PROPERTY
VConf Rank
SciTegic.value.IntegerValue
823

@<SCITEGIC>MOL_PROPERTY
Conf_Id
SciTegic.value.IntegerValue
41

@<SCITEGIC>MOL_PROPERTY
Delta U+W
SciTegic.value.DoubleValue
-0.361

@<SCITEGIC>MOL_PROPERTY
U+W
SciTegic.value.DoubleValue
-55.252

@<SCITEGIC>MOL_PROPERTY
Grad RMS
SciTegic.value.DoubleValue
0.000000

@<SCITEGIC>MOL_PROPERTY
U
SciTegic.value.DoubleValue
7.244

@<SCITEGIC>MOL_PROPERTY
W
SciTegic.value.DoubleValue
-62.496

@<SCITEGIC>MOL_PROPERTY
W(PB)
SciTegic.value.DoubleValue
-64.596

@<SCITEGIC>MOL_PROPERTY
W(SA)
SciTegic.value.DoubleValue
2.099

@<SCITEGIC>MOL_PROPERTY
Valence
SciTegic.value.DoubleValue
7.174

@<SCITEGIC>MOL_PROPERTY
Coulomb
SciTegic.value.DoubleValue
-0.669

@<SCITEGIC>MOL_PROPERTY
VdW
SciTegic.value.DoubleValue
0.739

@<SCITEGIC>MOL_PROPERTY
VdW6
SciTegic.value.DoubleValue
-5.969

@<SCITEGIC>MOL_PROPERTY
VdW12
SciTegic.value.DoubleValue
6.708

@<SCITEGIC>MOL_PROPERTY
Bond
SciTegic.value.DoubleValue
0.116

@<SCITEGIC>MOL_PROPERTY
Angle
SciTegic.value.DoubleValue
2.481

@<SCITEGIC>MOL_PROPERTY
Pdih
SciTegic.value.DoubleValue
4.576

@<SCITEGIC>MOL_PROPERTY
Idih
SciTegic.value.DoubleValue
0.000

@<SCITEGIC>MOL_PROPERTY
Tether
SciTegic.value.DoubleValue
0.000

@<TRIPOS>MOLECULE
guest-7_confgen4.mol2 : confsearch ligand conformer 824
          19          18           1
SMALL
USER_CHARGES
 
@<TRIPOS>ATOM
       1    C1      22.594643   19.633711   21.989864 C.2        1 MOL1         0.6115
       2    O1      23.084726   18.943089   22.861306 O.co2      1 MOL1        -0.6776
       3    O2      22.975915   19.630403   20.836044 O.co2      1 MOL1        -0.6776
       4    C2      21.452706   20.573295   22.367367 C.3        1 MOL1        -0.2013
       5    H1      21.671398   21.550832   21.921602 H          1 MOL1         0.0727
       6    H2      21.458337   20.712255   23.455321 H          1 MOL1         0.0727
       7    C3      20.056050   20.090660   21.896721 C.3        1 MOL1        -0.1910
       8    H3      19.322050   20.885693   22.085669 H          1 MOL1         0.0729
       9    H4      20.074206   19.928572   20.809969 H          1 MOL1         0.0729
      10    C4      19.602064   18.798096   22.611204 C.3        1 MOL1        -0.1909
      11    H5      19.598104   18.961176   23.697675 H          1 MOL1         0.0729
      12    H6      20.322783   17.992697   22.412917 H          1 MOL1         0.0729
      13    C5      18.197887   18.354111   22.151022 C.3        1 MOL1        -0.1884
      14    H7      17.471815   19.154333   22.350757 H          1 MOL1         0.0729
      15    H8      18.199633   18.187927   21.064811 H          1 MOL1         0.0729
      16    C6      17.747755   17.064322   22.865725 C.3        1 MOL1        -0.2899
      17    H9      17.706880   17.211638   23.952939 H          1 MOL1         0.0741
      18    H10     16.748180   16.762769   22.526606 H          1 MOL1         0.0741
      19    H11     18.440087   16.238029   22.657496 H          1 MOL1         0.0741
@<TRIPOS>BOND
    1     1     2    1
    2     1     3    2
    3     1     4    1
    4     4     5    1
    5     4     6    1
    6     4     7    1
    7     7     8    1
    8     7     9    1
    9     7    10    1
   10    10    11    1
   11    10    12    1
   12    10    13    1
   13    13    14    1
   14    13    15    1
   15    13    16    1
   16    16    17    1
   17    16    18    1
   18    16    19    1
@<TRIPOS>SUBSTRUCTURE
       1 MOL1            1 RESIDUE      1      MOL     
@<SCITEGIC>MOL_PROPERTY
VConf Rank
SciTegic.value.IntegerValue
824

@<SCITEGIC>MOL_PROPERTY
Conf_Id
SciTegic.value.IntegerValue
36

@<SCITEGIC>MOL_PROPERTY
Delta U+W
SciTegic.value.DoubleValue
-0.079

@<SCITEGIC>MOL_PROPERTY
U+W
SciTegic.value.DoubleValue
-54.971

@<SCITEGIC>MOL_PROPERTY
Grad RMS
SciTegic.value.DoubleValue
0.000000

@<SCITEGIC>MOL_PROPERTY
U
SciTegic.value.DoubleValue
8.266

@<SCITEGIC>MOL_PROPERTY
W
SciTegic.value.DoubleValue
-63.237

@<SCITEGIC>MOL_PROPERTY
W(PB)
SciTegic.value.DoubleValue
-65.340

@<SCITEGIC>MOL_PROPERTY
W(SA)
SciTegic.value.DoubleValue
2.103

@<SCITEGIC>MOL_PROPERTY
Valence
SciTegic.value.DoubleValue
6.935

@<SCITEGIC>MOL_PROPERTY
Coulomb
SciTegic.value.DoubleValue
0.874

@<SCITEGIC>MOL_PROPERTY
VdW
SciTegic.value.DoubleValue
0.457

@<SCITEGIC>MOL_PROPERTY
VdW6
SciTegic.value.DoubleValue
-6.205

@<SCITEGIC>MOL_PROPERTY
VdW12
SciTegic.value.DoubleValue
6.662

@<SCITEGIC>MOL_PROPERTY
Bond
SciTegic.value.DoubleValue
0.107

@<SCITEGIC>MOL_PROPERTY
Angle
SciTegic.value.DoubleValue
2.420

@<SCITEGIC>MOL_PROPERTY
Pdih
SciTegic.value.DoubleValue
4.407

@<SCITEGIC>MOL_PROPERTY
Idih
SciTegic.value.DoubleValue
0.001

@<SCITEGIC>MOL_PROPERTY
Tether
SciTegic.value.DoubleValue
0.000

@<TRIPOS>MOLECULE
guest-7_confgen4.mol2 : confsearch ligand conformer 825
          19          18           1
SMALL
USER_CHARGES
 
@<TRIPOS>ATOM
       1    C1      20.880430   20.887623   24.322267 C.2        1 MOL1         0.6115
       2    O1      22.084439   20.724039   24.334762 O.co2      1 MOL1        -0.6776
       3    O2      20.191172   20.881378   25.323049 O.co2      1 MOL1        -0.6776
       4    C2      20.197562   21.135962   22.980117 C.3        1 MOL1        -0.2013
       5    H1      20.957318   21.446337   22.252500 H          1 MOL1         0.0727
       6    H2      19.517372   21.985920   23.110584 H          1 MOL1         0.0727
       7    C3      19.405248   19.917260   22.439658 C.3        1 MOL1        -0.1910
       8    H3      18.668168   19.600369   23.190606 H          1 MOL1         0.0729
       9    H4      18.838456   20.226470   21.551023 H          1 MOL1         0.0729
      10    C4      20.321337   18.728801   22.071343 C.3        1 MOL1        -0.1909
      11    H5      20.879569   18.402355   22.959730 H          1 MOL1         0.0729
      12    H6      21.064442   19.053937   21.330323 H          1 MOL1         0.0729
      13    C5      19.515730   17.540130   21.506839 C.3        1 MOL1        -0.1884
      14    H7      18.773171   17.211318   22.247084 H          1 MOL1         0.0729
      15    H8      18.958470   17.859690   20.615338 H          1 MOL1         0.0729
      16    C6      20.432552   16.356033   21.140330 C.3        1 MOL1        -0.2899
      17    H9      20.979436   15.995569   22.021481 H          1 MOL1         0.0741
      18    H10     19.843754   15.519886   20.741253 H          1 MOL1         0.0741
      19    H11     21.166060   16.648739   20.377640 H          1 MOL1         0.0741
@<TRIPOS>BOND
    1     1     2    1
    2     1     3    2
    3     1     4    1
    4     4     5    1
    5     4     6    1
    6     4     7    1
    7     7     8    1
    8     7     9    1
    9     7    10    1
   10    10    11    1
   11    10    12    1
   12    10    13    1
   13    13    14    1
   14    13    15    1
   15    13    16    1
   16    16    17    1
   17    16    18    1
   18    16    19    1
@<TRIPOS>SUBSTRUCTURE
       1 MOL1            1 RESIDUE      1      MOL     
@<SCITEGIC>MOL_PROPERTY
VConf Rank
SciTegic.value.IntegerValue
825

@<SCITEGIC>MOL_PROPERTY
Conf_Id
SciTegic.value.IntegerValue
35

@<SCITEGIC>MOL_PROPERTY
Delta U+W
SciTegic.value.DoubleValue
-0.030

@<SCITEGIC>MOL_PROPERTY
U+W
SciTegic.value.DoubleValue
-54.921

@<SCITEGIC>MOL_PROPERTY
Grad RMS
SciTegic.value.DoubleValue
0.000000

@<SCITEGIC>MOL_PROPERTY
U
SciTegic.value.DoubleValue
8.267

@<SCITEGIC>MOL_PROPERTY
W
SciTegic.value.DoubleValue
-63.188

@<SCITEGIC>MOL_PROPERTY
W(PB)
SciTegic.value.DoubleValue
-65.294

@<SCITEGIC>MOL_PROPERTY
W(SA)
SciTegic.value.DoubleValue
2.106

@<SCITEGIC>MOL_PROPERTY
Valence
SciTegic.value.DoubleValue
6.935

@<SCITEGIC>MOL_PROPERTY
Coulomb
SciTegic.value.DoubleValue
0.875

@<SCITEGIC>MOL_PROPERTY
VdW
SciTegic.value.DoubleValue
0.457

@<SCITEGIC>MOL_PROPERTY
VdW6
SciTegic.value.DoubleValue
-6.205

@<SCITEGIC>MOL_PROPERTY
VdW12
SciTegic.value.DoubleValue
6.662

@<SCITEGIC>MOL_PROPERTY
Bond
SciTegic.value.DoubleValue
0.107

@<SCITEGIC>MOL_PROPERTY
Angle
SciTegic.value.DoubleValue
2.420

@<SCITEGIC>MOL_PROPERTY
Pdih
SciTegic.value.DoubleValue
4.407

@<SCITEGIC>MOL_PROPERTY
Idih
SciTegic.value.DoubleValue
0.001

@<SCITEGIC>MOL_PROPERTY
Tether
SciTegic.value.DoubleValue
0.000

@<TRIPOS>MOLECULE
guest-7_confgen4.mol2 : confsearch ligand conformer 826
          19          18           1
SMALL
USER_CHARGES
 
@<TRIPOS>ATOM
       1    C1      22.532680   19.057501   20.713279 C.2        1 MOL1         0.6115
       2    O1      23.270651   19.957286   21.063269 O.co2      1 MOL1        -0.6776
       3    O2      22.223048   18.854611   19.555865 O.co2      1 MOL1        -0.6776
       4    C2      21.983480   18.119421   21.784665 C.3        1 MOL1        -0.2013
       5    H1      22.820177   17.841875   22.436586 H          1 MOL1         0.0727
       6    H2      21.639099   17.197431   21.300627 H          1 MOL1         0.0727
       7    C3      20.843664   18.732723   22.639301 C.3        1 MOL1        -0.1910
       8    H3      20.625338   18.049693   23.470056 H          1 MOL1         0.0729
       9    H4      21.190178   19.675109   23.085580 H          1 MOL1         0.0729
      10    C4      19.555344   18.982964   21.819366 C.3        1 MOL1        -0.1909
      11    H5      19.189176   18.033357   21.405861 H          1 MOL1         0.0729
      12    H6      19.793580   19.623705   20.959297 H          1 MOL1         0.0729
      13    C5      18.430115   19.660717   22.635050 C.3        1 MOL1        -0.1884
      14    H7      18.792835   20.612038   23.048249 H          1 MOL1         0.0729
      15    H8      17.605010   19.912621   21.954633 H          1 MOL1         0.0729
      16    C6      17.880992   18.774801   23.774188 C.3        1 MOL1        -0.2899
      17    H9      18.641944   18.593001   24.543294 H          1 MOL1         0.0741
      18    H10     17.026783   19.262495   24.261444 H          1 MOL1         0.0741
      19    H11     17.541331   17.804703   23.388589 H          1 MOL1         0.0741
@<TRIPOS>BOND
    1     1     2    1
    2     1     3    2
    3     1     4    1
    4     4     5    1
    5     4     6    1
    6     4     7    1
    7     7     8    1
    8     7     9    1
    9     7    10    1
   10    10    11    1
   11    10    12    1
   12    10    13    1
   13    13    14    1
   14    13    15    1
   15    13    16    1
   16    16    17    1
   17    16    18    1
   18    16    19    1
@<TRIPOS>SUBSTRUCTURE
       1 MOL1            1 RESIDUE      1      MOL     
@<SCITEGIC>MOL_PROPERTY
VConf Rank
SciTegic.value.IntegerValue
826

@<SCITEGIC>MOL_PROPERTY
Conf_Id
SciTegic.value.IntegerValue
74

@<SCITEGIC>MOL_PROPERTY
Delta U+W
SciTegic.value.DoubleValue
0.797

@<SCITEGIC>MOL_PROPERTY
U+W
SciTegic.value.DoubleValue
-54.095

@<SCITEGIC>MOL_PROPERTY
Grad RMS
SciTegic.value.DoubleValue
0.000000

@<SCITEGIC>MOL_PROPERTY
U
SciTegic.value.DoubleValue
8.869

@<SCITEGIC>MOL_PROPERTY
W
SciTegic.value.DoubleValue
-62.964

@<SCITEGIC>MOL_PROPERTY
W(PB)
SciTegic.value.DoubleValue
-65.046

@<SCITEGIC>MOL_PROPERTY
W(SA)
SciTegic.value.DoubleValue
2.082

@<SCITEGIC>MOL_PROPERTY
Valence
SciTegic.value.DoubleValue
7.469

@<SCITEGIC>MOL_PROPERTY
Coulomb
SciTegic.value.DoubleValue
0.762

@<SCITEGIC>MOL_PROPERTY
VdW
SciTegic.value.DoubleValue
0.639

@<SCITEGIC>MOL_PROPERTY
VdW6
SciTegic.value.DoubleValue
-6.782

@<SCITEGIC>MOL_PROPERTY
VdW12
SciTegic.value.DoubleValue
7.421

@<SCITEGIC>MOL_PROPERTY
Bond
SciTegic.value.DoubleValue
0.141

@<SCITEGIC>MOL_PROPERTY
Angle
SciTegic.value.DoubleValue
2.667

@<SCITEGIC>MOL_PROPERTY
Pdih
SciTegic.value.DoubleValue
4.660

@<SCITEGIC>MOL_PROPERTY
Idih
SciTegic.value.DoubleValue
0.001

@<SCITEGIC>MOL_PROPERTY
Tether
SciTegic.value.DoubleValue
0.000

@<TRIPOS>MOLECULE
guest-7_confgen4.mol2 : confsearch ligand conformer 827
          19          18           1
SMALL
USER_CHARGES
 
@<TRIPOS>ATOM
       1    C1      22.220310   18.869047   20.413888 C.2        1 MOL1         0.6115
       2    O1      23.395213   19.111171   20.607284 O.co2      1 MOL1        -0.6776
       3    O2      21.818039   18.180907   19.496847 O.co2      1 MOL1        -0.6776
       4    C2      21.196996   19.444925   21.386211 C.3        1 MOL1        -0.2013
       5    H1      20.278245   19.645947   20.823497 H          1 MOL1         0.0727
       6    H2      21.575144   20.408325   21.748454 H          1 MOL1         0.0727
       7    C3      20.906457   18.500713   22.581468 C.3        1 MOL1        -0.1910
       8    H3      20.492722   17.554008   22.209512 H          1 MOL1         0.0729
       9    H4      21.857777   18.245726   23.068469 H          1 MOL1         0.0729
      10    C4      19.959713   19.117219   23.641810 C.3        1 MOL1        -0.1909
      11    H5      20.439710   20.006127   24.073365 H          1 MOL1         0.0729
      12    H6      19.844324   18.403449   24.468852 H          1 MOL1         0.0729
      13    C5      18.555411   19.512325   23.122459 C.3        1 MOL1        -0.1884
      14    H7      17.985086   19.948226   23.954204 H          1 MOL1         0.0729
      15    H8      18.639602   20.303235   22.365503 H          1 MOL1         0.0729
      16    C6      17.759702   18.321894   22.545295 C.3        1 MOL1        -0.2899
      17    H9      17.682505   17.508502   23.278414 H          1 MOL1         0.0741
      18    H10     16.742089   18.633894   22.277085 H          1 MOL1         0.0741
      19    H11     18.235739   17.925927   21.639279 H          1 MOL1         0.0741
@<TRIPOS>BOND
    1     1     2    1
    2     1     3    2
    3     1     4    1
    4     4     5    1
    5     4     6    1
    6     4     7    1
    7     7     8    1
    8     7     9    1
    9     7    10    1
   10    10    11    1
   11    10    12    1
   12    10    13    1
   13    13    14    1
   14    13    15    1
   15    13    16    1
   16    16    17    1
   17    16    18    1
   18    16    19    1
@<TRIPOS>SUBSTRUCTURE
       1 MOL1            1 RESIDUE      1      MOL     
@<SCITEGIC>MOL_PROPERTY
VConf Rank
SciTegic.value.IntegerValue
827

@<SCITEGIC>MOL_PROPERTY
Conf_Id
SciTegic.value.IntegerValue
67

@<SCITEGIC>MOL_PROPERTY
Delta U+W
SciTegic.value.DoubleValue
0.308

@<SCITEGIC>MOL_PROPERTY
U+W
SciTegic.value.DoubleValue
-54.583

@<SCITEGIC>MOL_PROPERTY
Grad RMS
SciTegic.value.DoubleValue
0.000000

@<SCITEGIC>MOL_PROPERTY
U
SciTegic.value.DoubleValue
8.219

@<SCITEGIC>MOL_PROPERTY
W
SciTegic.value.DoubleValue
-62.802

@<SCITEGIC>MOL_PROPERTY
W(PB)
SciTegic.value.DoubleValue
-64.859

@<SCITEGIC>MOL_PROPERTY
W(SA)
SciTegic.value.DoubleValue
2.057

@<SCITEGIC>MOL_PROPERTY
Valence
SciTegic.value.DoubleValue
7.609

@<SCITEGIC>MOL_PROPERTY
Coulomb
SciTegic.value.DoubleValue
-0.089

@<SCITEGIC>MOL_PROPERTY
VdW
SciTegic.value.DoubleValue
0.699

@<SCITEGIC>MOL_PROPERTY
VdW6
SciTegic.value.DoubleValue
-6.924

@<SCITEGIC>MOL_PROPERTY
VdW12
SciTegic.value.DoubleValue
7.623

@<SCITEGIC>MOL_PROPERTY
Bond
SciTegic.value.DoubleValue
0.163

@<SCITEGIC>MOL_PROPERTY
Angle
SciTegic.value.DoubleValue
2.870

@<SCITEGIC>MOL_PROPERTY
Pdih
SciTegic.value.DoubleValue
4.576

@<SCITEGIC>MOL_PROPERTY
Idih
SciTegic.value.DoubleValue
0.001

@<SCITEGIC>MOL_PROPERTY
Tether
SciTegic.value.DoubleValue
0.000

@<TRIPOS>MOLECULE
guest-7_confgen4.mol2 : confsearch ligand conformer 828
          19          18           1
SMALL
USER_CHARGES
 
@<TRIPOS>ATOM
       1    C1      22.695514   19.456124   21.324850 C.2        1 MOL1         0.6115
       2    O1      23.316892   20.500135   21.306097 O.co2      1 MOL1        -0.6776
       3    O2      22.933217   18.519253   20.588580 O.co2      1 MOL1        -0.6776
       4    C2      21.542313   19.322303   22.312997 C.3        1 MOL1        -0.2013
       5    H1      21.789360   19.907418   23.206845 H          1 MOL1         0.0727
       6    H2      21.483824   18.271037   22.617263 H          1 MOL1         0.0727
       7    C3      20.187886   19.793281   21.722832 C.3        1 MOL1        -0.1910
       8    H3      20.305635   20.818065   21.344478 H          1 MOL1         0.0729
       9    H4      19.932280   19.175710   20.851597 H          1 MOL1         0.0729
      10    C4      19.026383   19.776928   22.748194 C.3        1 MOL1        -0.1909
      11    H5      18.121118   20.164813   22.261552 H          1 MOL1         0.0729
      12    H6      19.258721   20.479468   23.560135 H          1 MOL1         0.0729
      13    C5      18.709038   18.391903   23.363743 C.3        1 MOL1        -0.1884
      14    H7      19.567132   18.029581   23.945127 H          1 MOL1         0.0729
      15    H8      17.884718   18.508661   24.080642 H          1 MOL1         0.0729
      16    C6      18.307408   17.333697   22.313842 C.3        1 MOL1        -0.2899
      17    H9      19.144014   17.099833   21.643270 H          1 MOL1         0.0741
      18    H10     18.004409   16.400321   22.805589 H          1 MOL1         0.0741
      19    H11     17.464402   17.684816   21.704674 H          1 MOL1         0.0741
@<TRIPOS>BOND
    1     1     2    1
    2     1     3    2
    3     1     4    1
    4     4     5    1
    5     4     6    1
    6     4     7    1
    7     7     8    1
    8     7     9    1
    9     7    10    1
   10    10    11    1
   11    10    12    1
   12    10    13    1
   13    13    14    1
   14    13    15    1
   15    13    16    1
   16    16    17    1
   17    16    18    1
   18    16    19    1
@<TRIPOS>SUBSTRUCTURE
       1 MOL1            1 RESIDUE      1      MOL     
@<SCITEGIC>MOL_PROPERTY
VConf Rank
SciTegic.value.IntegerValue
828

@<SCITEGIC>MOL_PROPERTY
Conf_Id
SciTegic.value.IntegerValue
21

@<SCITEGIC>MOL_PROPERTY
Delta U+W
SciTegic.value.DoubleValue
0.319

@<SCITEGIC>MOL_PROPERTY
U+W
SciTegic.value.DoubleValue
-54.572

@<SCITEGIC>MOL_PROPERTY
Grad RMS
SciTegic.value.DoubleValue
0.000000

@<SCITEGIC>MOL_PROPERTY
U
SciTegic.value.DoubleValue
8.220

@<SCITEGIC>MOL_PROPERTY
W
SciTegic.value.DoubleValue
-62.792

@<SCITEGIC>MOL_PROPERTY
W(PB)
SciTegic.value.DoubleValue
-64.830

@<SCITEGIC>MOL_PROPERTY
W(SA)
SciTegic.value.DoubleValue
2.038

@<SCITEGIC>MOL_PROPERTY
Valence
SciTegic.value.DoubleValue
7.609

@<SCITEGIC>MOL_PROPERTY
Coulomb
SciTegic.value.DoubleValue
-0.088

@<SCITEGIC>MOL_PROPERTY
VdW
SciTegic.value.DoubleValue
0.699

@<SCITEGIC>MOL_PROPERTY
VdW6
SciTegic.value.DoubleValue
-6.924

@<SCITEGIC>MOL_PROPERTY
VdW12
SciTegic.value.DoubleValue
7.623

@<SCITEGIC>MOL_PROPERTY
Bond
SciTegic.value.DoubleValue
0.163

@<SCITEGIC>MOL_PROPERTY
Angle
SciTegic.value.DoubleValue
2.870

@<SCITEGIC>MOL_PROPERTY
Pdih
SciTegic.value.DoubleValue
4.576

@<SCITEGIC>MOL_PROPERTY
Idih
SciTegic.value.DoubleValue
0.000

@<SCITEGIC>MOL_PROPERTY
Tether
SciTegic.value.DoubleValue
0.000

@<TRIPOS>MOLECULE
guest-7_confgen4.mol2 : confsearch ligand conformer 829
          19          18           1
SMALL
USER_CHARGES
 
@<TRIPOS>ATOM
       1    C1      17.358880   20.009476   21.781386 C.2        1 MOL1         0.6115
       2    O1      16.311923   19.450543   21.520783 O.co2      1 MOL1        -0.6776
       3    O2      17.425062   21.130578   22.245073 O.co2      1 MOL1        -0.6776
       4    C2      18.659631   19.255284   21.529749 C.3        1 MOL1        -0.2013
       5    H1      19.426249   19.988598   21.260728 H          1 MOL1         0.0727
       6    H2      18.513163   18.611146   20.654524 H          1 MOL1         0.0727
       7    C3      19.105288   18.403277   22.747561 C.3        1 MOL1        -0.1910
       8    H3      19.196132   19.037547   23.640159 H          1 MOL1         0.0729
       9    H4      18.305775   17.681667   22.965401 H          1 MOL1         0.0729
      10    C4      20.423377   17.624556   22.506353 C.3        1 MOL1        -0.1909
      11    H5      20.531833   17.380026   21.440829 H          1 MOL1         0.0729
      12    H6      20.350486   16.660408   23.027965 H          1 MOL1         0.0729
      13    C5      21.698397   18.336607   23.021344 C.3        1 MOL1        -0.1884
      14    H7      21.618227   18.496932   24.105376 H          1 MOL1         0.0729
      15    H8      22.555867   17.665893   22.872745 H          1 MOL1         0.0729
      16    C6      21.997053   19.681013   22.326310 C.3        1 MOL1        -0.2899
      17    H9      22.975605   20.066174   22.640798 H          1 MOL1         0.0741
      18    H10     22.013108   19.565818   21.234775 H          1 MOL1         0.0741
      19    H11     21.245817   20.436737   22.587696 H          1 MOL1         0.0741
@<TRIPOS>BOND
    1     1     2    1
    2     1     3    2
    3     1     4    1
    4     4     5    1
    5     4     6    1
    6     4     7    1
    7     7     8    1
    8     7     9    1
    9     7    10    1
   10    10    11    1
   11    10    12    1
   12    10    13    1
   13    13    14    1
   14    13    15    1
   15    13    16    1
   16    16    17    1
   17    16    18    1
   18    16    19    1
@<TRIPOS>SUBSTRUCTURE
       1 MOL1            1 RESIDUE      1      MOL     
@<SCITEGIC>MOL_PROPERTY
VConf Rank
SciTegic.value.IntegerValue
829

@<SCITEGIC>MOL_PROPERTY
Conf_Id
SciTegic.value.IntegerValue
24

@<SCITEGIC>MOL_PROPERTY
Delta U+W
SciTegic.value.DoubleValue
2.477

@<SCITEGIC>MOL_PROPERTY
U+W
SciTegic.value.DoubleValue
-52.414

@<SCITEGIC>MOL_PROPERTY
Grad RMS
SciTegic.value.DoubleValue
0.000000

@<SCITEGIC>MOL_PROPERTY
U
SciTegic.value.DoubleValue
10.422

@<SCITEGIC>MOL_PROPERTY
W
SciTegic.value.DoubleValue
-62.836

@<SCITEGIC>MOL_PROPERTY
W(PB)
SciTegic.value.DoubleValue
-64.906

@<SCITEGIC>MOL_PROPERTY
W(SA)
SciTegic.value.DoubleValue
2.070

@<SCITEGIC>MOL_PROPERTY
Valence
SciTegic.value.DoubleValue
9.628

@<SCITEGIC>MOL_PROPERTY
Coulomb
SciTegic.value.DoubleValue
0.101

@<SCITEGIC>MOL_PROPERTY
VdW
SciTegic.value.DoubleValue
0.693

@<SCITEGIC>MOL_PROPERTY
VdW6
SciTegic.value.DoubleValue
-6.927

@<SCITEGIC>MOL_PROPERTY
VdW12
SciTegic.value.DoubleValue
7.620

@<SCITEGIC>MOL_PROPERTY
Bond
SciTegic.value.DoubleValue
0.173

@<SCITEGIC>MOL_PROPERTY
Angle
SciTegic.value.DoubleValue
2.989

@<SCITEGIC>MOL_PROPERTY
Pdih
SciTegic.value.DoubleValue
6.465

@<SCITEGIC>MOL_PROPERTY
Idih
SciTegic.value.DoubleValue
0.001

@<SCITEGIC>MOL_PROPERTY
Tether
SciTegic.value.DoubleValue
0.000

@<TRIPOS>MOLECULE
guest-7_confgen4.mol2 : confsearch ligand conformer 830
          19          18           1
SMALL
USER_CHARGES
 
@<TRIPOS>ATOM
       1    C1      19.940769   21.268323   23.758714 C.2        1 MOL1         0.6115
       2    O1      19.839546   20.757836   24.856824 O.co2      1 MOL1        -0.6776
       3    O2      20.541058   22.305014   23.553775 O.co2      1 MOL1        -0.6776
       4    C2      19.253964   20.589111   22.576681 C.3        1 MOL1        -0.2013
       5    H1      18.687603   21.361842   22.043878 H          1 MOL1         0.0727
       6    H2      18.520682   19.876013   22.966582 H          1 MOL1         0.0727
       7    C3      20.234434   19.898166   21.588648 C.3        1 MOL1        -0.1910
       8    H3      19.700410   19.614954   20.671674 H          1 MOL1         0.0729
       9    H4      20.986728   20.638671   21.283292 H          1 MOL1         0.0729
      10    C4      20.961565   18.660104   22.175130 C.3        1 MOL1        -0.1909
      11    H5      21.094141   18.769604   23.260136 H          1 MOL1         0.0729
      12    H6      21.975436   18.629130   21.753359 H          1 MOL1         0.0729
      13    C5      20.284493   17.303772   21.859151 C.3        1 MOL1        -0.1884
      14    H7      20.236146   17.159964   20.770948 H          1 MOL1         0.0729
      15    H8      20.922246   16.497795   22.247515 H          1 MOL1         0.0729
      16    C6      18.872235   17.148224   22.459893 C.3        1 MOL1        -0.2899
      17    H9      18.159040   17.825460   21.974033 H          1 MOL1         0.0741
      18    H10     18.504973   16.123758   22.317185 H          1 MOL1         0.0741
      19    H11     18.877336   17.360119   23.537185 H          1 MOL1         0.0741
@<TRIPOS>BOND
    1     1     2    1
    2     1     3    2
    3     1     4    1
    4     4     5    1
    5     4     6    1
    6     4     7    1
    7     7     8    1
    8     7     9    1
    9     7    10    1
   10    10    11    1
   11    10    12    1
   12    10    13    1
   13    13    14    1
   14    13    15    1
   15    13    16    1
   16    16    17    1
   17    16    18    1
   18    16    19    1
@<TRIPOS>SUBSTRUCTURE
       1 MOL1            1 RESIDUE      1      MOL     
@<SCITEGIC>MOL_PROPERTY
VConf Rank
SciTegic.value.IntegerValue
830

@<SCITEGIC>MOL_PROPERTY
Conf_Id
SciTegic.value.IntegerValue
4

@<SCITEGIC>MOL_PROPERTY
Delta U+W
SciTegic.value.DoubleValue
3.753

@<SCITEGIC>MOL_PROPERTY
U+W
SciTegic.value.DoubleValue
-51.138

@<SCITEGIC>MOL_PROPERTY
Grad RMS
SciTegic.value.DoubleValue
0.000000

@<SCITEGIC>MOL_PROPERTY
U
SciTegic.value.DoubleValue
12.334

@<SCITEGIC>MOL_PROPERTY
W
SciTegic.value.DoubleValue
-63.472

@<SCITEGIC>MOL_PROPERTY
W(PB)
SciTegic.value.DoubleValue
-65.500

@<SCITEGIC>MOL_PROPERTY
W(SA)
SciTegic.value.DoubleValue
2.028

@<SCITEGIC>MOL_PROPERTY
Valence
SciTegic.value.DoubleValue
9.984

@<SCITEGIC>MOL_PROPERTY
Coulomb
SciTegic.value.DoubleValue
1.767

@<SCITEGIC>MOL_PROPERTY
VdW
SciTegic.value.DoubleValue
0.583

@<SCITEGIC>MOL_PROPERTY
VdW6
SciTegic.value.DoubleValue
-7.767

@<SCITEGIC>MOL_PROPERTY
VdW12
SciTegic.value.DoubleValue
8.349

@<SCITEGIC>MOL_PROPERTY
Bond
SciTegic.value.DoubleValue
0.203

@<SCITEGIC>MOL_PROPERTY
Angle
SciTegic.value.DoubleValue
3.191

@<SCITEGIC>MOL_PROPERTY
Pdih
SciTegic.value.DoubleValue
6.589

@<SCITEGIC>MOL_PROPERTY
Idih
SciTegic.value.DoubleValue
0.001

@<SCITEGIC>MOL_PROPERTY
Tether
SciTegic.value.DoubleValue
0.000

@<TRIPOS>MOLECULE
guest-7_confgen4.mol2 : confsearch ligand conformer 831
          19          18           1
SMALL
USER_CHARGES
 
@<TRIPOS>ATOM
       1    C1      17.735715   20.054836   21.588568 C.2        1 MOL1         0.6115
       2    O1      16.646077   20.162552   22.115976 O.co2      1 MOL1        -0.6776
       3    O2      18.282859   20.959149   20.988948 O.co2      1 MOL1        -0.6776
       4    C2      18.438778   18.701755   21.660006 C.3        1 MOL1        -0.2013
       5    H1      19.222556   18.679139   20.896194 H          1 MOL1         0.0727
       6    H2      17.703219   17.939602   21.377460 H          1 MOL1         0.0727
       7    C3      19.015768   18.363301   23.062671 C.3        1 MOL1        -0.1910
       8    H3      18.205329   18.467663   23.797404 H          1 MOL1         0.0729
       9    H4      19.318717   17.308137   23.095586 H          1 MOL1         0.0729
      10    C4      20.202301   19.262882   23.496683 C.3        1 MOL1        -0.1909
      11    H5      20.134629   19.415445   24.582467 H          1 MOL1         0.0729
      12    H6      20.111346   20.262294   23.049795 H          1 MOL1         0.0729
      13    C5      21.602676   18.674353   23.195871 C.3        1 MOL1        -0.1884
      14    H7      22.361151   19.349129   23.616046 H          1 MOL1         0.0729
      15    H8      21.720453   17.715652   23.719532 H          1 MOL1         0.0729
      16    C6      21.895246   18.477370   21.694153 C.3        1 MOL1        -0.2899
      17    H9      21.712966   19.403293   21.132970 H          1 MOL1         0.0741
      18    H10     22.943241   18.188816   21.541768 H          1 MOL1         0.0741
      19    H11     21.268901   17.682847   21.270147 H          1 MOL1         0.0741
@<TRIPOS>BOND
    1     1     2    1
    2     1     3    2
    3     1     4    1
    4     4     5    1
    5     4     6    1
    6     4     7    1
    7     7     8    1
    8     7     9    1
    9     7    10    1
   10    10    11    1
   11    10    12    1
   12    10    13    1
   13    13    14    1
   14    13    15    1
   15    13    16    1
   16    16    17    1
   17    16    18    1
   18    16    19    1
@<TRIPOS>SUBSTRUCTURE
       1 MOL1            1 RESIDUE      1      MOL     
@<SCITEGIC>MOL_PROPERTY
VConf Rank
SciTegic.value.IntegerValue
831

@<SCITEGIC>MOL_PROPERTY
Conf_Id
SciTegic.value.IntegerValue
73

@<SCITEGIC>MOL_PROPERTY
Delta U+W
SciTegic.value.DoubleValue
3.707

@<SCITEGIC>MOL_PROPERTY
U+W
SciTegic.value.DoubleValue
-51.184

@<SCITEGIC>MOL_PROPERTY
Grad RMS
SciTegic.value.DoubleValue
0.000000

@<SCITEGIC>MOL_PROPERTY
U
SciTegic.value.DoubleValue
12.334

@<SCITEGIC>MOL_PROPERTY
W
SciTegic.value.DoubleValue
-63.519

@<SCITEGIC>MOL_PROPERTY
W(PB)
SciTegic.value.DoubleValue
-65.541

@<SCITEGIC>MOL_PROPERTY
W(SA)
SciTegic.value.DoubleValue
2.022

@<SCITEGIC>MOL_PROPERTY
Valence
SciTegic.value.DoubleValue
9.984

@<SCITEGIC>MOL_PROPERTY
Coulomb
SciTegic.value.DoubleValue
1.768

@<SCITEGIC>MOL_PROPERTY
VdW
SciTegic.value.DoubleValue
0.583

@<SCITEGIC>MOL_PROPERTY
VdW6
SciTegic.value.DoubleValue
-7.767

@<SCITEGIC>MOL_PROPERTY
VdW12
SciTegic.value.DoubleValue
8.350

@<SCITEGIC>MOL_PROPERTY
Bond
SciTegic.value.DoubleValue
0.203

@<SCITEGIC>MOL_PROPERTY
Angle
SciTegic.value.DoubleValue
3.192

@<SCITEGIC>MOL_PROPERTY
Pdih
SciTegic.value.DoubleValue
6.589

@<SCITEGIC>MOL_PROPERTY
Idih
SciTegic.value.DoubleValue
0.001

@<SCITEGIC>MOL_PROPERTY
Tether
SciTegic.value.DoubleValue
0.000

@<TRIPOS>MOLECULE
guest-7_confgen4.mol2 : confsearch ligand conformer 832
          19          18           1
SMALL
USER_CHARGES
 
@<TRIPOS>ATOM
       1    C1      21.715986   18.375623   20.725427 C.2        1 MOL1         0.6115
       2    O1      22.262915   17.552506   21.432576 O.co2      1 MOL1        -0.6776
       3    O2      21.651016   18.283486   19.515283 O.co2      1 MOL1        -0.6776
       4    C2      21.105191   19.608116   21.386650 C.3        1 MOL1        -0.2013
       5    H1      21.483632   20.486885   20.851656 H          1 MOL1         0.0727
       6    H2      21.484969   19.681836   22.412140 H          1 MOL1         0.0727
       7    C3      19.552232   19.630206   21.376764 C.3        1 MOL1        -0.1910
       8    H3      19.201359   20.579300   21.802177 H          1 MOL1         0.0729
       9    H4      19.207135   19.621608   20.333718 H          1 MOL1         0.0729
      10    C4      18.890029   18.446199   22.127569 C.3        1 MOL1        -0.1909
      11    H5      19.151127   17.508238   21.618512 H          1 MOL1         0.0729
      12    H6      17.798972   18.541513   22.043295 H          1 MOL1         0.0729
      13    C5      19.267532   18.320392   23.623858 C.3        1 MOL1        -0.1884
      14    H7      18.754887   17.442812   24.040926 H          1 MOL1         0.0729
      15    H8      20.342550   18.119585   23.726115 H          1 MOL1         0.0729
      16    C6      18.885503   19.562051   24.458131 C.3        1 MOL1        -0.2899
      17    H9      19.461545   20.443109   24.148574 H          1 MOL1         0.0741
      18    H10     17.817582   19.792996   24.352204 H          1 MOL1         0.0741
      19    H11     19.090467   19.387586   25.522248 H          1 MOL1         0.0741
@<TRIPOS>BOND
    1     1     2    1
    2     1     3    2
    3     1     4    1
    4     4     5    1
    5     4     6    1
    6     4     7    1
    7     7     8    1
    8     7     9    1
    9     7    10    1
   10    10    11    1
   11    10    12    1
   12    10    13    1
   13    13    14    1
   14    13    15    1
   15    13    16    1
   16    16    17    1
   17    16    18    1
   18    16    19    1
@<TRIPOS>SUBSTRUCTURE
       1 MOL1            1 RESIDUE      1      MOL     
@<SCITEGIC>MOL_PROPERTY
VConf Rank
SciTegic.value.IntegerValue
832

@<SCITEGIC>MOL_PROPERTY
Conf_Id
SciTegic.value.IntegerValue
56

@<SCITEGIC>MOL_PROPERTY
Delta U+W
SciTegic.value.DoubleValue
1.735

@<SCITEGIC>MOL_PROPERTY
U+W
SciTegic.value.DoubleValue
-53.156

@<SCITEGIC>MOL_PROPERTY
Grad RMS
SciTegic.value.DoubleValue
0.000000

@<SCITEGIC>MOL_PROPERTY
U
SciTegic.value.DoubleValue
10.214

@<SCITEGIC>MOL_PROPERTY
W
SciTegic.value.DoubleValue
-63.370

@<SCITEGIC>MOL_PROPERTY
W(PB)
SciTegic.value.DoubleValue
-65.388

@<SCITEGIC>MOL_PROPERTY
W(SA)
SciTegic.value.DoubleValue
2.018

@<SCITEGIC>MOL_PROPERTY
Valence
SciTegic.value.DoubleValue
7.868

@<SCITEGIC>MOL_PROPERTY
Coulomb
SciTegic.value.DoubleValue
1.968

@<SCITEGIC>MOL_PROPERTY
VdW
SciTegic.value.DoubleValue
0.378

@<SCITEGIC>MOL_PROPERTY
VdW6
SciTegic.value.DoubleValue
-8.067

@<SCITEGIC>MOL_PROPERTY
VdW12
SciTegic.value.DoubleValue
8.445

@<SCITEGIC>MOL_PROPERTY
Bond
SciTegic.value.DoubleValue
0.191

@<SCITEGIC>MOL_PROPERTY
Angle
SciTegic.value.DoubleValue
3.117

@<SCITEGIC>MOL_PROPERTY
Pdih
SciTegic.value.DoubleValue
4.559

@<SCITEGIC>MOL_PROPERTY
Idih
SciTegic.value.DoubleValue
0.001

@<SCITEGIC>MOL_PROPERTY
Tether
SciTegic.value.DoubleValue
0.000

@<TRIPOS>MOLECULE
guest-7_confgen4.mol2 : confsearch ligand conformer 833
          19          18           1
SMALL
USER_CHARGES
 
@<TRIPOS>ATOM
       1    C1      17.529008   19.069471   23.931220 C.2        1 MOL1         0.6115
       2    O1      17.505535   18.744015   25.101644 O.co2      1 MOL1        -0.6776
       3    O2      16.530315   19.283966   23.273208 O.co2      1 MOL1        -0.6776
       4    C2      18.884836   19.194494   23.245410 C.3        1 MOL1        -0.2013
       5    H1      19.618153   19.515919   23.994617 H          1 MOL1         0.0727
       6    H2      18.805589   19.991236   22.497458 H          1 MOL1         0.0727
       7    C3      19.344364   17.873935   22.577627 C.3        1 MOL1        -0.1910
       8    H3      19.277343   17.064177   23.317357 H          1 MOL1         0.0729
       9    H4      18.643893   17.613182   21.772305 H          1 MOL1         0.0729
      10    C4      20.789047   17.909448   22.018947 C.3        1 MOL1        -0.1909
      11    H5      21.014669   16.909626   21.623442 H          1 MOL1         0.0729
      12    H6      21.505341   18.075982   22.835151 H          1 MOL1         0.0729
      13    C5      21.019136   18.939183   20.885010 C.3        1 MOL1        -0.1884
      14    H7      21.730340   18.513286   20.163803 H          1 MOL1         0.0729
      15    H8      20.086475   19.109643   20.329678 H          1 MOL1         0.0729
      16    C6      21.596737   20.281058   21.387479 C.3        1 MOL1        -0.2899
      17    H9      21.757621   20.968065   20.546638 H          1 MOL1         0.0741
      18    H10     20.925115   20.774937   22.098553 H          1 MOL1         0.0741
      19    H11     22.563304   20.127876   21.884887 H          1 MOL1         0.0741
@<TRIPOS>BOND
    1     1     2    1
    2     1     3    2
    3     1     4    1
    4     4     5    1
    5     4     6    1
    6     4     7    1
    7     7     8    1
    8     7     9    1
    9     7    10    1
   10    10    11    1
   11    10    12    1
   12    10    13    1
   13    13    14    1
   14    13    15    1
   15    13    16    1
   16    16    17    1
   17    16    18    1
   18    16    19    1
@<TRIPOS>SUBSTRUCTURE
       1 MOL1            1 RESIDUE      1      MOL     
@<SCITEGIC>MOL_PROPERTY
VConf Rank
SciTegic.value.IntegerValue
833

@<SCITEGIC>MOL_PROPERTY
Conf_Id
SciTegic.value.IntegerValue
53

@<SCITEGIC>MOL_PROPERTY
Delta U+W
SciTegic.value.DoubleValue
2.279

@<SCITEGIC>MOL_PROPERTY
U+W
SciTegic.value.DoubleValue
-52.612

@<SCITEGIC>MOL_PROPERTY
Grad RMS
SciTegic.value.DoubleValue
0.000000

@<SCITEGIC>MOL_PROPERTY
U
SciTegic.value.DoubleValue
10.231

@<SCITEGIC>MOL_PROPERTY
W
SciTegic.value.DoubleValue
-62.843

@<SCITEGIC>MOL_PROPERTY
W(PB)
SciTegic.value.DoubleValue
-64.893

@<SCITEGIC>MOL_PROPERTY
W(SA)
SciTegic.value.DoubleValue
2.050

@<SCITEGIC>MOL_PROPERTY
Valence
SciTegic.value.DoubleValue
9.644

@<SCITEGIC>MOL_PROPERTY
Coulomb
SciTegic.value.DoubleValue
-0.164

@<SCITEGIC>MOL_PROPERTY
VdW
SciTegic.value.DoubleValue
0.751

@<SCITEGIC>MOL_PROPERTY
VdW6
SciTegic.value.DoubleValue
-6.881

@<SCITEGIC>MOL_PROPERTY
VdW12
SciTegic.value.DoubleValue
7.631

@<SCITEGIC>MOL_PROPERTY
Bond
SciTegic.value.DoubleValue
0.163

@<SCITEGIC>MOL_PROPERTY
Angle
SciTegic.value.DoubleValue
2.998

@<SCITEGIC>MOL_PROPERTY
Pdih
SciTegic.value.DoubleValue
6.482

@<SCITEGIC>MOL_PROPERTY
Idih
SciTegic.value.DoubleValue
0.001

@<SCITEGIC>MOL_PROPERTY
Tether
SciTegic.value.DoubleValue
0.000

@<TRIPOS>MOLECULE
guest-7_confgen4.mol2 : confsearch ligand conformer 834
          19          18           1
SMALL
USER_CHARGES
 
@<TRIPOS>ATOM
       1    C1      21.045218   16.720669   21.945946 C.2        1 MOL1         0.6115
       2    O1      20.629943   16.015558   22.844399 O.co2      1 MOL1        -0.6776
       3    O2      22.224697   16.836610   21.676442 O.co2      1 MOL1        -0.6776
       4    C2      20.025598   17.442514   21.066856 C.3        1 MOL1        -0.2013
       5    H1      19.015322   17.188027   21.409639 H          1 MOL1         0.0727
       6    H2      20.131171   17.019297   20.061189 H          1 MOL1         0.0727
       7    C3      20.193437   18.986003   20.985643 C.3        1 MOL1        -0.1910
       8    H3      21.253277   19.240813   20.846522 H          1 MOL1         0.0729
       9    H4      19.677636   19.335680   20.081159 H          1 MOL1         0.0729
      10    C4      19.613124   19.766855   22.190709 C.3        1 MOL1        -0.1909
      11    H5      18.552085   19.513044   22.319591 H          1 MOL1         0.0729
      12    H6      19.647117   20.838734   21.952109 H          1 MOL1         0.0729
      13    C5      20.368260   19.530450   23.517153 C.3        1 MOL1        -0.1884
      14    H7      20.236681   18.491590   23.845577 H          1 MOL1         0.0729
      15    H8      21.445387   19.685870   23.365366 H          1 MOL1         0.0729
      16    C6      19.864655   20.471572   24.630035 C.3        1 MOL1        -0.2899
      17    H9      18.794217   20.317528   24.819223 H          1 MOL1         0.0741
      18    H10     20.404872   20.285109   25.567287 H          1 MOL1         0.0741
      19    H11     20.016900   21.523434   24.354848 H          1 MOL1         0.0741
@<TRIPOS>BOND
    1     1     2    1
    2     1     3    2
    3     1     4    1
    4     4     5    1
    5     4     6    1
    6     4     7    1
    7     7     8    1
    8     7     9    1
    9     7    10    1
   10    10    11    1
   11    10    12    1
   12    10    13    1
   13    13    14    1
   14    13    15    1
   15    13    16    1
   16    16    17    1
   17    16    18    1
   18    16    19    1
@<TRIPOS>SUBSTRUCTURE
       1 MOL1            1 RESIDUE      1      MOL     
@<SCITEGIC>MOL_PROPERTY
VConf Rank
SciTegic.value.IntegerValue
834

@<SCITEGIC>MOL_PROPERTY
Conf_Id
SciTegic.value.IntegerValue
25

@<SCITEGIC>MOL_PROPERTY
Delta U+W
SciTegic.value.DoubleValue
2.065

@<SCITEGIC>MOL_PROPERTY
U+W
SciTegic.value.DoubleValue
-52.826

@<SCITEGIC>MOL_PROPERTY
Grad RMS
SciTegic.value.DoubleValue
0.000000

@<SCITEGIC>MOL_PROPERTY
U
SciTegic.value.DoubleValue
10.967

@<SCITEGIC>MOL_PROPERTY
W
SciTegic.value.DoubleValue
-63.794

@<SCITEGIC>MOL_PROPERTY
W(PB)
SciTegic.value.DoubleValue
-65.830

@<SCITEGIC>MOL_PROPERTY
W(SA)
SciTegic.value.DoubleValue
2.036

@<SCITEGIC>MOL_PROPERTY
Valence
SciTegic.value.DoubleValue
8.609

@<SCITEGIC>MOL_PROPERTY
Coulomb
SciTegic.value.DoubleValue
1.892

@<SCITEGIC>MOL_PROPERTY
VdW
SciTegic.value.DoubleValue
0.467

@<SCITEGIC>MOL_PROPERTY
VdW6
SciTegic.value.DoubleValue
-7.569

@<SCITEGIC>MOL_PROPERTY
VdW12
SciTegic.value.DoubleValue
8.036

@<SCITEGIC>MOL_PROPERTY
Bond
SciTegic.value.DoubleValue
0.170

@<SCITEGIC>MOL_PROPERTY
Angle
SciTegic.value.DoubleValue
3.195

@<SCITEGIC>MOL_PROPERTY
Pdih
SciTegic.value.DoubleValue
5.237

@<SCITEGIC>MOL_PROPERTY
Idih
SciTegic.value.DoubleValue
0.007

@<SCITEGIC>MOL_PROPERTY
Tether
SciTegic.value.DoubleValue
0.000

@<TRIPOS>MOLECULE
guest-7_confgen4.mol2 : confsearch ligand conformer 835
          19          18           1
SMALL
USER_CHARGES
 
@<TRIPOS>ATOM
       1    C1      18.970242   16.725201   22.703451 C.2        1 MOL1         0.6115
       2    O1      17.807934   16.881872   22.384481 O.co2      1 MOL1        -0.6776
       3    O2      19.315998   16.321874   23.796443 O.co2      1 MOL1        -0.6776
       4    C2      20.051247   16.980899   21.654866 C.3        1 MOL1        -0.2013
       5    H1      19.876745   16.257946   20.849563 H          1 MOL1         0.0727
       6    H2      21.030554   16.739811   22.085861 H          1 MOL1         0.0727
       7    C3      20.066465   18.414147   21.052623 C.3        1 MOL1        -0.1910
       8    H3      20.602579   18.373421   20.094844 H          1 MOL1         0.0729
       9    H4      19.041923   18.730346   20.812050 H          1 MOL1         0.0729
      10    C4      20.758647   19.482267   21.935052 C.3        1 MOL1        -0.1909
      11    H5      20.847625   20.406160   21.347247 H          1 MOL1         0.0729
      12    H6      21.784313   19.163409   22.165651 H          1 MOL1         0.0729
      13    C5      20.006586   19.799841   23.246208 C.3        1 MOL1        -0.1884
      14    H7      18.952822   20.021014   23.026987 H          1 MOL1         0.0729
      15    H8      20.020129   18.925622   23.909506 H          1 MOL1         0.0729
      16    C6      20.639881   20.995446   23.986008 C.3        1 MOL1        -0.2899
      17    H9      20.099574   21.202492   24.918877 H          1 MOL1         0.0741
      18    H10     21.687893   20.789018   24.239811 H          1 MOL1         0.0741
      19    H11     20.608388   21.902265   23.367942 H          1 MOL1         0.0741
@<TRIPOS>BOND
    1     1     2    1
    2     1     3    2
    3     1     4    1
    4     4     5    1
    5     4     6    1
    6     4     7    1
    7     7     8    1
    8     7     9    1
    9     7    10    1
   10    10    11    1
   11    10    12    1
   12    10    13    1
   13    13    14    1
   14    13    15    1
   15    13    16    1
   16    16    17    1
   17    16    18    1
   18    16    19    1
@<TRIPOS>SUBSTRUCTURE
       1 MOL1            1 RESIDUE      1      MOL     
@<SCITEGIC>MOL_PROPERTY
VConf Rank
SciTegic.value.IntegerValue
835

@<SCITEGIC>MOL_PROPERTY
Conf_Id
SciTegic.value.IntegerValue
52

@<SCITEGIC>MOL_PROPERTY
Delta U+W
SciTegic.value.DoubleValue
2.070

@<SCITEGIC>MOL_PROPERTY
U+W
SciTegic.value.DoubleValue
-52.822

@<SCITEGIC>MOL_PROPERTY
Grad RMS
SciTegic.value.DoubleValue
0.000000

@<SCITEGIC>MOL_PROPERTY
U
SciTegic.value.DoubleValue
10.967

@<SCITEGIC>MOL_PROPERTY
W
SciTegic.value.DoubleValue
-63.789

@<SCITEGIC>MOL_PROPERTY
W(PB)
SciTegic.value.DoubleValue
-65.837

@<SCITEGIC>MOL_PROPERTY
W(SA)
SciTegic.value.DoubleValue
2.048

@<SCITEGIC>MOL_PROPERTY
Valence
SciTegic.value.DoubleValue
8.609

@<SCITEGIC>MOL_PROPERTY
Coulomb
SciTegic.value.DoubleValue
1.892

@<SCITEGIC>MOL_PROPERTY
VdW
SciTegic.value.DoubleValue
0.467

@<SCITEGIC>MOL_PROPERTY
VdW6
SciTegic.value.DoubleValue
-7.569

@<SCITEGIC>MOL_PROPERTY
VdW12
SciTegic.value.DoubleValue
8.035

@<SCITEGIC>MOL_PROPERTY
Bond
SciTegic.value.DoubleValue
0.170

@<SCITEGIC>MOL_PROPERTY
Angle
SciTegic.value.DoubleValue
3.196

@<SCITEGIC>MOL_PROPERTY
Pdih
SciTegic.value.DoubleValue
5.237

@<SCITEGIC>MOL_PROPERTY
Idih
SciTegic.value.DoubleValue
0.007

@<SCITEGIC>MOL_PROPERTY
Tether
SciTegic.value.DoubleValue
0.000

@<TRIPOS>MOLECULE
guest-7_confgen4.mol2 : confsearch ligand conformer 836
          19          18           1
SMALL
USER_CHARGES
 
@<TRIPOS>ATOM
       1    C1      20.299118   20.734043   21.624971 C.2        1 MOL1         0.6115
       2    O1      19.690359   21.618713   22.194959 O.co2      1 MOL1        -0.6776
       3    O2      21.494176   20.781087   21.409742 O.co2      1 MOL1        -0.6776
       4    C2      19.511683   19.562391   21.036278 C.3        1 MOL1        -0.2013
       5    H1      20.215656   18.792557   20.698173 H          1 MOL1         0.0727
       6    H2      19.018339   19.950408   20.137763 H          1 MOL1         0.0727
       7    C3      18.436005   18.934697   21.968098 C.3        1 MOL1        -0.1910
       8    H3      17.902070   19.726253   22.511821 H          1 MOL1         0.0729
       9    H4      17.682040   18.449553   21.333646 H          1 MOL1         0.0729
      10    C4      18.959863   17.870007   22.965688 C.3        1 MOL1        -0.1909
      11    H5      19.405104   17.028686   22.417075 H          1 MOL1         0.0729
      12    H6      18.089015   17.453211   23.489968 H          1 MOL1         0.0729
      13    C5      19.949680   18.401895   24.030276 C.3        1 MOL1        -0.1884
      14    H7      19.824826   19.485395   24.163674 H          1 MOL1         0.0729
      15    H8      19.706181   17.946227   24.999926 H          1 MOL1         0.0729
      16    C6      21.419932   18.067837   23.698786 C.3        1 MOL1        -0.2899
      17    H9      21.575791   16.981888   23.661929 H          1 MOL1         0.0741
      18    H10     21.718442   18.485728   22.730288 H          1 MOL1         0.0741
      19    H11     22.090451   18.479651   24.463922 H          1 MOL1         0.0741
@<TRIPOS>BOND
    1     1     2    1
    2     1     3    2
    3     1     4    1
    4     4     5    1
    5     4     6    1
    6     4     7    1
    7     7     8    1
    8     7     9    1
    9     7    10    1
   10    10    11    1
   11    10    12    1
   12    10    13    1
   13    13    14    1
   14    13    15    1
   15    13    16    1
   16    16    17    1
   17    16    18    1
   18    16    19    1
@<TRIPOS>SUBSTRUCTURE
       1 MOL1            1 RESIDUE      1      MOL     
@<SCITEGIC>MOL_PROPERTY
VConf Rank
SciTegic.value.IntegerValue
836

@<SCITEGIC>MOL_PROPERTY
Conf_Id
SciTegic.value.IntegerValue
66

@<SCITEGIC>MOL_PROPERTY
Delta U+W
SciTegic.value.DoubleValue
5.819

@<SCITEGIC>MOL_PROPERTY
U+W
SciTegic.value.DoubleValue
-49.072

@<SCITEGIC>MOL_PROPERTY
Grad RMS
SciTegic.value.DoubleValue
0.000000

@<SCITEGIC>MOL_PROPERTY
U
SciTegic.value.DoubleValue
15.324

@<SCITEGIC>MOL_PROPERTY
W
SciTegic.value.DoubleValue
-64.396

@<SCITEGIC>MOL_PROPERTY
W(PB)
SciTegic.value.DoubleValue
-66.382

@<SCITEGIC>MOL_PROPERTY
W(SA)
SciTegic.value.DoubleValue
1.986

@<SCITEGIC>MOL_PROPERTY
Valence
SciTegic.value.DoubleValue
11.748

@<SCITEGIC>MOL_PROPERTY
Coulomb
SciTegic.value.DoubleValue
3.201

@<SCITEGIC>MOL_PROPERTY
VdW
SciTegic.value.DoubleValue
0.375

@<SCITEGIC>MOL_PROPERTY
VdW6
SciTegic.value.DoubleValue
-8.854

@<SCITEGIC>MOL_PROPERTY
VdW12
SciTegic.value.DoubleValue
9.229

@<SCITEGIC>MOL_PROPERTY
Bond
SciTegic.value.DoubleValue
0.216

@<SCITEGIC>MOL_PROPERTY
Angle
SciTegic.value.DoubleValue
3.812

@<SCITEGIC>MOL_PROPERTY
Pdih
SciTegic.value.DoubleValue
7.699

@<SCITEGIC>MOL_PROPERTY
Idih
SciTegic.value.DoubleValue
0.022

@<SCITEGIC>MOL_PROPERTY
Tether
SciTegic.value.DoubleValue
0.000

@<TRIPOS>MOLECULE
guest-7_confgen4.mol2 : confsearch ligand conformer 837
          19          18           1
SMALL
USER_CHARGES
 
@<TRIPOS>ATOM
       1    C1      19.172315   21.805497   20.507000 C.2        1 MOL1         0.6115
       2    O1      18.897168   22.228661   19.402062 O.co2      1 MOL1        -0.6776
       3    O2      19.226610   22.513362   21.493976 O.co2      1 MOL1        -0.6776
       4    C2      19.458977   20.308017   20.629708 C.3        1 MOL1        -0.2013
       5    H1      20.285470   20.076189   19.947641 H          1 MOL1         0.0727
       6    H2      18.576515   19.774432   20.257421 H          1 MOL1         0.0727
       7    C3      19.805355   19.814238   22.059615 C.3        1 MOL1        -0.1910
       8    H3      20.686664   20.356758   22.428986 H          1 MOL1         0.0729
       9    H4      18.975939   20.054736   22.739098 H          1 MOL1         0.0729
      10    C4      20.079400   18.294985   22.091728 C.3        1 MOL1        -0.1909
      11    H5      20.908780   18.056772   21.411630 H          1 MOL1         0.0729
      12    H6      19.197139   17.754579   21.721960 H          1 MOL1         0.0729
      13    C5      20.423573   17.806196   23.514059 C.3        1 MOL1        -0.1884
      14    H7      21.306872   18.343147   23.886830 H          1 MOL1         0.0729
      15    H8      19.595395   18.040879   24.197094 H          1 MOL1         0.0729
      16    C6      20.696650   16.289087   23.542360 C.3        1 MOL1        -0.2899
      17    H9      21.541809   16.029900   22.891246 H          1 MOL1         0.0741
      18    H10     20.939587   15.958741   24.560673 H          1 MOL1         0.0741
      19    H11     19.817440   15.725346   23.203825 H          1 MOL1         0.0741
@<TRIPOS>BOND
    1     1     2    1
    2     1     3    2
    3     1     4    1
    4     4     5    1
    5     4     6    1
    6     4     7    1
    7     7     8    1
    8     7     9    1
    9     7    10    1
   10    10    11    1
   11    10    12    1
   12    10    13    1
   13    13    14    1
   14    13    15    1
   15    13    16    1
   16    16    17    1
   17    16    18    1
   18    16    19    1
@<TRIPOS>SUBSTRUCTURE
       1 MOL1            1 RESIDUE      1      MOL     
@<SCITEGIC>MOL_PROPERTY
VConf Rank
SciTegic.value.IntegerValue
837

@<SCITEGIC>MOL_PROPERTY
Conf_Id
SciTegic.value.IntegerValue
0

@<SCITEGIC>MOL_PROPERTY
Delta U+W
SciTegic.value.DoubleValue
0.000

@<SCITEGIC>MOL_PROPERTY
U+W
SciTegic.value.DoubleValue
-54.891

@<SCITEGIC>MOL_PROPERTY
Grad RMS
SciTegic.value.DoubleValue
0.000000

@<SCITEGIC>MOL_PROPERTY
U
SciTegic.value.DoubleValue
6.966

@<SCITEGIC>MOL_PROPERTY
W
SciTegic.value.DoubleValue
-61.857

@<SCITEGIC>MOL_PROPERTY
W(PB)
SciTegic.value.DoubleValue
-63.965

@<SCITEGIC>MOL_PROPERTY
W(SA)
SciTegic.value.DoubleValue
2.108

@<SCITEGIC>MOL_PROPERTY
Valence
SciTegic.value.DoubleValue
7.175

@<SCITEGIC>MOL_PROPERTY
Coulomb
SciTegic.value.DoubleValue
-1.360

@<SCITEGIC>MOL_PROPERTY
VdW
SciTegic.value.DoubleValue
1.151

@<SCITEGIC>MOL_PROPERTY
VdW6
SciTegic.value.DoubleValue
-5.641

@<SCITEGIC>MOL_PROPERTY
VdW12
SciTegic.value.DoubleValue
6.792

@<SCITEGIC>MOL_PROPERTY
Bond
SciTegic.value.DoubleValue
0.119

@<SCITEGIC>MOL_PROPERTY
Angle
SciTegic.value.DoubleValue
2.715

@<SCITEGIC>MOL_PROPERTY
Pdih
SciTegic.value.DoubleValue
4.340

@<SCITEGIC>MOL_PROPERTY
Idih
SciTegic.value.DoubleValue
0.000

@<SCITEGIC>MOL_PROPERTY
Tether
SciTegic.value.DoubleValue
0.000

@<TRIPOS>MOLECULE
guest-7_confgen4.mol2 : confsearch ligand conformer 838
          19          18           1
SMALL
USER_CHARGES
 
@<TRIPOS>ATOM
       1    C1      20.311705   22.052530   23.411401 C.2        1 MOL1         0.6115
       2    O1      21.445900   22.486170   23.369690 O.co2      1 MOL1        -0.6776
       3    O2      19.321077   22.754080   23.359763 O.co2      1 MOL1        -0.6776
       4    C2      20.120951   20.543372   23.513504 C.3        1 MOL1        -0.2013
       5    H1      19.204829   20.353502   24.085703 H          1 MOL1         0.0727
       6    H2      20.956237   20.132645   24.093456 H          1 MOL1         0.0727
       7    C3      20.039851   19.851721   22.130335 C.3        1 MOL1        -0.1910
       8    H3      19.206998   20.282677   21.557463 H          1 MOL1         0.0729
       9    H4      20.958490   20.061956   21.565134 H          1 MOL1         0.0729
      10    C4      19.846951   18.325535   22.261383 C.3        1 MOL1        -0.1909
      11    H5      18.928612   18.118666   22.827998 H          1 MOL1         0.0729
      12    H6      20.680398   17.897904   22.835570 H          1 MOL1         0.0729
      13    C5      19.766420   17.639177   20.881963 C.3        1 MOL1        -0.1884
      14    H7      18.932597   18.062967   20.305218 H          1 MOL1         0.0729
      15    H8      20.684231   17.842148   20.312824 H          1 MOL1         0.0729
      16    C6      19.573745   16.115461   21.016586 C.3        1 MOL1        -0.2899
      17    H9      19.518535   15.643630   20.026921 H          1 MOL1         0.0741
      18    H10     20.410441   15.660487   21.562811 H          1 MOL1         0.0741
      19    H11     18.645692   15.882973   21.555186 H          1 MOL1         0.0741
@<TRIPOS>BOND
    1     1     2    1
    2     1     3    2
    3     1     4    1
    4     4     5    1
    5     4     6    1
    6     4     7    1
    7     7     8    1
    8     7     9    1
    9     7    10    1
   10    10    11    1
   11    10    12    1
   12    10    13    1
   13    13    14    1
   14    13    15    1
   15    13    16    1
   16    16    17    1
   17    16    18    1
   18    16    19    1
@<TRIPOS>SUBSTRUCTURE
       1 MOL1            1 RESIDUE      1      MOL     
@<SCITEGIC>MOL_PROPERTY
VConf Rank
SciTegic.value.IntegerValue
838

@<SCITEGIC>MOL_PROPERTY
Conf_Id
SciTegic.value.IntegerValue
18

@<SCITEGIC>MOL_PROPERTY
Delta U+W
SciTegic.value.DoubleValue
-1.199

@<SCITEGIC>MOL_PROPERTY
U+W
SciTegic.value.DoubleValue
-56.090

@<SCITEGIC>MOL_PROPERTY
Grad RMS
SciTegic.value.DoubleValue
0.000000

@<SCITEGIC>MOL_PROPERTY
U
SciTegic.value.DoubleValue
5.975

@<SCITEGIC>MOL_PROPERTY
W
SciTegic.value.DoubleValue
-62.066

@<SCITEGIC>MOL_PROPERTY
W(PB)
SciTegic.value.DoubleValue
-64.219

@<SCITEGIC>MOL_PROPERTY
W(SA)
SciTegic.value.DoubleValue
2.153

@<SCITEGIC>MOL_PROPERTY
Valence
SciTegic.value.DoubleValue
6.673

@<SCITEGIC>MOL_PROPERTY
Coulomb
SciTegic.value.DoubleValue
-1.307

@<SCITEGIC>MOL_PROPERTY
VdW
SciTegic.value.DoubleValue
0.610

@<SCITEGIC>MOL_PROPERTY
VdW6
SciTegic.value.DoubleValue
-5.351

@<SCITEGIC>MOL_PROPERTY
VdW12
SciTegic.value.DoubleValue
5.961

@<SCITEGIC>MOL_PROPERTY
Bond
SciTegic.value.DoubleValue
0.086

@<SCITEGIC>MOL_PROPERTY
Angle
SciTegic.value.DoubleValue
2.253

@<SCITEGIC>MOL_PROPERTY
Pdih
SciTegic.value.DoubleValue
4.333

@<SCITEGIC>MOL_PROPERTY
Idih
SciTegic.value.DoubleValue
0.001

@<SCITEGIC>MOL_PROPERTY
Tether
SciTegic.value.DoubleValue
0.000

@<TRIPOS>MOLECULE
guest-7_confgen4.mol2 : confsearch ligand conformer 839
          19          18           1
SMALL
USER_CHARGES
 
@<TRIPOS>ATOM
       1    C1      17.297104   18.613135   23.918445 C.2        1 MOL1         0.6115
       2    O1      17.266771   18.130058   25.032897 O.co2      1 MOL1        -0.6776
       3    O2      16.412406   19.310957   23.463896 O.co2      1 MOL1        -0.6776
       4    C2      18.522158   18.346467   23.050982 C.3        1 MOL1        -0.2013
       5    H1      18.190315   18.311763   22.007182 H          1 MOL1         0.0727
       6    H2      18.907796   17.351432   23.303367 H          1 MOL1         0.0727
       7    C3      19.632603   19.413107   23.236380 C.3        1 MOL1        -0.1910
       8    H3      19.248391   20.398448   22.938397 H          1 MOL1         0.0729
       9    H4      19.876540   19.485696   24.305328 H          1 MOL1         0.0729
      10    C4      20.928770   19.098294   22.452559 C.3        1 MOL1        -0.1909
      11    H5      21.314939   18.116442   22.758904 H          1 MOL1         0.0729
      12    H6      21.693926   19.834734   22.733995 H          1 MOL1         0.0729
      13    C5      20.742260   19.129268   20.919012 C.3        1 MOL1        -0.1884
      14    H7      20.036572   18.348050   20.607460 H          1 MOL1         0.0729
      15    H8      20.308300   20.092685   20.617726 H          1 MOL1         0.0729
      16    C6      22.080459   18.918163   20.182856 C.3        1 MOL1        -0.2899
      17    H9      21.931242   18.939784   19.095494 H          1 MOL1         0.0741
      18    H10     22.800226   19.705783   20.441655 H          1 MOL1         0.0741
      19    H11     22.523869   17.948594   20.445020 H          1 MOL1         0.0741
@<TRIPOS>BOND
    1     1     2    1
    2     1     3    2
    3     1     4    1
    4     4     5    1
    5     4     6    1
    6     4     7    1
    7     7     8    1
    8     7     9    1
    9     7    10    1
   10    10    11    1
   11    10    12    1
   12    10    13    1
   13    13    14    1
   14    13    15    1
   15    13    16    1
   16    16    17    1
   17    16    18    1
   18    16    19    1
@<TRIPOS>SUBSTRUCTURE
       1 MOL1            1 RESIDUE      1      MOL     
@<SCITEGIC>MOL_PROPERTY
VConf Rank
SciTegic.value.IntegerValue
839

@<SCITEGIC>MOL_PROPERTY
Conf_Id
SciTegic.value.IntegerValue
34

@<SCITEGIC>MOL_PROPERTY
Delta U+W
SciTegic.value.DoubleValue
-0.563

@<SCITEGIC>MOL_PROPERTY
U+W
SciTegic.value.DoubleValue
-55.455

@<SCITEGIC>MOL_PROPERTY
Grad RMS
SciTegic.value.DoubleValue
0.000000

@<SCITEGIC>MOL_PROPERTY
U
SciTegic.value.DoubleValue
6.914

@<SCITEGIC>MOL_PROPERTY
W
SciTegic.value.DoubleValue
-62.369

@<SCITEGIC>MOL_PROPERTY
W(PB)
SciTegic.value.DoubleValue
-64.446

@<SCITEGIC>MOL_PROPERTY
W(SA)
SciTegic.value.DoubleValue
2.077

@<SCITEGIC>MOL_PROPERTY
Valence
SciTegic.value.DoubleValue
7.196

@<SCITEGIC>MOL_PROPERTY
Coulomb
SciTegic.value.DoubleValue
-1.020

@<SCITEGIC>MOL_PROPERTY
VdW
SciTegic.value.DoubleValue
0.738

@<SCITEGIC>MOL_PROPERTY
VdW6
SciTegic.value.DoubleValue
-6.010

@<SCITEGIC>MOL_PROPERTY
VdW12
SciTegic.value.DoubleValue
6.748

@<SCITEGIC>MOL_PROPERTY
Bond
SciTegic.value.DoubleValue
0.126

@<SCITEGIC>MOL_PROPERTY
Angle
SciTegic.value.DoubleValue
2.499

@<SCITEGIC>MOL_PROPERTY
Pdih
SciTegic.value.DoubleValue
4.570

@<SCITEGIC>MOL_PROPERTY
Idih
SciTegic.value.DoubleValue
0.001

@<SCITEGIC>MOL_PROPERTY
Tether
SciTegic.value.DoubleValue
0.000

@<TRIPOS>MOLECULE
guest-7_confgen4.mol2 : confsearch ligand conformer 840
          19          18           1
SMALL
USER_CHARGES
 
@<TRIPOS>ATOM
       1    C1      17.614284   18.218771   24.248630 C.2        1 MOL1         0.6115
       2    O1      16.710800   17.445477   23.999588 O.co2      1 MOL1        -0.6776
       3    O2      17.568747   19.040382   25.142579 O.co2      1 MOL1        -0.6776
       4    C2      18.864602   18.170097   23.377599 C.3        1 MOL1        -0.2013
       5    H1      19.011257   17.133796   23.050363 H          1 MOL1         0.0727
       6    H2      19.720506   18.436575   24.007886 H          1 MOL1         0.0727
       7    C3      18.776796   19.111620   22.148369 C.3        1 MOL1        -0.1910
       8    H3      17.860176   18.877066   21.589607 H          1 MOL1         0.0729
       9    H4      18.674831   20.151275   22.488999 H          1 MOL1         0.0729
      10    C4      19.985634   18.991342   21.190366 C.3        1 MOL1        -0.1909
      11    H5      19.784464   19.598769   20.297295 H          1 MOL1         0.0729
      12    H6      20.079693   17.952660   20.844967 H          1 MOL1         0.0729
      13    C5      21.318216   19.452993   21.821726 C.3        1 MOL1        -0.1884
      14    H7      21.208989   20.473872   22.213065 H          1 MOL1         0.0729
      15    H8      21.577280   18.809248   22.672515 H          1 MOL1         0.0729
      16    C6      22.470443   19.417973   20.797807 C.3        1 MOL1        -0.2899
      17    H9      22.619971   18.401814   20.409902 H          1 MOL1         0.0741
      18    H10     22.262373   20.082150   19.948712 H          1 MOL1         0.0741
      19    H11     23.409985   19.745462   21.261596 H          1 MOL1         0.0741
@<TRIPOS>BOND
    1     1     2    1
    2     1     3    2
    3     1     4    1
    4     4     5    1
    5     4     6    1
    6     4     7    1
    7     7     8    1
    8     7     9    1
    9     7    10    1
   10    10    11    1
   11    10    12    1
   12    10    13    1
   13    13    14    1
   14    13    15    1
   15    13    16    1
   16    16    17    1
   17    16    18    1
   18    16    19    1
@<TRIPOS>SUBSTRUCTURE
       1 MOL1            1 RESIDUE      1      MOL     
@<SCITEGIC>MOL_PROPERTY
VConf Rank
SciTegic.value.IntegerValue
840

@<SCITEGIC>MOL_PROPERTY
Conf_Id
SciTegic.value.IntegerValue
33

@<SCITEGIC>MOL_PROPERTY
Delta U+W
SciTegic.value.DoubleValue
-0.526

@<SCITEGIC>MOL_PROPERTY
U+W
SciTegic.value.DoubleValue
-55.418

@<SCITEGIC>MOL_PROPERTY
Grad RMS
SciTegic.value.DoubleValue
0.000000

@<SCITEGIC>MOL_PROPERTY
U
SciTegic.value.DoubleValue
6.914

@<SCITEGIC>MOL_PROPERTY
W
SciTegic.value.DoubleValue
-62.332

@<SCITEGIC>MOL_PROPERTY
W(PB)
SciTegic.value.DoubleValue
-64.421

@<SCITEGIC>MOL_PROPERTY
W(SA)
SciTegic.value.DoubleValue
2.090

@<SCITEGIC>MOL_PROPERTY
Valence
SciTegic.value.DoubleValue
7.196

@<SCITEGIC>MOL_PROPERTY
Coulomb
SciTegic.value.DoubleValue
-1.020

@<SCITEGIC>MOL_PROPERTY
VdW
SciTegic.value.DoubleValue
0.738

@<SCITEGIC>MOL_PROPERTY
VdW6
SciTegic.value.DoubleValue
-6.010

@<SCITEGIC>MOL_PROPERTY
VdW12
SciTegic.value.DoubleValue
6.748

@<SCITEGIC>MOL_PROPERTY
Bond
SciTegic.value.DoubleValue
0.126

@<SCITEGIC>MOL_PROPERTY
Angle
SciTegic.value.DoubleValue
2.499

@<SCITEGIC>MOL_PROPERTY
Pdih
SciTegic.value.DoubleValue
4.570

@<SCITEGIC>MOL_PROPERTY
Idih
SciTegic.value.DoubleValue
0.001

@<SCITEGIC>MOL_PROPERTY
Tether
SciTegic.value.DoubleValue
0.000

@<TRIPOS>MOLECULE
guest-7_confgen4.mol2 : confsearch ligand conformer 841
          19          18           1
SMALL
USER_CHARGES
 
@<TRIPOS>ATOM
       1    C1      22.979881   18.788004   22.984028 C.2        1 MOL1         0.6115
       2    O1      23.485537   17.829735   22.434254 O.co2      1 MOL1        -0.6776
       3    O2      23.562010   19.836758   23.177640 O.co2      1 MOL1        -0.6776
       4    C2      21.529597   18.674362   23.440385 C.3        1 MOL1        -0.2013
       5    H1      21.408347   19.283253   24.344392 H          1 MOL1         0.0727
       6    H2      21.342046   17.631753   23.724142 H          1 MOL1         0.0727
       7    C3      20.519829   19.121713   22.354711 C.3        1 MOL1        -0.1910
       8    H3      20.726443   20.163852   22.074539 H          1 MOL1         0.0729
       9    H4      20.672419   18.511729   21.454568 H          1 MOL1         0.0729
      10    C4      19.058436   18.992789   22.842944 C.3        1 MOL1        -0.1909
      11    H5      18.944677   19.551289   23.782162 H          1 MOL1         0.0729
      12    H6      18.837145   17.942325   23.076527 H          1 MOL1         0.0729
      13    C5      18.022370   19.525634   21.826465 C.3        1 MOL1        -0.1884
      14    H7      17.028249   19.507582   22.294055 H          1 MOL1         0.0729
      15    H8      18.237106   20.577970   21.594507 H          1 MOL1         0.0729
      16    C6      17.971436   18.705560   20.519279 C.3        1 MOL1        -0.2899
      17    H9      17.786800   17.643812   20.728463 H          1 MOL1         0.0741
      18    H10     17.163411   19.067627   19.870476 H          1 MOL1         0.0741
      19    H11     18.910250   18.788068   19.957528 H          1 MOL1         0.0741
@<TRIPOS>BOND
    1     1     2    1
    2     1     3    2
    3     1     4    1
    4     4     5    1
    5     4     6    1
    6     4     7    1
    7     7     8    1
    8     7     9    1
    9     7    10    1
   10    10    11    1
   11    10    12    1
   12    10    13    1
   13    13    14    1
   14    13    15    1
   15    13    16    1
   16    16    17    1
   17    16    18    1
   18    16    19    1
@<TRIPOS>SUBSTRUCTURE
       1 MOL1            1 RESIDUE      1      MOL     
@<SCITEGIC>MOL_PROPERTY
VConf Rank
SciTegic.value.IntegerValue
841

@<SCITEGIC>MOL_PROPERTY
Conf_Id
SciTegic.value.IntegerValue
42

@<SCITEGIC>MOL_PROPERTY
Delta U+W
SciTegic.value.DoubleValue
-0.344

@<SCITEGIC>MOL_PROPERTY
U+W
SciTegic.value.DoubleValue
-55.236

@<SCITEGIC>MOL_PROPERTY
Grad RMS
SciTegic.value.DoubleValue
0.000000

@<SCITEGIC>MOL_PROPERTY
U
SciTegic.value.DoubleValue
7.244

@<SCITEGIC>MOL_PROPERTY
W
SciTegic.value.DoubleValue
-62.479

@<SCITEGIC>MOL_PROPERTY
W(PB)
SciTegic.value.DoubleValue
-64.610

@<SCITEGIC>MOL_PROPERTY
W(SA)
SciTegic.value.DoubleValue
2.130

@<SCITEGIC>MOL_PROPERTY
Valence
SciTegic.value.DoubleValue
7.174

@<SCITEGIC>MOL_PROPERTY
Coulomb
SciTegic.value.DoubleValue
-0.669

@<SCITEGIC>MOL_PROPERTY
VdW
SciTegic.value.DoubleValue
0.739

@<SCITEGIC>MOL_PROPERTY
VdW6
SciTegic.value.DoubleValue
-5.969

@<SCITEGIC>MOL_PROPERTY
VdW12
SciTegic.value.DoubleValue
6.708

@<SCITEGIC>MOL_PROPERTY
Bond
SciTegic.value.DoubleValue
0.116

@<SCITEGIC>MOL_PROPERTY
Angle
SciTegic.value.DoubleValue
2.481

@<SCITEGIC>MOL_PROPERTY
Pdih
SciTegic.value.DoubleValue
4.576

@<SCITEGIC>MOL_PROPERTY
Idih
SciTegic.value.DoubleValue
0.000

@<SCITEGIC>MOL_PROPERTY
Tether
SciTegic.value.DoubleValue
0.000

@<TRIPOS>MOLECULE
guest-7_confgen4.mol2 : confsearch ligand conformer 842
          19          18           1
SMALL
USER_CHARGES
 
@<TRIPOS>ATOM
       1    C1      22.812294   20.241174   23.118523 C.2        1 MOL1         0.6115
       2    O1      22.645482   21.414245   23.387405 O.co2      1 MOL1        -0.6776
       3    O2      23.822418   19.806771   22.601620 O.co2      1 MOL1        -0.6776
       4    C2      21.684916   19.263228   23.430201 C.3        1 MOL1        -0.2013
       5    H1      21.159772   19.621691   24.323764 H          1 MOL1         0.0727
       6    H2      22.134052   18.295584   23.684405 H          1 MOL1         0.0727
       7    C3      20.688674   19.098598   22.255960 C.3        1 MOL1        -0.1910
       8    H3      20.266752   20.081382   22.007487 H          1 MOL1         0.0729
       9    H4      21.230783   18.748382   21.366743 H          1 MOL1         0.0729
      10    C4      19.555196   18.105102   22.600712 C.3        1 MOL1        -0.1909
      11    H5      18.982351   18.480185   23.459878 H          1 MOL1         0.0729
      12    H6      19.999562   17.150889   22.915368 H          1 MOL1         0.0729
      13    C5      18.596119   17.833814   21.418695 C.3        1 MOL1        -0.1884
      14    H7      19.164781   17.453113   20.559034 H          1 MOL1         0.0729
      15    H8      17.898178   17.035704   21.707042 H          1 MOL1         0.0729
      16    C6      17.782734   19.075727   20.994539 C.3        1 MOL1        -0.2899
      17    H9      18.432691   19.861356   20.589463 H          1 MOL1         0.0741
      18    H10     17.056628   18.810900   20.215066 H          1 MOL1         0.0741
      19    H11     17.228136   19.491711   21.845735 H          1 MOL1         0.0741
@<TRIPOS>BOND
    1     1     2    1
    2     1     3    2
    3     1     4    1
    4     4     5    1
    5     4     6    1
    6     4     7    1
    7     7     8    1
    8     7     9    1
    9     7    10    1
   10    10    11    1
   11    10    12    1
   12    10    13    1
   13    13    14    1
   14    13    15    1
   15    13    16    1
   16    16    17    1
   17    16    18    1
   18    16    19    1
@<TRIPOS>SUBSTRUCTURE
       1 MOL1            1 RESIDUE      1      MOL     
@<SCITEGIC>MOL_PROPERTY
VConf Rank
SciTegic.value.IntegerValue
842

@<SCITEGIC>MOL_PROPERTY
Conf_Id
SciTegic.value.IntegerValue
41

@<SCITEGIC>MOL_PROPERTY
Delta U+W
SciTegic.value.DoubleValue
-0.361

@<SCITEGIC>MOL_PROPERTY
U+W
SciTegic.value.DoubleValue
-55.252

@<SCITEGIC>MOL_PROPERTY
Grad RMS
SciTegic.value.DoubleValue
0.000000

@<SCITEGIC>MOL_PROPERTY
U
SciTegic.value.DoubleValue
7.244

@<SCITEGIC>MOL_PROPERTY
W
SciTegic.value.DoubleValue
-62.496

@<SCITEGIC>MOL_PROPERTY
W(PB)
SciTegic.value.DoubleValue
-64.596

@<SCITEGIC>MOL_PROPERTY
W(SA)
SciTegic.value.DoubleValue
2.099

@<SCITEGIC>MOL_PROPERTY
Valence
SciTegic.value.DoubleValue
7.174

@<SCITEGIC>MOL_PROPERTY
Coulomb
SciTegic.value.DoubleValue
-0.669

@<SCITEGIC>MOL_PROPERTY
VdW
SciTegic.value.DoubleValue
0.739

@<SCITEGIC>MOL_PROPERTY
VdW6
SciTegic.value.DoubleValue
-5.969

@<SCITEGIC>MOL_PROPERTY
VdW12
SciTegic.value.DoubleValue
6.708

@<SCITEGIC>MOL_PROPERTY
Bond
SciTegic.value.DoubleValue
0.116

@<SCITEGIC>MOL_PROPERTY
Angle
SciTegic.value.DoubleValue
2.481

@<SCITEGIC>MOL_PROPERTY
Pdih
SciTegic.value.DoubleValue
4.576

@<SCITEGIC>MOL_PROPERTY
Idih
SciTegic.value.DoubleValue
0.000

@<SCITEGIC>MOL_PROPERTY
Tether
SciTegic.value.DoubleValue
0.000

@<TRIPOS>MOLECULE
guest-7_confgen4.mol2 : confsearch ligand conformer 843
          19          18           1
SMALL
USER_CHARGES
 
@<TRIPOS>ATOM
       1    C1      17.981207   17.243071   23.672752 C.2        1 MOL1         0.6115
       2    O1      17.083447   18.028568   23.904211 O.co2      1 MOL1        -0.6776
       3    O2      17.811061   16.169325   23.129797 O.co2      1 MOL1        -0.6776
       4    C2      19.396843   17.613457   24.106495 C.3        1 MOL1        -0.2013
       5    H1      19.825622   16.738055   24.608424 H          1 MOL1         0.0727
       6    H2      19.336057   18.411251   24.856706 H          1 MOL1         0.0727
       7    C3      20.322131   18.045694   22.939403 C.3        1 MOL1        -0.1910
       8    H3      21.346622   18.157251   23.319546 H          1 MOL1         0.0729
       9    H4      20.350299   17.248925   22.183098 H          1 MOL1         0.0729
      10    C4      19.874172   19.372151   22.285833 C.3        1 MOL1        -0.1909
      11    H5      19.835017   20.162238   23.048237 H          1 MOL1         0.0729
      12    H6      18.855819   19.263394   21.887647 H          1 MOL1         0.0729
      13    C5      20.826129   19.798874   21.149043 C.3        1 MOL1        -0.1884
      14    H7      21.845746   19.913325   21.542377 H          1 MOL1         0.0729
      15    H8      20.865305   19.011297   20.383758 H          1 MOL1         0.0729
      16    C6      20.376564   21.122650   20.499056 C.3        1 MOL1        -0.2899
      17    H9      20.358535   21.935919   21.236399 H          1 MOL1         0.0741
      18    H10     21.063839   21.410910   19.693050 H          1 MOL1         0.0741
      19    H11     19.370806   21.027253   20.069183 H          1 MOL1         0.0741
@<TRIPOS>BOND
    1     1     2    1
    2     1     3    2
    3     1     4    1
    4     4     5    1
    5     4     6    1
    6     4     7    1
    7     7     8    1
    8     7     9    1
    9     7    10    1
   10    10    11    1
   11    10    12    1
   12    10    13    1
   13    13    14    1
   14    13    15    1
   15    13    16    1
   16    16    17    1
   17    16    18    1
   18    16    19    1
@<TRIPOS>SUBSTRUCTURE
       1 MOL1            1 RESIDUE      1      MOL     
@<SCITEGIC>MOL_PROPERTY
VConf Rank
SciTegic.value.IntegerValue
843

@<SCITEGIC>MOL_PROPERTY
Conf_Id
SciTegic.value.IntegerValue
36

@<SCITEGIC>MOL_PROPERTY
Delta U+W
SciTegic.value.DoubleValue
-0.079

@<SCITEGIC>MOL_PROPERTY
U+W
SciTegic.value.DoubleValue
-54.971

@<SCITEGIC>MOL_PROPERTY
Grad RMS
SciTegic.value.DoubleValue
0.000000

@<SCITEGIC>MOL_PROPERTY
U
SciTegic.value.DoubleValue
8.266

@<SCITEGIC>MOL_PROPERTY
W
SciTegic.value.DoubleValue
-63.237

@<SCITEGIC>MOL_PROPERTY
W(PB)
SciTegic.value.DoubleValue
-65.340

@<SCITEGIC>MOL_PROPERTY
W(SA)
SciTegic.value.DoubleValue
2.103

@<SCITEGIC>MOL_PROPERTY
Valence
SciTegic.value.DoubleValue
6.935

@<SCITEGIC>MOL_PROPERTY
Coulomb
SciTegic.value.DoubleValue
0.874

@<SCITEGIC>MOL_PROPERTY
VdW
SciTegic.value.DoubleValue
0.457

@<SCITEGIC>MOL_PROPERTY
VdW6
SciTegic.value.DoubleValue
-6.205

@<SCITEGIC>MOL_PROPERTY
VdW12
SciTegic.value.DoubleValue
6.662

@<SCITEGIC>MOL_PROPERTY
Bond
SciTegic.value.DoubleValue
0.107

@<SCITEGIC>MOL_PROPERTY
Angle
SciTegic.value.DoubleValue
2.420

@<SCITEGIC>MOL_PROPERTY
Pdih
SciTegic.value.DoubleValue
4.407

@<SCITEGIC>MOL_PROPERTY
Idih
SciTegic.value.DoubleValue
0.001

@<SCITEGIC>MOL_PROPERTY
Tether
SciTegic.value.DoubleValue
0.000

@<TRIPOS>MOLECULE
guest-7_confgen4.mol2 : confsearch ligand conformer 844
          19          18           1
SMALL
USER_CHARGES
 
@<TRIPOS>ATOM
       1    C1      18.569850   21.199794   21.510967 C.2        1 MOL1         0.6115
       2    O1      17.463911   20.811747   21.831705 O.co2      1 MOL1        -0.6776
       3    O2      18.837443   21.626959   20.405252 O.co2      1 MOL1        -0.6776
       4    C2      19.679410   21.170041   22.558505 C.3        1 MOL1        -0.2013
       5    H1      19.221296   21.093910   23.552147 H          1 MOL1         0.0727
       6    H2      20.193279   22.137782   22.519441 H          1 MOL1         0.0727
       7    C3      20.709369   20.028579   22.355180 C.3        1 MOL1        -0.1910
       8    H3      21.138371   20.101028   21.346051 H          1 MOL1         0.0729
       9    H4      21.538665   20.166911   23.062052 H          1 MOL1         0.0729
      10    C4      20.092104   18.627348   22.562167 C.3        1 MOL1        -0.1909
      11    H5      19.272185   18.474536   21.846762 H          1 MOL1         0.0729
      12    H6      19.653195   18.564346   23.567364 H          1 MOL1         0.0729
      13    C5      21.140896   17.509466   22.386155 C.3        1 MOL1        -0.1884
      14    H7      21.579876   17.568696   21.380540 H          1 MOL1         0.0729
      15    H8      21.961613   17.654730   23.102223 H          1 MOL1         0.0729
      16    C6      20.521936   16.112699   22.593306 C.3        1 MOL1        -0.2899
      17    H9      19.717895   15.928212   21.868789 H          1 MOL1         0.0741
      18    H10     21.280886   15.330146   22.464107 H          1 MOL1         0.0741
      19    H11     20.102505   16.014886   23.603215 H          1 MOL1         0.0741
@<TRIPOS>BOND
    1     1     2    1
    2     1     3    2
    3     1     4    1
    4     4     5    1
    5     4     6    1
    6     4     7    1
    7     7     8    1
    8     7     9    1
    9     7    10    1
   10    10    11    1
   11    10    12    1
   12    10    13    1
   13    13    14    1
   14    13    15    1
   15    13    16    1
   16    16    17    1
   17    16    18    1
   18    16    19    1
@<TRIPOS>SUBSTRUCTURE
       1 MOL1            1 RESIDUE      1      MOL     
@<SCITEGIC>MOL_PROPERTY
VConf Rank
SciTegic.value.IntegerValue
844

@<SCITEGIC>MOL_PROPERTY
Conf_Id
SciTegic.value.IntegerValue
35

@<SCITEGIC>MOL_PROPERTY
Delta U+W
SciTegic.value.DoubleValue
-0.030

@<SCITEGIC>MOL_PROPERTY
U+W
SciTegic.value.DoubleValue
-54.921

@<SCITEGIC>MOL_PROPERTY
Grad RMS
SciTegic.value.DoubleValue
0.000000

@<SCITEGIC>MOL_PROPERTY
U
SciTegic.value.DoubleValue
8.267

@<SCITEGIC>MOL_PROPERTY
W
SciTegic.value.DoubleValue
-63.188

@<SCITEGIC>MOL_PROPERTY
W(PB)
SciTegic.value.DoubleValue
-65.294

@<SCITEGIC>MOL_PROPERTY
W(SA)
SciTegic.value.DoubleValue
2.106

@<SCITEGIC>MOL_PROPERTY
Valence
SciTegic.value.DoubleValue
6.935

@<SCITEGIC>MOL_PROPERTY
Coulomb
SciTegic.value.DoubleValue
0.875

@<SCITEGIC>MOL_PROPERTY
VdW
SciTegic.value.DoubleValue
0.457

@<SCITEGIC>MOL_PROPERTY
VdW6
SciTegic.value.DoubleValue
-6.205

@<SCITEGIC>MOL_PROPERTY
VdW12
SciTegic.value.DoubleValue
6.662

@<SCITEGIC>MOL_PROPERTY
Bond
SciTegic.value.DoubleValue
0.107

@<SCITEGIC>MOL_PROPERTY
Angle
SciTegic.value.DoubleValue
2.420

@<SCITEGIC>MOL_PROPERTY
Pdih
SciTegic.value.DoubleValue
4.407

@<SCITEGIC>MOL_PROPERTY
Idih
SciTegic.value.DoubleValue
0.001

@<SCITEGIC>MOL_PROPERTY
Tether
SciTegic.value.DoubleValue
0.000

@<TRIPOS>MOLECULE
guest-7_confgen4.mol2 : confsearch ligand conformer 845
          19          18           1
SMALL
USER_CHARGES
 
@<TRIPOS>ATOM
       1    C1      17.941614   20.390593   21.001347 C.2        1 MOL1         0.6115
       2    O1      16.830129   19.981516   21.273310 O.co2      1 MOL1        -0.6776
       3    O2      18.310526   20.630238   19.868598 O.co2      1 MOL1        -0.6776
       4    C2      18.918324   20.636654   22.148069 C.3        1 MOL1        -0.2013
       5    H1      18.374236   21.178560   22.930629 H          1 MOL1         0.0727
       6    H2      19.713614   21.304037   21.794416 H          1 MOL1         0.0727
       7    C3      19.531695   19.343505   22.745784 C.3        1 MOL1        -0.1910
       8    H3      20.091472   19.610025   23.651305 H          1 MOL1         0.0729
       9    H4      18.723335   18.668493   23.059221 H          1 MOL1         0.0729
      10    C4      20.467363   18.615309   21.751329 C.3        1 MOL1        -0.1909
      11    H5      21.296135   19.278785   21.468921 H          1 MOL1         0.0729
      12    H6      19.914274   18.400136   20.826766 H          1 MOL1         0.0729
      13    C5      21.032972   17.285552   22.301476 C.3        1 MOL1        -0.1884
      14    H7      20.206130   16.618882   22.582888 H          1 MOL1         0.0729
      15    H8      21.581504   16.776756   21.496827 H          1 MOL1         0.0729
      16    C6      21.980919   17.474979   23.505442 C.3        1 MOL1        -0.2899
      17    H9      21.447326   17.873503   24.377267 H          1 MOL1         0.0741
      18    H10     22.424945   16.514873   23.798655 H          1 MOL1         0.0741
      19    H11     22.798916   18.163657   23.256945 H          1 MOL1         0.0741
@<TRIPOS>BOND
    1     1     2    1
    2     1     3    2
    3     1     4    1
    4     4     5    1
    5     4     6    1
    6     4     7    1
    7     7     8    1
    8     7     9    1
    9     7    10    1
   10    10    11    1
   11    10    12    1
   12    10    13    1
   13    13    14    1
   14    13    15    1
   15    13    16    1
   16    16    17    1
   17    16    18    1
   18    16    19    1
@<TRIPOS>SUBSTRUCTURE
       1 MOL1            1 RESIDUE      1      MOL     
@<SCITEGIC>MOL_PROPERTY
VConf Rank
SciTegic.value.IntegerValue
845

@<SCITEGIC>MOL_PROPERTY
Conf_Id
SciTegic.value.IntegerValue
74

@<SCITEGIC>MOL_PROPERTY
Delta U+W
SciTegic.value.DoubleValue
0.797

@<SCITEGIC>MOL_PROPERTY
U+W
SciTegic.value.DoubleValue
-54.095

@<SCITEGIC>MOL_PROPERTY
Grad RMS
SciTegic.value.DoubleValue
0.000000

@<SCITEGIC>MOL_PROPERTY
U
SciTegic.value.DoubleValue
8.869

@<SCITEGIC>MOL_PROPERTY
W
SciTegic.value.DoubleValue
-62.964

@<SCITEGIC>MOL_PROPERTY
W(PB)
SciTegic.value.DoubleValue
-65.046

@<SCITEGIC>MOL_PROPERTY
W(SA)
SciTegic.value.DoubleValue
2.082

@<SCITEGIC>MOL_PROPERTY
Valence
SciTegic.value.DoubleValue
7.469

@<SCITEGIC>MOL_PROPERTY
Coulomb
SciTegic.value.DoubleValue
0.762

@<SCITEGIC>MOL_PROPERTY
VdW
SciTegic.value.DoubleValue
0.639

@<SCITEGIC>MOL_PROPERTY
VdW6
SciTegic.value.DoubleValue
-6.782

@<SCITEGIC>MOL_PROPERTY
VdW12
SciTegic.value.DoubleValue
7.421

@<SCITEGIC>MOL_PROPERTY
Bond
SciTegic.value.DoubleValue
0.141

@<SCITEGIC>MOL_PROPERTY
Angle
SciTegic.value.DoubleValue
2.667

@<SCITEGIC>MOL_PROPERTY
Pdih
SciTegic.value.DoubleValue
4.660

@<SCITEGIC>MOL_PROPERTY
Idih
SciTegic.value.DoubleValue
0.001

@<SCITEGIC>MOL_PROPERTY
Tether
SciTegic.value.DoubleValue
0.000

@<TRIPOS>MOLECULE
guest-7_confgen4.mol2 : confsearch ligand conformer 846
          19          18           1
SMALL
USER_CHARGES
 
@<TRIPOS>ATOM
       1    C1      17.411070   18.599161   23.674974 C.2        1 MOL1         0.6115
       2    O1      16.568546   19.433032   23.941870 O.co2      1 MOL1        -0.6776
       3    O2      17.174545   17.411108   23.580590 O.co2      1 MOL1        -0.6776
       4    C2      18.838914   19.072218   23.426588 C.3        1 MOL1        -0.2013
       5    H1      19.516616   18.281215   23.767460 H          1 MOL1         0.0727
       6    H2      19.021228   19.951609   24.055704 H          1 MOL1         0.0727
       7    C3      19.108042   19.414201   21.938231 C.3        1 MOL1        -0.1910
       8    H3      18.959560   18.517124   21.322613 H          1 MOL1         0.0729
       9    H4      18.355759   20.141009   21.602047 H          1 MOL1         0.0729
      10    C4      20.516012   20.009057   21.684272 C.3        1 MOL1        -0.1909
      11    H5      20.604660   20.958598   22.229532 H          1 MOL1         0.0729
      12    H6      20.604940   20.261872   20.618929 H          1 MOL1         0.0729
      13    C5      21.700416   19.094156   22.081820 C.3        1 MOL1        -0.1884
      14    H7      22.638609   19.625521   21.870812 H          1 MOL1         0.0729
      15    H8      21.692279   18.912089   23.164592 H          1 MOL1         0.0729
      16    C6      21.712562   17.747218   21.327494 C.3        1 MOL1        -0.2899
      17    H9      21.697809   17.905065   20.241263 H          1 MOL1         0.0741
      18    H10     22.617092   17.176633   21.574626 H          1 MOL1         0.0741
      19    H11     20.846125   17.130680   21.598480 H          1 MOL1         0.0741
@<TRIPOS>BOND
    1     1     2    1
    2     1     3    2
    3     1     4    1
    4     4     5    1
    5     4     6    1
    6     4     7    1
    7     7     8    1
    8     7     9    1
    9     7    10    1
   10    10    11    1
   11    10    12    1
   12    10    13    1
   13    13    14    1
   14    13    15    1
   15    13    16    1
   16    16    17    1
   17    16    18    1
   18    16    19    1
@<TRIPOS>SUBSTRUCTURE
       1 MOL1            1 RESIDUE      1      MOL     
@<SCITEGIC>MOL_PROPERTY
VConf Rank
SciTegic.value.IntegerValue
846

@<SCITEGIC>MOL_PROPERTY
Conf_Id
SciTegic.value.IntegerValue
67

@<SCITEGIC>MOL_PROPERTY
Delta U+W
SciTegic.value.DoubleValue
0.308

@<SCITEGIC>MOL_PROPERTY
U+W
SciTegic.value.DoubleValue
-54.583

@<SCITEGIC>MOL_PROPERTY
Grad RMS
SciTegic.value.DoubleValue
0.000000

@<SCITEGIC>MOL_PROPERTY
U
SciTegic.value.DoubleValue
8.219

@<SCITEGIC>MOL_PROPERTY
W
SciTegic.value.DoubleValue
-62.802

@<SCITEGIC>MOL_PROPERTY
W(PB)
SciTegic.value.DoubleValue
-64.859

@<SCITEGIC>MOL_PROPERTY
W(SA)
SciTegic.value.DoubleValue
2.057

@<SCITEGIC>MOL_PROPERTY
Valence
SciTegic.value.DoubleValue
7.609

@<SCITEGIC>MOL_PROPERTY
Coulomb
SciTegic.value.DoubleValue
-0.089

@<SCITEGIC>MOL_PROPERTY
VdW
SciTegic.value.DoubleValue
0.699

@<SCITEGIC>MOL_PROPERTY
VdW6
SciTegic.value.DoubleValue
-6.924

@<SCITEGIC>MOL_PROPERTY
VdW12
SciTegic.value.DoubleValue
7.623

@<SCITEGIC>MOL_PROPERTY
Bond
SciTegic.value.DoubleValue
0.163

@<SCITEGIC>MOL_PROPERTY
Angle
SciTegic.value.DoubleValue
2.870

@<SCITEGIC>MOL_PROPERTY
Pdih
SciTegic.value.DoubleValue
4.576

@<SCITEGIC>MOL_PROPERTY
Idih
SciTegic.value.DoubleValue
0.001

@<SCITEGIC>MOL_PROPERTY
Tether
SciTegic.value.DoubleValue
0.000

@<TRIPOS>MOLECULE
guest-7_confgen4.mol2 : confsearch ligand conformer 847
          19          18           1
SMALL
USER_CHARGES
 
@<TRIPOS>ATOM
       1    C1      20.905690   20.065763   19.761905 C.2        1 MOL1         0.6115
       2    O1      20.292084   20.237472   18.727291 O.co2      1 MOL1        -0.6776
       3    O2      22.115832   19.972300   19.817959 O.co2      1 MOL1        -0.6776
       4    C2      20.111950   19.941421   21.057565 C.3        1 MOL1        -0.2013
       5    H1      19.216070   20.567618   20.970215 H          1 MOL1         0.0727
       6    H2      20.724029   20.358715   21.865268 H          1 MOL1         0.0727
       7    C3      19.712431   18.478013   21.379140 C.3        1 MOL1        -0.1910
       8    H3      19.180168   18.059739   20.513725 H          1 MOL1         0.0729
       9    H4      20.617658   17.868723   21.502053 H          1 MOL1         0.0729
      10    C4      18.804903   18.343926   22.627794 C.3        1 MOL1        -0.1909
      11    H5      18.535296   17.286696   22.755694 H          1 MOL1         0.0729
      12    H6      17.862425   18.876649   22.441424 H          1 MOL1         0.0729
      13    C5      19.419488   18.866843   23.949438 C.3        1 MOL1        -0.1884
      14    H7      19.601424   19.947545   23.881682 H          1 MOL1         0.0729
      15    H8      18.683416   18.733209   24.754062 H          1 MOL1         0.0729
      16    C6      20.724376   18.143058   24.345419 C.3        1 MOL1        -0.2899
      17    H9      21.526718   18.344717   23.624413 H          1 MOL1         0.0741
      18    H10     21.068962   18.483684   25.330330 H          1 MOL1         0.0741
      19    H11     20.571341   17.057260   24.396929 H          1 MOL1         0.0741
@<TRIPOS>BOND
    1     1     2    1
    2     1     3    2
    3     1     4    1
    4     4     5    1
    5     4     6    1
    6     4     7    1
    7     7     8    1
    8     7     9    1
    9     7    10    1
   10    10    11    1
   11    10    12    1
   12    10    13    1
   13    13    14    1
   14    13    15    1
   15    13    16    1
   16    16    17    1
   17    16    18    1
   18    16    19    1
@<TRIPOS>SUBSTRUCTURE
       1 MOL1            1 RESIDUE      1      MOL     
@<SCITEGIC>MOL_PROPERTY
VConf Rank
SciTegic.value.IntegerValue
847

@<SCITEGIC>MOL_PROPERTY
Conf_Id
SciTegic.value.IntegerValue
21

@<SCITEGIC>MOL_PROPERTY
Delta U+W
SciTegic.value.DoubleValue
0.319

@<SCITEGIC>MOL_PROPERTY
U+W
SciTegic.value.DoubleValue
-54.572

@<SCITEGIC>MOL_PROPERTY
Grad RMS
SciTegic.value.DoubleValue
0.000000

@<SCITEGIC>MOL_PROPERTY
U
SciTegic.value.DoubleValue
8.220

@<SCITEGIC>MOL_PROPERTY
W
SciTegic.value.DoubleValue
-62.792

@<SCITEGIC>MOL_PROPERTY
W(PB)
SciTegic.value.DoubleValue
-64.830

@<SCITEGIC>MOL_PROPERTY
W(SA)
SciTegic.value.DoubleValue
2.038

@<SCITEGIC>MOL_PROPERTY
Valence
SciTegic.value.DoubleValue
7.609

@<SCITEGIC>MOL_PROPERTY
Coulomb
SciTegic.value.DoubleValue
-0.088

@<SCITEGIC>MOL_PROPERTY
VdW
SciTegic.value.DoubleValue
0.699

@<SCITEGIC>MOL_PROPERTY
VdW6
SciTegic.value.DoubleValue
-6.924

@<SCITEGIC>MOL_PROPERTY
VdW12
SciTegic.value.DoubleValue
7.623

@<SCITEGIC>MOL_PROPERTY
Bond
SciTegic.value.DoubleValue
0.163

@<SCITEGIC>MOL_PROPERTY
Angle
SciTegic.value.DoubleValue
2.870

@<SCITEGIC>MOL_PROPERTY
Pdih
SciTegic.value.DoubleValue
4.576

@<SCITEGIC>MOL_PROPERTY
Idih
SciTegic.value.DoubleValue
0.000

@<SCITEGIC>MOL_PROPERTY
Tether
SciTegic.value.DoubleValue
0.000

@<TRIPOS>MOLECULE
guest-7_confgen4.mol2 : confsearch ligand conformer 848
          19          18           1
SMALL
USER_CHARGES
 
@<TRIPOS>ATOM
       1    C1      17.212407   18.527571   23.052082 C.2        1 MOL1         0.6115
       2    O1      16.710927   18.253974   24.124510 O.co2      1 MOL1        -0.6776
       3    O2      16.609689   19.069445   22.146899 O.co2      1 MOL1        -0.6776
       4    C2      18.683256   18.188795   22.837805 C.3        1 MOL1        -0.2013
       5    H1      18.822777   17.954132   21.777951 H          1 MOL1         0.0727
       6    H2      18.904644   17.273217   23.399134 H          1 MOL1         0.0727
       7    C3      19.634106   19.329876   23.286595 C.3        1 MOL1        -0.1910
       8    H3      19.375979   20.263481   22.767910 H          1 MOL1         0.0729
       9    H4      19.458172   19.515197   24.355285 H          1 MOL1         0.0729
      10    C4      21.134294   18.999277   23.081447 C.3        1 MOL1        -0.1909
      11    H5      21.300404   17.916412   23.163352 H          1 MOL1         0.0729
      12    H6      21.699502   19.451334   23.907980 H          1 MOL1         0.0729
      13    C5      21.738623   19.531780   21.758898 C.3        1 MOL1        -0.1884
      14    H7      21.647471   20.626274   21.726785 H          1 MOL1         0.0729
      15    H8      22.815361   19.313110   21.755178 H          1 MOL1         0.0729
      16    C6      21.108042   18.928606   20.486797 C.3        1 MOL1        -0.2899
      17    H9      21.665189   19.245082   19.595594 H          1 MOL1         0.0741
      18    H10     21.120549   17.831539   20.522374 H          1 MOL1         0.0741
      19    H11     20.070482   19.263177   20.362983 H          1 MOL1         0.0741
@<TRIPOS>BOND
    1     1     2    1
    2     1     3    2
    3     1     4    1
    4     4     5    1
    5     4     6    1
    6     4     7    1
    7     7     8    1
    8     7     9    1
    9     7    10    1
   10    10    11    1
   11    10    12    1
   12    10    13    1
   13    13    14    1
   14    13    15    1
   15    13    16    1
   16    16    17    1
   17    16    18    1
   18    16    19    1
@<TRIPOS>SUBSTRUCTURE
       1 MOL1            1 RESIDUE      1      MOL     
@<SCITEGIC>MOL_PROPERTY
VConf Rank
SciTegic.value.IntegerValue
848

@<SCITEGIC>MOL_PROPERTY
Conf_Id
SciTegic.value.IntegerValue
24

@<SCITEGIC>MOL_PROPERTY
Delta U+W
SciTegic.value.DoubleValue
2.477

@<SCITEGIC>MOL_PROPERTY
U+W
SciTegic.value.DoubleValue
-52.414

@<SCITEGIC>MOL_PROPERTY
Grad RMS
SciTegic.value.DoubleValue
0.000000

@<SCITEGIC>MOL_PROPERTY
U
SciTegic.value.DoubleValue
10.422

@<SCITEGIC>MOL_PROPERTY
W
SciTegic.value.DoubleValue
-62.836

@<SCITEGIC>MOL_PROPERTY
W(PB)
SciTegic.value.DoubleValue
-64.906

@<SCITEGIC>MOL_PROPERTY
W(SA)
SciTegic.value.DoubleValue
2.070

@<SCITEGIC>MOL_PROPERTY
Valence
SciTegic.value.DoubleValue
9.628

@<SCITEGIC>MOL_PROPERTY
Coulomb
SciTegic.value.DoubleValue
0.101

@<SCITEGIC>MOL_PROPERTY
VdW
SciTegic.value.DoubleValue
0.693

@<SCITEGIC>MOL_PROPERTY
VdW6
SciTegic.value.DoubleValue
-6.927

@<SCITEGIC>MOL_PROPERTY
VdW12
SciTegic.value.DoubleValue
7.620

@<SCITEGIC>MOL_PROPERTY
Bond
SciTegic.value.DoubleValue
0.173

@<SCITEGIC>MOL_PROPERTY
Angle
SciTegic.value.DoubleValue
2.989

@<SCITEGIC>MOL_PROPERTY
Pdih
SciTegic.value.DoubleValue
6.465

@<SCITEGIC>MOL_PROPERTY
Idih
SciTegic.value.DoubleValue
0.001

@<SCITEGIC>MOL_PROPERTY
Tether
SciTegic.value.DoubleValue
0.000

@<TRIPOS>MOLECULE
guest-7_confgen4.mol2 : confsearch ligand conformer 849
          19          18           1
SMALL
USER_CHARGES
 
@<TRIPOS>ATOM
       1    C1      18.635531   19.339101   20.126677 C.2        1 MOL1         0.6115
       2    O1      17.959109   20.289497   20.467104 O.co2      1 MOL1        -0.6776
       3    O2      19.016378   19.161052   18.986357 O.co2      1 MOL1        -0.6776
       4    C2      19.003725   18.296426   21.179052 C.3        1 MOL1        -0.2013
       5    H1      18.771362   17.312610   20.754940 H          1 MOL1         0.0727
       6    H2      18.343925   18.429231   22.042335 H          1 MOL1         0.0727
       7    C3      20.497275   18.331287   21.606872 C.3        1 MOL1        -0.1910
       8    H3      20.735378   17.437914   22.199682 H          1 MOL1         0.0729
       9    H4      21.112278   18.263606   20.698727 H          1 MOL1         0.0729
      10    C4      20.904696   19.605145   22.392220 C.3        1 MOL1        -0.1909
      11    H5      20.292820   20.462312   22.079683 H          1 MOL1         0.0729
      12    H6      21.936853   19.860113   22.115767 H          1 MOL1         0.0729
      13    C5      20.858876   19.456229   23.932879 C.3        1 MOL1        -0.1884
      14    H7      21.542318   18.655260   24.246817 H          1 MOL1         0.0729
      15    H8      21.242834   20.381848   24.383391 H          1 MOL1         0.0729
      16    C6      19.450727   19.179442   24.498619 C.3        1 MOL1        -0.2899
      17    H9      19.096996   18.182389   24.208590 H          1 MOL1         0.0741
      18    H10     19.462856   19.219700   25.595437 H          1 MOL1         0.0741
      19    H11     18.728869   19.924698   24.139455 H          1 MOL1         0.0741
@<TRIPOS>BOND
    1     1     2    1
    2     1     3    2
    3     1     4    1
    4     4     5    1
    5     4     6    1
    6     4     7    1
    7     7     8    1
    8     7     9    1
    9     7    10    1
   10    10    11    1
   11    10    12    1
   12    10    13    1
   13    13    14    1
   14    13    15    1
   15    13    16    1
   16    16    17    1
   17    16    18    1
   18    16    19    1
@<TRIPOS>SUBSTRUCTURE
       1 MOL1            1 RESIDUE      1      MOL     
@<SCITEGIC>MOL_PROPERTY
VConf Rank
SciTegic.value.IntegerValue
849

@<SCITEGIC>MOL_PROPERTY
Conf_Id
SciTegic.value.IntegerValue
4

@<SCITEGIC>MOL_PROPERTY
Delta U+W
SciTegic.value.DoubleValue
3.753

@<SCITEGIC>MOL_PROPERTY
U+W
SciTegic.value.DoubleValue
-51.138

@<SCITEGIC>MOL_PROPERTY
Grad RMS
SciTegic.value.DoubleValue
0.000000

@<SCITEGIC>MOL_PROPERTY
U
SciTegic.value.DoubleValue
12.334

@<SCITEGIC>MOL_PROPERTY
W
SciTegic.value.DoubleValue
-63.472

@<SCITEGIC>MOL_PROPERTY
W(PB)
SciTegic.value.DoubleValue
-65.500

@<SCITEGIC>MOL_PROPERTY
W(SA)
SciTegic.value.DoubleValue
2.028

@<SCITEGIC>MOL_PROPERTY
Valence
SciTegic.value.DoubleValue
9.984

@<SCITEGIC>MOL_PROPERTY
Coulomb
SciTegic.value.DoubleValue
1.767

@<SCITEGIC>MOL_PROPERTY
VdW
SciTegic.value.DoubleValue
0.583

@<SCITEGIC>MOL_PROPERTY
VdW6
SciTegic.value.DoubleValue
-7.767

@<SCITEGIC>MOL_PROPERTY
VdW12
SciTegic.value.DoubleValue
8.349

@<SCITEGIC>MOL_PROPERTY
Bond
SciTegic.value.DoubleValue
0.203

@<SCITEGIC>MOL_PROPERTY
Angle
SciTegic.value.DoubleValue
3.191

@<SCITEGIC>MOL_PROPERTY
Pdih
SciTegic.value.DoubleValue
6.589

@<SCITEGIC>MOL_PROPERTY
Idih
SciTegic.value.DoubleValue
0.001

@<SCITEGIC>MOL_PROPERTY
Tether
SciTegic.value.DoubleValue
0.000

@<TRIPOS>MOLECULE
guest-7_confgen4.mol2 : confsearch ligand conformer 850
          19          18           1
SMALL
USER_CHARGES
 
@<TRIPOS>ATOM
       1    C1      19.760785   16.805566   23.962532 C.2        1 MOL1         0.6115
       2    O1      19.264416   15.712787   23.771418 O.co2      1 MOL1        -0.6776
       3    O2      20.829278   16.968947   24.517799 O.co2      1 MOL1        -0.6776
       4    C2      18.984562   18.038001   23.505570 C.3        1 MOL1        -0.2013
       5    H1      19.395722   18.914214   24.016869 H          1 MOL1         0.0727
       6    H2      17.954231   17.921806   23.861481 H          1 MOL1         0.0727
       7    C3      18.975531   18.243219   21.965200 C.3        1 MOL1        -0.1910
       8    H3      18.620135   17.312870   21.500789 H          1 MOL1         0.0729
       9    H4      18.240702   19.014118   21.696919 H          1 MOL1         0.0729
      10    C4      20.358312   18.605367   21.363336 C.3        1 MOL1        -0.1909
      11    H5      20.430349   18.139642   20.371019 H          1 MOL1         0.0729
      12    H6      21.166365   18.160468   21.959926 H          1 MOL1         0.0729
      13    C5      20.607140   20.123221   21.184153 C.3        1 MOL1        -0.1884
      14    H7      21.572804   20.260060   20.678265 H          1 MOL1         0.0729
      15    H8      19.846297   20.545354   20.513241 H          1 MOL1         0.0729
      16    C6      20.624810   20.920147   22.504818 C.3        1 MOL1        -0.2899
      17    H9      21.324430   20.474393   23.224068 H          1 MOL1         0.0741
      18    H10     20.938368   21.956344   22.323832 H          1 MOL1         0.0741
      19    H11     19.627689   20.951692   22.961008 H          1 MOL1         0.0741
@<TRIPOS>BOND
    1     1     2    1
    2     1     3    2
    3     1     4    1
    4     4     5    1
    5     4     6    1
    6     4     7    1
    7     7     8    1
    8     7     9    1
    9     7    10    1
   10    10    11    1
   11    10    12    1
   12    10    13    1
   13    13    14    1
   14    13    15    1
   15    13    16    1
   16    16    17    1
   17    16    18    1
   18    16    19    1
@<TRIPOS>SUBSTRUCTURE
       1 MOL1            1 RESIDUE      1      MOL     
@<SCITEGIC>MOL_PROPERTY
VConf Rank
SciTegic.value.IntegerValue
850

@<SCITEGIC>MOL_PROPERTY
Conf_Id
SciTegic.value.IntegerValue
73

@<SCITEGIC>MOL_PROPERTY
Delta U+W
SciTegic.value.DoubleValue
3.707

@<SCITEGIC>MOL_PROPERTY
U+W
SciTegic.value.DoubleValue
-51.184

@<SCITEGIC>MOL_PROPERTY
Grad RMS
SciTegic.value.DoubleValue
0.000000

@<SCITEGIC>MOL_PROPERTY
U
SciTegic.value.DoubleValue
12.334

@<SCITEGIC>MOL_PROPERTY
W
SciTegic.value.DoubleValue
-63.519

@<SCITEGIC>MOL_PROPERTY
W(PB)
SciTegic.value.DoubleValue
-65.541

@<SCITEGIC>MOL_PROPERTY
W(SA)
SciTegic.value.DoubleValue
2.022

@<SCITEGIC>MOL_PROPERTY
Valence
SciTegic.value.DoubleValue
9.984

@<SCITEGIC>MOL_PROPERTY
Coulomb
SciTegic.value.DoubleValue
1.768

@<SCITEGIC>MOL_PROPERTY
VdW
SciTegic.value.DoubleValue
0.583

@<SCITEGIC>MOL_PROPERTY
VdW6
SciTegic.value.DoubleValue
-7.767

@<SCITEGIC>MOL_PROPERTY
VdW12
SciTegic.value.DoubleValue
8.350

@<SCITEGIC>MOL_PROPERTY
Bond
SciTegic.value.DoubleValue
0.203

@<SCITEGIC>MOL_PROPERTY
Angle
SciTegic.value.DoubleValue
3.192

@<SCITEGIC>MOL_PROPERTY
Pdih
SciTegic.value.DoubleValue
6.589

@<SCITEGIC>MOL_PROPERTY
Idih
SciTegic.value.DoubleValue
0.001

@<SCITEGIC>MOL_PROPERTY
Tether
SciTegic.value.DoubleValue
0.000

@<TRIPOS>MOLECULE
guest-7_confgen4.mol2 : confsearch ligand conformer 851
          19          18           1
SMALL
USER_CHARGES
 
@<TRIPOS>ATOM
       1    C1      19.825949   18.324839   19.903731 C.2        1 MOL1         0.6115
       2    O1      19.358735   17.215228   20.068617 O.co2      1 MOL1        -0.6776
       3    O2      19.595423   19.011804   18.927977 O.co2      1 MOL1        -0.6776
       4    C2      20.778931   18.874694   20.961469 C.3        1 MOL1        -0.2013
       5    H1      21.677550   19.225214   20.440616 H          1 MOL1         0.0727
       6    H2      21.097798   18.050777   21.610146 H          1 MOL1         0.0727
       7    C3      20.188375   20.036943   21.805678 C.3        1 MOL1        -0.1910
       8    H3      20.960779   20.418654   22.485790 H          1 MOL1         0.0729
       9    H4      19.940910   20.869628   21.132991 H          1 MOL1         0.0729
      10    C4      18.920809   19.660609   22.615457 C.3        1 MOL1        -0.1909
      11    H5      18.114984   19.396069   21.917068 H          1 MOL1         0.0729
      12    H6      18.571139   20.550413   23.156356 H          1 MOL1         0.0729
      13    C5      19.103352   18.500749   23.624725 C.3        1 MOL1        -0.1884
      14    H7      18.141355   18.315579   24.121887 H          1 MOL1         0.0729
      15    H8      19.352072   17.572878   23.092149 H          1 MOL1         0.0729
      16    C6      20.171810   18.788552   24.701405 C.3        1 MOL1        -0.2899
      17    H9      21.172610   18.868297   24.258739 H          1 MOL1         0.0741
      18    H10     19.953064   19.724622   25.231438 H          1 MOL1         0.0741
      19    H11     20.198987   17.978495   25.441583 H          1 MOL1         0.0741
@<TRIPOS>BOND
    1     1     2    1
    2     1     3    2
    3     1     4    1
    4     4     5    1
    5     4     6    1
    6     4     7    1
    7     7     8    1
    8     7     9    1
    9     7    10    1
   10    10    11    1
   11    10    12    1
   12    10    13    1
   13    13    14    1
   14    13    15    1
   15    13    16    1
   16    16    17    1
   17    16    18    1
   18    16    19    1
@<TRIPOS>SUBSTRUCTURE
       1 MOL1            1 RESIDUE      1      MOL     
@<SCITEGIC>MOL_PROPERTY
VConf Rank
SciTegic.value.IntegerValue
851

@<SCITEGIC>MOL_PROPERTY
Conf_Id
SciTegic.value.IntegerValue
56

@<SCITEGIC>MOL_PROPERTY
Delta U+W
SciTegic.value.DoubleValue
1.735

@<SCITEGIC>MOL_PROPERTY
U+W
SciTegic.value.DoubleValue
-53.156

@<SCITEGIC>MOL_PROPERTY
Grad RMS
SciTegic.value.DoubleValue
0.000000

@<SCITEGIC>MOL_PROPERTY
U
SciTegic.value.DoubleValue
10.214

@<SCITEGIC>MOL_PROPERTY
W
SciTegic.value.DoubleValue
-63.370

@<SCITEGIC>MOL_PROPERTY
W(PB)
SciTegic.value.DoubleValue
-65.388

@<SCITEGIC>MOL_PROPERTY
W(SA)
SciTegic.value.DoubleValue
2.018

@<SCITEGIC>MOL_PROPERTY
Valence
SciTegic.value.DoubleValue
7.868

@<SCITEGIC>MOL_PROPERTY
Coulomb
SciTegic.value.DoubleValue
1.968

@<SCITEGIC>MOL_PROPERTY
VdW
SciTegic.value.DoubleValue
0.378

@<SCITEGIC>MOL_PROPERTY
VdW6
SciTegic.value.DoubleValue
-8.067

@<SCITEGIC>MOL_PROPERTY
VdW12
SciTegic.value.DoubleValue
8.445

@<SCITEGIC>MOL_PROPERTY
Bond
SciTegic.value.DoubleValue
0.191

@<SCITEGIC>MOL_PROPERTY
Angle
SciTegic.value.DoubleValue
3.117

@<SCITEGIC>MOL_PROPERTY
Pdih
SciTegic.value.DoubleValue
4.559

@<SCITEGIC>MOL_PROPERTY
Idih
SciTegic.value.DoubleValue
0.001

@<SCITEGIC>MOL_PROPERTY
Tether
SciTegic.value.DoubleValue
0.000

@<TRIPOS>MOLECULE
guest-7_confgen4.mol2 : confsearch ligand conformer 852
          19          18           1
SMALL
USER_CHARGES
 
@<TRIPOS>ATOM
       1    C1      17.654807   20.761053   22.185808 C.2        1 MOL1         0.6115
       2    O1      16.746247   20.724088   22.991733 O.co2      1 MOL1        -0.6776
       3    O2      17.613013   21.402953   21.154987 O.co2      1 MOL1        -0.6776
       4    C2      18.906782   19.940098   22.473609 C.3        1 MOL1        -0.2013
       5    H1      19.041974   19.893223   23.560763 H          1 MOL1         0.0727
       6    H2      19.762284   20.483538   22.057316 H          1 MOL1         0.0727
       7    C3      18.837414   18.510516   21.879928 C.3        1 MOL1        -0.1910
       8    H3      17.897262   18.041555   22.201782 H          1 MOL1         0.0729
       9    H4      18.788762   18.576011   20.784237 H          1 MOL1         0.0729
      10    C4      20.012032   17.588977   22.294092 C.3        1 MOL1        -0.1909
      11    H5      19.823444   16.598037   21.858841 H          1 MOL1         0.0729
      12    H6      20.010472   17.441773   23.382820 H          1 MOL1         0.0729
      13    C5      21.407101   18.065986   21.819381 C.3        1 MOL1        -0.1884
      14    H7      22.010543   17.184212   21.563112 H          1 MOL1         0.0729
      15    H8      21.315340   18.652311   20.894659 H          1 MOL1         0.0729
      16    C6      22.173566   18.872171   22.891446 C.3        1 MOL1        -0.2899
      17    H9      23.159905   19.171242   22.513864 H          1 MOL1         0.0741
      18    H10     21.636482   19.782447   23.180507 H          1 MOL1         0.0741
      19    H11     22.329395   18.269304   23.795548 H          1 MOL1         0.0741
@<TRIPOS>BOND
    1     1     2    1
    2     1     3    2
    3     1     4    1
    4     4     5    1
    5     4     6    1
    6     4     7    1
    7     7     8    1
    8     7     9    1
    9     7    10    1
   10    10    11    1
   11    10    12    1
   12    10    13    1
   13    13    14    1
   14    13    15    1
   15    13    16    1
   16    16    17    1
   17    16    18    1
   18    16    19    1
@<TRIPOS>SUBSTRUCTURE
       1 MOL1            1 RESIDUE      1      MOL     
@<SCITEGIC>MOL_PROPERTY
VConf Rank
SciTegic.value.IntegerValue
852

@<SCITEGIC>MOL_PROPERTY
Conf_Id
SciTegic.value.IntegerValue
53

@<SCITEGIC>MOL_PROPERTY
Delta U+W
SciTegic.value.DoubleValue
2.279

@<SCITEGIC>MOL_PROPERTY
U+W
SciTegic.value.DoubleValue
-52.612

@<SCITEGIC>MOL_PROPERTY
Grad RMS
SciTegic.value.DoubleValue
0.000000

@<SCITEGIC>MOL_PROPERTY
U
SciTegic.value.DoubleValue
10.231

@<SCITEGIC>MOL_PROPERTY
W
SciTegic.value.DoubleValue
-62.843

@<SCITEGIC>MOL_PROPERTY
W(PB)
SciTegic.value.DoubleValue
-64.893

@<SCITEGIC>MOL_PROPERTY
W(SA)
SciTegic.value.DoubleValue
2.050

@<SCITEGIC>MOL_PROPERTY
Valence
SciTegic.value.DoubleValue
9.644

@<SCITEGIC>MOL_PROPERTY
Coulomb
SciTegic.value.DoubleValue
-0.164

@<SCITEGIC>MOL_PROPERTY
VdW
SciTegic.value.DoubleValue
0.751

@<SCITEGIC>MOL_PROPERTY
VdW6
SciTegic.value.DoubleValue
-6.881

@<SCITEGIC>MOL_PROPERTY
VdW12
SciTegic.value.DoubleValue
7.631

@<SCITEGIC>MOL_PROPERTY
Bond
SciTegic.value.DoubleValue
0.163

@<SCITEGIC>MOL_PROPERTY
Angle
SciTegic.value.DoubleValue
2.998

@<SCITEGIC>MOL_PROPERTY
Pdih
SciTegic.value.DoubleValue
6.482

@<SCITEGIC>MOL_PROPERTY
Idih
SciTegic.value.DoubleValue
0.001

@<SCITEGIC>MOL_PROPERTY
Tether
SciTegic.value.DoubleValue
0.000

@<TRIPOS>MOLECULE
guest-7_confgen4.mol2 : confsearch ligand conformer 853
          19          18           1
SMALL
USER_CHARGES
 
@<TRIPOS>ATOM
       1    C1      20.297589   17.775711   20.363460 C.2        1 MOL1         0.6115
       2    O1      21.451297   17.951260   20.024353 O.co2      1 MOL1        -0.6776
       3    O2      19.343230   18.111051   19.689669 O.co2      1 MOL1        -0.6776
       4    C2      20.036614   17.031981   21.671986 C.3        1 MOL1        -0.2013
       5    H1      20.997367   16.755054   22.122748 H          1 MOL1         0.0727
       6    H2      19.536619   16.095227   21.399734 H          1 MOL1         0.0727
       7    C3      19.157272   17.792582   22.704152 C.3        1 MOL1        -0.1910
       8    H3      18.293919   18.246742   22.198285 H          1 MOL1         0.0729
       9    H4      18.743018   17.055133   23.404852 H          1 MOL1         0.0729
      10    C4      19.908927   18.861777   23.535124 C.3        1 MOL1        -0.1909
      11    H5      20.766107   18.399735   24.043646 H          1 MOL1         0.0729
      12    H6      19.234659   19.215812   24.326978 H          1 MOL1         0.0729
      13    C5      20.387539   20.077733   22.711744 C.3        1 MOL1        -0.1884
      14    H7      21.163290   19.768705   21.999622 H          1 MOL1         0.0729
      15    H8      19.552146   20.480727   22.122582 H          1 MOL1         0.0729
      16    C6      20.958449   21.185912   23.619398 C.3        1 MOL1        -0.2899
      17    H9      21.812604   20.815115   24.201021 H          1 MOL1         0.0741
      18    H10     21.301630   22.038347   23.018875 H          1 MOL1         0.0741
      19    H11     20.197323   21.550755   24.321463 H          1 MOL1         0.0741
@<TRIPOS>BOND
    1     1     2    1
    2     1     3    2
    3     1     4    1
    4     4     5    1
    5     4     6    1
    6     4     7    1
    7     7     8    1
    8     7     9    1
    9     7    10    1
   10    10    11    1
   11    10    12    1
   12    10    13    1
   13    13    14    1
   14    13    15    1
   15    13    16    1
   16    16    17    1
   17    16    18    1
   18    16    19    1
@<TRIPOS>SUBSTRUCTURE
       1 MOL1            1 RESIDUE      1      MOL     
@<SCITEGIC>MOL_PROPERTY
VConf Rank
SciTegic.value.IntegerValue
853

@<SCITEGIC>MOL_PROPERTY
Conf_Id
SciTegic.value.IntegerValue
25

@<SCITEGIC>MOL_PROPERTY
Delta U+W
SciTegic.value.DoubleValue
2.065

@<SCITEGIC>MOL_PROPERTY
U+W
SciTegic.value.DoubleValue
-52.826

@<SCITEGIC>MOL_PROPERTY
Grad RMS
SciTegic.value.DoubleValue
0.000000

@<SCITEGIC>MOL_PROPERTY
U
SciTegic.value.DoubleValue
10.967

@<SCITEGIC>MOL_PROPERTY
W
SciTegic.value.DoubleValue
-63.794

@<SCITEGIC>MOL_PROPERTY
W(PB)
SciTegic.value.DoubleValue
-65.830

@<SCITEGIC>MOL_PROPERTY
W(SA)
SciTegic.value.DoubleValue
2.036

@<SCITEGIC>MOL_PROPERTY
Valence
SciTegic.value.DoubleValue
8.609

@<SCITEGIC>MOL_PROPERTY
Coulomb
SciTegic.value.DoubleValue
1.892

@<SCITEGIC>MOL_PROPERTY
VdW
SciTegic.value.DoubleValue
0.467

@<SCITEGIC>MOL_PROPERTY
VdW6
SciTegic.value.DoubleValue
-7.569

@<SCITEGIC>MOL_PROPERTY
VdW12
SciTegic.value.DoubleValue
8.036

@<SCITEGIC>MOL_PROPERTY
Bond
SciTegic.value.DoubleValue
0.170

@<SCITEGIC>MOL_PROPERTY
Angle
SciTegic.value.DoubleValue
3.195

@<SCITEGIC>MOL_PROPERTY
Pdih
SciTegic.value.DoubleValue
5.237

@<SCITEGIC>MOL_PROPERTY
Idih
SciTegic.value.DoubleValue
0.007

@<SCITEGIC>MOL_PROPERTY
Tether
SciTegic.value.DoubleValue
0.000

@<TRIPOS>MOLECULE
guest-7_confgen4.mol2 : confsearch ligand conformer 854
          19          18           1
SMALL
USER_CHARGES
 
@<TRIPOS>ATOM
       1    C1      18.085707   17.640901   23.035977 C.2        1 MOL1         0.6115
       2    O1      17.161037   18.429507   23.054266 O.co2      1 MOL1        -0.6776
       3    O2      18.405742   16.962170   23.991882 O.co2      1 MOL1        -0.6776
       4    C2      18.841803   17.439534   21.724012 C.3        1 MOL1        -0.2013
       5    H1      18.114233   17.042355   21.006715 H          1 MOL1         0.0727
       6    H2      19.600336   16.660062   21.865349 H          1 MOL1         0.0727
       7    C3      19.491019   18.720479   21.128338 C.3        1 MOL1        -0.1910
       8    H3      19.669619   18.543831   20.059079 H          1 MOL1         0.0729
       9    H4      18.782796   19.558995   21.181759 H          1 MOL1         0.0729
      10    C4      20.841099   19.123679   21.771293 C.3        1 MOL1        -0.1909
      11    H5      21.275292   19.936806   21.173538 H          1 MOL1         0.0729
      12    H6      21.546381   18.283793   21.708006 H          1 MOL1         0.0729
      13    C5      20.724788   19.594502   23.237708 C.3        1 MOL1        -0.1884
      14    H7      19.946404   20.365622   23.320703 H          1 MOL1         0.0729
      15    H8      20.418137   18.758150   23.878714 H          1 MOL1         0.0729
      16    C6      22.062861   20.156252   23.759085 C.3        1 MOL1        -0.2899
      17    H9      21.965604   20.478139   24.804061 H          1 MOL1         0.0741
      18    H10     22.852963   19.395488   23.710759 H          1 MOL1         0.0741
      19    H11     22.383723   21.022787   23.166226 H          1 MOL1         0.0741
@<TRIPOS>BOND
    1     1     2    1
    2     1     3    2
    3     1     4    1
    4     4     5    1
    5     4     6    1
    6     4     7    1
    7     7     8    1
    8     7     9    1
    9     7    10    1
   10    10    11    1
   11    10    12    1
   12    10    13    1
   13    13    14    1
   14    13    15    1
   15    13    16    1
   16    16    17    1
   17    16    18    1
   18    16    19    1
@<TRIPOS>SUBSTRUCTURE
       1 MOL1            1 RESIDUE      1      MOL     
@<SCITEGIC>MOL_PROPERTY
VConf Rank
SciTegic.value.IntegerValue
854

@<SCITEGIC>MOL_PROPERTY
Conf_Id
SciTegic.value.IntegerValue
52

@<SCITEGIC>MOL_PROPERTY
Delta U+W
SciTegic.value.DoubleValue
2.070

@<SCITEGIC>MOL_PROPERTY
U+W
SciTegic.value.DoubleValue
-52.822

@<SCITEGIC>MOL_PROPERTY
Grad RMS
SciTegic.value.DoubleValue
0.000000

@<SCITEGIC>MOL_PROPERTY
U
SciTegic.value.DoubleValue
10.967

@<SCITEGIC>MOL_PROPERTY
W
SciTegic.value.DoubleValue
-63.789

@<SCITEGIC>MOL_PROPERTY
W(PB)
SciTegic.value.DoubleValue
-65.837

@<SCITEGIC>MOL_PROPERTY
W(SA)
SciTegic.value.DoubleValue
2.048

@<SCITEGIC>MOL_PROPERTY
Valence
SciTegic.value.DoubleValue
8.609

@<SCITEGIC>MOL_PROPERTY
Coulomb
SciTegic.value.DoubleValue
1.892

@<SCITEGIC>MOL_PROPERTY
VdW
SciTegic.value.DoubleValue
0.467

@<SCITEGIC>MOL_PROPERTY
VdW6
SciTegic.value.DoubleValue
-7.569

@<SCITEGIC>MOL_PROPERTY
VdW12
SciTegic.value.DoubleValue
8.035

@<SCITEGIC>MOL_PROPERTY
Bond
SciTegic.value.DoubleValue
0.170

@<SCITEGIC>MOL_PROPERTY
Angle
SciTegic.value.DoubleValue
3.196

@<SCITEGIC>MOL_PROPERTY
Pdih
SciTegic.value.DoubleValue
5.237

@<SCITEGIC>MOL_PROPERTY
Idih
SciTegic.value.DoubleValue
0.007

@<SCITEGIC>MOL_PROPERTY
Tether
SciTegic.value.DoubleValue
0.000

@<TRIPOS>MOLECULE
guest-7_confgen4.mol2 : confsearch ligand conformer 855
          19          18           1
SMALL
USER_CHARGES
 
@<TRIPOS>ATOM
       1    C1      20.894449   18.102034   20.907389 C.2        1 MOL1         0.6115
       2    O1      20.088053   17.937296   20.012568 O.co2      1 MOL1        -0.6776
       3    O2      21.928172   18.724751   20.764775 O.co2      1 MOL1        -0.6776
       4    C2      20.666541   17.389702   22.241564 C.3        1 MOL1        -0.2013
       5    H1      21.392318   17.762400   22.974286 H          1 MOL1         0.0727
       6    H2      20.911851   16.335736   22.067629 H          1 MOL1         0.0727
       7    C3      19.225131   17.480888   22.818967 C.3        1 MOL1        -0.1910
       8    H3      18.489072   17.365026   22.011456 H          1 MOL1         0.0729
       9    H4      19.073624   16.620565   23.484734 H          1 MOL1         0.0729
      10    C4      18.915674   18.761723   23.635591 C.3        1 MOL1        -0.1909
      11    H5      19.587540   18.825475   24.502522 H          1 MOL1         0.0729
      12    H6      17.905247   18.650545   24.052296 H          1 MOL1         0.0729
      13    C5      18.956601   20.080026   22.825410 C.3        1 MOL1        -0.1884
      14    H7      18.807715   19.878315   21.755597 H          1 MOL1         0.0729
      15    H8      18.113876   20.713121   23.135496 H          1 MOL1         0.0729
      16    C6      20.260968   20.875954   23.045064 C.3        1 MOL1        -0.2899
      17    H9      20.368336   21.168574   24.097577 H          1 MOL1         0.0741
      18    H10     21.142671   20.287506   22.765674 H          1 MOL1         0.0741
      19    H11     20.260894   21.790591   22.438387 H          1 MOL1         0.0741
@<TRIPOS>BOND
    1     1     2    1
    2     1     3    2
    3     1     4    1
    4     4     5    1
    5     4     6    1
    6     4     7    1
    7     7     8    1
    8     7     9    1
    9     7    10    1
   10    10    11    1
   11    10    12    1
   12    10    13    1
   13    13    14    1
   14    13    15    1
   15    13    16    1
   16    16    17    1
   17    16    18    1
   18    16    19    1
@<TRIPOS>SUBSTRUCTURE
       1 MOL1            1 RESIDUE      1      MOL     
@<SCITEGIC>MOL_PROPERTY
VConf Rank
SciTegic.value.IntegerValue
855

@<SCITEGIC>MOL_PROPERTY
Conf_Id
SciTegic.value.IntegerValue
66

@<SCITEGIC>MOL_PROPERTY
Delta U+W
SciTegic.value.DoubleValue
5.819

@<SCITEGIC>MOL_PROPERTY
U+W
SciTegic.value.DoubleValue
-49.072

@<SCITEGIC>MOL_PROPERTY
Grad RMS
SciTegic.value.DoubleValue
0.000000

@<SCITEGIC>MOL_PROPERTY
U
SciTegic.value.DoubleValue
15.324

@<SCITEGIC>MOL_PROPERTY
W
SciTegic.value.DoubleValue
-64.396

@<SCITEGIC>MOL_PROPERTY
W(PB)
SciTegic.value.DoubleValue
-66.382

@<SCITEGIC>MOL_PROPERTY
W(SA)
SciTegic.value.DoubleValue
1.986

@<SCITEGIC>MOL_PROPERTY
Valence
SciTegic.value.DoubleValue
11.748

@<SCITEGIC>MOL_PROPERTY
Coulomb
SciTegic.value.DoubleValue
3.201

@<SCITEGIC>MOL_PROPERTY
VdW
SciTegic.value.DoubleValue
0.375

@<SCITEGIC>MOL_PROPERTY
VdW6
SciTegic.value.DoubleValue
-8.854

@<SCITEGIC>MOL_PROPERTY
VdW12
SciTegic.value.DoubleValue
9.229

@<SCITEGIC>MOL_PROPERTY
Bond
SciTegic.value.DoubleValue
0.216

@<SCITEGIC>MOL_PROPERTY
Angle
SciTegic.value.DoubleValue
3.812

@<SCITEGIC>MOL_PROPERTY
Pdih
SciTegic.value.DoubleValue
7.699

@<SCITEGIC>MOL_PROPERTY
Idih
SciTegic.value.DoubleValue
0.022

@<SCITEGIC>MOL_PROPERTY
Tether
SciTegic.value.DoubleValue
0.000

@<TRIPOS>MOLECULE
guest-7_confgen4.mol2 : confsearch ligand conformer 856
          19          18           1
SMALL
USER_CHARGES
 
@<TRIPOS>ATOM
       1    C1      21.454773   17.668286   24.954917 C.2        1 MOL1         0.6115
       2    O1      22.544413   17.375908   25.405318 O.co2      1 MOL1        -0.6776
       3    O2      20.421730   17.543490   25.583719 O.co2      1 MOL1        -0.6776
       4    C2      21.413467   18.216053   23.527359 C.3        1 MOL1        -0.2013
       5    H1      21.874350   17.464802   22.875241 H          1 MOL1         0.0727
       6    H2      22.056548   19.103567   23.498782 H          1 MOL1         0.0727
       7    C3      20.000446   18.575447   22.995718 C.3        1 MOL1        -0.1910
       8    H3      19.359561   17.683603   23.032424 H          1 MOL1         0.0729
       9    H4      19.541931   19.324045   23.656652 H          1 MOL1         0.0729
      10    C4      20.051591   19.119326   21.551474 C.3        1 MOL1        -0.1909
      11    H5      20.510475   18.369445   20.892494 H          1 MOL1         0.0729
      12    H6      20.692894   20.010783   21.517050 H          1 MOL1         0.0729
      13    C5      18.645915   19.475931   21.024879 C.3        1 MOL1        -0.1884
      14    H7      18.001808   18.586182   21.055949 H          1 MOL1         0.0729
      15    H8      18.184255   20.227406   21.680354 H          1 MOL1         0.0729
      16    C6      18.700754   20.018475   19.582787 C.3        1 MOL1        -0.2899
      17    H9      19.129807   19.274178   18.899152 H          1 MOL1         0.0741
      18    H10     17.693290   20.266831   19.224394 H          1 MOL1         0.0741
      19    H11     19.313650   20.927762   19.528251 H          1 MOL1         0.0741
@<TRIPOS>BOND
    1     1     2    1
    2     1     3    2
    3     1     4    1
    4     4     5    1
    5     4     6    1
    6     4     7    1
    7     7     8    1
    8     7     9    1
    9     7    10    1
   10    10    11    1
   11    10    12    1
   12    10    13    1
   13    13    14    1
   14    13    15    1
   15    13    16    1
   16    16    17    1
   17    16    18    1
   18    16    19    1
@<TRIPOS>SUBSTRUCTURE
       1 MOL1            1 RESIDUE      1      MOL     
@<SCITEGIC>MOL_PROPERTY
VConf Rank
SciTegic.value.IntegerValue
856

@<SCITEGIC>MOL_PROPERTY
Conf_Id
SciTegic.value.IntegerValue
0

@<SCITEGIC>MOL_PROPERTY
Delta U+W
SciTegic.value.DoubleValue
0.000

@<SCITEGIC>MOL_PROPERTY
U+W
SciTegic.value.DoubleValue
-54.891

@<SCITEGIC>MOL_PROPERTY
Grad RMS
SciTegic.value.DoubleValue
0.000000

@<SCITEGIC>MOL_PROPERTY
U
SciTegic.value.DoubleValue
6.966

@<SCITEGIC>MOL_PROPERTY
W
SciTegic.value.DoubleValue
-61.857

@<SCITEGIC>MOL_PROPERTY
W(PB)
SciTegic.value.DoubleValue
-63.965

@<SCITEGIC>MOL_PROPERTY
W(SA)
SciTegic.value.DoubleValue
2.108

@<SCITEGIC>MOL_PROPERTY
Valence
SciTegic.value.DoubleValue
7.175

@<SCITEGIC>MOL_PROPERTY
Coulomb
SciTegic.value.DoubleValue
-1.360

@<SCITEGIC>MOL_PROPERTY
VdW
SciTegic.value.DoubleValue
1.151

@<SCITEGIC>MOL_PROPERTY
VdW6
SciTegic.value.DoubleValue
-5.641

@<SCITEGIC>MOL_PROPERTY
VdW12
SciTegic.value.DoubleValue
6.792

@<SCITEGIC>MOL_PROPERTY
Bond
SciTegic.value.DoubleValue
0.119

@<SCITEGIC>MOL_PROPERTY
Angle
SciTegic.value.DoubleValue
2.715

@<SCITEGIC>MOL_PROPERTY
Pdih
SciTegic.value.DoubleValue
4.340

@<SCITEGIC>MOL_PROPERTY
Idih
SciTegic.value.DoubleValue
0.000

@<SCITEGIC>MOL_PROPERTY
Tether
SciTegic.value.DoubleValue
0.000

@<TRIPOS>MOLECULE
guest-7_confgen4.mol2 : confsearch ligand conformer 857
          19          18           1
SMALL
USER_CHARGES
 
@<TRIPOS>ATOM
       1    C1      18.052577   20.948345   20.156873 C.2        1 MOL1         0.6115
       2    O1      18.163443   20.741376   18.964794 O.co2      1 MOL1        -0.6776
       3    O2      17.041302   21.380559   20.673299 O.co2      1 MOL1        -0.6776
       4    C2      19.240919   20.628774   21.056922 C.3        1 MOL1        -0.2013
       5    H1      19.234725   21.337208   21.894074 H          1 MOL1         0.0727
       6    H2      20.159515   20.809953   20.485871 H          1 MOL1         0.0727
       7    C3      19.220146   19.174213   21.587897 C.3        1 MOL1        -0.1910
       8    H3      18.288925   19.005068   22.146259 H          1 MOL1         0.0729
       9    H4      19.213606   18.477757   20.737924 H          1 MOL1         0.0729
      10    C4      20.432939   18.876425   22.495687 C.3        1 MOL1        -0.1909
      11    H5      20.437427   19.575126   23.343619 H          1 MOL1         0.0729
      12    H6      21.362227   19.047634   21.935059 H          1 MOL1         0.0729
      13    C5      20.409587   17.426763   23.023237 C.3        1 MOL1        -0.1884
      14    H7      19.482251   17.252137   23.586304 H          1 MOL1         0.0729
      15    H8      20.407046   16.724699   22.177901 H          1 MOL1         0.0729
      16    C6      21.621885   17.132940   23.929304 C.3        1 MOL1        -0.2899
      17    H9      21.589451   16.098525   24.295422 H          1 MOL1         0.0741
      18    H10     22.563701   17.269337   23.381762 H          1 MOL1         0.0741
      19    H11     21.631985   17.800763   24.800701 H          1 MOL1         0.0741
@<TRIPOS>BOND
    1     1     2    1
    2     1     3    2
    3     1     4    1
    4     4     5    1
    5     4     6    1
    6     4     7    1
    7     7     8    1
    8     7     9    1
    9     7    10    1
   10    10    11    1
   11    10    12    1
   12    10    13    1
   13    13    14    1
   14    13    15    1
   15    13    16    1
   16    16    17    1
   17    16    18    1
   18    16    19    1
@<TRIPOS>SUBSTRUCTURE
       1 MOL1            1 RESIDUE      1      MOL     
@<SCITEGIC>MOL_PROPERTY
VConf Rank
SciTegic.value.IntegerValue
857

@<SCITEGIC>MOL_PROPERTY
Conf_Id
SciTegic.value.IntegerValue
18

@<SCITEGIC>MOL_PROPERTY
Delta U+W
SciTegic.value.DoubleValue
-1.199

@<SCITEGIC>MOL_PROPERTY
U+W
SciTegic.value.DoubleValue
-56.090

@<SCITEGIC>MOL_PROPERTY
Grad RMS
SciTegic.value.DoubleValue
0.000000

@<SCITEGIC>MOL_PROPERTY
U
SciTegic.value.DoubleValue
5.975

@<SCITEGIC>MOL_PROPERTY
W
SciTegic.value.DoubleValue
-62.066

@<SCITEGIC>MOL_PROPERTY
W(PB)
SciTegic.value.DoubleValue
-64.219

@<SCITEGIC>MOL_PROPERTY
W(SA)
SciTegic.value.DoubleValue
2.153

@<SCITEGIC>MOL_PROPERTY
Valence
SciTegic.value.DoubleValue
6.673

@<SCITEGIC>MOL_PROPERTY
Coulomb
SciTegic.value.DoubleValue
-1.307

@<SCITEGIC>MOL_PROPERTY
VdW
SciTegic.value.DoubleValue
0.610

@<SCITEGIC>MOL_PROPERTY
VdW6
SciTegic.value.DoubleValue
-5.351

@<SCITEGIC>MOL_PROPERTY
VdW12
SciTegic.value.DoubleValue
5.961

@<SCITEGIC>MOL_PROPERTY
Bond
SciTegic.value.DoubleValue
0.086

@<SCITEGIC>MOL_PROPERTY
Angle
SciTegic.value.DoubleValue
2.253

@<SCITEGIC>MOL_PROPERTY
Pdih
SciTegic.value.DoubleValue
4.333

@<SCITEGIC>MOL_PROPERTY
Idih
SciTegic.value.DoubleValue
0.001

@<SCITEGIC>MOL_PROPERTY
Tether
SciTegic.value.DoubleValue
0.000

@<TRIPOS>MOLECULE
guest-7_confgen4.mol2 : confsearch ligand conformer 858
          19          18           1
SMALL
USER_CHARGES
 
@<TRIPOS>ATOM
       1    C1      22.836421   17.884517   21.126332 C.2        1 MOL1         0.6115
       2    O1      23.138270   16.710310   21.046245 O.co2      1 MOL1        -0.6776
       3    O2      23.421953   18.770910   20.536653 O.co2      1 MOL1        -0.6776
       4    C2      21.644332   18.263891   21.997745 C.3        1 MOL1        -0.2013
       5    H1      21.843853   19.254022   22.422805 H          1 MOL1         0.0727
       6    H2      21.594030   17.555052   22.832926 H          1 MOL1         0.0727
       7    C3      20.305146   18.264525   21.215592 C.3        1 MOL1        -0.1910
       8    H3      20.351383   19.009668   20.409408 H          1 MOL1         0.0729
       9    H4      20.181311   17.287554   20.728134 H          1 MOL1         0.0729
      10    C4      19.069386   18.533984   22.106559 C.3        1 MOL1        -0.1909
      11    H5      19.021296   17.782347   22.906394 H          1 MOL1         0.0729
      12    H6      18.164715   18.398554   21.498084 H          1 MOL1         0.0729
      13    C5      19.052923   19.951210   22.721956 C.3        1 MOL1        -0.1884
      14    H7      19.910313   20.081769   23.395155 H          1 MOL1         0.0729
      15    H8      19.152331   20.702151   21.926045 H          1 MOL1         0.0729
      16    C6      17.753183   20.209750   23.510057 C.3        1 MOL1        -0.2899
      17    H9      17.757736   21.218447   23.943185 H          1 MOL1         0.0741
      18    H10     16.874219   20.125295   22.857619 H          1 MOL1         0.0741
      19    H11     17.641847   19.488904   24.330660 H          1 MOL1         0.0741
@<TRIPOS>BOND
    1     1     2    1
    2     1     3    2
    3     1     4    1
    4     4     5    1
    5     4     6    1
    6     4     7    1
    7     7     8    1
    8     7     9    1
    9     7    10    1
   10    10    11    1
   11    10    12    1
   12    10    13    1
   13    13    14    1
   14    13    15    1
   15    13    16    1
   16    16    17    1
   17    16    18    1
   18    16    19    1
@<TRIPOS>SUBSTRUCTURE
       1 MOL1            1 RESIDUE      1      MOL     
@<SCITEGIC>MOL_PROPERTY
VConf Rank
SciTegic.value.IntegerValue
858

@<SCITEGIC>MOL_PROPERTY
Conf_Id
SciTegic.value.IntegerValue
34

@<SCITEGIC>MOL_PROPERTY
Delta U+W
SciTegic.value.DoubleValue
-0.563

@<SCITEGIC>MOL_PROPERTY
U+W
SciTegic.value.DoubleValue
-55.455

@<SCITEGIC>MOL_PROPERTY
Grad RMS
SciTegic.value.DoubleValue
0.000000

@<SCITEGIC>MOL_PROPERTY
U
SciTegic.value.DoubleValue
6.914

@<SCITEGIC>MOL_PROPERTY
W
SciTegic.value.DoubleValue
-62.369

@<SCITEGIC>MOL_PROPERTY
W(PB)
SciTegic.value.DoubleValue
-64.446

@<SCITEGIC>MOL_PROPERTY
W(SA)
SciTegic.value.DoubleValue
2.077

@<SCITEGIC>MOL_PROPERTY
Valence
SciTegic.value.DoubleValue
7.196

@<SCITEGIC>MOL_PROPERTY
Coulomb
SciTegic.value.DoubleValue
-1.020

@<SCITEGIC>MOL_PROPERTY
VdW
SciTegic.value.DoubleValue
0.738

@<SCITEGIC>MOL_PROPERTY
VdW6
SciTegic.value.DoubleValue
-6.010

@<SCITEGIC>MOL_PROPERTY
VdW12
SciTegic.value.DoubleValue
6.748

@<SCITEGIC>MOL_PROPERTY
Bond
SciTegic.value.DoubleValue
0.126

@<SCITEGIC>MOL_PROPERTY
Angle
SciTegic.value.DoubleValue
2.499

@<SCITEGIC>MOL_PROPERTY
Pdih
SciTegic.value.DoubleValue
4.570

@<SCITEGIC>MOL_PROPERTY
Idih
SciTegic.value.DoubleValue
0.001

@<SCITEGIC>MOL_PROPERTY
Tether
SciTegic.value.DoubleValue
0.000

@<TRIPOS>MOLECULE
guest-7_confgen4.mol2 : confsearch ligand conformer 859
          19          18           1
SMALL
USER_CHARGES
 
@<TRIPOS>ATOM
       1    C1      23.181587   19.007326   22.367309 C.2        1 MOL1         0.6115
       2    O1      23.798029   19.852037   22.985979 O.co2      1 MOL1        -0.6776
       3    O2      23.678010   18.309027   21.505796 O.co2      1 MOL1        -0.6776
       4    C2      21.698748   18.829177   22.673596 C.3        1 MOL1        -0.2013
       5    H1      21.540905   19.055340   23.734938 H          1 MOL1         0.0727
       6    H2      21.452636   17.771577   22.526105 H          1 MOL1         0.0727
       7    C3      20.791922   19.729201   21.794504 C.3        1 MOL1        -0.1910
       8    H3      21.124754   20.771426   21.896555 H          1 MOL1         0.0729
       9    H4      20.925612   19.463151   20.736839 H          1 MOL1         0.0729
      10    C4      19.292870   19.648819   22.168544 C.3        1 MOL1        -0.1909
      11    H5      18.746397   20.399816   21.581702 H          1 MOL1         0.0729
      12    H6      19.161601   19.923589   23.224137 H          1 MOL1         0.0729
      13    C5      18.668977   18.258942   21.910642 C.3        1 MOL1        -0.1884
      14    H7      18.844767   17.961438   20.867637 H          1 MOL1         0.0729
      15    H8      19.150977   17.503779   22.545280 H          1 MOL1         0.0729
      16    C6      17.153482   18.258588   22.194439 C.3        1 MOL1        -0.2899
      17    H9      16.949878   18.526421   23.239530 H          1 MOL1         0.0741
      18    H10     16.632190   18.977065   21.548348 H          1 MOL1         0.0741
      19    H11     16.725705   17.264623   22.009690 H          1 MOL1         0.0741
@<TRIPOS>BOND
    1     1     2    1
    2     1     3    2
    3     1     4    1
    4     4     5    1
    5     4     6    1
    6     4     7    1
    7     7     8    1
    8     7     9    1
    9     7    10    1
   10    10    11    1
   11    10    12    1
   12    10    13    1
   13    13    14    1
   14    13    15    1
   15    13    16    1
   16    16    17    1
   17    16    18    1
   18    16    19    1
@<TRIPOS>SUBSTRUCTURE
       1 MOL1            1 RESIDUE      1      MOL     
@<SCITEGIC>MOL_PROPERTY
VConf Rank
SciTegic.value.IntegerValue
859

@<SCITEGIC>MOL_PROPERTY
Conf_Id
SciTegic.value.IntegerValue
33

@<SCITEGIC>MOL_PROPERTY
Delta U+W
SciTegic.value.DoubleValue
-0.526

@<SCITEGIC>MOL_PROPERTY
U+W
SciTegic.value.DoubleValue
-55.418

@<SCITEGIC>MOL_PROPERTY
Grad RMS
SciTegic.value.DoubleValue
0.000000

@<SCITEGIC>MOL_PROPERTY
U
SciTegic.value.DoubleValue
6.914

@<SCITEGIC>MOL_PROPERTY
W
SciTegic.value.DoubleValue
-62.332

@<SCITEGIC>MOL_PROPERTY
W(PB)
SciTegic.value.DoubleValue
-64.421

@<SCITEGIC>MOL_PROPERTY
W(SA)
SciTegic.value.DoubleValue
2.090

@<SCITEGIC>MOL_PROPERTY
Valence
SciTegic.value.DoubleValue
7.196

@<SCITEGIC>MOL_PROPERTY
Coulomb
SciTegic.value.DoubleValue
-1.020

@<SCITEGIC>MOL_PROPERTY
VdW
SciTegic.value.DoubleValue
0.738

@<SCITEGIC>MOL_PROPERTY
VdW6
SciTegic.value.DoubleValue
-6.010

@<SCITEGIC>MOL_PROPERTY
VdW12
SciTegic.value.DoubleValue
6.748

@<SCITEGIC>MOL_PROPERTY
Bond
SciTegic.value.DoubleValue
0.126

@<SCITEGIC>MOL_PROPERTY
Angle
SciTegic.value.DoubleValue
2.499

@<SCITEGIC>MOL_PROPERTY
Pdih
SciTegic.value.DoubleValue
4.570

@<SCITEGIC>MOL_PROPERTY
Idih
SciTegic.value.DoubleValue
0.001

@<SCITEGIC>MOL_PROPERTY
Tether
SciTegic.value.DoubleValue
0.000

@<TRIPOS>MOLECULE
guest-7_confgen4.mol2 : confsearch ligand conformer 860
          19          18           1
SMALL
USER_CHARGES
 
@<TRIPOS>ATOM
       1    C1      21.156513   20.447258   19.735653 C.2        1 MOL1         0.6115
       2    O1      20.384218   21.294482   19.333172 O.co2      1 MOL1        -0.6776
       3    O2      22.364773   20.572872   19.711712 O.co2      1 MOL1        -0.6776
       4    C2      20.577317   19.163205   20.318954 C.3        1 MOL1        -0.2013
       5    H1      21.272983   18.344715   20.098045 H          1 MOL1         0.0727
       6    H2      19.639987   18.942624   19.794089 H          1 MOL1         0.0727
       7    C3      20.325877   19.254518   21.844366 C.3        1 MOL1        -0.1910
       8    H3      21.271232   19.485071   22.354650 H          1 MOL1         0.0729
       9    H4      19.642664   20.090944   22.042438 H          1 MOL1         0.0729
      10    C4      19.735831   17.941116   22.407822 C.3        1 MOL1        -0.1909
      11    H5      20.397663   17.106918   22.137478 H          1 MOL1         0.0729
      12    H6      18.766719   17.736408   21.932507 H          1 MOL1         0.0729
      13    C5      19.565363   17.954290   23.944491 C.3        1 MOL1        -0.1884
      14    H7      19.256325   16.952545   24.273500 H          1 MOL1         0.0729
      15    H8      20.533877   18.153257   24.423782 H          1 MOL1         0.0729
      16    C6      18.522429   18.981856   24.434643 C.3        1 MOL1        -0.2899
      17    H9      17.552488   18.820712   23.946376 H          1 MOL1         0.0741
      18    H10     18.374356   18.891010   25.518508 H          1 MOL1         0.0741
      19    H11     18.845375   20.010014   24.228877 H          1 MOL1         0.0741
@<TRIPOS>BOND
    1     1     2    1
    2     1     3    2
    3     1     4    1
    4     4     5    1
    5     4     6    1
    6     4     7    1
    7     7     8    1
    8     7     9    1
    9     7    10    1
   10    10    11    1
   11    10    12    1
   12    10    13    1
   13    13    14    1
   14    13    15    1
   15    13    16    1
   16    16    17    1
   17    16    18    1
   18    16    19    1
@<TRIPOS>SUBSTRUCTURE
       1 MOL1            1 RESIDUE      1      MOL     
@<SCITEGIC>MOL_PROPERTY
VConf Rank
SciTegic.value.IntegerValue
860

@<SCITEGIC>MOL_PROPERTY
Conf_Id
SciTegic.value.IntegerValue
42

@<SCITEGIC>MOL_PROPERTY
Delta U+W
SciTegic.value.DoubleValue
-0.344

@<SCITEGIC>MOL_PROPERTY
U+W
SciTegic.value.DoubleValue
-55.236

@<SCITEGIC>MOL_PROPERTY
Grad RMS
SciTegic.value.DoubleValue
0.000000

@<SCITEGIC>MOL_PROPERTY
U
SciTegic.value.DoubleValue
7.244

@<SCITEGIC>MOL_PROPERTY
W
SciTegic.value.DoubleValue
-62.479

@<SCITEGIC>MOL_PROPERTY
W(PB)
SciTegic.value.DoubleValue
-64.610

@<SCITEGIC>MOL_PROPERTY
W(SA)
SciTegic.value.DoubleValue
2.130

@<SCITEGIC>MOL_PROPERTY
Valence
SciTegic.value.DoubleValue
7.174

@<SCITEGIC>MOL_PROPERTY
Coulomb
SciTegic.value.DoubleValue
-0.669

@<SCITEGIC>MOL_PROPERTY
VdW
SciTegic.value.DoubleValue
0.739

@<SCITEGIC>MOL_PROPERTY
VdW6
SciTegic.value.DoubleValue
-5.969

@<SCITEGIC>MOL_PROPERTY
VdW12
SciTegic.value.DoubleValue
6.708

@<SCITEGIC>MOL_PROPERTY
Bond
SciTegic.value.DoubleValue
0.116

@<SCITEGIC>MOL_PROPERTY
Angle
SciTegic.value.DoubleValue
2.481

@<SCITEGIC>MOL_PROPERTY
Pdih
SciTegic.value.DoubleValue
4.576

@<SCITEGIC>MOL_PROPERTY
Idih
SciTegic.value.DoubleValue
0.000

@<SCITEGIC>MOL_PROPERTY
Tether
SciTegic.value.DoubleValue
0.000

@<TRIPOS>MOLECULE
guest-7_confgen4.mol2 : confsearch ligand conformer 861
          19          18           1
SMALL
USER_CHARGES
 
@<TRIPOS>ATOM
       1    C1      18.253670   16.876589   23.824156 C.2        1 MOL1         0.6115
       2    O1      18.346469   15.775235   23.319547 O.co2      1 MOL1        -0.6776
       3    O2      17.231733   17.303405   24.323874 O.co2      1 MOL1        -0.6776
       4    C2      19.481973   17.779727   23.813548 C.3        1 MOL1        -0.2013
       5    H1      20.373172   17.144210   23.881453 H          1 MOL1         0.0727
       6    H2      19.456409   18.399985   24.717597 H          1 MOL1         0.0727
       7    C3      19.560129   18.675248   22.552446 C.3        1 MOL1        -0.1910
       8    H3      19.565607   18.034070   21.661109 H          1 MOL1         0.0729
       9    H4      18.657087   19.298372   22.493532 H          1 MOL1         0.0729
      10    C4      20.816052   19.576979   22.566498 C.3        1 MOL1        -0.1909
      11    H5      21.720168   18.952883   22.575772 H          1 MOL1         0.0729
      12    H6      20.828888   20.157619   23.499066 H          1 MOL1         0.0729
      13    C5      20.878998   20.560421   21.375083 C.3        1 MOL1        -0.1884
      14    H7      19.978769   21.190364   21.365702 H          1 MOL1         0.0729
      15    H8      21.730779   21.238655   21.522432 H          1 MOL1         0.0729
      16    C6      21.034762   19.856717   20.009657 C.3        1 MOL1        -0.2899
      17    H9      20.150679   19.254411   19.765998 H          1 MOL1         0.0741
      18    H10     21.163254   20.596714   19.209134 H          1 MOL1         0.0741
      19    H11     21.912918   19.197948   20.005033 H          1 MOL1         0.0741
@<TRIPOS>BOND
    1     1     2    1
    2     1     3    2
    3     1     4    1
    4     4     5    1
    5     4     6    1
    6     4     7    1
    7     7     8    1
    8     7     9    1
    9     7    10    1
   10    10    11    1
   11    10    12    1
   12    10    13    1
   13    13    14    1
   14    13    15    1
   15    13    16    1
   16    16    17    1
   17    16    18    1
   18    16    19    1
@<TRIPOS>SUBSTRUCTURE
       1 MOL1            1 RESIDUE      1      MOL     
@<SCITEGIC>MOL_PROPERTY
VConf Rank
SciTegic.value.IntegerValue
861

@<SCITEGIC>MOL_PROPERTY
Conf_Id
SciTegic.value.IntegerValue
41

@<SCITEGIC>MOL_PROPERTY
Delta U+W
SciTegic.value.DoubleValue
-0.361

@<SCITEGIC>MOL_PROPERTY
U+W
SciTegic.value.DoubleValue
-55.252

@<SCITEGIC>MOL_PROPERTY
Grad RMS
SciTegic.value.DoubleValue
0.000000

@<SCITEGIC>MOL_PROPERTY
U
SciTegic.value.DoubleValue
7.244

@<SCITEGIC>MOL_PROPERTY
W
SciTegic.value.DoubleValue
-62.496

@<SCITEGIC>MOL_PROPERTY
W(PB)
SciTegic.value.DoubleValue
-64.596

@<SCITEGIC>MOL_PROPERTY
W(SA)
SciTegic.value.DoubleValue
2.099

@<SCITEGIC>MOL_PROPERTY
Valence
SciTegic.value.DoubleValue
7.174

@<SCITEGIC>MOL_PROPERTY
Coulomb
SciTegic.value.DoubleValue
-0.669

@<SCITEGIC>MOL_PROPERTY
VdW
SciTegic.value.DoubleValue
0.739

@<SCITEGIC>MOL_PROPERTY
VdW6
SciTegic.value.DoubleValue
-5.969

@<SCITEGIC>MOL_PROPERTY
VdW12
SciTegic.value.DoubleValue
6.708

@<SCITEGIC>MOL_PROPERTY
Bond
SciTegic.value.DoubleValue
0.116

@<SCITEGIC>MOL_PROPERTY
Angle
SciTegic.value.DoubleValue
2.481

@<SCITEGIC>MOL_PROPERTY
Pdih
SciTegic.value.DoubleValue
4.576

@<SCITEGIC>MOL_PROPERTY
Idih
SciTegic.value.DoubleValue
0.000

@<SCITEGIC>MOL_PROPERTY
Tether
SciTegic.value.DoubleValue
0.000

@<TRIPOS>MOLECULE
guest-7_confgen4.mol2 : confsearch ligand conformer 862
          19          18           1
SMALL
USER_CHARGES
 
@<TRIPOS>ATOM
       1    C1      19.102664   16.267737   21.788550 C.2        1 MOL1         0.6115
       2    O1      18.056230   16.447244   21.197532 O.co2      1 MOL1        -0.6776
       3    O2      20.005693   15.576134   21.360878 O.co2      1 MOL1        -0.6776
       4    C2      19.286206   16.927895   23.152313 C.3        1 MOL1        -0.2013
       5    H1      19.684693   16.167146   23.833914 H          1 MOL1         0.0727
       6    H2      18.300447   17.214710   23.538322 H          1 MOL1         0.0727
       7    C3      20.233026   18.156061   23.137049 C.3        1 MOL1        -0.1910
       8    H3      20.415315   18.478246   24.171216 H          1 MOL1         0.0729
       9    H4      21.206390   17.860014   22.721658 H          1 MOL1         0.0729
      10    C4      19.657285   19.340277   22.328677 C.3        1 MOL1        -0.1909
      11    H5      18.678615   19.623932   22.739500 H          1 MOL1         0.0729
      12    H6      19.487984   19.030753   21.288027 H          1 MOL1         0.0729
      13    C5      20.600607   20.560990   22.353314 C.3        1 MOL1        -0.1884
      14    H7      20.770298   20.877753   23.391725 H          1 MOL1         0.0729
      15    H8      21.579671   20.280646   21.940624 H          1 MOL1         0.0729
      16    C6      20.023354   21.740828   21.546012 C.3        1 MOL1        -0.2899
      17    H9      19.057418   22.062556   21.956946 H          1 MOL1         0.0741
      18    H10     20.706566   22.599630   21.573697 H          1 MOL1         0.0741
      19    H11     19.872759   21.461057   20.495064 H          1 MOL1         0.0741
@<TRIPOS>BOND
    1     1     2    1
    2     1     3    2
    3     1     4    1
    4     4     5    1
    5     4     6    1
    6     4     7    1
    7     7     8    1
    8     7     9    1
    9     7    10    1
   10    10    11    1
   11    10    12    1
   12    10    13    1
   13    13    14    1
   14    13    15    1
   15    13    16    1
   16    16    17    1
   17    16    18    1
   18    16    19    1
@<TRIPOS>SUBSTRUCTURE
       1 MOL1            1 RESIDUE      1      MOL     
@<SCITEGIC>MOL_PROPERTY
VConf Rank
SciTegic.value.IntegerValue
862

@<SCITEGIC>MOL_PROPERTY
Conf_Id
SciTegic.value.IntegerValue
36

@<SCITEGIC>MOL_PROPERTY
Delta U+W
SciTegic.value.DoubleValue
-0.079

@<SCITEGIC>MOL_PROPERTY
U+W
SciTegic.value.DoubleValue
-54.971

@<SCITEGIC>MOL_PROPERTY
Grad RMS
SciTegic.value.DoubleValue
0.000000

@<SCITEGIC>MOL_PROPERTY
U
SciTegic.value.DoubleValue
8.266

@<SCITEGIC>MOL_PROPERTY
W
SciTegic.value.DoubleValue
-63.237

@<SCITEGIC>MOL_PROPERTY
W(PB)
SciTegic.value.DoubleValue
-65.340

@<SCITEGIC>MOL_PROPERTY
W(SA)
SciTegic.value.DoubleValue
2.103

@<SCITEGIC>MOL_PROPERTY
Valence
SciTegic.value.DoubleValue
6.935

@<SCITEGIC>MOL_PROPERTY
Coulomb
SciTegic.value.DoubleValue
0.874

@<SCITEGIC>MOL_PROPERTY
VdW
SciTegic.value.DoubleValue
0.457

@<SCITEGIC>MOL_PROPERTY
VdW6
SciTegic.value.DoubleValue
-6.205

@<SCITEGIC>MOL_PROPERTY
VdW12
SciTegic.value.DoubleValue
6.662

@<SCITEGIC>MOL_PROPERTY
Bond
SciTegic.value.DoubleValue
0.107

@<SCITEGIC>MOL_PROPERTY
Angle
SciTegic.value.DoubleValue
2.420

@<SCITEGIC>MOL_PROPERTY
Pdih
SciTegic.value.DoubleValue
4.407

@<SCITEGIC>MOL_PROPERTY
Idih
SciTegic.value.DoubleValue
0.001

@<SCITEGIC>MOL_PROPERTY
Tether
SciTegic.value.DoubleValue
0.000

@<TRIPOS>MOLECULE
guest-7_confgen4.mol2 : confsearch ligand conformer 863
          19          18           1
SMALL
USER_CHARGES
 
@<TRIPOS>ATOM
       1    C1      20.101095   16.103599   22.061058 C.2        1 MOL1         0.6115
       2    O1      21.197380   15.833758   22.510390 O.co2      1 MOL1        -0.6776
       3    O2      19.698376   15.703581   20.986589 O.co2      1 MOL1        -0.6776
       4    C2      19.169451   16.974420   22.899542 C.3        1 MOL1        -0.2013
       5    H1      19.520954   16.964320   23.938451 H          1 MOL1         0.0727
       6    H2      18.182015   16.497921   22.894126 H          1 MOL1         0.0727
       7    C3      19.042436   18.434240   22.391719 C.3        1 MOL1        -0.1910
       8    H3      18.717324   18.427375   21.342011 H          1 MOL1         0.0729
       9    H4      18.254579   18.943069   22.963479 H          1 MOL1         0.0729
      10    C4      20.361838   19.227016   22.525858 C.3        1 MOL1        -0.1909
      11    H5      21.151389   18.733405   21.942437 H          1 MOL1         0.0729
      12    H6      20.689444   19.219899   23.574502 H          1 MOL1         0.0729
      13    C5      20.204016   20.684416   22.044526 C.3        1 MOL1        -0.1884
      14    H7      19.878636   20.694479   20.995002 H          1 MOL1         0.0729
      15    H8      19.418307   21.184595   22.627546 H          1 MOL1         0.0729
      16    C6      21.522089   21.472709   22.179647 C.3        1 MOL1        -0.2899
      17    H9      22.318471   21.011577   21.580836 H          1 MOL1         0.0741
      18    H10     21.392191   22.506091   21.832754 H          1 MOL1         0.0741
      19    H11     21.854694   21.505347   23.225455 H          1 MOL1         0.0741
@<TRIPOS>BOND
    1     1     2    1
    2     1     3    2
    3     1     4    1
    4     4     5    1
    5     4     6    1
    6     4     7    1
    7     7     8    1
    8     7     9    1
    9     7    10    1
   10    10    11    1
   11    10    12    1
   12    10    13    1
   13    13    14    1
   14    13    15    1
   15    13    16    1
   16    16    17    1
   17    16    18    1
   18    16    19    1
@<TRIPOS>SUBSTRUCTURE
       1 MOL1            1 RESIDUE      1      MOL     
@<SCITEGIC>MOL_PROPERTY
VConf Rank
SciTegic.value.IntegerValue
863

@<SCITEGIC>MOL_PROPERTY
Conf_Id
SciTegic.value.IntegerValue
35

@<SCITEGIC>MOL_PROPERTY
Delta U+W
SciTegic.value.DoubleValue
-0.030

@<SCITEGIC>MOL_PROPERTY
U+W
SciTegic.value.DoubleValue
-54.921

@<SCITEGIC>MOL_PROPERTY
Grad RMS
SciTegic.value.DoubleValue
0.000000

@<SCITEGIC>MOL_PROPERTY
U
SciTegic.value.DoubleValue
8.267

@<SCITEGIC>MOL_PROPERTY
W
SciTegic.value.DoubleValue
-63.188

@<SCITEGIC>MOL_PROPERTY
W(PB)
SciTegic.value.DoubleValue
-65.294

@<SCITEGIC>MOL_PROPERTY
W(SA)
SciTegic.value.DoubleValue
2.106

@<SCITEGIC>MOL_PROPERTY
Valence
SciTegic.value.DoubleValue
6.935

@<SCITEGIC>MOL_PROPERTY
Coulomb
SciTegic.value.DoubleValue
0.875

@<SCITEGIC>MOL_PROPERTY
VdW
SciTegic.value.DoubleValue
0.457

@<SCITEGIC>MOL_PROPERTY
VdW6
SciTegic.value.DoubleValue
-6.205

@<SCITEGIC>MOL_PROPERTY
VdW12
SciTegic.value.DoubleValue
6.662

@<SCITEGIC>MOL_PROPERTY
Bond
SciTegic.value.DoubleValue
0.107

@<SCITEGIC>MOL_PROPERTY
Angle
SciTegic.value.DoubleValue
2.420

@<SCITEGIC>MOL_PROPERTY
Pdih
SciTegic.value.DoubleValue
4.407

@<SCITEGIC>MOL_PROPERTY
Idih
SciTegic.value.DoubleValue
0.001

@<SCITEGIC>MOL_PROPERTY
Tether
SciTegic.value.DoubleValue
0.000

@<TRIPOS>MOLECULE
guest-7_confgen4.mol2 : confsearch ligand conformer 864
          19          18           1
SMALL
USER_CHARGES
 
@<TRIPOS>ATOM
       1    C1      22.179400   18.480847   20.303003 C.2        1 MOL1         0.6115
       2    O1      21.891063   18.926609   19.209903 O.co2      1 MOL1        -0.6776
       3    O2      22.633026   17.366822   20.475678 O.co2      1 MOL1        -0.6776
       4    C2      21.980586   19.378364   21.521368 C.3        1 MOL1        -0.2013
       5    H1      22.388263   20.364875   21.270988 H          1 MOL1         0.0727
       6    H2      22.584746   18.986048   22.348434 H          1 MOL1         0.0727
       7    C3      20.501337   19.527347   21.963351 C.3        1 MOL1        -0.1910
       8    H3      20.445848   20.302840   22.737872 H          1 MOL1         0.0729
       9    H4      19.901861   19.883199   21.114042 H          1 MOL1         0.0729
      10    C4      19.907986   18.205662   22.507195 C.3        1 MOL1        -0.1909
      11    H5      20.485603   17.871818   23.379964 H          1 MOL1         0.0729
      12    H6      20.016290   17.421085   21.745793 H          1 MOL1         0.0729
      13    C5      18.412842   18.313744   22.886262 C.3        1 MOL1        -0.1884
      14    H7      17.832120   18.645513   22.014480 H          1 MOL1         0.0729
      15    H8      18.041633   17.312050   23.143235 H          1 MOL1         0.0729
      16    C6      18.150068   19.260854   24.077039 C.3        1 MOL1        -0.2899
      17    H9      18.396843   20.299766   23.825273 H          1 MOL1         0.0741
      18    H10     17.090880   19.231633   24.363751 H          1 MOL1         0.0741
      19    H11     18.745032   18.966974   24.951567 H          1 MOL1         0.0741
@<TRIPOS>BOND
    1     1     2    1
    2     1     3    2
    3     1     4    1
    4     4     5    1
    5     4     6    1
    6     4     7    1
    7     7     8    1
    8     7     9    1
    9     7    10    1
   10    10    11    1
   11    10    12    1
   12    10    13    1
   13    13    14    1
   14    13    15    1
   15    13    16    1
   16    16    17    1
   17    16    18    1
   18    16    19    1
@<TRIPOS>SUBSTRUCTURE
       1 MOL1            1 RESIDUE      1      MOL     
@<SCITEGIC>MOL_PROPERTY
VConf Rank
SciTegic.value.IntegerValue
864

@<SCITEGIC>MOL_PROPERTY
Conf_Id
SciTegic.value.IntegerValue
74

@<SCITEGIC>MOL_PROPERTY
Delta U+W
SciTegic.value.DoubleValue
0.797

@<SCITEGIC>MOL_PROPERTY
U+W
SciTegic.value.DoubleValue
-54.095

@<SCITEGIC>MOL_PROPERTY
Grad RMS
SciTegic.value.DoubleValue
0.000000

@<SCITEGIC>MOL_PROPERTY
U
SciTegic.value.DoubleValue
8.869

@<SCITEGIC>MOL_PROPERTY
W
SciTegic.value.DoubleValue
-62.964

@<SCITEGIC>MOL_PROPERTY
W(PB)
SciTegic.value.DoubleValue
-65.046

@<SCITEGIC>MOL_PROPERTY
W(SA)
SciTegic.value.DoubleValue
2.082

@<SCITEGIC>MOL_PROPERTY
Valence
SciTegic.value.DoubleValue
7.469

@<SCITEGIC>MOL_PROPERTY
Coulomb
SciTegic.value.DoubleValue
0.762

@<SCITEGIC>MOL_PROPERTY
VdW
SciTegic.value.DoubleValue
0.639

@<SCITEGIC>MOL_PROPERTY
VdW6
SciTegic.value.DoubleValue
-6.782

@<SCITEGIC>MOL_PROPERTY
VdW12
SciTegic.value.DoubleValue
7.421

@<SCITEGIC>MOL_PROPERTY
Bond
SciTegic.value.DoubleValue
0.141

@<SCITEGIC>MOL_PROPERTY
Angle
SciTegic.value.DoubleValue
2.667

@<SCITEGIC>MOL_PROPERTY
Pdih
SciTegic.value.DoubleValue
4.660

@<SCITEGIC>MOL_PROPERTY
Idih
SciTegic.value.DoubleValue
0.001

@<SCITEGIC>MOL_PROPERTY
Tether
SciTegic.value.DoubleValue
0.000

@<TRIPOS>MOLECULE
guest-7_confgen4.mol2 : confsearch ligand conformer 865
          19          18           1
SMALL
USER_CHARGES
 
@<TRIPOS>ATOM
       1    C1      19.750820   17.975001   25.061944 C.2        1 MOL1         0.6115
       2    O1      20.447996   17.180852   25.661690 O.co2      1 MOL1        -0.6776
       3    O2      19.064756   18.814837   25.609953 O.co2      1 MOL1        -0.6776
       4    C2      19.751904   17.926766   23.538169 C.3        1 MOL1        -0.2013
       5    H1      18.755710   18.227322   23.194042 H          1 MOL1         0.0727
       6    H2      19.903150   16.885383   23.229949 H          1 MOL1         0.0727
       7    C3      20.840696   18.834279   22.909249 C.3        1 MOL1        -0.1910
       8    H3      20.657108   19.878966   23.193332 H          1 MOL1         0.0729
       9    H4      21.814620   18.568443   23.342841 H          1 MOL1         0.0729
      10    C4      20.936762   18.709039   21.367881 C.3        1 MOL1        -0.1909
      11    H5      21.221716   17.679491   21.111704 H          1 MOL1         0.0729
      12    H6      21.756926   19.347794   21.012770 H          1 MOL1         0.0729
      13    C5      19.646349   19.075634   20.594356 C.3        1 MOL1        -0.1884
      14    H7      19.830691   18.934768   19.520459 H          1 MOL1         0.0729
      15    H8      18.836897   18.381566   20.856398 H          1 MOL1         0.0729
      16    C6      19.183167   20.529065   20.831834 C.3        1 MOL1        -0.2899
      17    H9      19.985744   21.240442   20.597644 H          1 MOL1         0.0741
      18    H10     18.322539   20.767170   20.193524 H          1 MOL1         0.0741
      19    H11     18.877234   20.684747   21.874156 H          1 MOL1         0.0741
@<TRIPOS>BOND
    1     1     2    1
    2     1     3    2
    3     1     4    1
    4     4     5    1
    5     4     6    1
    6     4     7    1
    7     7     8    1
    8     7     9    1
    9     7    10    1
   10    10    11    1
   11    10    12    1
   12    10    13    1
   13    13    14    1
   14    13    15    1
   15    13    16    1
   16    16    17    1
   17    16    18    1
   18    16    19    1
@<TRIPOS>SUBSTRUCTURE
       1 MOL1            1 RESIDUE      1      MOL     
@<SCITEGIC>MOL_PROPERTY
VConf Rank
SciTegic.value.IntegerValue
865

@<SCITEGIC>MOL_PROPERTY
Conf_Id
SciTegic.value.IntegerValue
67

@<SCITEGIC>MOL_PROPERTY
Delta U+W
SciTegic.value.DoubleValue
0.308

@<SCITEGIC>MOL_PROPERTY
U+W
SciTegic.value.DoubleValue
-54.583

@<SCITEGIC>MOL_PROPERTY
Grad RMS
SciTegic.value.DoubleValue
0.000000

@<SCITEGIC>MOL_PROPERTY
U
SciTegic.value.DoubleValue
8.219

@<SCITEGIC>MOL_PROPERTY
W
SciTegic.value.DoubleValue
-62.802

@<SCITEGIC>MOL_PROPERTY
W(PB)
SciTegic.value.DoubleValue
-64.859

@<SCITEGIC>MOL_PROPERTY
W(SA)
SciTegic.value.DoubleValue
2.057

@<SCITEGIC>MOL_PROPERTY
Valence
SciTegic.value.DoubleValue
7.609

@<SCITEGIC>MOL_PROPERTY
Coulomb
SciTegic.value.DoubleValue
-0.089

@<SCITEGIC>MOL_PROPERTY
VdW
SciTegic.value.DoubleValue
0.699

@<SCITEGIC>MOL_PROPERTY
VdW6
SciTegic.value.DoubleValue
-6.924

@<SCITEGIC>MOL_PROPERTY
VdW12
SciTegic.value.DoubleValue
7.623

@<SCITEGIC>MOL_PROPERTY
Bond
SciTegic.value.DoubleValue
0.163

@<SCITEGIC>MOL_PROPERTY
Angle
SciTegic.value.DoubleValue
2.870

@<SCITEGIC>MOL_PROPERTY
Pdih
SciTegic.value.DoubleValue
4.576

@<SCITEGIC>MOL_PROPERTY
Idih
SciTegic.value.DoubleValue
0.001

@<SCITEGIC>MOL_PROPERTY
Tether
SciTegic.value.DoubleValue
0.000

@<TRIPOS>MOLECULE
guest-7_confgen4.mol2 : confsearch ligand conformer 866
          19          18           1
SMALL
USER_CHARGES
 
@<TRIPOS>ATOM
       1    C1      21.649790   20.124175   24.392768 C.2        1 MOL1         0.6115
       2    O1      22.459886   21.025987   24.309684 O.co2      1 MOL1        -0.6776
       3    O2      21.661890   19.289112   25.275290 O.co2      1 MOL1        -0.6776
       4    C2      20.571277   20.024094   23.319917 C.3        1 MOL1        -0.2013
       5    H1      20.329452   21.039350   22.983567 H          1 MOL1         0.0727
       6    H2      19.670456   19.612914   23.789609 H          1 MOL1         0.0727
       7    C3      21.002760   19.149677   22.114179 C.3        1 MOL1        -0.1910
       8    H3      21.955372   19.533342   21.723625 H          1 MOL1         0.0729
       9    H4      21.205419   18.126222   22.456592 H          1 MOL1         0.0729
      10    C4      19.968569   19.131835   20.960553 C.3        1 MOL1        -0.1909
      11    H5      20.371555   18.529202   20.135196 H          1 MOL1         0.0729
      12    H6      19.858264   20.151085   20.565891 H          1 MOL1         0.0729
      13    C5      18.568025   18.589858   21.338226 C.3        1 MOL1        -0.1884
      14    H7      18.100011   19.239230   22.089817 H          1 MOL1         0.0729
      15    H8      17.922835   18.639906   20.450360 H          1 MOL1         0.0729
      16    C6      18.593740   17.134075   21.851484 C.3        1 MOL1        -0.2899
      17    H9      19.133548   17.056557   22.803780 H          1 MOL1         0.0741
      18    H10     17.572640   16.767036   22.017174 H          1 MOL1         0.0741
      19    H11     19.078774   16.469693   21.124595 H          1 MOL1         0.0741
@<TRIPOS>BOND
    1     1     2    1
    2     1     3    2
    3     1     4    1
    4     4     5    1
    5     4     6    1
    6     4     7    1
    7     7     8    1
    8     7     9    1
    9     7    10    1
   10    10    11    1
   11    10    12    1
   12    10    13    1
   13    13    14    1
   14    13    15    1
   15    13    16    1
   16    16    17    1
   17    16    18    1
   18    16    19    1
@<TRIPOS>SUBSTRUCTURE
       1 MOL1            1 RESIDUE      1      MOL     
@<SCITEGIC>MOL_PROPERTY
VConf Rank
SciTegic.value.IntegerValue
866

@<SCITEGIC>MOL_PROPERTY
Conf_Id
SciTegic.value.IntegerValue
21

@<SCITEGIC>MOL_PROPERTY
Delta U+W
SciTegic.value.DoubleValue
0.319

@<SCITEGIC>MOL_PROPERTY
U+W
SciTegic.value.DoubleValue
-54.572

@<SCITEGIC>MOL_PROPERTY
Grad RMS
SciTegic.value.DoubleValue
0.000000

@<SCITEGIC>MOL_PROPERTY
U
SciTegic.value.DoubleValue
8.220

@<SCITEGIC>MOL_PROPERTY
W
SciTegic.value.DoubleValue
-62.792

@<SCITEGIC>MOL_PROPERTY
W(PB)
SciTegic.value.DoubleValue
-64.830

@<SCITEGIC>MOL_PROPERTY
W(SA)
SciTegic.value.DoubleValue
2.038

@<SCITEGIC>MOL_PROPERTY
Valence
SciTegic.value.DoubleValue
7.609

@<SCITEGIC>MOL_PROPERTY
Coulomb
SciTegic.value.DoubleValue
-0.088

@<SCITEGIC>MOL_PROPERTY
VdW
SciTegic.value.DoubleValue
0.699

@<SCITEGIC>MOL_PROPERTY
VdW6
SciTegic.value.DoubleValue
-6.924

@<SCITEGIC>MOL_PROPERTY
VdW12
SciTegic.value.DoubleValue
7.623

@<SCITEGIC>MOL_PROPERTY
Bond
SciTegic.value.DoubleValue
0.163

@<SCITEGIC>MOL_PROPERTY
Angle
SciTegic.value.DoubleValue
2.870

@<SCITEGIC>MOL_PROPERTY
Pdih
SciTegic.value.DoubleValue
4.576

@<SCITEGIC>MOL_PROPERTY
Idih
SciTegic.value.DoubleValue
0.000

@<SCITEGIC>MOL_PROPERTY
Tether
SciTegic.value.DoubleValue
0.000

@<TRIPOS>MOLECULE
guest-7_confgen4.mol2 : confsearch ligand conformer 867
          19          18           1
SMALL
USER_CHARGES
 
@<TRIPOS>ATOM
       1    C1      18.146612   16.807997   23.052305 C.2        1 MOL1         0.6115
       2    O1      17.786287   16.419936   24.145928 O.co2      1 MOL1        -0.6776
       3    O2      17.508281   16.633639   22.033292 O.co2      1 MOL1        -0.6776
       4    C2      19.462763   17.571375   22.956996 C.3        1 MOL1        -0.2013
       5    H1      19.907936   17.352505   21.981425 H          1 MOL1         0.0727
       6    H2      20.143466   17.167855   23.716074 H          1 MOL1         0.0727
       7    C3      19.286906   19.099603   23.159942 C.3        1 MOL1        -0.1910
       8    H3      18.560275   19.496110   22.437398 H          1 MOL1         0.0729
       9    H4      18.847722   19.259756   24.154358 H          1 MOL1         0.0729
      10    C4      20.616813   19.890572   23.072410 C.3        1 MOL1        -0.1909
      11    H5      21.456007   19.262361   23.401046 H          1 MOL1         0.0729
      12    H6      20.567427   20.721621   23.789272 H          1 MOL1         0.0729
      13    C5      20.918661   20.495536   21.679279 C.3        1 MOL1        -0.1884
      14    H7      20.116246   21.191583   21.398378 H          1 MOL1         0.0729
      15    H8      21.835303   21.096927   21.752010 H          1 MOL1         0.0729
      16    C6      21.102408   19.448892   20.561035 C.3        1 MOL1        -0.2899
      17    H9      21.441429   19.932040   19.635591 H          1 MOL1         0.0741
      18    H10     21.849900   18.696424   20.843921 H          1 MOL1         0.0741
      19    H11     20.157434   18.937546   20.338897 H          1 MOL1         0.0741
@<TRIPOS>BOND
    1     1     2    1
    2     1     3    2
    3     1     4    1
    4     4     5    1
    5     4     6    1
    6     4     7    1
    7     7     8    1
    8     7     9    1
    9     7    10    1
   10    10    11    1
   11    10    12    1
   12    10    13    1
   13    13    14    1
   14    13    15    1
   15    13    16    1
   16    16    17    1
   17    16    18    1
   18    16    19    1
@<TRIPOS>SUBSTRUCTURE
       1 MOL1            1 RESIDUE      1      MOL     
@<SCITEGIC>MOL_PROPERTY
VConf Rank
SciTegic.value.IntegerValue
867

@<SCITEGIC>MOL_PROPERTY
Conf_Id
SciTegic.value.IntegerValue
24

@<SCITEGIC>MOL_PROPERTY
Delta U+W
SciTegic.value.DoubleValue
2.477

@<SCITEGIC>MOL_PROPERTY
U+W
SciTegic.value.DoubleValue
-52.414

@<SCITEGIC>MOL_PROPERTY
Grad RMS
SciTegic.value.DoubleValue
0.000000

@<SCITEGIC>MOL_PROPERTY
U
SciTegic.value.DoubleValue
10.422

@<SCITEGIC>MOL_PROPERTY
W
SciTegic.value.DoubleValue
-62.836

@<SCITEGIC>MOL_PROPERTY
W(PB)
SciTegic.value.DoubleValue
-64.906

@<SCITEGIC>MOL_PROPERTY
W(SA)
SciTegic.value.DoubleValue
2.070

@<SCITEGIC>MOL_PROPERTY
Valence
SciTegic.value.DoubleValue
9.628

@<SCITEGIC>MOL_PROPERTY
Coulomb
SciTegic.value.DoubleValue
0.101

@<SCITEGIC>MOL_PROPERTY
VdW
SciTegic.value.DoubleValue
0.693

@<SCITEGIC>MOL_PROPERTY
VdW6
SciTegic.value.DoubleValue
-6.927

@<SCITEGIC>MOL_PROPERTY
VdW12
SciTegic.value.DoubleValue
7.620

@<SCITEGIC>MOL_PROPERTY
Bond
SciTegic.value.DoubleValue
0.173

@<SCITEGIC>MOL_PROPERTY
Angle
SciTegic.value.DoubleValue
2.989

@<SCITEGIC>MOL_PROPERTY
Pdih
SciTegic.value.DoubleValue
6.465

@<SCITEGIC>MOL_PROPERTY
Idih
SciTegic.value.DoubleValue
0.001

@<SCITEGIC>MOL_PROPERTY
Tether
SciTegic.value.DoubleValue
0.000

@<TRIPOS>MOLECULE
guest-7_confgen4.mol2 : confsearch ligand conformer 868
          19          18           1
SMALL
USER_CHARGES
 
@<TRIPOS>ATOM
       1    C1      18.614742   21.037153   21.291570 C.2        1 MOL1         0.6115
       2    O1      18.461469   21.681004   22.310713 O.co2      1 MOL1        -0.6776
       3    O2      18.738076   21.540646   20.192316 O.co2      1 MOL1        -0.6776
       4    C2      18.624209   19.513860   21.390156 C.3        1 MOL1        -0.2013
       5    H1      17.940352   19.135610   20.621375 H          1 MOL1         0.0727
       6    H2      18.197893   19.227758   22.356919 H          1 MOL1         0.0727
       7    C3      20.027095   18.876775   21.187745 C.3        1 MOL1        -0.1910
       8    H3      19.928008   17.789710   21.066479 H          1 MOL1         0.0729
       9    H4      20.435901   19.250305   20.238594 H          1 MOL1         0.0729
      10    C4      21.036903   19.187437   22.323199 C.3        1 MOL1        -0.1909
      11    H5      20.820759   20.165781   22.773677 H          1 MOL1         0.0729
      12    H6      22.035438   19.280655   21.874846 H          1 MOL1         0.0729
      13    C5      21.121484   18.104137   23.426473 C.3        1 MOL1        -0.1884
      14    H7      21.425993   17.146887   22.981333 H          1 MOL1         0.0729
      15    H8      21.919037   18.384051   24.128408 H          1 MOL1         0.0729
      16    C6      19.813044   17.907386   24.219461 C.3        1 MOL1        -0.2899
      17    H9      19.031495   17.465151   23.589410 H          1 MOL1         0.0741
      18    H10     19.976290   17.230181   25.067707 H          1 MOL1         0.0741
      19    H11     19.444619   18.863374   24.614222 H          1 MOL1         0.0741
@<TRIPOS>BOND
    1     1     2    1
    2     1     3    2
    3     1     4    1
    4     4     5    1
    5     4     6    1
    6     4     7    1
    7     7     8    1
    8     7     9    1
    9     7    10    1
   10    10    11    1
   11    10    12    1
   12    10    13    1
   13    13    14    1
   14    13    15    1
   15    13    16    1
   16    16    17    1
   17    16    18    1
   18    16    19    1
@<TRIPOS>SUBSTRUCTURE
       1 MOL1            1 RESIDUE      1      MOL     
@<SCITEGIC>MOL_PROPERTY
VConf Rank
SciTegic.value.IntegerValue
868

@<SCITEGIC>MOL_PROPERTY
Conf_Id
SciTegic.value.IntegerValue
4

@<SCITEGIC>MOL_PROPERTY
Delta U+W
SciTegic.value.DoubleValue
3.753

@<SCITEGIC>MOL_PROPERTY
U+W
SciTegic.value.DoubleValue
-51.138

@<SCITEGIC>MOL_PROPERTY
Grad RMS
SciTegic.value.DoubleValue
0.000000

@<SCITEGIC>MOL_PROPERTY
U
SciTegic.value.DoubleValue
12.334

@<SCITEGIC>MOL_PROPERTY
W
SciTegic.value.DoubleValue
-63.472

@<SCITEGIC>MOL_PROPERTY
W(PB)
SciTegic.value.DoubleValue
-65.500

@<SCITEGIC>MOL_PROPERTY
W(SA)
SciTegic.value.DoubleValue
2.028

@<SCITEGIC>MOL_PROPERTY
Valence
SciTegic.value.DoubleValue
9.984

@<SCITEGIC>MOL_PROPERTY
Coulomb
SciTegic.value.DoubleValue
1.767

@<SCITEGIC>MOL_PROPERTY
VdW
SciTegic.value.DoubleValue
0.583

@<SCITEGIC>MOL_PROPERTY
VdW6
SciTegic.value.DoubleValue
-7.767

@<SCITEGIC>MOL_PROPERTY
VdW12
SciTegic.value.DoubleValue
8.349

@<SCITEGIC>MOL_PROPERTY
Bond
SciTegic.value.DoubleValue
0.203

@<SCITEGIC>MOL_PROPERTY
Angle
SciTegic.value.DoubleValue
3.191

@<SCITEGIC>MOL_PROPERTY
Pdih
SciTegic.value.DoubleValue
6.589

@<SCITEGIC>MOL_PROPERTY
Idih
SciTegic.value.DoubleValue
0.001

@<SCITEGIC>MOL_PROPERTY
Tether
SciTegic.value.DoubleValue
0.000

@<TRIPOS>MOLECULE
guest-7_confgen4.mol2 : confsearch ligand conformer 869
          19          18           1
SMALL
USER_CHARGES
 
@<TRIPOS>ATOM
       1    C1      20.248493   17.818225   20.063701 C.2        1 MOL1         0.6115
       2    O1      19.793070   18.123838   18.979144 O.co2      1 MOL1        -0.6776
       3    O2      21.401875   17.475766   20.234359 O.co2      1 MOL1        -0.6776
       4    C2      19.311737   17.838647   21.268817 C.3        1 MOL1        -0.2013
       5    H1      19.770392   17.254031   22.072613 H          1 MOL1         0.0727
       6    H2      18.397768   17.308189   20.977220 H          1 MOL1         0.0727
       7    C3      18.942637   19.266902   21.757477 C.3        1 MOL1        -0.1910
       8    H3      18.552237   19.829491   20.898049 H          1 MOL1         0.0729
       9    H4      18.118290   19.211057   22.481057 H          1 MOL1         0.0729
      10    C4      20.128016   20.054888   22.373454 C.3        1 MOL1        -0.1909
      11    H5      20.004334   21.114896   22.112940 H          1 MOL1         0.0729
      12    H6      21.076595   19.744637   21.914383 H          1 MOL1         0.0729
      13    C5      20.232036   19.963846   23.915788 C.3        1 MOL1        -0.1884
      14    H7      21.048014   20.619965   24.248718 H          1 MOL1         0.0729
      15    H8      19.314066   20.359677   24.371693 H          1 MOL1         0.0729
      16    C6      20.495650   18.540057   24.447662 C.3        1 MOL1        -0.2899
      17    H9      21.366513   18.090171   23.953004 H          1 MOL1         0.0741
      18    H10     20.693131   18.563866   25.527112 H          1 MOL1         0.0741
      19    H11     19.627074   17.890065   24.285052 H          1 MOL1         0.0741
@<TRIPOS>BOND
    1     1     2    1
    2     1     3    2
    3     1     4    1
    4     4     5    1
    5     4     6    1
    6     4     7    1
    7     7     8    1
    8     7     9    1
    9     7    10    1
   10    10    11    1
   11    10    12    1
   12    10    13    1
   13    13    14    1
   14    13    15    1
   15    13    16    1
   16    16    17    1
   17    16    18    1
   18    16    19    1
@<TRIPOS>SUBSTRUCTURE
       1 MOL1            1 RESIDUE      1      MOL     
@<SCITEGIC>MOL_PROPERTY
VConf Rank
SciTegic.value.IntegerValue
869

@<SCITEGIC>MOL_PROPERTY
Conf_Id
SciTegic.value.IntegerValue
73

@<SCITEGIC>MOL_PROPERTY
Delta U+W
SciTegic.value.DoubleValue
3.707

@<SCITEGIC>MOL_PROPERTY
U+W
SciTegic.value.DoubleValue
-51.184

@<SCITEGIC>MOL_PROPERTY
Grad RMS
SciTegic.value.DoubleValue
0.000000

@<SCITEGIC>MOL_PROPERTY
U
SciTegic.value.DoubleValue
12.334

@<SCITEGIC>MOL_PROPERTY
W
SciTegic.value.DoubleValue
-63.519

@<SCITEGIC>MOL_PROPERTY
W(PB)
SciTegic.value.DoubleValue
-65.541

@<SCITEGIC>MOL_PROPERTY
W(SA)
SciTegic.value.DoubleValue
2.022

@<SCITEGIC>MOL_PROPERTY
Valence
SciTegic.value.DoubleValue
9.984

@<SCITEGIC>MOL_PROPERTY
Coulomb
SciTegic.value.DoubleValue
1.768

@<SCITEGIC>MOL_PROPERTY
VdW
SciTegic.value.DoubleValue
0.583

@<SCITEGIC>MOL_PROPERTY
VdW6
SciTegic.value.DoubleValue
-7.767

@<SCITEGIC>MOL_PROPERTY
VdW12
SciTegic.value.DoubleValue
8.350

@<SCITEGIC>MOL_PROPERTY
Bond
SciTegic.value.DoubleValue
0.203

@<SCITEGIC>MOL_PROPERTY
Angle
SciTegic.value.DoubleValue
3.192

@<SCITEGIC>MOL_PROPERTY
Pdih
SciTegic.value.DoubleValue
6.589

@<SCITEGIC>MOL_PROPERTY
Idih
SciTegic.value.DoubleValue
0.001

@<SCITEGIC>MOL_PROPERTY
Tether
SciTegic.value.DoubleValue
0.000

@<TRIPOS>MOLECULE
guest-7_confgen4.mol2 : confsearch ligand conformer 870
          19          18           1
SMALL
USER_CHARGES
 
@<TRIPOS>ATOM
       1    C1      20.750885   16.630186   22.797571 C.2        1 MOL1         0.6115
       2    O1      20.045202   16.070791   21.981605 O.co2      1 MOL1        -0.6776
       3    O2      21.887443   16.282886   23.052084 O.co2      1 MOL1        -0.6776
       4    C2      20.170460   17.812495   23.568660 C.3        1 MOL1        -0.2013
       5    H1      20.352452   17.628476   24.633876 H          1 MOL1         0.0727
       6    H2      19.082459   17.818839   23.436338 H          1 MOL1         0.0727
       7    C3      20.776360   19.187069   23.174070 C.3        1 MOL1        -0.1910
       8    H3      20.358976   19.966412   23.824670 H          1 MOL1         0.0729
       9    H4      21.855290   19.168020   23.380607 H          1 MOL1         0.0729
      10    C4      20.562956   19.578554   21.689047 C.3        1 MOL1        -0.1909
      11    H5      21.088796   18.856682   21.049145 H          1 MOL1         0.0729
      12    H6      21.044479   20.549052   21.507772 H          1 MOL1         0.0729
      13    C5      19.085150   19.660188   21.234465 C.3        1 MOL1        -0.1884
      14    H7      19.061589   19.926782   20.168975 H          1 MOL1         0.0729
      15    H8      18.612253   18.671655   21.309394 H          1 MOL1         0.0729
      16    C6      18.257991   20.697150   22.024522 C.3        1 MOL1        -0.2899
      17    H9      18.159116   20.408903   23.078586 H          1 MOL1         0.0741
      18    H10     18.726123   21.689068   21.980219 H          1 MOL1         0.0741
      19    H11     17.246650   20.780839   21.606214 H          1 MOL1         0.0741
@<TRIPOS>BOND
    1     1     2    1
    2     1     3    2
    3     1     4    1
    4     4     5    1
    5     4     6    1
    6     4     7    1
    7     7     8    1
    8     7     9    1
    9     7    10    1
   10    10    11    1
   11    10    12    1
   12    10    13    1
   13    13    14    1
   14    13    15    1
   15    13    16    1
   16    16    17    1
   17    16    18    1
   18    16    19    1
@<TRIPOS>SUBSTRUCTURE
       1 MOL1            1 RESIDUE      1      MOL     
@<SCITEGIC>MOL_PROPERTY
VConf Rank
SciTegic.value.IntegerValue
870

@<SCITEGIC>MOL_PROPERTY
Conf_Id
SciTegic.value.IntegerValue
56

@<SCITEGIC>MOL_PROPERTY
Delta U+W
SciTegic.value.DoubleValue
1.735

@<SCITEGIC>MOL_PROPERTY
U+W
SciTegic.value.DoubleValue
-53.156

@<SCITEGIC>MOL_PROPERTY
Grad RMS
SciTegic.value.DoubleValue
0.000000

@<SCITEGIC>MOL_PROPERTY
U
SciTegic.value.DoubleValue
10.214

@<SCITEGIC>MOL_PROPERTY
W
SciTegic.value.DoubleValue
-63.370

@<SCITEGIC>MOL_PROPERTY
W(PB)
SciTegic.value.DoubleValue
-65.388

@<SCITEGIC>MOL_PROPERTY
W(SA)
SciTegic.value.DoubleValue
2.018

@<SCITEGIC>MOL_PROPERTY
Valence
SciTegic.value.DoubleValue
7.868

@<SCITEGIC>MOL_PROPERTY
Coulomb
SciTegic.value.DoubleValue
1.968

@<SCITEGIC>MOL_PROPERTY
VdW
SciTegic.value.DoubleValue
0.378

@<SCITEGIC>MOL_PROPERTY
VdW6
SciTegic.value.DoubleValue
-8.067

@<SCITEGIC>MOL_PROPERTY
VdW12
SciTegic.value.DoubleValue
8.445

@<SCITEGIC>MOL_PROPERTY
Bond
SciTegic.value.DoubleValue
0.191

@<SCITEGIC>MOL_PROPERTY
Angle
SciTegic.value.DoubleValue
3.117

@<SCITEGIC>MOL_PROPERTY
Pdih
SciTegic.value.DoubleValue
4.559

@<SCITEGIC>MOL_PROPERTY
Idih
SciTegic.value.DoubleValue
0.001

@<SCITEGIC>MOL_PROPERTY
Tether
SciTegic.value.DoubleValue
0.000

@<TRIPOS>MOLECULE
guest-7_confgen4.mol2 : confsearch ligand conformer 871
          19          18           1
SMALL
USER_CHARGES
 
@<TRIPOS>ATOM
       1    C1      20.536444   17.791246   24.919884 C.2        1 MOL1         0.6115
       2    O1      19.757795   17.841745   25.851292 O.co2      1 MOL1        -0.6776
       3    O2      21.695804   17.445035   25.031219 O.co2      1 MOL1        -0.6776
       4    C2      20.037072   18.205501   23.540298 C.3        1 MOL1        -0.2013
       5    H1      18.971444   17.955753   23.473656 H          1 MOL1         0.0727
       6    H2      20.566345   17.595882   22.799525 H          1 MOL1         0.0727
       7    C3      20.253680   19.712158   23.250398 C.3        1 MOL1        -0.1910
       8    H3      19.835507   20.294002   24.083458 H          1 MOL1         0.0729
       9    H4      21.331226   19.926385   23.236386 H          1 MOL1         0.0729
      10    C4      19.607662   20.208583   21.932553 C.3        1 MOL1        -0.1909
      11    H5      19.782431   21.291211   21.866638 H          1 MOL1         0.0729
      12    H6      18.516937   20.084662   21.976850 H          1 MOL1         0.0729
      13    C5      20.170453   19.550757   20.648171 C.3        1 MOL1        -0.1884
      14    H7      20.190062   20.303904   19.848342 H          1 MOL1         0.0729
      15    H8      21.213757   19.242856   20.803158 H          1 MOL1         0.0729
      16    C6      19.326126   18.354612   20.155145 C.3        1 MOL1        -0.2899
      17    H9      19.755052   17.935634   19.235713 H          1 MOL1         0.0741
      18    H10     19.281151   17.551321   20.899001 H          1 MOL1         0.0741
      19    H11     18.297874   18.668250   19.932750 H          1 MOL1         0.0741
@<TRIPOS>BOND
    1     1     2    1
    2     1     3    2
    3     1     4    1
    4     4     5    1
    5     4     6    1
    6     4     7    1
    7     7     8    1
    8     7     9    1
    9     7    10    1
   10    10    11    1
   11    10    12    1
   12    10    13    1
   13    13    14    1
   14    13    15    1
   15    13    16    1
   16    16    17    1
   17    16    18    1
   18    16    19    1
@<TRIPOS>SUBSTRUCTURE
       1 MOL1            1 RESIDUE      1      MOL     
@<SCITEGIC>MOL_PROPERTY
VConf Rank
SciTegic.value.IntegerValue
871

@<SCITEGIC>MOL_PROPERTY
Conf_Id
SciTegic.value.IntegerValue
53

@<SCITEGIC>MOL_PROPERTY
Delta U+W
SciTegic.value.DoubleValue
2.279

@<SCITEGIC>MOL_PROPERTY
U+W
SciTegic.value.DoubleValue
-52.612

@<SCITEGIC>MOL_PROPERTY
Grad RMS
SciTegic.value.DoubleValue
0.000000

@<SCITEGIC>MOL_PROPERTY
U
SciTegic.value.DoubleValue
10.231

@<SCITEGIC>MOL_PROPERTY
W
SciTegic.value.DoubleValue
-62.843

@<SCITEGIC>MOL_PROPERTY
W(PB)
SciTegic.value.DoubleValue
-64.893

@<SCITEGIC>MOL_PROPERTY
W(SA)
SciTegic.value.DoubleValue
2.050

@<SCITEGIC>MOL_PROPERTY
Valence
SciTegic.value.DoubleValue
9.644

@<SCITEGIC>MOL_PROPERTY
Coulomb
SciTegic.value.DoubleValue
-0.164

@<SCITEGIC>MOL_PROPERTY
VdW
SciTegic.value.DoubleValue
0.751

@<SCITEGIC>MOL_PROPERTY
VdW6
SciTegic.value.DoubleValue
-6.881

@<SCITEGIC>MOL_PROPERTY
VdW12
SciTegic.value.DoubleValue
7.631

@<SCITEGIC>MOL_PROPERTY
Bond
SciTegic.value.DoubleValue
0.163

@<SCITEGIC>MOL_PROPERTY
Angle
SciTegic.value.DoubleValue
2.998

@<SCITEGIC>MOL_PROPERTY
Pdih
SciTegic.value.DoubleValue
6.482

@<SCITEGIC>MOL_PROPERTY
Idih
SciTegic.value.DoubleValue
0.001

@<SCITEGIC>MOL_PROPERTY
Tether
SciTegic.value.DoubleValue
0.000

@<TRIPOS>MOLECULE
guest-7_confgen4.mol2 : confsearch ligand conformer 872
          19          18           1
SMALL
USER_CHARGES
 
@<TRIPOS>ATOM
       1    C1      22.060408   18.758284   23.996045 C.2        1 MOL1         0.6115
       2    O1      22.903172   19.442542   23.449792 O.co2      1 MOL1        -0.6776
       3    O2      22.231782   17.590892   24.287717 O.co2      1 MOL1        -0.6776
       4    C2      20.744526   19.421315   24.398943 C.3        1 MOL1        -0.2013
       5    H1      20.776412   20.479912   24.113852 H          1 MOL1         0.0727
       6    H2      20.707560   19.392718   25.494132 H          1 MOL1         0.0727
       7    C3      19.461831   18.749849   23.832416 C.3        1 MOL1        -0.1910
       8    H3      19.532599   17.658319   23.937750 H          1 MOL1         0.0729
       9    H4      18.613304   19.059079   24.457553 H          1 MOL1         0.0729
      10    C4      19.127323   19.121478   22.366581 C.3        1 MOL1        -0.1909
      11    H5      19.050959   20.213114   22.269960 H          1 MOL1         0.0729
      12    H6      18.132027   18.720546   22.130683 H          1 MOL1         0.0729
      13    C5      20.137992   18.578263   21.332637 C.3        1 MOL1        -0.1884
      14    H7      21.111921   19.066354   21.465442 H          1 MOL1         0.0729
      15    H8      20.292879   17.502290   21.492922 H          1 MOL1         0.0729
      16    C6      19.653909   18.818638   19.888436 C.3        1 MOL1        -0.2899
      17    H9      19.515977   19.890401   19.694383 H          1 MOL1         0.0741
      18    H10     20.386594   18.434939   19.166638 H          1 MOL1         0.0741
      19    H11     18.698423   18.310426   19.703811 H          1 MOL1         0.0741
@<TRIPOS>BOND
    1     1     2    1
    2     1     3    2
    3     1     4    1
    4     4     5    1
    5     4     6    1
    6     4     7    1
    7     7     8    1
    8     7     9    1
    9     7    10    1
   10    10    11    1
   11    10    12    1
   12    10    13    1
   13    13    14    1
   14    13    15    1
   15    13    16    1
   16    16    17    1
   17    16    18    1
   18    16    19    1
@<TRIPOS>SUBSTRUCTURE
       1 MOL1            1 RESIDUE      1      MOL     
@<SCITEGIC>MOL_PROPERTY
VConf Rank
SciTegic.value.IntegerValue
872

@<SCITEGIC>MOL_PROPERTY
Conf_Id
SciTegic.value.IntegerValue
25

@<SCITEGIC>MOL_PROPERTY
Delta U+W
SciTegic.value.DoubleValue
2.065

@<SCITEGIC>MOL_PROPERTY
U+W
SciTegic.value.DoubleValue
-52.826

@<SCITEGIC>MOL_PROPERTY
Grad RMS
SciTegic.value.DoubleValue
0.000000

@<SCITEGIC>MOL_PROPERTY
U
SciTegic.value.DoubleValue
10.967

@<SCITEGIC>MOL_PROPERTY
W
SciTegic.value.DoubleValue
-63.794

@<SCITEGIC>MOL_PROPERTY
W(PB)
SciTegic.value.DoubleValue
-65.830

@<SCITEGIC>MOL_PROPERTY
W(SA)
SciTegic.value.DoubleValue
2.036

@<SCITEGIC>MOL_PROPERTY
Valence
SciTegic.value.DoubleValue
8.609

@<SCITEGIC>MOL_PROPERTY
Coulomb
SciTegic.value.DoubleValue
1.892

@<SCITEGIC>MOL_PROPERTY
VdW
SciTegic.value.DoubleValue
0.467

@<SCITEGIC>MOL_PROPERTY
VdW6
SciTegic.value.DoubleValue
-7.569

@<SCITEGIC>MOL_PROPERTY
VdW12
SciTegic.value.DoubleValue
8.036

@<SCITEGIC>MOL_PROPERTY
Bond
SciTegic.value.DoubleValue
0.170

@<SCITEGIC>MOL_PROPERTY
Angle
SciTegic.value.DoubleValue
3.195

@<SCITEGIC>MOL_PROPERTY
Pdih
SciTegic.value.DoubleValue
5.237

@<SCITEGIC>MOL_PROPERTY
Idih
SciTegic.value.DoubleValue
0.007

@<SCITEGIC>MOL_PROPERTY
Tether
SciTegic.value.DoubleValue
0.000

@<TRIPOS>MOLECULE
guest-7_confgen4.mol2 : confsearch ligand conformer 873
          19          18           1
SMALL
USER_CHARGES
 
@<TRIPOS>ATOM
       1    C1      20.188075   17.374944   24.422241 C.2        1 MOL1         0.6115
       2    O1      20.721045   16.334570   24.089353 O.co2      1 MOL1        -0.6776
       3    O2      19.058645   17.436281   24.866625 O.co2      1 MOL1        -0.6776
       4    C2      21.002785   18.664801   24.344785 C.3        1 MOL1        -0.2013
       5    H1      21.843193   18.540682   25.037557 H          1 MOL1         0.0727
       6    H2      20.397095   19.493186   24.731879 H          1 MOL1         0.0727
       7    C3      21.557374   19.016351   22.935540 C.3        1 MOL1        -0.1910
       8    H3      22.394754   19.715112   23.065714 H          1 MOL1         0.0729
       9    H4      21.983214   18.118783   22.465887 H          1 MOL1         0.0729
      10    C4      20.533653   19.680154   21.981580 C.3        1 MOL1        -0.1909
      11    H5      21.071718   20.022145   21.086852 H          1 MOL1         0.0729
      12    H6      20.117444   20.580336   22.454106 H          1 MOL1         0.0729
      13    C5      19.384727   18.746214   21.541919 C.3        1 MOL1        -0.1884
      14    H7      19.797453   17.801598   21.161452 H          1 MOL1         0.0729
      15    H8      18.751717   18.496567   22.402954 H          1 MOL1         0.0729
      16    C6      18.509302   19.400168   20.453889 C.3        1 MOL1        -0.2899
      17    H9      17.693302   18.727716   20.158938 H          1 MOL1         0.0741
      18    H10     18.063415   20.334776   20.818653 H          1 MOL1         0.0741
      19    H11     19.100634   19.628667   19.557546 H          1 MOL1         0.0741
@<TRIPOS>BOND
    1     1     2    1
    2     1     3    2
    3     1     4    1
    4     4     5    1
    5     4     6    1
    6     4     7    1
    7     7     8    1
    8     7     9    1
    9     7    10    1
   10    10    11    1
   11    10    12    1
   12    10    13    1
   13    13    14    1
   14    13    15    1
   15    13    16    1
   16    16    17    1
   17    16    18    1
   18    16    19    1
@<TRIPOS>SUBSTRUCTURE
       1 MOL1            1 RESIDUE      1      MOL     
@<SCITEGIC>MOL_PROPERTY
VConf Rank
SciTegic.value.IntegerValue
873

@<SCITEGIC>MOL_PROPERTY
Conf_Id
SciTegic.value.IntegerValue
52

@<SCITEGIC>MOL_PROPERTY
Delta U+W
SciTegic.value.DoubleValue
2.070

@<SCITEGIC>MOL_PROPERTY
U+W
SciTegic.value.DoubleValue
-52.822

@<SCITEGIC>MOL_PROPERTY
Grad RMS
SciTegic.value.DoubleValue
0.000000

@<SCITEGIC>MOL_PROPERTY
U
SciTegic.value.DoubleValue
10.967

@<SCITEGIC>MOL_PROPERTY
W
SciTegic.value.DoubleValue
-63.789

@<SCITEGIC>MOL_PROPERTY
W(PB)
SciTegic.value.DoubleValue
-65.837

@<SCITEGIC>MOL_PROPERTY
W(SA)
SciTegic.value.DoubleValue
2.048

@<SCITEGIC>MOL_PROPERTY
Valence
SciTegic.value.DoubleValue
8.609

@<SCITEGIC>MOL_PROPERTY
Coulomb
SciTegic.value.DoubleValue
1.892

@<SCITEGIC>MOL_PROPERTY
VdW
SciTegic.value.DoubleValue
0.467

@<SCITEGIC>MOL_PROPERTY
VdW6
SciTegic.value.DoubleValue
-7.569

@<SCITEGIC>MOL_PROPERTY
VdW12
SciTegic.value.DoubleValue
8.035

@<SCITEGIC>MOL_PROPERTY
Bond
SciTegic.value.DoubleValue
0.170

@<SCITEGIC>MOL_PROPERTY
Angle
SciTegic.value.DoubleValue
3.196

@<SCITEGIC>MOL_PROPERTY
Pdih
SciTegic.value.DoubleValue
5.237

@<SCITEGIC>MOL_PROPERTY
Idih
SciTegic.value.DoubleValue
0.007

@<SCITEGIC>MOL_PROPERTY
Tether
SciTegic.value.DoubleValue
0.000

@<TRIPOS>MOLECULE
guest-7_confgen4.mol2 : confsearch ligand conformer 874
          19          18           1
SMALL
USER_CHARGES
 
@<TRIPOS>ATOM
       1    C1      18.788593   17.187059   21.816199 C.2        1 MOL1         0.6115
       2    O1      17.615485   17.305200   22.112808 O.co2      1 MOL1        -0.6776
       3    O2      19.170061   16.981045   20.680973 O.co2      1 MOL1        -0.6776
       4    C2      19.830791   17.169225   22.935523 C.3        1 MOL1        -0.2013
       5    H1      20.832744   17.209335   22.491654 H          1 MOL1         0.0727
       6    H2      19.741558   16.188397   23.416449 H          1 MOL1         0.0727
       7    C3      19.678436   18.275075   24.018691 C.3        1 MOL1        -0.1910
       8    H3      18.617448   18.411134   24.269835 H          1 MOL1         0.0729
       9    H4      20.157576   17.914083   24.938727 H          1 MOL1         0.0729
      10    C4      20.317301   19.643022   23.666908 C.3        1 MOL1        -0.1909
      11    H5      21.398728   19.523898   23.514062 H          1 MOL1         0.0729
      12    H6      20.212946   20.291475   24.547581 H          1 MOL1         0.0729
      13    C5      19.680383   20.371176   22.458555 C.3        1 MOL1        -0.1884
      14    H7      18.655220   20.013004   22.290895 H          1 MOL1         0.0729
      15    H8      19.593879   21.440767   22.694436 H          1 MOL1         0.0729
      16    C6      20.515870   20.230424   21.168101 C.3        1 MOL1        -0.2899
      17    H9      21.510709   20.676556   21.295374 H          1 MOL1         0.0741
      18    H10     20.649665   19.178868   20.888711 H          1 MOL1         0.0741
      19    H11     20.021339   20.740481   20.331500 H          1 MOL1         0.0741
@<TRIPOS>BOND
    1     1     2    1
    2     1     3    2
    3     1     4    1
    4     4     5    1
    5     4     6    1
    6     4     7    1
    7     7     8    1
    8     7     9    1
    9     7    10    1
   10    10    11    1
   11    10    12    1
   12    10    13    1
   13    13    14    1
   14    13    15    1
   15    13    16    1
   16    16    17    1
   17    16    18    1
   18    16    19    1
@<TRIPOS>SUBSTRUCTURE
       1 MOL1            1 RESIDUE      1      MOL     
@<SCITEGIC>MOL_PROPERTY
VConf Rank
SciTegic.value.IntegerValue
874

@<SCITEGIC>MOL_PROPERTY
Conf_Id
SciTegic.value.IntegerValue
66

@<SCITEGIC>MOL_PROPERTY
Delta U+W
SciTegic.value.DoubleValue
5.819

@<SCITEGIC>MOL_PROPERTY
U+W
SciTegic.value.DoubleValue
-49.072

@<SCITEGIC>MOL_PROPERTY
Grad RMS
SciTegic.value.DoubleValue
0.000000

@<SCITEGIC>MOL_PROPERTY
U
SciTegic.value.DoubleValue
15.324

@<SCITEGIC>MOL_PROPERTY
W
SciTegic.value.DoubleValue
-64.396

@<SCITEGIC>MOL_PROPERTY
W(PB)
SciTegic.value.DoubleValue
-66.382

@<SCITEGIC>MOL_PROPERTY
W(SA)
SciTegic.value.DoubleValue
1.986

@<SCITEGIC>MOL_PROPERTY
Valence
SciTegic.value.DoubleValue
11.748

@<SCITEGIC>MOL_PROPERTY
Coulomb
SciTegic.value.DoubleValue
3.201

@<SCITEGIC>MOL_PROPERTY
VdW
SciTegic.value.DoubleValue
0.375

@<SCITEGIC>MOL_PROPERTY
VdW6
SciTegic.value.DoubleValue
-8.854

@<SCITEGIC>MOL_PROPERTY
VdW12
SciTegic.value.DoubleValue
9.229

@<SCITEGIC>MOL_PROPERTY
Bond
SciTegic.value.DoubleValue
0.216

@<SCITEGIC>MOL_PROPERTY
Angle
SciTegic.value.DoubleValue
3.812

@<SCITEGIC>MOL_PROPERTY
Pdih
SciTegic.value.DoubleValue
7.699

@<SCITEGIC>MOL_PROPERTY
Idih
SciTegic.value.DoubleValue
0.022

@<SCITEGIC>MOL_PROPERTY
Tether
SciTegic.value.DoubleValue
0.000

@<TRIPOS>MOLECULE
guest-7_confgen4.mol2 : confsearch ligand conformer 875
          19          18           1
SMALL
USER_CHARGES
 
@<TRIPOS>ATOM
       1    C1      17.409297   18.116396   20.018327 C.2        1 MOL1         0.6115
       2    O1      17.167574   17.950307   18.839494 O.co2      1 MOL1        -0.6776
       3    O2      16.569253   18.004301   20.890053 O.co2      1 MOL1        -0.6776
       4    C2      18.846668   18.483079   20.391400 C.3        1 MOL1        -0.2013
       5    H1      19.102387   19.399547   19.846658 H          1 MOL1         0.0727
       6    H2      19.497277   17.688973   20.006493 H          1 MOL1         0.0727
       7    C3      19.107142   18.684906   21.907927 C.3        1 MOL1        -0.1910
       8    H3      18.448214   19.477641   22.288523 H          1 MOL1         0.0729
       9    H4      18.843465   17.765291   22.448528 H          1 MOL1         0.0729
      10    C4      20.579610   19.051501   22.193771 C.3        1 MOL1        -0.1909
      11    H5      20.841119   19.971006   21.652223 H          1 MOL1         0.0729
      12    H6      21.236584   18.257734   21.812367 H          1 MOL1         0.0729
      13    C5      20.836390   19.251739   23.701870 C.3        1 MOL1        -0.1884
      14    H7      20.182323   20.046395   24.086850 H          1 MOL1         0.0729
      15    H8      20.577858   18.333298   24.246958 H          1 MOL1         0.0729
      16    C6      22.307350   19.617697   23.983545 C.3        1 MOL1        -0.2899
      17    H9      22.584244   20.550683   23.475322 H          1 MOL1         0.0741
      18    H10     22.472131   19.756339   25.059990 H          1 MOL1         0.0741
      19    H11     22.982770   18.824685   23.636616 H          1 MOL1         0.0741
@<TRIPOS>BOND
    1     1     2    1
    2     1     3    2
    3     1     4    1
    4     4     5    1
    5     4     6    1
    6     4     7    1
    7     7     8    1
    8     7     9    1
    9     7    10    1
   10    10    11    1
   11    10    12    1
   12    10    13    1
   13    13    14    1
   14    13    15    1
   15    13    16    1
   16    16    17    1
   17    16    18    1
   18    16    19    1
@<TRIPOS>SUBSTRUCTURE
       1 MOL1            1 RESIDUE      1      MOL     
@<SCITEGIC>MOL_PROPERTY
VConf Rank
SciTegic.value.IntegerValue
875

@<SCITEGIC>MOL_PROPERTY
Conf_Id
SciTegic.value.IntegerValue
0

@<SCITEGIC>MOL_PROPERTY
Delta U+W
SciTegic.value.DoubleValue
0.000

@<SCITEGIC>MOL_PROPERTY
U+W
SciTegic.value.DoubleValue
-54.891

@<SCITEGIC>MOL_PROPERTY
Grad RMS
SciTegic.value.DoubleValue
0.000000

@<SCITEGIC>MOL_PROPERTY
U
SciTegic.value.DoubleValue
6.966

@<SCITEGIC>MOL_PROPERTY
W
SciTegic.value.DoubleValue
-61.857

@<SCITEGIC>MOL_PROPERTY
W(PB)
SciTegic.value.DoubleValue
-63.965

@<SCITEGIC>MOL_PROPERTY
W(SA)
SciTegic.value.DoubleValue
2.108

@<SCITEGIC>MOL_PROPERTY
Valence
SciTegic.value.DoubleValue
7.175

@<SCITEGIC>MOL_PROPERTY
Coulomb
SciTegic.value.DoubleValue
-1.360

@<SCITEGIC>MOL_PROPERTY
VdW
SciTegic.value.DoubleValue
1.151

@<SCITEGIC>MOL_PROPERTY
VdW6
SciTegic.value.DoubleValue
-5.641

@<SCITEGIC>MOL_PROPERTY
VdW12
SciTegic.value.DoubleValue
6.792

@<SCITEGIC>MOL_PROPERTY
Bond
SciTegic.value.DoubleValue
0.119

@<SCITEGIC>MOL_PROPERTY
Angle
SciTegic.value.DoubleValue
2.715

@<SCITEGIC>MOL_PROPERTY
Pdih
SciTegic.value.DoubleValue
4.340

@<SCITEGIC>MOL_PROPERTY
Idih
SciTegic.value.DoubleValue
0.000

@<SCITEGIC>MOL_PROPERTY
Tether
SciTegic.value.DoubleValue
0.000

@<TRIPOS>MOLECULE
guest-7_confgen4.mol2 : confsearch ligand conformer 876
          19          18           1
SMALL
USER_CHARGES
 
@<TRIPOS>ATOM
       1    C1      22.598527   17.031748   22.999953 C.2        1 MOL1         0.6115
       2    O1      23.646512   17.637770   23.103126 O.co2      1 MOL1        -0.6776
       3    O2      22.333806   16.032408   23.638251 O.co2      1 MOL1        -0.6776
       4    C2      21.549727   17.566440   22.031194 C.3        1 MOL1        -0.2013
       5    H1      20.989893   16.713085   21.629805 H          1 MOL1         0.0727
       6    H2      22.071739   18.036566   21.189037 H          1 MOL1         0.0727
       7    C3      20.580741   18.578262   22.691040 C.3        1 MOL1        -0.1910
       8    H3      20.075611   18.096378   23.539676 H          1 MOL1         0.0729
       9    H4      21.157573   19.419896   23.099040 H          1 MOL1         0.0729
      10    C4      19.529688   19.104174   21.689874 C.3        1 MOL1        -0.1909
      11    H5      18.955672   18.260385   21.282788 H          1 MOL1         0.0729
      12    H6      20.037779   19.584179   20.842154 H          1 MOL1         0.0729
      13    C5      18.565725   20.111861   22.349961 C.3        1 MOL1        -0.1884
      14    H7      18.054070   19.634795   23.197375 H          1 MOL1         0.0729
      15    H8      19.136046   20.958493   22.756706 H          1 MOL1         0.0729
      16    C6      17.517617   20.634842   21.347505 C.3        1 MOL1        -0.2899
      17    H9      16.840791   21.349741   21.833235 H          1 MOL1         0.0741
      18    H10     18.001099   21.145107   20.504120 H          1 MOL1         0.0741
      19    H11     16.911042   19.811471   20.948068 H          1 MOL1         0.0741
@<TRIPOS>BOND
    1     1     2    1
    2     1     3    2
    3     1     4    1
    4     4     5    1
    5     4     6    1
    6     4     7    1
    7     7     8    1
    8     7     9    1
    9     7    10    1
   10    10    11    1
   11    10    12    1
   12    10    13    1
   13    13    14    1
   14    13    15    1
   15    13    16    1
   16    16    17    1
   17    16    18    1
   18    16    19    1
@<TRIPOS>SUBSTRUCTURE
       1 MOL1            1 RESIDUE      1      MOL     
@<SCITEGIC>MOL_PROPERTY
VConf Rank
SciTegic.value.IntegerValue
876

@<SCITEGIC>MOL_PROPERTY
Conf_Id
SciTegic.value.IntegerValue
18

@<SCITEGIC>MOL_PROPERTY
Delta U+W
SciTegic.value.DoubleValue
-1.199

@<SCITEGIC>MOL_PROPERTY
U+W
SciTegic.value.DoubleValue
-56.090

@<SCITEGIC>MOL_PROPERTY
Grad RMS
SciTegic.value.DoubleValue
0.000000

@<SCITEGIC>MOL_PROPERTY
U
SciTegic.value.DoubleValue
5.975

@<SCITEGIC>MOL_PROPERTY
W
SciTegic.value.DoubleValue
-62.066

@<SCITEGIC>MOL_PROPERTY
W(PB)
SciTegic.value.DoubleValue
-64.219

@<SCITEGIC>MOL_PROPERTY
W(SA)
SciTegic.value.DoubleValue
2.153

@<SCITEGIC>MOL_PROPERTY
Valence
SciTegic.value.DoubleValue
6.673

@<SCITEGIC>MOL_PROPERTY
Coulomb
SciTegic.value.DoubleValue
-1.307

@<SCITEGIC>MOL_PROPERTY
VdW
SciTegic.value.DoubleValue
0.610

@<SCITEGIC>MOL_PROPERTY
VdW6
SciTegic.value.DoubleValue
-5.351

@<SCITEGIC>MOL_PROPERTY
VdW12
SciTegic.value.DoubleValue
5.961

@<SCITEGIC>MOL_PROPERTY
Bond
SciTegic.value.DoubleValue
0.086

@<SCITEGIC>MOL_PROPERTY
Angle
SciTegic.value.DoubleValue
2.253

@<SCITEGIC>MOL_PROPERTY
Pdih
SciTegic.value.DoubleValue
4.333

@<SCITEGIC>MOL_PROPERTY
Idih
SciTegic.value.DoubleValue
0.001

@<SCITEGIC>MOL_PROPERTY
Tether
SciTegic.value.DoubleValue
0.000

@<TRIPOS>MOLECULE
guest-7_confgen4.mol2 : confsearch ligand conformer 877
          19          18           1
SMALL
USER_CHARGES
 
@<TRIPOS>ATOM
       1    C1      20.977501   20.831338   24.569983 C.2        1 MOL1         0.6115
       2    O1      20.316302   21.068967   25.561263 O.co2      1 MOL1        -0.6776
       3    O2      22.177190   21.011652   24.502943 O.co2      1 MOL1        -0.6776
       4    C2      20.266096   20.255356   23.350758 C.3        1 MOL1        -0.2013
       5    H1      20.780136   20.628420   22.457769 H          1 MOL1         0.0727
       6    H2      19.245846   20.656857   23.330840 H          1 MOL1         0.0727
       7    C3      20.230577   18.704901   23.353392 C.3        1 MOL1        -0.1910
       8    H3      21.257271   18.314277   23.328415 H          1 MOL1         0.0729
       9    H4      19.792106   18.364089   24.301555 H          1 MOL1         0.0729
      10    C4      19.413691   18.103611   22.185197 C.3        1 MOL1        -0.1909
      11    H5      18.385568   18.489479   22.218000 H          1 MOL1         0.0729
      12    H6      19.342680   17.017190   22.332372 H          1 MOL1         0.0729
      13    C5      20.030727   18.382763   20.796365 C.3        1 MOL1        -0.1884
      14    H7      20.041352   19.462292   20.596707 H          1 MOL1         0.0729
      15    H8      21.075451   18.042847   20.779753 H          1 MOL1         0.0729
      16    C6      19.243969   17.673714   19.675860 C.3        1 MOL1        -0.2899
      17    H9      19.692247   17.883798   18.696063 H          1 MOL1         0.0741
      18    H10     19.244993   16.585648   19.822476 H          1 MOL1         0.0741
      19    H11     18.200945   18.015664   19.651844 H          1 MOL1         0.0741
@<TRIPOS>BOND
    1     1     2    1
    2     1     3    2
    3     1     4    1
    4     4     5    1
    5     4     6    1
    6     4     7    1
    7     7     8    1
    8     7     9    1
    9     7    10    1
   10    10    11    1
   11    10    12    1
   12    10    13    1
   13    13    14    1
   14    13    15    1
   15    13    16    1
   16    16    17    1
   17    16    18    1
   18    16    19    1
@<TRIPOS>SUBSTRUCTURE
       1 MOL1            1 RESIDUE      1      MOL     
@<SCITEGIC>MOL_PROPERTY
VConf Rank
SciTegic.value.IntegerValue
877

@<SCITEGIC>MOL_PROPERTY
Conf_Id
SciTegic.value.IntegerValue
34

@<SCITEGIC>MOL_PROPERTY
Delta U+W
SciTegic.value.DoubleValue
-0.563

@<SCITEGIC>MOL_PROPERTY
U+W
SciTegic.value.DoubleValue
-55.455

@<SCITEGIC>MOL_PROPERTY
Grad RMS
SciTegic.value.DoubleValue
0.000000

@<SCITEGIC>MOL_PROPERTY
U
SciTegic.value.DoubleValue
6.914

@<SCITEGIC>MOL_PROPERTY
W
SciTegic.value.DoubleValue
-62.369

@<SCITEGIC>MOL_PROPERTY
W(PB)
SciTegic.value.DoubleValue
-64.446

@<SCITEGIC>MOL_PROPERTY
W(SA)
SciTegic.value.DoubleValue
2.077

@<SCITEGIC>MOL_PROPERTY
Valence
SciTegic.value.DoubleValue
7.196

@<SCITEGIC>MOL_PROPERTY
Coulomb
SciTegic.value.DoubleValue
-1.020

@<SCITEGIC>MOL_PROPERTY
VdW
SciTegic.value.DoubleValue
0.738

@<SCITEGIC>MOL_PROPERTY
VdW6
SciTegic.value.DoubleValue
-6.010

@<SCITEGIC>MOL_PROPERTY
VdW12
SciTegic.value.DoubleValue
6.748

@<SCITEGIC>MOL_PROPERTY
Bond
SciTegic.value.DoubleValue
0.126

@<SCITEGIC>MOL_PROPERTY
Angle
SciTegic.value.DoubleValue
2.499

@<SCITEGIC>MOL_PROPERTY
Pdih
SciTegic.value.DoubleValue
4.570

@<SCITEGIC>MOL_PROPERTY
Idih
SciTegic.value.DoubleValue
0.001

@<SCITEGIC>MOL_PROPERTY
Tether
SciTegic.value.DoubleValue
0.000

@<TRIPOS>MOLECULE
guest-7_confgen4.mol2 : confsearch ligand conformer 878
          19          18           1
SMALL
USER_CHARGES
 
@<TRIPOS>ATOM
       1    C1      22.739019   20.383742   22.923469 C.2        1 MOL1         0.6115
       2    O1      22.810799   21.370543   23.628708 O.co2      1 MOL1        -0.6776
       3    O2      23.624995   20.028925   22.171529 O.co2      1 MOL1        -0.6776
       4    C2      21.458215   19.557984   22.968442 C.3        1 MOL1        -0.2013
       5    H1      21.046526   19.623459   23.982709 H          1 MOL1         0.0727
       6    H2      21.730467   18.510829   22.794687 H          1 MOL1         0.0727
       7    C3      20.404358   20.027975   21.932260 C.3        1 MOL1        -0.1910
       8    H3      20.222845   21.102048   22.076636 H          1 MOL1         0.0729
       9    H4      20.811680   19.915928   20.917940 H          1 MOL1         0.0729
      10    C4      19.055171   19.278534   22.039771 C.3        1 MOL1        -0.1909
      11    H5      18.337547   19.752762   21.356298 H          1 MOL1         0.0729
      12    H6      18.646485   19.399599   23.052356 H          1 MOL1         0.0729
      13    C5      19.158079   17.775654   21.695863 C.3        1 MOL1        -0.1884
      14    H7      19.614037   17.652757   20.703760 H          1 MOL1         0.0729
      15    H8      19.812827   17.266500   22.415190 H          1 MOL1         0.0729
      16    C6      17.773833   17.096749   21.710562 C.3        1 MOL1        -0.2899
      17    H9      17.306037   17.180756   22.700267 H          1 MOL1         0.0741
      18    H10     17.102404   17.556591   20.973599 H          1 MOL1         0.0741
      19    H11     17.863723   16.030005   21.467525 H          1 MOL1         0.0741
@<TRIPOS>BOND
    1     1     2    1
    2     1     3    2
    3     1     4    1
    4     4     5    1
    5     4     6    1
    6     4     7    1
    7     7     8    1
    8     7     9    1
    9     7    10    1
   10    10    11    1
   11    10    12    1
   12    10    13    1
   13    13    14    1
   14    13    15    1
   15    13    16    1
   16    16    17    1
   17    16    18    1
   18    16    19    1
@<TRIPOS>SUBSTRUCTURE
       1 MOL1            1 RESIDUE      1      MOL     
@<SCITEGIC>MOL_PROPERTY
VConf Rank
SciTegic.value.IntegerValue
878

@<SCITEGIC>MOL_PROPERTY
Conf_Id
SciTegic.value.IntegerValue
33

@<SCITEGIC>MOL_PROPERTY
Delta U+W
SciTegic.value.DoubleValue
-0.526

@<SCITEGIC>MOL_PROPERTY
U+W
SciTegic.value.DoubleValue
-55.418

@<SCITEGIC>MOL_PROPERTY
Grad RMS
SciTegic.value.DoubleValue
0.000000

@<SCITEGIC>MOL_PROPERTY
U
SciTegic.value.DoubleValue
6.914

@<SCITEGIC>MOL_PROPERTY
W
SciTegic.value.DoubleValue
-62.332

@<SCITEGIC>MOL_PROPERTY
W(PB)
SciTegic.value.DoubleValue
-64.421

@<SCITEGIC>MOL_PROPERTY
W(SA)
SciTegic.value.DoubleValue
2.090

@<SCITEGIC>MOL_PROPERTY
Valence
SciTegic.value.DoubleValue
7.196

@<SCITEGIC>MOL_PROPERTY
Coulomb
SciTegic.value.DoubleValue
-1.020

@<SCITEGIC>MOL_PROPERTY
VdW
SciTegic.value.DoubleValue
0.738

@<SCITEGIC>MOL_PROPERTY
VdW6
SciTegic.value.DoubleValue
-6.010

@<SCITEGIC>MOL_PROPERTY
VdW12
SciTegic.value.DoubleValue
6.748

@<SCITEGIC>MOL_PROPERTY
Bond
SciTegic.value.DoubleValue
0.126

@<SCITEGIC>MOL_PROPERTY
Angle
SciTegic.value.DoubleValue
2.499

@<SCITEGIC>MOL_PROPERTY
Pdih
SciTegic.value.DoubleValue
4.570

@<SCITEGIC>MOL_PROPERTY
Idih
SciTegic.value.DoubleValue
0.001

@<SCITEGIC>MOL_PROPERTY
Tether
SciTegic.value.DoubleValue
0.000

@<TRIPOS>MOLECULE
guest-7_confgen4.mol2 : confsearch ligand conformer 879
          19          18           1
SMALL
USER_CHARGES
 
@<TRIPOS>ATOM
       1    C1      19.287967   21.915324   23.185277 C.2        1 MOL1         0.6115
       2    O1      20.328310   22.495991   23.423465 O.co2      1 MOL1        -0.6776
       3    O2      18.308206   22.457157   22.713335 O.co2      1 MOL1        -0.6776
       4    C2      19.213547   20.420975   23.478334 C.3        1 MOL1        -0.2013
       5    H1      18.183272   20.181659   23.768059 H          1 MOL1         0.0727
       6    H2      19.851252   20.211326   24.345575 H          1 MOL1         0.0727
       7    C3      19.646905   19.548826   22.274175 C.3        1 MOL1        -0.1910
       8    H3      19.005613   19.776950   21.411654 H          1 MOL1         0.0729
       9    H4      20.672813   19.818770   21.990865 H          1 MOL1         0.0729
      10    C4      19.564996   18.039670   22.600362 C.3        1 MOL1        -0.1909
      11    H5      18.550459   17.803979   22.949873 H          1 MOL1         0.0729
      12    H6      20.243511   17.802859   23.431352 H          1 MOL1         0.0729
      13    C5      19.891112   17.131883   21.391991 C.3        1 MOL1        -0.1884
      14    H7      19.695997   16.087677   21.672720 H          1 MOL1         0.0729
      15    H8      19.210704   17.361967   20.560466 H          1 MOL1         0.0729
      16    C6      21.354391   17.252760   20.914441 C.3        1 MOL1        -0.2899
      17    H9      22.053819   17.055473   21.737262 H          1 MOL1         0.0741
      18    H10     21.558577   16.527512   20.116152 H          1 MOL1         0.0741
      19    H11     21.564537   18.253055   20.515705 H          1 MOL1         0.0741
@<TRIPOS>BOND
    1     1     2    1
    2     1     3    2
    3     1     4    1
    4     4     5    1
    5     4     6    1
    6     4     7    1
    7     7     8    1
    8     7     9    1
    9     7    10    1
   10    10    11    1
   11    10    12    1
   12    10    13    1
   13    13    14    1
   14    13    15    1
   15    13    16    1
   16    16    17    1
   17    16    18    1
   18    16    19    1
@<TRIPOS>SUBSTRUCTURE
       1 MOL1            1 RESIDUE      1      MOL     
@<SCITEGIC>MOL_PROPERTY
VConf Rank
SciTegic.value.IntegerValue
879

@<SCITEGIC>MOL_PROPERTY
Conf_Id
SciTegic.value.IntegerValue
42

@<SCITEGIC>MOL_PROPERTY
Delta U+W
SciTegic.value.DoubleValue
-0.344

@<SCITEGIC>MOL_PROPERTY
U+W
SciTegic.value.DoubleValue
-55.236

@<SCITEGIC>MOL_PROPERTY
Grad RMS
SciTegic.value.DoubleValue
0.000000

@<SCITEGIC>MOL_PROPERTY
U
SciTegic.value.DoubleValue
7.244

@<SCITEGIC>MOL_PROPERTY
W
SciTegic.value.DoubleValue
-62.479

@<SCITEGIC>MOL_PROPERTY
W(PB)
SciTegic.value.DoubleValue
-64.610

@<SCITEGIC>MOL_PROPERTY
W(SA)
SciTegic.value.DoubleValue
2.130

@<SCITEGIC>MOL_PROPERTY
Valence
SciTegic.value.DoubleValue
7.174

@<SCITEGIC>MOL_PROPERTY
Coulomb
SciTegic.value.DoubleValue
-0.669

@<SCITEGIC>MOL_PROPERTY
VdW
SciTegic.value.DoubleValue
0.739

@<SCITEGIC>MOL_PROPERTY
VdW6
SciTegic.value.DoubleValue
-5.969

@<SCITEGIC>MOL_PROPERTY
VdW12
SciTegic.value.DoubleValue
6.708

@<SCITEGIC>MOL_PROPERTY
Bond
SciTegic.value.DoubleValue
0.116

@<SCITEGIC>MOL_PROPERTY
Angle
SciTegic.value.DoubleValue
2.481

@<SCITEGIC>MOL_PROPERTY
Pdih
SciTegic.value.DoubleValue
4.576

@<SCITEGIC>MOL_PROPERTY
Idih
SciTegic.value.DoubleValue
0.000

@<SCITEGIC>MOL_PROPERTY
Tether
SciTegic.value.DoubleValue
0.000

@<TRIPOS>MOLECULE
guest-7_confgen4.mol2 : confsearch ligand conformer 880
          19          18           1
SMALL
USER_CHARGES
 
@<TRIPOS>ATOM
       1    C1      23.138863   19.203877   21.530739 C.2        1 MOL1         0.6115
       2    O1      23.694746   19.890378   22.364964 O.co2      1 MOL1        -0.6776
       3    O2      23.441013   19.199083   20.353909 O.co2      1 MOL1        -0.6776
       4    C2      21.986880   18.313017   21.982184 C.3        1 MOL1        -0.2013
       5    H1      22.188241   17.990180   23.010755 H          1 MOL1         0.0727
       6    H2      21.985622   17.413759   21.354481 H          1 MOL1         0.0727
       7    C3      20.611815   19.021295   21.904834 C.3        1 MOL1        -0.1910
       8    H3      20.643170   19.926860   22.524986 H          1 MOL1         0.0729
       9    H4      20.429023   19.346663   20.871412 H          1 MOL1         0.0729
      10    C4      19.463633   18.096828   22.371416 C.3        1 MOL1        -0.1909
      11    H5      19.621036   17.811153   23.420520 H          1 MOL1         0.0729
      12    H6      19.493787   17.166702   21.787508 H          1 MOL1         0.0729
      13    C5      18.062292   18.730639   22.212936 C.3        1 MOL1        -0.1884
      14    H7      17.898895   19.012664   21.163607 H          1 MOL1         0.0729
      15    H8      17.303528   17.972871   22.452329 H          1 MOL1         0.0729
      16    C6      17.841220   19.959283   23.121458 C.3        1 MOL1        -0.2899
      17    H9      18.503110   20.788541   22.842209 H          1 MOL1         0.0741
      18    H10     16.806949   20.317315   23.037573 H          1 MOL1         0.0741
      19    H11     18.027695   19.708445   24.173819 H          1 MOL1         0.0741
@<TRIPOS>BOND
    1     1     2    1
    2     1     3    2
    3     1     4    1
    4     4     5    1
    5     4     6    1
    6     4     7    1
    7     7     8    1
    8     7     9    1
    9     7    10    1
   10    10    11    1
   11    10    12    1
   12    10    13    1
   13    13    14    1
   14    13    15    1
   15    13    16    1
   16    16    17    1
   17    16    18    1
   18    16    19    1
@<TRIPOS>SUBSTRUCTURE
       1 MOL1            1 RESIDUE      1      MOL     
@<SCITEGIC>MOL_PROPERTY
VConf Rank
SciTegic.value.IntegerValue
880

@<SCITEGIC>MOL_PROPERTY
Conf_Id
SciTegic.value.IntegerValue
41

@<SCITEGIC>MOL_PROPERTY
Delta U+W
SciTegic.value.DoubleValue
-0.361

@<SCITEGIC>MOL_PROPERTY
U+W
SciTegic.value.DoubleValue
-55.252

@<SCITEGIC>MOL_PROPERTY
Grad RMS
SciTegic.value.DoubleValue
0.000000

@<SCITEGIC>MOL_PROPERTY
U
SciTegic.value.DoubleValue
7.244

@<SCITEGIC>MOL_PROPERTY
W
SciTegic.value.DoubleValue
-62.496

@<SCITEGIC>MOL_PROPERTY
W(PB)
SciTegic.value.DoubleValue
-64.596

@<SCITEGIC>MOL_PROPERTY
W(SA)
SciTegic.value.DoubleValue
2.099

@<SCITEGIC>MOL_PROPERTY
Valence
SciTegic.value.DoubleValue
7.174

@<SCITEGIC>MOL_PROPERTY
Coulomb
SciTegic.value.DoubleValue
-0.669

@<SCITEGIC>MOL_PROPERTY
VdW
SciTegic.value.DoubleValue
0.739

@<SCITEGIC>MOL_PROPERTY
VdW6
SciTegic.value.DoubleValue
-5.969

@<SCITEGIC>MOL_PROPERTY
VdW12
SciTegic.value.DoubleValue
6.708

@<SCITEGIC>MOL_PROPERTY
Bond
SciTegic.value.DoubleValue
0.116

@<SCITEGIC>MOL_PROPERTY
Angle
SciTegic.value.DoubleValue
2.481

@<SCITEGIC>MOL_PROPERTY
Pdih
SciTegic.value.DoubleValue
4.576

@<SCITEGIC>MOL_PROPERTY
Idih
SciTegic.value.DoubleValue
0.000

@<SCITEGIC>MOL_PROPERTY
Tether
SciTegic.value.DoubleValue
0.000

@<TRIPOS>MOLECULE
guest-7_confgen4.mol2 : confsearch ligand conformer 881
          19          18           1
SMALL
USER_CHARGES
 
@<TRIPOS>ATOM
       1    C1      19.606848   16.211983   21.651321 C.2        1 MOL1         0.6115
       2    O1      20.312534   16.186425   20.662430 O.co2      1 MOL1        -0.6776
       3    O2      19.728991   15.442515   22.583888 O.co2      1 MOL1        -0.6776
       4    C2      18.491745   17.251899   21.718143 C.3        1 MOL1        -0.2013
       5    H1      17.582430   16.736792   22.049689 H          1 MOL1         0.0727
       6    H2      18.295540   17.620977   20.704106 H          1 MOL1         0.0727
       7    C3      18.791050   18.438375   22.670919 C.3        1 MOL1        -0.1910
       8    H3      17.888476   19.057533   22.763318 H          1 MOL1         0.0729
       9    H4      19.013498   18.051487   23.675143 H          1 MOL1         0.0729
      10    C4      19.962546   19.316350   22.176888 C.3        1 MOL1        -0.1909
      11    H5      19.741199   19.689945   21.167699 H          1 MOL1         0.0729
      12    H6      20.873940   18.707604   22.098085 H          1 MOL1         0.0729
      13    C5      20.222001   20.507529   23.122605 C.3        1 MOL1        -0.1884
      14    H7      19.314863   21.122524   23.202044 H          1 MOL1         0.0729
      15    H8      20.446077   20.136545   24.132375 H          1 MOL1         0.0729
      16    C6      21.391305   21.381614   22.626944 C.3        1 MOL1        -0.2899
      17    H9      21.180116   21.791832   21.630687 H          1 MOL1         0.0741
      18    H10     21.562310   22.223111   23.310849 H          1 MOL1         0.0741
      19    H11     22.319752   20.798570   22.567884 H          1 MOL1         0.0741
@<TRIPOS>BOND
    1     1     2    1
    2     1     3    2
    3     1     4    1
    4     4     5    1
    5     4     6    1
    6     4     7    1
    7     7     8    1
    8     7     9    1
    9     7    10    1
   10    10    11    1
   11    10    12    1
   12    10    13    1
   13    13    14    1
   14    13    15    1
   15    13    16    1
   16    16    17    1
   17    16    18    1
   18    16    19    1
@<TRIPOS>SUBSTRUCTURE
       1 MOL1            1 RESIDUE      1      MOL     
@<SCITEGIC>MOL_PROPERTY
VConf Rank
SciTegic.value.IntegerValue
881

@<SCITEGIC>MOL_PROPERTY
Conf_Id
SciTegic.value.IntegerValue
36

@<SCITEGIC>MOL_PROPERTY
Delta U+W
SciTegic.value.DoubleValue
-0.079

@<SCITEGIC>MOL_PROPERTY
U+W
SciTegic.value.DoubleValue
-54.971

@<SCITEGIC>MOL_PROPERTY
Grad RMS
SciTegic.value.DoubleValue
0.000000

@<SCITEGIC>MOL_PROPERTY
U
SciTegic.value.DoubleValue
8.266

@<SCITEGIC>MOL_PROPERTY
W
SciTegic.value.DoubleValue
-63.237

@<SCITEGIC>MOL_PROPERTY
W(PB)
SciTegic.value.DoubleValue
-65.340

@<SCITEGIC>MOL_PROPERTY
W(SA)
SciTegic.value.DoubleValue
2.103

@<SCITEGIC>MOL_PROPERTY
Valence
SciTegic.value.DoubleValue
6.935

@<SCITEGIC>MOL_PROPERTY
Coulomb
SciTegic.value.DoubleValue
0.874

@<SCITEGIC>MOL_PROPERTY
VdW
SciTegic.value.DoubleValue
0.457

@<SCITEGIC>MOL_PROPERTY
VdW6
SciTegic.value.DoubleValue
-6.205

@<SCITEGIC>MOL_PROPERTY
VdW12
SciTegic.value.DoubleValue
6.662

@<SCITEGIC>MOL_PROPERTY
Bond
SciTegic.value.DoubleValue
0.107

@<SCITEGIC>MOL_PROPERTY
Angle
SciTegic.value.DoubleValue
2.420

@<SCITEGIC>MOL_PROPERTY
Pdih
SciTegic.value.DoubleValue
4.407

@<SCITEGIC>MOL_PROPERTY
Idih
SciTegic.value.DoubleValue
0.001

@<SCITEGIC>MOL_PROPERTY
Tether
SciTegic.value.DoubleValue
0.000

@<TRIPOS>MOLECULE
guest-7_confgen4.mol2 : confsearch ligand conformer 882
          19          18           1
SMALL
USER_CHARGES
 
@<TRIPOS>ATOM
       1    C1      17.376071   18.480650   21.762311 C.2        1 MOL1         0.6115
       2    O1      17.356602   17.266715   21.812662 O.co2      1 MOL1        -0.6776
       3    O2      16.934711   19.121494   20.828929 O.co2      1 MOL1        -0.6776
       4    C2      17.967008   19.244749   22.943959 C.3        1 MOL1        -0.2013
       5    H1      17.999551   18.576032   23.812721 H          1 MOL1         0.0727
       6    H2      17.270347   20.054055   23.192549 H          1 MOL1         0.0727
       7    C3      19.373869   19.838091   22.672333 C.3        1 MOL1        -0.1910
       8    H3      19.331551   20.482511   21.783197 H          1 MOL1         0.0729
       9    H4      19.658129   20.481497   23.515992 H          1 MOL1         0.0729
      10    C4      20.451218   18.747784   22.477758 C.3        1 MOL1        -0.1909
      11    H5      20.182592   18.109891   21.624321 H          1 MOL1         0.0729
      12    H6      20.480599   18.098464   23.363507 H          1 MOL1         0.0729
      13    C5      21.847370   19.360200   22.240458 C.3        1 MOL1        -0.1884
      14    H7      21.821412   20.008386   21.353523 H          1 MOL1         0.0729
      15    H8      22.123299   19.996081   23.093071 H          1 MOL1         0.0729
      16    C6      22.920014   18.269844   22.046710 C.3        1 MOL1        -0.2899
      17    H9      22.685143   17.637620   21.180355 H          1 MOL1         0.0741
      18    H10     23.905918   18.722483   21.878788 H          1 MOL1         0.0741
      19    H11     22.989280   17.625269   22.932787 H          1 MOL1         0.0741
@<TRIPOS>BOND
    1     1     2    1
    2     1     3    2
    3     1     4    1
    4     4     5    1
    5     4     6    1
    6     4     7    1
    7     7     8    1
    8     7     9    1
    9     7    10    1
   10    10    11    1
   11    10    12    1
   12    10    13    1
   13    13    14    1
   14    13    15    1
   15    13    16    1
   16    16    17    1
   17    16    18    1
   18    16    19    1
@<TRIPOS>SUBSTRUCTURE
       1 MOL1            1 RESIDUE      1      MOL     
@<SCITEGIC>MOL_PROPERTY
VConf Rank
SciTegic.value.IntegerValue
882

@<SCITEGIC>MOL_PROPERTY
Conf_Id
SciTegic.value.IntegerValue
35

@<SCITEGIC>MOL_PROPERTY
Delta U+W
SciTegic.value.DoubleValue
-0.030

@<SCITEGIC>MOL_PROPERTY
U+W
SciTegic.value.DoubleValue
-54.921

@<SCITEGIC>MOL_PROPERTY
Grad RMS
SciTegic.value.DoubleValue
0.000000

@<SCITEGIC>MOL_PROPERTY
U
SciTegic.value.DoubleValue
8.267

@<SCITEGIC>MOL_PROPERTY
W
SciTegic.value.DoubleValue
-63.188

@<SCITEGIC>MOL_PROPERTY
W(PB)
SciTegic.value.DoubleValue
-65.294

@<SCITEGIC>MOL_PROPERTY
W(SA)
SciTegic.value.DoubleValue
2.106

@<SCITEGIC>MOL_PROPERTY
Valence
SciTegic.value.DoubleValue
6.935

@<SCITEGIC>MOL_PROPERTY
Coulomb
SciTegic.value.DoubleValue
0.875

@<SCITEGIC>MOL_PROPERTY
VdW
SciTegic.value.DoubleValue
0.457

@<SCITEGIC>MOL_PROPERTY
VdW6
SciTegic.value.DoubleValue
-6.205

@<SCITEGIC>MOL_PROPERTY
VdW12
SciTegic.value.DoubleValue
6.662

@<SCITEGIC>MOL_PROPERTY
Bond
SciTegic.value.DoubleValue
0.107

@<SCITEGIC>MOL_PROPERTY
Angle
SciTegic.value.DoubleValue
2.420

@<SCITEGIC>MOL_PROPERTY
Pdih
SciTegic.value.DoubleValue
4.407

@<SCITEGIC>MOL_PROPERTY
Idih
SciTegic.value.DoubleValue
0.001

@<SCITEGIC>MOL_PROPERTY
Tether
SciTegic.value.DoubleValue
0.000

@<TRIPOS>MOLECULE
guest-7_confgen4.mol2 : confsearch ligand conformer 883
          19          18           1
SMALL
USER_CHARGES
 
@<TRIPOS>ATOM
       1    C1      19.114396   20.710443   20.237010 C.2        1 MOL1         0.6115
       2    O1      19.618248   20.515192   19.148562 O.co2      1 MOL1        -0.6776
       3    O2      19.019084   21.810004   20.745464 O.co2      1 MOL1        -0.6776
       4    C2      18.551957   19.511112   20.995131 C.3        1 MOL1        -0.2013
       5    H1      17.965606   18.919241   20.282406 H          1 MOL1         0.0727
       6    H2      17.851885   19.874661   21.757160 H          1 MOL1         0.0727
       7    C3      19.633280   18.611084   21.648132 C.3        1 MOL1        -0.1910
       8    H3      19.147041   17.704871   22.031145 H          1 MOL1         0.0729
       9    H4      20.349250   18.287018   20.880213 H          1 MOL1         0.0729
      10    C4      20.384192   19.324099   22.798100 C.3        1 MOL1        -0.1909
      11    H5      19.671585   19.613152   23.582611 H          1 MOL1         0.0729
      12    H6      20.822539   20.257432   22.418938 H          1 MOL1         0.0729
      13    C5      21.515611   18.469913   23.415422 C.3        1 MOL1        -0.1884
      14    H7      22.231244   18.180991   22.633307 H          1 MOL1         0.0729
      15    H8      22.072695   19.088811   24.132250 H          1 MOL1         0.0729
      16    C6      21.002842   17.208150   24.142775 C.3        1 MOL1        -0.2899
      17    H9      20.540297   16.501585   23.442461 H          1 MOL1         0.0741
      18    H10     21.832249   16.688093   24.639324 H          1 MOL1         0.0741
      19    H11     20.261426   17.470203   24.908788 H          1 MOL1         0.0741
@<TRIPOS>BOND
    1     1     2    1
    2     1     3    2
    3     1     4    1
    4     4     5    1
    5     4     6    1
    6     4     7    1
    7     7     8    1
    8     7     9    1
    9     7    10    1
   10    10    11    1
   11    10    12    1
   12    10    13    1
   13    13    14    1
   14    13    15    1
   15    13    16    1
   16    16    17    1
   17    16    18    1
   18    16    19    1
@<TRIPOS>SUBSTRUCTURE
       1 MOL1            1 RESIDUE      1      MOL     
@<SCITEGIC>MOL_PROPERTY
VConf Rank
SciTegic.value.IntegerValue
883

@<SCITEGIC>MOL_PROPERTY
Conf_Id
SciTegic.value.IntegerValue
74

@<SCITEGIC>MOL_PROPERTY
Delta U+W
SciTegic.value.DoubleValue
0.797

@<SCITEGIC>MOL_PROPERTY
U+W
SciTegic.value.DoubleValue
-54.095

@<SCITEGIC>MOL_PROPERTY
Grad RMS
SciTegic.value.DoubleValue
0.000000

@<SCITEGIC>MOL_PROPERTY
U
SciTegic.value.DoubleValue
8.869

@<SCITEGIC>MOL_PROPERTY
W
SciTegic.value.DoubleValue
-62.964

@<SCITEGIC>MOL_PROPERTY
W(PB)
SciTegic.value.DoubleValue
-65.046

@<SCITEGIC>MOL_PROPERTY
W(SA)
SciTegic.value.DoubleValue
2.082

@<SCITEGIC>MOL_PROPERTY
Valence
SciTegic.value.DoubleValue
7.469

@<SCITEGIC>MOL_PROPERTY
Coulomb
SciTegic.value.DoubleValue
0.762

@<SCITEGIC>MOL_PROPERTY
VdW
SciTegic.value.DoubleValue
0.639

@<SCITEGIC>MOL_PROPERTY
VdW6
SciTegic.value.DoubleValue
-6.782

@<SCITEGIC>MOL_PROPERTY
VdW12
SciTegic.value.DoubleValue
7.421

@<SCITEGIC>MOL_PROPERTY
Bond
SciTegic.value.DoubleValue
0.141

@<SCITEGIC>MOL_PROPERTY
Angle
SciTegic.value.DoubleValue
2.667

@<SCITEGIC>MOL_PROPERTY
Pdih
SciTegic.value.DoubleValue
4.660

@<SCITEGIC>MOL_PROPERTY
Idih
SciTegic.value.DoubleValue
0.001

@<SCITEGIC>MOL_PROPERTY
Tether
SciTegic.value.DoubleValue
0.000

@<TRIPOS>MOLECULE
guest-7_confgen4.mol2 : confsearch ligand conformer 884
          19          18           1
SMALL
USER_CHARGES
 
@<TRIPOS>ATOM
       1    C1      20.659253   21.304365   20.725297 C.2        1 MOL1         0.6115
       2    O1      20.551320   21.491979   19.529649 O.co2      1 MOL1        -0.6776
       3    O2      20.704193   22.200309   21.544800 O.co2      1 MOL1        -0.6776
       4    C2      20.722778   19.865611   21.225469 C.3        1 MOL1        -0.2013
       5    H1      21.357297   19.850605   22.118956 H          1 MOL1         0.0727
       6    H2      21.222681   19.260134   20.460061 H          1 MOL1         0.0727
       7    C3      19.323427   19.277703   21.542911 C.3        1 MOL1        -0.1910
       8    H3      18.848239   19.868811   22.336993 H          1 MOL1         0.0729
       9    H4      18.684274   19.390867   20.656414 H          1 MOL1         0.0729
      10    C4      19.356178   17.780094   21.938920 C.3        1 MOL1        -0.1909
      11    H5      19.739982   17.196284   21.091185 H          1 MOL1         0.0729
      12    H6      18.325756   17.436029   22.102104 H          1 MOL1         0.0729
      13    C5      20.199242   17.447877   23.194617 C.3        1 MOL1        -0.1884
      14    H7      20.158967   16.363355   23.365698 H          1 MOL1         0.0729
      15    H8      21.255865   17.687430   23.016368 H          1 MOL1         0.0729
      16    C6      19.709491   18.169668   24.468414 C.3        1 MOL1        -0.2899
      17    H9      18.647544   17.962425   24.653749 H          1 MOL1         0.0741
      18    H10     20.278423   17.831850   25.344205 H          1 MOL1         0.0741
      19    H11     19.839876   19.256171   24.386087 H          1 MOL1         0.0741
@<TRIPOS>BOND
    1     1     2    1
    2     1     3    2
    3     1     4    1
    4     4     5    1
    5     4     6    1
    6     4     7    1
    7     7     8    1
    8     7     9    1
    9     7    10    1
   10    10    11    1
   11    10    12    1
   12    10    13    1
   13    13    14    1
   14    13    15    1
   15    13    16    1
   16    16    17    1
   17    16    18    1
   18    16    19    1
@<TRIPOS>SUBSTRUCTURE
       1 MOL1            1 RESIDUE      1      MOL     
@<SCITEGIC>MOL_PROPERTY
VConf Rank
SciTegic.value.IntegerValue
884

@<SCITEGIC>MOL_PROPERTY
Conf_Id
SciTegic.value.IntegerValue
67

@<SCITEGIC>MOL_PROPERTY
Delta U+W
SciTegic.value.DoubleValue
0.308

@<SCITEGIC>MOL_PROPERTY
U+W
SciTegic.value.DoubleValue
-54.583

@<SCITEGIC>MOL_PROPERTY
Grad RMS
SciTegic.value.DoubleValue
0.000000

@<SCITEGIC>MOL_PROPERTY
U
SciTegic.value.DoubleValue
8.219

@<SCITEGIC>MOL_PROPERTY
W
SciTegic.value.DoubleValue
-62.802

@<SCITEGIC>MOL_PROPERTY
W(PB)
SciTegic.value.DoubleValue
-64.859

@<SCITEGIC>MOL_PROPERTY
W(SA)
SciTegic.value.DoubleValue
2.057

@<SCITEGIC>MOL_PROPERTY
Valence
SciTegic.value.DoubleValue
7.609

@<SCITEGIC>MOL_PROPERTY
Coulomb
SciTegic.value.DoubleValue
-0.089

@<SCITEGIC>MOL_PROPERTY
VdW
SciTegic.value.DoubleValue
0.699

@<SCITEGIC>MOL_PROPERTY
VdW6
SciTegic.value.DoubleValue
-6.924

@<SCITEGIC>MOL_PROPERTY
VdW12
SciTegic.value.DoubleValue
7.623

@<SCITEGIC>MOL_PROPERTY
Bond
SciTegic.value.DoubleValue
0.163

@<SCITEGIC>MOL_PROPERTY
Angle
SciTegic.value.DoubleValue
2.870

@<SCITEGIC>MOL_PROPERTY
Pdih
SciTegic.value.DoubleValue
4.576

@<SCITEGIC>MOL_PROPERTY
Idih
SciTegic.value.DoubleValue
0.001

@<SCITEGIC>MOL_PROPERTY
Tether
SciTegic.value.DoubleValue
0.000

@<TRIPOS>MOLECULE
guest-7_confgen4.mol2 : confsearch ligand conformer 885
          19          18           1
SMALL
USER_CHARGES
 
@<TRIPOS>ATOM
       1    C1      17.461767   18.607239   23.759465 C.2        1 MOL1         0.6115
       2    O1      16.806379   19.438935   24.355427 O.co2      1 MOL1        -0.6776
       3    O2      17.399628   17.414909   23.984879 O.co2      1 MOL1        -0.6776
       4    C2      18.428939   19.088395   22.683694 C.3        1 MOL1        -0.2013
       5    H1      18.002755   19.985050   22.218150 H          1 MOL1         0.0727
       6    H2      18.481054   18.313081   21.910822 H          1 MOL1         0.0727
       7    C3      19.842917   19.395756   23.241173 C.3        1 MOL1        -0.1910
       8    H3      19.746704   20.106275   24.073702 H          1 MOL1         0.0729
       9    H4      20.275036   18.482106   23.670469 H          1 MOL1         0.0729
      10    C4      20.806385   19.998291   22.187890 C.3        1 MOL1        -0.1909
      11    H5      21.764271   20.225293   22.675439 H          1 MOL1         0.0729
      12    H6      20.403664   20.962008   21.847509 H          1 MOL1         0.0729
      13    C5      21.073760   19.105634   20.951130 C.3        1 MOL1        -0.1884
      14    H7      20.144507   18.950682   20.387137 H          1 MOL1         0.0729
      15    H8      21.753579   19.640984   20.274131 H          1 MOL1         0.0729
      16    C6      21.700857   17.740405   21.306512 C.3        1 MOL1        -0.2899
      17    H9      21.006176   17.122124   21.889104 H          1 MOL1         0.0741
      18    H10     21.955237   17.185365   20.394351 H          1 MOL1         0.0741
      19    H11     22.620649   17.870818   21.891325 H          1 MOL1         0.0741
@<TRIPOS>BOND
    1     1     2    1
    2     1     3    2
    3     1     4    1
    4     4     5    1
    5     4     6    1
    6     4     7    1
    7     7     8    1
    8     7     9    1
    9     7    10    1
   10    10    11    1
   11    10    12    1
   12    10    13    1
   13    13    14    1
   14    13    15    1
   15    13    16    1
   16    16    17    1
   17    16    18    1
   18    16    19    1
@<TRIPOS>SUBSTRUCTURE
       1 MOL1            1 RESIDUE      1      MOL     
@<SCITEGIC>MOL_PROPERTY
VConf Rank
SciTegic.value.IntegerValue
885

@<SCITEGIC>MOL_PROPERTY
Conf_Id
SciTegic.value.IntegerValue
21

@<SCITEGIC>MOL_PROPERTY
Delta U+W
SciTegic.value.DoubleValue
0.319

@<SCITEGIC>MOL_PROPERTY
U+W
SciTegic.value.DoubleValue
-54.572

@<SCITEGIC>MOL_PROPERTY
Grad RMS
SciTegic.value.DoubleValue
0.000000

@<SCITEGIC>MOL_PROPERTY
U
SciTegic.value.DoubleValue
8.220

@<SCITEGIC>MOL_PROPERTY
W
SciTegic.value.DoubleValue
-62.792

@<SCITEGIC>MOL_PROPERTY
W(PB)
SciTegic.value.DoubleValue
-64.830

@<SCITEGIC>MOL_PROPERTY
W(SA)
SciTegic.value.DoubleValue
2.038

@<SCITEGIC>MOL_PROPERTY
Valence
SciTegic.value.DoubleValue
7.609

@<SCITEGIC>MOL_PROPERTY
Coulomb
SciTegic.value.DoubleValue
-0.088

@<SCITEGIC>MOL_PROPERTY
VdW
SciTegic.value.DoubleValue
0.699

@<SCITEGIC>MOL_PROPERTY
VdW6
SciTegic.value.DoubleValue
-6.924

@<SCITEGIC>MOL_PROPERTY
VdW12
SciTegic.value.DoubleValue
7.623

@<SCITEGIC>MOL_PROPERTY
Bond
SciTegic.value.DoubleValue
0.163

@<SCITEGIC>MOL_PROPERTY
Angle
SciTegic.value.DoubleValue
2.870

@<SCITEGIC>MOL_PROPERTY
Pdih
SciTegic.value.DoubleValue
4.576

@<SCITEGIC>MOL_PROPERTY
Idih
SciTegic.value.DoubleValue
0.000

@<SCITEGIC>MOL_PROPERTY
Tether
SciTegic.value.DoubleValue
0.000

@<TRIPOS>MOLECULE
guest-7_confgen4.mol2 : confsearch ligand conformer 886
          19          18           1
SMALL
USER_CHARGES
 
@<TRIPOS>ATOM
       1    C1      22.543351   18.152885   23.434871 C.2        1 MOL1         0.6115
       2    O1      22.989826   17.054553   23.700889 O.co2      1 MOL1        -0.6776
       3    O2      23.237323   19.128594   23.228352 O.co2      1 MOL1        -0.6776
       4    C2      21.030188   18.310460   23.336942 C.3        1 MOL1        -0.2013
       5    H1      20.776834   19.325461   23.658513 H          1 MOL1         0.0727
       6    H2      20.571293   17.623464   24.057940 H          1 MOL1         0.0727
       7    C3      20.487448   18.024811   21.911660 C.3        1 MOL1        -0.1910
       8    H3      20.988768   18.672323   21.179070 H          1 MOL1         0.0729
       9    H4      20.761125   16.994188   21.646494 H          1 MOL1         0.0729
      10    C4      18.949212   18.174391   21.795887 C.3        1 MOL1        -0.1909
      11    H5      18.470191   17.938319   22.755943 H          1 MOL1         0.0729
      12    H6      18.585220   17.418314   21.086782 H          1 MOL1         0.0729
      13    C5      18.470535   19.556744   21.288072 C.3        1 MOL1        -0.1884
      14    H7      18.883972   19.744870   20.287604 H          1 MOL1         0.0729
      15    H8      17.378849   19.524699   21.168117 H          1 MOL1         0.0729
      16    C6      18.830468   20.732583   22.219493 C.3        1 MOL1        -0.2899
      17    H9      18.352366   21.657415   21.871760 H          1 MOL1         0.0741
      18    H10     18.491360   20.540996   23.245786 H          1 MOL1         0.0741
      19    H11     19.913543   20.907209   22.235382 H          1 MOL1         0.0741
@<TRIPOS>BOND
    1     1     2    1
    2     1     3    2
    3     1     4    1
    4     4     5    1
    5     4     6    1
    6     4     7    1
    7     7     8    1
    8     7     9    1
    9     7    10    1
   10    10    11    1
   11    10    12    1
   12    10    13    1
   13    13    14    1
   14    13    15    1
   15    13    16    1
   16    16    17    1
   17    16    18    1
   18    16    19    1
@<TRIPOS>SUBSTRUCTURE
       1 MOL1            1 RESIDUE      1      MOL     
@<SCITEGIC>MOL_PROPERTY
VConf Rank
SciTegic.value.IntegerValue
886

@<SCITEGIC>MOL_PROPERTY
Conf_Id
SciTegic.value.IntegerValue
24

@<SCITEGIC>MOL_PROPERTY
Delta U+W
SciTegic.value.DoubleValue
2.477

@<SCITEGIC>MOL_PROPERTY
U+W
SciTegic.value.DoubleValue
-52.414

@<SCITEGIC>MOL_PROPERTY
Grad RMS
SciTegic.value.DoubleValue
0.000000

@<SCITEGIC>MOL_PROPERTY
U
SciTegic.value.DoubleValue
10.422

@<SCITEGIC>MOL_PROPERTY
W
SciTegic.value.DoubleValue
-62.836

@<SCITEGIC>MOL_PROPERTY
W(PB)
SciTegic.value.DoubleValue
-64.906

@<SCITEGIC>MOL_PROPERTY
W(SA)
SciTegic.value.DoubleValue
2.070

@<SCITEGIC>MOL_PROPERTY
Valence
SciTegic.value.DoubleValue
9.628

@<SCITEGIC>MOL_PROPERTY
Coulomb
SciTegic.value.DoubleValue
0.101

@<SCITEGIC>MOL_PROPERTY
VdW
SciTegic.value.DoubleValue
0.693

@<SCITEGIC>MOL_PROPERTY
VdW6
SciTegic.value.DoubleValue
-6.927

@<SCITEGIC>MOL_PROPERTY
VdW12
SciTegic.value.DoubleValue
7.620

@<SCITEGIC>MOL_PROPERTY
Bond
SciTegic.value.DoubleValue
0.173

@<SCITEGIC>MOL_PROPERTY
Angle
SciTegic.value.DoubleValue
2.989

@<SCITEGIC>MOL_PROPERTY
Pdih
SciTegic.value.DoubleValue
6.465

@<SCITEGIC>MOL_PROPERTY
Idih
SciTegic.value.DoubleValue
0.001

@<SCITEGIC>MOL_PROPERTY
Tether
SciTegic.value.DoubleValue
0.000

@<TRIPOS>MOLECULE
guest-7_confgen4.mol2 : confsearch ligand conformer 887
          19          18           1
SMALL
USER_CHARGES
 
@<TRIPOS>ATOM
       1    C1      22.209317   19.711403   21.456312 C.2        1 MOL1         0.6115
       2    O1      22.027084   20.912329   21.491804 O.co2      1 MOL1        -0.6776
       3    O2      23.300379   19.194209   21.594761 O.co2      1 MOL1        -0.6776
       4    C2      21.010638   18.803002   21.195147 C.3        1 MOL1        -0.2013
       5    H1      21.301789   18.102651   20.403631 H          1 MOL1         0.0727
       6    H2      20.196929   19.412946   20.790083 H          1 MOL1         0.0727
       7    C3      20.541542   18.002595   22.441837 C.3        1 MOL1        -0.1910
       8    H3      19.822829   17.229422   22.138707 H          1 MOL1         0.0729
       9    H4      21.410201   17.465045   22.846814 H          1 MOL1         0.0729
      10    C4      19.927173   18.877416   23.565543 C.3        1 MOL1        -0.1909
      11    H5      20.376098   19.880042   23.561856 H          1 MOL1         0.0729
      12    H6      20.201266   18.432499   24.531827 H          1 MOL1         0.0729
      13    C5      18.383190   18.988988   23.525858 C.3        1 MOL1        -0.1884
      14    H7      17.938253   17.988843   23.620429 H          1 MOL1         0.0729
      15    H8      18.052712   19.556778   24.406513 H          1 MOL1         0.0729
      16    C6      17.832458   19.677295   22.259965 C.3        1 MOL1        -0.2899
      17    H9      17.993167   19.055944   21.370329 H          1 MOL1         0.0741
      18    H10     16.752052   19.846511   22.354123 H          1 MOL1         0.0741
      19    H11     18.315728   20.649944   22.099065 H          1 MOL1         0.0741
@<TRIPOS>BOND
    1     1     2    1
    2     1     3    2
    3     1     4    1
    4     4     5    1
    5     4     6    1
    6     4     7    1
    7     7     8    1
    8     7     9    1
    9     7    10    1
   10    10    11    1
   11    10    12    1
   12    10    13    1
   13    13    14    1
   14    13    15    1
   15    13    16    1
   16    16    17    1
   17    16    18    1
   18    16    19    1
@<TRIPOS>SUBSTRUCTURE
       1 MOL1            1 RESIDUE      1      MOL     
@<SCITEGIC>MOL_PROPERTY
VConf Rank
SciTegic.value.IntegerValue
887

@<SCITEGIC>MOL_PROPERTY
Conf_Id
SciTegic.value.IntegerValue
4

@<SCITEGIC>MOL_PROPERTY
Delta U+W
SciTegic.value.DoubleValue
3.753

@<SCITEGIC>MOL_PROPERTY
U+W
SciTegic.value.DoubleValue
-51.138

@<SCITEGIC>MOL_PROPERTY
Grad RMS
SciTegic.value.DoubleValue
0.000000

@<SCITEGIC>MOL_PROPERTY
U
SciTegic.value.DoubleValue
12.334

@<SCITEGIC>MOL_PROPERTY
W
SciTegic.value.DoubleValue
-63.472

@<SCITEGIC>MOL_PROPERTY
W(PB)
SciTegic.value.DoubleValue
-65.500

@<SCITEGIC>MOL_PROPERTY
W(SA)
SciTegic.value.DoubleValue
2.028

@<SCITEGIC>MOL_PROPERTY
Valence
SciTegic.value.DoubleValue
9.984

@<SCITEGIC>MOL_PROPERTY
Coulomb
SciTegic.value.DoubleValue
1.767

@<SCITEGIC>MOL_PROPERTY
VdW
SciTegic.value.DoubleValue
0.583

@<SCITEGIC>MOL_PROPERTY
VdW6
SciTegic.value.DoubleValue
-7.767

@<SCITEGIC>MOL_PROPERTY
VdW12
SciTegic.value.DoubleValue
8.349

@<SCITEGIC>MOL_PROPERTY
Bond
SciTegic.value.DoubleValue
0.203

@<SCITEGIC>MOL_PROPERTY
Angle
SciTegic.value.DoubleValue
3.191

@<SCITEGIC>MOL_PROPERTY
Pdih
SciTegic.value.DoubleValue
6.589

@<SCITEGIC>MOL_PROPERTY
Idih
SciTegic.value.DoubleValue
0.001

@<SCITEGIC>MOL_PROPERTY
Tether
SciTegic.value.DoubleValue
0.000

@<TRIPOS>MOLECULE
guest-7_confgen4.mol2 : confsearch ligand conformer 888
          19          18           1
SMALL
USER_CHARGES
 
@<TRIPOS>ATOM
       1    C1      21.068343   18.240657   24.663154 C.2        1 MOL1         0.6115
       2    O1      20.784044   17.386287   25.479425 O.co2      1 MOL1        -0.6776
       3    O2      22.205881   18.473800   24.304900 O.co2      1 MOL1        -0.6776
       4    C2      19.936918   19.083653   24.080519 C.3        1 MOL1        -0.2013
       5    H1      20.372202   19.980160   23.627715 H          1 MOL1         0.0727
       6    H2      19.321137   19.424103   24.921152 H          1 MOL1         0.0727
       7    C3      19.041703   18.322572   23.063522 C.3        1 MOL1        -0.1910
       8    H3      18.688405   17.400509   23.545720 H          1 MOL1         0.0729
       9    H4      18.141602   18.912958   22.845587 H          1 MOL1         0.0729
      10    C4      19.757844   17.950747   21.738999 C.3        1 MOL1        -0.1909
      11    H5      19.366205   16.981831   21.400468 H          1 MOL1         0.0729
      12    H6      20.831104   17.793345   21.912614 H          1 MOL1         0.0729
      13    C5      19.551448   18.964361   20.586658 C.3        1 MOL1        -0.1884
      14    H7      20.028238   18.563775   19.681475 H          1 MOL1         0.0729
      15    H8      18.480269   19.049739   20.357555 H          1 MOL1         0.0729
      16    C6      20.128564   20.366828   20.868756 C.3        1 MOL1        -0.2899
      17    H9      21.181496   20.305026   21.173717 H          1 MOL1         0.0741
      18    H10     20.071888   20.993388   19.969319 H          1 MOL1         0.0741
      19    H11     19.564637   20.874476   21.660991 H          1 MOL1         0.0741
@<TRIPOS>BOND
    1     1     2    1
    2     1     3    2
    3     1     4    1
    4     4     5    1
    5     4     6    1
    6     4     7    1
    7     7     8    1
    8     7     9    1
    9     7    10    1
   10    10    11    1
   11    10    12    1
   12    10    13    1
   13    13    14    1
   14    13    15    1
   15    13    16    1
   16    16    17    1
   17    16    18    1
   18    16    19    1
@<TRIPOS>SUBSTRUCTURE
       1 MOL1            1 RESIDUE      1      MOL     
@<SCITEGIC>MOL_PROPERTY
VConf Rank
SciTegic.value.IntegerValue
888

@<SCITEGIC>MOL_PROPERTY
Conf_Id
SciTegic.value.IntegerValue
73

@<SCITEGIC>MOL_PROPERTY
Delta U+W
SciTegic.value.DoubleValue
3.707

@<SCITEGIC>MOL_PROPERTY
U+W
SciTegic.value.DoubleValue
-51.184

@<SCITEGIC>MOL_PROPERTY
Grad RMS
SciTegic.value.DoubleValue
0.000000

@<SCITEGIC>MOL_PROPERTY
U
SciTegic.value.DoubleValue
12.334

@<SCITEGIC>MOL_PROPERTY
W
SciTegic.value.DoubleValue
-63.519

@<SCITEGIC>MOL_PROPERTY
W(PB)
SciTegic.value.DoubleValue
-65.541

@<SCITEGIC>MOL_PROPERTY
W(SA)
SciTegic.value.DoubleValue
2.022

@<SCITEGIC>MOL_PROPERTY
Valence
SciTegic.value.DoubleValue
9.984

@<SCITEGIC>MOL_PROPERTY
Coulomb
SciTegic.value.DoubleValue
1.768

@<SCITEGIC>MOL_PROPERTY
VdW
SciTegic.value.DoubleValue
0.583

@<SCITEGIC>MOL_PROPERTY
VdW6
SciTegic.value.DoubleValue
-7.767

@<SCITEGIC>MOL_PROPERTY
VdW12
SciTegic.value.DoubleValue
8.350

@<SCITEGIC>MOL_PROPERTY
Bond
SciTegic.value.DoubleValue
0.203

@<SCITEGIC>MOL_PROPERTY
Angle
SciTegic.value.DoubleValue
3.192

@<SCITEGIC>MOL_PROPERTY
Pdih
SciTegic.value.DoubleValue
6.589

@<SCITEGIC>MOL_PROPERTY
Idih
SciTegic.value.DoubleValue
0.001

@<SCITEGIC>MOL_PROPERTY
Tether
SciTegic.value.DoubleValue
0.000

@<TRIPOS>MOLECULE
guest-7_confgen4.mol2 : confsearch ligand conformer 889
          19          18           1
SMALL
USER_CHARGES
 
@<TRIPOS>ATOM
       1    C1      19.905461   19.337436   19.828547 C.2        1 MOL1         0.6115
       2    O1      18.916689   20.039335   19.748660 O.co2      1 MOL1        -0.6776
       3    O2      20.872234   19.454807   19.101407 O.co2      1 MOL1        -0.6776
       4    C2      19.923891   18.227491   20.875928 C.3        1 MOL1        -0.2013
       5    H1      20.212661   17.301513   20.365197 H          1 MOL1         0.0727
       6    H2      18.902866   18.073640   21.243533 H          1 MOL1         0.0727
       7    C3      20.896661   18.486505   22.058679 C.3        1 MOL1        -0.1910
       8    H3      20.901738   17.611231   22.721051 H          1 MOL1         0.0729
       9    H4      21.917853   18.570263   21.662115 H          1 MOL1         0.0729
      10    C4      20.578739   19.761270   22.882082 C.3        1 MOL1        -0.1909
      11    H5      20.695501   20.642856   22.236903 H          1 MOL1         0.0729
      12    H6      21.331974   19.865729   23.674748 H          1 MOL1         0.0729
      13    C5      19.169569   19.798214   23.522465 C.3        1 MOL1        -0.1884
      14    H7      19.055510   20.748736   24.061347 H          1 MOL1         0.0729
      15    H8      18.399293   19.800178   22.739447 H          1 MOL1         0.0729
      16    C6      18.913246   18.635769   24.505672 C.3        1 MOL1        -0.2899
      17    H9      18.905122   17.669037   23.986756 H          1 MOL1         0.0741
      18    H10     19.685694   18.602930   25.284939 H          1 MOL1         0.0741
      19    H11     17.939930   18.757107   24.998346 H          1 MOL1         0.0741
@<TRIPOS>BOND
    1     1     2    1
    2     1     3    2
    3     1     4    1
    4     4     5    1
    5     4     6    1
    6     4     7    1
    7     7     8    1
    8     7     9    1
    9     7    10    1
   10    10    11    1
   11    10    12    1
   12    10    13    1
   13    13    14    1
   14    13    15    1
   15    13    16    1
   16    16    17    1
   17    16    18    1
   18    16    19    1
@<TRIPOS>SUBSTRUCTURE
       1 MOL1            1 RESIDUE      1      MOL     
@<SCITEGIC>MOL_PROPERTY
VConf Rank
SciTegic.value.IntegerValue
889

@<SCITEGIC>MOL_PROPERTY
Conf_Id
SciTegic.value.IntegerValue
56

@<SCITEGIC>MOL_PROPERTY
Delta U+W
SciTegic.value.DoubleValue
1.735

@<SCITEGIC>MOL_PROPERTY
U+W
SciTegic.value.DoubleValue
-53.156

@<SCITEGIC>MOL_PROPERTY
Grad RMS
SciTegic.value.DoubleValue
0.000000

@<SCITEGIC>MOL_PROPERTY
U
SciTegic.value.DoubleValue
10.214

@<SCITEGIC>MOL_PROPERTY
W
SciTegic.value.DoubleValue
-63.370

@<SCITEGIC>MOL_PROPERTY
W(PB)
SciTegic.value.DoubleValue
-65.388

@<SCITEGIC>MOL_PROPERTY
W(SA)
SciTegic.value.DoubleValue
2.018

@<SCITEGIC>MOL_PROPERTY
Valence
SciTegic.value.DoubleValue
7.868

@<SCITEGIC>MOL_PROPERTY
Coulomb
SciTegic.value.DoubleValue
1.968

@<SCITEGIC>MOL_PROPERTY
VdW
SciTegic.value.DoubleValue
0.378

@<SCITEGIC>MOL_PROPERTY
VdW6
SciTegic.value.DoubleValue
-8.067

@<SCITEGIC>MOL_PROPERTY
VdW12
SciTegic.value.DoubleValue
8.445

@<SCITEGIC>MOL_PROPERTY
Bond
SciTegic.value.DoubleValue
0.191

@<SCITEGIC>MOL_PROPERTY
Angle
SciTegic.value.DoubleValue
3.117

@<SCITEGIC>MOL_PROPERTY
Pdih
SciTegic.value.DoubleValue
4.559

@<SCITEGIC>MOL_PROPERTY
Idih
SciTegic.value.DoubleValue
0.001

@<SCITEGIC>MOL_PROPERTY
Tether
SciTegic.value.DoubleValue
0.000

@<TRIPOS>MOLECULE
guest-7_confgen4.mol2 : confsearch ligand conformer 890
          19          18           1
SMALL
USER_CHARGES
 
@<TRIPOS>ATOM
       1    C1      18.252194   17.766792   24.364523 C.2        1 MOL1         0.6115
       2    O1      17.067322   18.015172   24.468198 O.co2      1 MOL1        -0.6776
       3    O2      18.891564   17.175722   25.212000 O.co2      1 MOL1        -0.6776
       4    C2      18.980827   18.241661   23.112392 C.3        1 MOL1        -0.2013
       5    H1      18.268667   18.232345   22.278654 H          1 MOL1         0.0727
       6    H2      19.763590   17.508983   22.886619 H          1 MOL1         0.0727
       7    C3      19.597145   19.653975   23.275171 C.3        1 MOL1        -0.1910
       8    H3      18.817880   20.337617   23.639561 H          1 MOL1         0.0729
       9    H4      20.369158   19.623717   24.056372 H          1 MOL1         0.0729
      10    C4      20.197037   20.243189   21.973845 C.3        1 MOL1        -0.1909
      11    H5      20.550328   21.257871   22.203147 H          1 MOL1         0.0729
      12    H6      19.410086   20.365259   21.217006 H          1 MOL1         0.0729
      13    C5      21.384999   19.440521   21.387691 C.3        1 MOL1        -0.1884
      14    H7      22.104563   20.147381   20.951896 H          1 MOL1         0.0729
      15    H8      21.921582   18.913750   22.188877 H          1 MOL1         0.0729
      16    C6      20.963743   18.447478   20.281736 C.3        1 MOL1        -0.2899
      17    H9      21.840705   17.917733   19.887803 H          1 MOL1         0.0741
      18    H10     20.258662   17.695756   20.653746 H          1 MOL1         0.0741
      19    H11     20.486771   18.974576   19.445197 H          1 MOL1         0.0741
@<TRIPOS>BOND
    1     1     2    1
    2     1     3    2
    3     1     4    1
    4     4     5    1
    5     4     6    1
    6     4     7    1
    7     7     8    1
    8     7     9    1
    9     7    10    1
   10    10    11    1
   11    10    12    1
   12    10    13    1
   13    13    14    1
   14    13    15    1
   15    13    16    1
   16    16    17    1
   17    16    18    1
   18    16    19    1
@<TRIPOS>SUBSTRUCTURE
       1 MOL1            1 RESIDUE      1      MOL     
@<SCITEGIC>MOL_PROPERTY
VConf Rank
SciTegic.value.IntegerValue
890

@<SCITEGIC>MOL_PROPERTY
Conf_Id
SciTegic.value.IntegerValue
53

@<SCITEGIC>MOL_PROPERTY
Delta U+W
SciTegic.value.DoubleValue
2.279

@<SCITEGIC>MOL_PROPERTY
U+W
SciTegic.value.DoubleValue
-52.612

@<SCITEGIC>MOL_PROPERTY
Grad RMS
SciTegic.value.DoubleValue
0.000000

@<SCITEGIC>MOL_PROPERTY
U
SciTegic.value.DoubleValue
10.231

@<SCITEGIC>MOL_PROPERTY
W
SciTegic.value.DoubleValue
-62.843

@<SCITEGIC>MOL_PROPERTY
W(PB)
SciTegic.value.DoubleValue
-64.893

@<SCITEGIC>MOL_PROPERTY
W(SA)
SciTegic.value.DoubleValue
2.050

@<SCITEGIC>MOL_PROPERTY
Valence
SciTegic.value.DoubleValue
9.644

@<SCITEGIC>MOL_PROPERTY
Coulomb
SciTegic.value.DoubleValue
-0.164

@<SCITEGIC>MOL_PROPERTY
VdW
SciTegic.value.DoubleValue
0.751

@<SCITEGIC>MOL_PROPERTY
VdW6
SciTegic.value.DoubleValue
-6.881

@<SCITEGIC>MOL_PROPERTY
VdW12
SciTegic.value.DoubleValue
7.631

@<SCITEGIC>MOL_PROPERTY
Bond
SciTegic.value.DoubleValue
0.163

@<SCITEGIC>MOL_PROPERTY
Angle
SciTegic.value.DoubleValue
2.998

@<SCITEGIC>MOL_PROPERTY
Pdih
SciTegic.value.DoubleValue
6.482

@<SCITEGIC>MOL_PROPERTY
Idih
SciTegic.value.DoubleValue
0.001

@<SCITEGIC>MOL_PROPERTY
Tether
SciTegic.value.DoubleValue
0.000

@<TRIPOS>MOLECULE
guest-7_confgen4.mol2 : confsearch ligand conformer 891
          19          18           1
SMALL
USER_CHARGES
 
@<TRIPOS>ATOM
       1    C1      22.087350   20.166628   21.743648 C.2        1 MOL1         0.6115
       2    O1      23.004141   19.377644   21.861346 O.co2      1 MOL1        -0.6776
       3    O2      22.069015   21.256769   22.280773 O.co2      1 MOL1        -0.6776
       4    C2      20.931972   19.795202   20.815950 C.3        1 MOL1        -0.2013
       5    H1      21.131556   18.811609   20.373645 H          1 MOL1         0.0727
       6    H2      20.952588   20.518917   19.992884 H          1 MOL1         0.0727
       7    C3      19.521985   19.814718   21.470688 C.3        1 MOL1        -0.1910
       8    H3      19.407418   20.717467   22.086691 H          1 MOL1         0.0729
       9    H4      18.777012   19.900341   20.668129 H          1 MOL1         0.0729
      10    C4      19.174956   18.555838   22.303435 C.3        1 MOL1        -0.1909
      11    H5      19.284533   17.658078   21.679853 H          1 MOL1         0.0729
      12    H6      18.113321   18.611125   22.580718 H          1 MOL1         0.0729
      13    C5      20.015460   18.400098   23.589853 C.3        1 MOL1        -0.1884
      14    H7      21.065436   18.210192   23.333158 H          1 MOL1         0.0729
      15    H8      19.989407   19.334635   24.167225 H          1 MOL1         0.0729
      16    C6      19.499749   17.240164   24.465314 C.3        1 MOL1        -0.2899
      17    H9      19.539828   16.288713   23.918969 H          1 MOL1         0.0741
      18    H10     20.112403   17.137480   25.370387 H          1 MOL1         0.0741
      19    H11     18.461469   17.413740   24.777027 H          1 MOL1         0.0741
@<TRIPOS>BOND
    1     1     2    1
    2     1     3    2
    3     1     4    1
    4     4     5    1
    5     4     6    1
    6     4     7    1
    7     7     8    1
    8     7     9    1
    9     7    10    1
   10    10    11    1
   11    10    12    1
   12    10    13    1
   13    13    14    1
   14    13    15    1
   15    13    16    1
   16    16    17    1
   17    16    18    1
   18    16    19    1
@<TRIPOS>SUBSTRUCTURE
       1 MOL1            1 RESIDUE      1      MOL     
@<SCITEGIC>MOL_PROPERTY
VConf Rank
SciTegic.value.IntegerValue
891

@<SCITEGIC>MOL_PROPERTY
Conf_Id
SciTegic.value.IntegerValue
25

@<SCITEGIC>MOL_PROPERTY
Delta U+W
SciTegic.value.DoubleValue
2.065

@<SCITEGIC>MOL_PROPERTY
U+W
SciTegic.value.DoubleValue
-52.826

@<SCITEGIC>MOL_PROPERTY
Grad RMS
SciTegic.value.DoubleValue
0.000000

@<SCITEGIC>MOL_PROPERTY
U
SciTegic.value.DoubleValue
10.967

@<SCITEGIC>MOL_PROPERTY
W
SciTegic.value.DoubleValue
-63.794

@<SCITEGIC>MOL_PROPERTY
W(PB)
SciTegic.value.DoubleValue
-65.830

@<SCITEGIC>MOL_PROPERTY
W(SA)
SciTegic.value.DoubleValue
2.036

@<SCITEGIC>MOL_PROPERTY
Valence
SciTegic.value.DoubleValue
8.609

@<SCITEGIC>MOL_PROPERTY
Coulomb
SciTegic.value.DoubleValue
1.892

@<SCITEGIC>MOL_PROPERTY
VdW
SciTegic.value.DoubleValue
0.467

@<SCITEGIC>MOL_PROPERTY
VdW6
SciTegic.value.DoubleValue
-7.569

@<SCITEGIC>MOL_PROPERTY
VdW12
SciTegic.value.DoubleValue
8.036

@<SCITEGIC>MOL_PROPERTY
Bond
SciTegic.value.DoubleValue
0.170

@<SCITEGIC>MOL_PROPERTY
Angle
SciTegic.value.DoubleValue
3.195

@<SCITEGIC>MOL_PROPERTY
Pdih
SciTegic.value.DoubleValue
5.237

@<SCITEGIC>MOL_PROPERTY
Idih
SciTegic.value.DoubleValue
0.007

@<SCITEGIC>MOL_PROPERTY
Tether
SciTegic.value.DoubleValue
0.000

@<TRIPOS>MOLECULE
guest-7_confgen4.mol2 : confsearch ligand conformer 892
          19          18           1
SMALL
USER_CHARGES
 
@<TRIPOS>ATOM
       1    C1      18.562959   18.618521   20.661287 C.2        1 MOL1         0.6115
       2    O1      17.611360   17.962641   21.037489 O.co2      1 MOL1        -0.6776
       3    O2      19.276314   18.291841   19.733247 O.co2      1 MOL1        -0.6776
       4    C2      18.836373   19.957728   21.343382 C.3        1 MOL1        -0.2013
       5    H1      17.960845   20.587695   21.147894 H          1 MOL1         0.0727
       6    H2      19.687688   20.442225   20.849976 H          1 MOL1         0.0727
       7    C3      19.073966   19.885029   22.878111 C.3        1 MOL1        -0.1910
       8    H3      18.891491   20.883937   23.296802 H          1 MOL1         0.0729
       9    H4      18.329560   19.222714   23.341514 H          1 MOL1         0.0729
      10    C4      20.501747   19.453086   23.294696 C.3        1 MOL1        -0.1909
      11    H5      20.596988   19.588963   24.380734 H          1 MOL1         0.0729
      12    H6      21.240172   20.123431   22.834041 H          1 MOL1         0.0729
      13    C5      20.843113   17.987421   22.947028 C.3        1 MOL1        -0.1884
      14    H7      20.052121   17.322179   23.320095 H          1 MOL1         0.0729
      15    H8      20.884334   17.858352   21.857969 H          1 MOL1         0.0729
      16    C6      22.197848   17.564063   23.549769 C.3        1 MOL1        -0.2899
      17    H9      22.429442   16.523805   23.286571 H          1 MOL1         0.0741
      18    H10     23.010459   18.198364   23.172034 H          1 MOL1         0.0741
      19    H11     22.182764   17.641055   24.644832 H          1 MOL1         0.0741
@<TRIPOS>BOND
    1     1     2    1
    2     1     3    2
    3     1     4    1
    4     4     5    1
    5     4     6    1
    6     4     7    1
    7     7     8    1
    8     7     9    1
    9     7    10    1
   10    10    11    1
   11    10    12    1
   12    10    13    1
   13    13    14    1
   14    13    15    1
   15    13    16    1
   16    16    17    1
   17    16    18    1
   18    16    19    1
@<TRIPOS>SUBSTRUCTURE
       1 MOL1            1 RESIDUE      1      MOL     
@<SCITEGIC>MOL_PROPERTY
VConf Rank
SciTegic.value.IntegerValue
892

@<SCITEGIC>MOL_PROPERTY
Conf_Id
SciTegic.value.IntegerValue
52

@<SCITEGIC>MOL_PROPERTY
Delta U+W
SciTegic.value.DoubleValue
2.070

@<SCITEGIC>MOL_PROPERTY
U+W
SciTegic.value.DoubleValue
-52.822

@<SCITEGIC>MOL_PROPERTY
Grad RMS
SciTegic.value.DoubleValue
0.000000

@<SCITEGIC>MOL_PROPERTY
U
SciTegic.value.DoubleValue
10.967

@<SCITEGIC>MOL_PROPERTY
W
SciTegic.value.DoubleValue
-63.789

@<SCITEGIC>MOL_PROPERTY
W(PB)
SciTegic.value.DoubleValue
-65.837

@<SCITEGIC>MOL_PROPERTY
W(SA)
SciTegic.value.DoubleValue
2.048

@<SCITEGIC>MOL_PROPERTY
Valence
SciTegic.value.DoubleValue
8.609

@<SCITEGIC>MOL_PROPERTY
Coulomb
SciTegic.value.DoubleValue
1.892

@<SCITEGIC>MOL_PROPERTY
VdW
SciTegic.value.DoubleValue
0.467

@<SCITEGIC>MOL_PROPERTY
VdW6
SciTegic.value.DoubleValue
-7.569

@<SCITEGIC>MOL_PROPERTY
VdW12
SciTegic.value.DoubleValue
8.035

@<SCITEGIC>MOL_PROPERTY
Bond
SciTegic.value.DoubleValue
0.170

@<SCITEGIC>MOL_PROPERTY
Angle
SciTegic.value.DoubleValue
3.196

@<SCITEGIC>MOL_PROPERTY
Pdih
SciTegic.value.DoubleValue
5.237

@<SCITEGIC>MOL_PROPERTY
Idih
SciTegic.value.DoubleValue
0.007

@<SCITEGIC>MOL_PROPERTY
Tether
SciTegic.value.DoubleValue
0.000

@<TRIPOS>MOLECULE
guest-7_confgen4.mol2 : confsearch ligand conformer 893
          19          18           1
SMALL
USER_CHARGES
 
@<TRIPOS>ATOM
       1    C1      20.849920   17.603146   21.209187 C.2        1 MOL1         0.6115
       2    O1      22.017588   17.535327   21.540952 O.co2      1 MOL1        -0.6776
       3    O2      20.159723   16.624838   21.001245 O.co2      1 MOL1        -0.6776
       4    C2      20.248953   18.978456   20.914664 C.3        1 MOL1        -0.2013
       5    H1      19.165570   18.873907   20.780909 H          1 MOL1         0.0727
       6    H2      20.655155   19.284553   19.943799 H          1 MOL1         0.0727
       7    C3      20.556524   20.088470   21.959957 C.3        1 MOL1        -0.1910
       8    H3      21.602055   20.014561   22.289629 H          1 MOL1         0.0729
       9    H4      20.472335   21.060029   21.454644 H          1 MOL1         0.0729
      10    C4      19.615687   20.121191   23.191596 C.3        1 MOL1        -0.1909
      11    H5      18.580349   20.296204   22.868358 H          1 MOL1         0.0729
      12    H6      19.890111   20.999046   23.792452 H          1 MOL1         0.0729
      13    C5      19.690275   18.873897   24.105206 C.3        1 MOL1        -0.1884
      14    H7      20.649652   18.355524   23.970148 H          1 MOL1         0.0729
      15    H8      19.666316   19.200571   25.153947 H          1 MOL1         0.0729
      16    C6      18.516153   17.897276   23.879881 C.3        1 MOL1        -0.2899
      17    H9      17.556885   18.378958   24.109497 H          1 MOL1         0.0741
      18    H10     18.478880   17.546364   22.841998 H          1 MOL1         0.0741
      19    H11     18.616600   17.017909   24.528913 H          1 MOL1         0.0741
@<TRIPOS>BOND
    1     1     2    1
    2     1     3    2
    3     1     4    1
    4     4     5    1
    5     4     6    1
    6     4     7    1
    7     7     8    1
    8     7     9    1
    9     7    10    1
   10    10    11    1
   11    10    12    1
   12    10    13    1
   13    13    14    1
   14    13    15    1
   15    13    16    1
   16    16    17    1
   17    16    18    1
   18    16    19    1
@<TRIPOS>SUBSTRUCTURE
       1 MOL1            1 RESIDUE      1      MOL     
@<SCITEGIC>MOL_PROPERTY
VConf Rank
SciTegic.value.IntegerValue
893

@<SCITEGIC>MOL_PROPERTY
Conf_Id
SciTegic.value.IntegerValue
66

@<SCITEGIC>MOL_PROPERTY
Delta U+W
SciTegic.value.DoubleValue
5.819

@<SCITEGIC>MOL_PROPERTY
U+W
SciTegic.value.DoubleValue
-49.072

@<SCITEGIC>MOL_PROPERTY
Grad RMS
SciTegic.value.DoubleValue
0.000000

@<SCITEGIC>MOL_PROPERTY
U
SciTegic.value.DoubleValue
15.324

@<SCITEGIC>MOL_PROPERTY
W
SciTegic.value.DoubleValue
-64.396

@<SCITEGIC>MOL_PROPERTY
W(PB)
SciTegic.value.DoubleValue
-66.382

@<SCITEGIC>MOL_PROPERTY
W(SA)
SciTegic.value.DoubleValue
1.986

@<SCITEGIC>MOL_PROPERTY
Valence
SciTegic.value.DoubleValue
11.748

@<SCITEGIC>MOL_PROPERTY
Coulomb
SciTegic.value.DoubleValue
3.201

@<SCITEGIC>MOL_PROPERTY
VdW
SciTegic.value.DoubleValue
0.375

@<SCITEGIC>MOL_PROPERTY
VdW6
SciTegic.value.DoubleValue
-8.854

@<SCITEGIC>MOL_PROPERTY
VdW12
SciTegic.value.DoubleValue
9.229

@<SCITEGIC>MOL_PROPERTY
Bond
SciTegic.value.DoubleValue
0.216

@<SCITEGIC>MOL_PROPERTY
Angle
SciTegic.value.DoubleValue
3.812

@<SCITEGIC>MOL_PROPERTY
Pdih
SciTegic.value.DoubleValue
7.699

@<SCITEGIC>MOL_PROPERTY
Idih
SciTegic.value.DoubleValue
0.022

@<SCITEGIC>MOL_PROPERTY
Tether
SciTegic.value.DoubleValue
0.000

@<TRIPOS>MOLECULE
guest-7_confgen4.mol2 : confsearch ligand conformer 894
          19          18           1
SMALL
USER_CHARGES
 
@<TRIPOS>ATOM
       1    C1      18.401361   19.362036   19.131860 C.2        1 MOL1         0.6115
       2    O1      17.296644   19.334440   18.627380 O.co2      1 MOL1        -0.6776
       3    O2      19.410329   19.622935   18.505712 O.co2      1 MOL1        -0.6776
       4    C2      18.494500   19.049205   20.626229 C.3        1 MOL1        -0.2013
       5    H1      18.061773   18.053581   20.779624 H          1 MOL1         0.0727
       6    H2      17.849310   19.763724   21.150864 H          1 MOL1         0.0727
       7    C3      19.925166   19.096821   21.225696 C.3        1 MOL1        -0.1910
       8    H3      20.567872   18.383018   20.691951 H          1 MOL1         0.0729
       9    H4      20.355203   20.094938   21.063530 H          1 MOL1         0.0729
      10    C4      19.926569   18.769456   22.734699 C.3        1 MOL1        -0.1909
      11    H5      19.496095   17.771311   22.894539 H          1 MOL1         0.0729
      12    H6      19.283362   19.484161   23.266330 H          1 MOL1         0.0729
      13    C5      21.349717   18.817288   23.328634 C.3        1 MOL1        -0.1884
      14    H7      21.995846   18.102268   22.800662 H          1 MOL1         0.0729
      15    H8      21.783092   19.814939   23.172519 H          1 MOL1         0.0729
      16    C6      21.347353   18.489879   24.835216 C.3        1 MOL1        -0.2899
      17    H9      20.947599   17.483775   25.017899 H          1 MOL1         0.0741
      18    H10     22.366646   18.528405   25.241005 H          1 MOL1         0.0741
      19    H11     20.733219   19.209340   25.392564 H          1 MOL1         0.0741
@<TRIPOS>BOND
    1     1     2    1
    2     1     3    2
    3     1     4    1
    4     4     5    1
    5     4     6    1
    6     4     7    1
    7     7     8    1
    8     7     9    1
    9     7    10    1
   10    10    11    1
   11    10    12    1
   12    10    13    1
   13    13    14    1
   14    13    15    1
   15    13    16    1
   16    16    17    1
   17    16    18    1
   18    16    19    1
@<TRIPOS>SUBSTRUCTURE
       1 MOL1            1 RESIDUE      1      MOL     
@<SCITEGIC>MOL_PROPERTY
VConf Rank
SciTegic.value.IntegerValue
894

@<SCITEGIC>MOL_PROPERTY
Conf_Id
SciTegic.value.IntegerValue
0

@<SCITEGIC>MOL_PROPERTY
Delta U+W
SciTegic.value.DoubleValue
0.000

@<SCITEGIC>MOL_PROPERTY
U+W
SciTegic.value.DoubleValue
-54.891

@<SCITEGIC>MOL_PROPERTY
Grad RMS
SciTegic.value.DoubleValue
0.000000

@<SCITEGIC>MOL_PROPERTY
U
SciTegic.value.DoubleValue
6.966

@<SCITEGIC>MOL_PROPERTY
W
SciTegic.value.DoubleValue
-61.857

@<SCITEGIC>MOL_PROPERTY
W(PB)
SciTegic.value.DoubleValue
-63.965

@<SCITEGIC>MOL_PROPERTY
W(SA)
SciTegic.value.DoubleValue
2.108

@<SCITEGIC>MOL_PROPERTY
Valence
SciTegic.value.DoubleValue
7.175

@<SCITEGIC>MOL_PROPERTY
Coulomb
SciTegic.value.DoubleValue
-1.360

@<SCITEGIC>MOL_PROPERTY
VdW
SciTegic.value.DoubleValue
1.151

@<SCITEGIC>MOL_PROPERTY
VdW6
SciTegic.value.DoubleValue
-5.641

@<SCITEGIC>MOL_PROPERTY
VdW12
SciTegic.value.DoubleValue
6.792

@<SCITEGIC>MOL_PROPERTY
Bond
SciTegic.value.DoubleValue
0.119

@<SCITEGIC>MOL_PROPERTY
Angle
SciTegic.value.DoubleValue
2.715

@<SCITEGIC>MOL_PROPERTY
Pdih
SciTegic.value.DoubleValue
4.340

@<SCITEGIC>MOL_PROPERTY
Idih
SciTegic.value.DoubleValue
0.000

@<SCITEGIC>MOL_PROPERTY
Tether
SciTegic.value.DoubleValue
0.000

@<TRIPOS>MOLECULE
guest-7_confgen4.mol2 : confsearch ligand conformer 895
          19          18           1
SMALL
USER_CHARGES
 
@<TRIPOS>ATOM
       1    C1      17.807414   21.273723   23.381567 C.2        1 MOL1         0.6115
       2    O1      18.257057   21.940637   24.292186 O.co2      1 MOL1        -0.6776
       3    O2      16.976767   21.682669   22.594819 O.co2      1 MOL1        -0.6776
       4    C2      18.329335   19.852311   23.203929 C.3        1 MOL1        -0.2013
       5    H1      17.516375   19.239044   22.796817 H          1 MOL1         0.0727
       6    H2      18.571981   19.451825   24.195634 H          1 MOL1         0.0727
       7    C3      19.569454   19.777319   22.279486 C.3        1 MOL1        -0.1910
       8    H3      19.313853   20.193432   21.295073 H          1 MOL1         0.0729
       9    H4      20.369499   20.406386   22.693916 H          1 MOL1         0.0729
      10    C4      20.077881   18.328696   22.116333 C.3        1 MOL1        -0.1909
      11    H5      19.275460   17.702110   21.703171 H          1 MOL1         0.0729
      12    H6      20.331354   17.915137   23.102189 H          1 MOL1         0.0729
      13    C5      21.313250   18.257014   21.194868 C.3        1 MOL1        -0.1884
      14    H7      21.063132   18.668114   20.206976 H          1 MOL1         0.0729
      15    H8      22.118946   18.881041   21.605889 H          1 MOL1         0.0729
      16    C6      21.818165   16.809192   21.034155 C.3        1 MOL1        -0.2899
      17    H9      22.696366   16.776594   20.376271 H          1 MOL1         0.0741
      18    H10     22.105561   16.383441   22.004497 H          1 MOL1         0.0741
      19    H11     21.041808   16.168916   20.595133 H          1 MOL1         0.0741
@<TRIPOS>BOND
    1     1     2    1
    2     1     3    2
    3     1     4    1
    4     4     5    1
    5     4     6    1
    6     4     7    1
    7     7     8    1
    8     7     9    1
    9     7    10    1
   10    10    11    1
   11    10    12    1
   12    10    13    1
   13    13    14    1
   14    13    15    1
   15    13    16    1
   16    16    17    1
   17    16    18    1
   18    16    19    1
@<TRIPOS>SUBSTRUCTURE
       1 MOL1            1 RESIDUE      1      MOL     
@<SCITEGIC>MOL_PROPERTY
VConf Rank
SciTegic.value.IntegerValue
895

@<SCITEGIC>MOL_PROPERTY
Conf_Id
SciTegic.value.IntegerValue
18

@<SCITEGIC>MOL_PROPERTY
Delta U+W
SciTegic.value.DoubleValue
-1.199

@<SCITEGIC>MOL_PROPERTY
U+W
SciTegic.value.DoubleValue
-56.090

@<SCITEGIC>MOL_PROPERTY
Grad RMS
SciTegic.value.DoubleValue
0.000000

@<SCITEGIC>MOL_PROPERTY
U
SciTegic.value.DoubleValue
5.975

@<SCITEGIC>MOL_PROPERTY
W
SciTegic.value.DoubleValue
-62.066

@<SCITEGIC>MOL_PROPERTY
W(PB)
SciTegic.value.DoubleValue
-64.219

@<SCITEGIC>MOL_PROPERTY
W(SA)
SciTegic.value.DoubleValue
2.153

@<SCITEGIC>MOL_PROPERTY
Valence
SciTegic.value.DoubleValue
6.673

@<SCITEGIC>MOL_PROPERTY
Coulomb
SciTegic.value.DoubleValue
-1.307

@<SCITEGIC>MOL_PROPERTY
VdW
SciTegic.value.DoubleValue
0.610

@<SCITEGIC>MOL_PROPERTY
VdW6
SciTegic.value.DoubleValue
-5.351

@<SCITEGIC>MOL_PROPERTY
VdW12
SciTegic.value.DoubleValue
5.961

@<SCITEGIC>MOL_PROPERTY
Bond
SciTegic.value.DoubleValue
0.086

@<SCITEGIC>MOL_PROPERTY
Angle
SciTegic.value.DoubleValue
2.253

@<SCITEGIC>MOL_PROPERTY
Pdih
SciTegic.value.DoubleValue
4.333

@<SCITEGIC>MOL_PROPERTY
Idih
SciTegic.value.DoubleValue
0.001

@<SCITEGIC>MOL_PROPERTY
Tether
SciTegic.value.DoubleValue
0.000

@<TRIPOS>MOLECULE
guest-7_confgen4.mol2 : confsearch ligand conformer 896
          19          18           1
SMALL
USER_CHARGES
 
@<TRIPOS>ATOM
       1    C1      22.458698   20.806449   22.990622 C.2        1 MOL1         0.6115
       2    O1      22.365313   22.007328   23.150172 O.co2      1 MOL1        -0.6776
       3    O2      23.383236   20.141814   23.414593 O.co2      1 MOL1        -0.6776
       4    C2      21.343907   20.091389   22.235445 C.3        1 MOL1        -0.2013
       5    H1      21.793744   19.252080   21.693182 H          1 MOL1         0.0727
       6    H2      20.941082   20.784255   21.486996 H          1 MOL1         0.0727
       7    C3      20.209671   19.594092   23.168926 C.3        1 MOL1        -0.1910
       8    H3      20.616407   18.867296   23.885614 H          1 MOL1         0.0729
       9    H4      19.843914   20.443452   23.762419 H          1 MOL1         0.0729
      10    C4      19.015081   18.968437   22.410609 C.3        1 MOL1        -0.1909
      11    H5      18.605408   19.700363   21.701061 H          1 MOL1         0.0729
      12    H6      18.215867   18.755805   23.133837 H          1 MOL1         0.0729
      13    C5      19.376193   17.664807   21.663843 C.3        1 MOL1        -0.1884
      14    H7      20.120209   17.869383   20.882851 H          1 MOL1         0.0729
      15    H8      19.832928   16.951184   22.363416 H          1 MOL1         0.0729
      16    C6      18.133414   17.022193   21.015910 C.3        1 MOL1        -0.2899
      17    H9      18.406323   16.099618   20.487265 H          1 MOL1         0.0741
      18    H10     17.381412   16.768098   21.774405 H          1 MOL1         0.0741
      19    H11     17.671842   17.704817   20.290388 H          1 MOL1         0.0741
@<TRIPOS>BOND
    1     1     2    1
    2     1     3    2
    3     1     4    1
    4     4     5    1
    5     4     6    1
    6     4     7    1
    7     7     8    1
    8     7     9    1
    9     7    10    1
   10    10    11    1
   11    10    12    1
   12    10    13    1
   13    13    14    1
   14    13    15    1
   15    13    16    1
   16    16    17    1
   17    16    18    1
   18    16    19    1
@<TRIPOS>SUBSTRUCTURE
       1 MOL1            1 RESIDUE      1      MOL     
@<SCITEGIC>MOL_PROPERTY
VConf Rank
SciTegic.value.IntegerValue
896

@<SCITEGIC>MOL_PROPERTY
Conf_Id
SciTegic.value.IntegerValue
34

@<SCITEGIC>MOL_PROPERTY
Delta U+W
SciTegic.value.DoubleValue
-0.563

@<SCITEGIC>MOL_PROPERTY
U+W
SciTegic.value.DoubleValue
-55.455

@<SCITEGIC>MOL_PROPERTY
Grad RMS
SciTegic.value.DoubleValue
0.000000

@<SCITEGIC>MOL_PROPERTY
U
SciTegic.value.DoubleValue
6.914

@<SCITEGIC>MOL_PROPERTY
W
SciTegic.value.DoubleValue
-62.369

@<SCITEGIC>MOL_PROPERTY
W(PB)
SciTegic.value.DoubleValue
-64.446

@<SCITEGIC>MOL_PROPERTY
W(SA)
SciTegic.value.DoubleValue
2.077

@<SCITEGIC>MOL_PROPERTY
Valence
SciTegic.value.DoubleValue
7.196

@<SCITEGIC>MOL_PROPERTY
Coulomb
SciTegic.value.DoubleValue
-1.020

@<SCITEGIC>MOL_PROPERTY
VdW
SciTegic.value.DoubleValue
0.738

@<SCITEGIC>MOL_PROPERTY
VdW6
SciTegic.value.DoubleValue
-6.010

@<SCITEGIC>MOL_PROPERTY
VdW12
SciTegic.value.DoubleValue
6.748

@<SCITEGIC>MOL_PROPERTY
Bond
SciTegic.value.DoubleValue
0.126

@<SCITEGIC>MOL_PROPERTY
Angle
SciTegic.value.DoubleValue
2.499

@<SCITEGIC>MOL_PROPERTY
Pdih
SciTegic.value.DoubleValue
4.570

@<SCITEGIC>MOL_PROPERTY
Idih
SciTegic.value.DoubleValue
0.001

@<SCITEGIC>MOL_PROPERTY
Tether
SciTegic.value.DoubleValue
0.000

@<TRIPOS>MOLECULE
guest-7_confgen4.mol2 : confsearch ligand conformer 897
          19          18           1
SMALL
USER_CHARGES
 
@<TRIPOS>ATOM
       1    C1      19.935386   16.052417   20.738855 C.2        1 MOL1         0.6115
       2    O1      18.956987   15.333180   20.697339 O.co2      1 MOL1        -0.6776
       3    O2      21.067230   15.660170   20.535552 O.co2      1 MOL1        -0.6776
       4    C2      19.733937   17.523050   21.086731 C.3        1 MOL1        -0.2013
       5    H1      18.755455   17.833110   20.700792 H          1 MOL1         0.0727
       6    H2      20.493988   18.100132   20.548081 H          1 MOL1         0.0727
       7    C3      19.818550   17.796320   22.610983 C.3        1 MOL1        -0.1910
       8    H3      19.107833   17.136236   23.127309 H          1 MOL1         0.0729
       9    H4      20.817741   17.523577   22.977777 H          1 MOL1         0.0729
      10    C4      19.502597   19.261453   22.994498 C.3        1 MOL1        -0.1909
      11    H5      19.468707   19.335458   24.090120 H          1 MOL1         0.0729
      12    H6      18.499730   19.528306   22.633867 H          1 MOL1         0.0729
      13    C5      20.536890   20.274547   22.454690 C.3        1 MOL1        -0.1884
      14    H7      21.546198   19.979091   22.772920 H          1 MOL1         0.0729
      15    H8      20.532823   20.271344   21.356812 H          1 MOL1         0.0729
      16    C6      20.241044   21.703448   22.952668 C.3        1 MOL1        -0.2899
      17    H9      19.247166   22.035355   22.624870 H          1 MOL1         0.0741
      18    H10     20.274930   21.752793   24.048936 H          1 MOL1         0.0741
      19    H11     20.981856   22.411357   22.558773 H          1 MOL1         0.0741
@<TRIPOS>BOND
    1     1     2    1
    2     1     3    2
    3     1     4    1
    4     4     5    1
    5     4     6    1
    6     4     7    1
    7     7     8    1
    8     7     9    1
    9     7    10    1
   10    10    11    1
   11    10    12    1
   12    10    13    1
   13    13    14    1
   14    13    15    1
   15    13    16    1
   16    16    17    1
   17    16    18    1
   18    16    19    1
@<TRIPOS>SUBSTRUCTURE
       1 MOL1            1 RESIDUE      1      MOL     
@<SCITEGIC>MOL_PROPERTY
VConf Rank
SciTegic.value.IntegerValue
897

@<SCITEGIC>MOL_PROPERTY
Conf_Id
SciTegic.value.IntegerValue
33

@<SCITEGIC>MOL_PROPERTY
Delta U+W
SciTegic.value.DoubleValue
-0.526

@<SCITEGIC>MOL_PROPERTY
U+W
SciTegic.value.DoubleValue
-55.418

@<SCITEGIC>MOL_PROPERTY
Grad RMS
SciTegic.value.DoubleValue
0.000000

@<SCITEGIC>MOL_PROPERTY
U
SciTegic.value.DoubleValue
6.914

@<SCITEGIC>MOL_PROPERTY
W
SciTegic.value.DoubleValue
-62.332

@<SCITEGIC>MOL_PROPERTY
W(PB)
SciTegic.value.DoubleValue
-64.421

@<SCITEGIC>MOL_PROPERTY
W(SA)
SciTegic.value.DoubleValue
2.090

@<SCITEGIC>MOL_PROPERTY
Valence
SciTegic.value.DoubleValue
7.196

@<SCITEGIC>MOL_PROPERTY
Coulomb
SciTegic.value.DoubleValue
-1.020

@<SCITEGIC>MOL_PROPERTY
VdW
SciTegic.value.DoubleValue
0.738

@<SCITEGIC>MOL_PROPERTY
VdW6
SciTegic.value.DoubleValue
-6.010

@<SCITEGIC>MOL_PROPERTY
VdW12
SciTegic.value.DoubleValue
6.748

@<SCITEGIC>MOL_PROPERTY
Bond
SciTegic.value.DoubleValue
0.126

@<SCITEGIC>MOL_PROPERTY
Angle
SciTegic.value.DoubleValue
2.499

@<SCITEGIC>MOL_PROPERTY
Pdih
SciTegic.value.DoubleValue
4.570

@<SCITEGIC>MOL_PROPERTY
Idih
SciTegic.value.DoubleValue
0.001

@<SCITEGIC>MOL_PROPERTY
Tether
SciTegic.value.DoubleValue
0.000

@<TRIPOS>MOLECULE
guest-7_confgen4.mol2 : confsearch ligand conformer 898
          19          18           1
SMALL
USER_CHARGES
 
@<TRIPOS>ATOM
       1    C1      23.057985   18.778452   21.971265 C.2        1 MOL1         0.6115
       2    O1      23.483261   17.901913   22.697241 O.co2      1 MOL1        -0.6776
       3    O2      23.540466   19.048662   20.889395 O.co2      1 MOL1        -0.6776
       4    C2      21.841229   19.571230   22.435494 C.3        1 MOL1        -0.2013
       5    H1      21.929379   20.591380   22.042809 H          1 MOL1         0.0727
       6    H2      21.876509   19.640707   23.529411 H          1 MOL1         0.0727
       7    C3      20.501895   18.938133   21.984034 C.3        1 MOL1        -0.1910
       8    H3      20.485772   18.866713   20.887732 H          1 MOL1         0.0729
       9    H4      20.444659   17.912820   22.372720 H          1 MOL1         0.0729
      10    C4      19.286226   19.760060   22.471114 C.3        1 MOL1        -0.1909
      11    H5      19.398284   20.799129   22.132334 H          1 MOL1         0.0729
      12    H6      19.275260   19.790033   23.569289 H          1 MOL1         0.0729
      13    C5      17.932874   19.218853   21.955244 C.3        1 MOL1        -0.1884
      14    H7      17.138884   19.920812   22.245204 H          1 MOL1         0.0729
      15    H8      17.937920   19.192618   20.856785 H          1 MOL1         0.0729
      16    C6      17.584415   17.819424   22.506629 C.3        1 MOL1        -0.2899
      17    H9      17.601980   17.814014   23.604272 H          1 MOL1         0.0741
      18    H10     16.579360   17.519008   22.183277 H          1 MOL1         0.0741
      19    H11     18.289631   17.059852   22.146815 H          1 MOL1         0.0741
@<TRIPOS>BOND
    1     1     2    1
    2     1     3    2
    3     1     4    1
    4     4     5    1
    5     4     6    1
    6     4     7    1
    7     7     8    1
    8     7     9    1
    9     7    10    1
   10    10    11    1
   11    10    12    1
   12    10    13    1
   13    13    14    1
   14    13    15    1
   15    13    16    1
   16    16    17    1
   17    16    18    1
   18    16    19    1
@<TRIPOS>SUBSTRUCTURE
       1 MOL1            1 RESIDUE      1      MOL     
@<SCITEGIC>MOL_PROPERTY
VConf Rank
SciTegic.value.IntegerValue
898

@<SCITEGIC>MOL_PROPERTY
Conf_Id
SciTegic.value.IntegerValue
42

@<SCITEGIC>MOL_PROPERTY
Delta U+W
SciTegic.value.DoubleValue
-0.344

@<SCITEGIC>MOL_PROPERTY
U+W
SciTegic.value.DoubleValue
-55.236

@<SCITEGIC>MOL_PROPERTY
Grad RMS
SciTegic.value.DoubleValue
0.000000

@<SCITEGIC>MOL_PROPERTY
U
SciTegic.value.DoubleValue
7.244

@<SCITEGIC>MOL_PROPERTY
W
SciTegic.value.DoubleValue
-62.479

@<SCITEGIC>MOL_PROPERTY
W(PB)
SciTegic.value.DoubleValue
-64.610

@<SCITEGIC>MOL_PROPERTY
W(SA)
SciTegic.value.DoubleValue
2.130

@<SCITEGIC>MOL_PROPERTY
Valence
SciTegic.value.DoubleValue
7.174

@<SCITEGIC>MOL_PROPERTY
Coulomb
SciTegic.value.DoubleValue
-0.669

@<SCITEGIC>MOL_PROPERTY
VdW
SciTegic.value.DoubleValue
0.739

@<SCITEGIC>MOL_PROPERTY
VdW6
SciTegic.value.DoubleValue
-5.969

@<SCITEGIC>MOL_PROPERTY
VdW12
SciTegic.value.DoubleValue
6.708

@<SCITEGIC>MOL_PROPERTY
Bond
SciTegic.value.DoubleValue
0.116

@<SCITEGIC>MOL_PROPERTY
Angle
SciTegic.value.DoubleValue
2.481

@<SCITEGIC>MOL_PROPERTY
Pdih
SciTegic.value.DoubleValue
4.576

@<SCITEGIC>MOL_PROPERTY
Idih
SciTegic.value.DoubleValue
0.000

@<SCITEGIC>MOL_PROPERTY
Tether
SciTegic.value.DoubleValue
0.000

@<TRIPOS>MOLECULE
guest-7_confgen4.mol2 : confsearch ligand conformer 899
          19          18           1
SMALL
USER_CHARGES
 
@<TRIPOS>ATOM
       1    C1      21.766409   21.299888   20.983984 C.2        1 MOL1         0.6115
       2    O1      21.138358   22.338277   21.043327 O.co2      1 MOL1        -0.6776
       3    O2      22.515659   21.018435   20.069843 O.co2      1 MOL1        -0.6776
       4    C2      21.590834   20.286404   22.109383 C.3        1 MOL1        -0.2013
       5    H1      21.398265   20.837576   23.037744 H          1 MOL1         0.0727
       6    H2      22.540742   19.754025   22.239480 H          1 MOL1         0.0727
       7    C3      20.445737   19.279230   21.839568 C.3        1 MOL1        -0.1910
       8    H3      19.510214   19.835392   21.694303 H          1 MOL1         0.0729
       9    H4      20.648235   18.742272   20.902600 H          1 MOL1         0.0729
      10    C4      20.288059   18.266695   22.997397 C.3        1 MOL1        -0.1909
      11    H5      20.037027   18.800113   23.924465 H          1 MOL1         0.0729
      12    H6      21.253209   17.772465   23.174077 H          1 MOL1         0.0729
      13    C5      19.223318   17.179978   22.721785 C.3        1 MOL1        -0.1884
      14    H7      19.474044   16.640383   21.798043 H          1 MOL1         0.0729
      15    H8      19.257363   16.439383   23.532713 H          1 MOL1         0.0729
      16    C6      17.788643   17.741769   22.622035 C.3        1 MOL1        -0.2899
      17    H9      17.676128   18.401622   21.752736 H          1 MOL1         0.0741
      18    H10     17.063335   16.924838   22.514824 H          1 MOL1         0.0741
      19    H11     17.525935   18.310808   23.523331 H          1 MOL1         0.0741
@<TRIPOS>BOND
    1     1     2    1
    2     1     3    2
    3     1     4    1
    4     4     5    1
    5     4     6    1
    6     4     7    1
    7     7     8    1
    8     7     9    1
    9     7    10    1
   10    10    11    1
   11    10    12    1
   12    10    13    1
   13    13    14    1
   14    13    15    1
   15    13    16    1
   16    16    17    1
   17    16    18    1
   18    16    19    1
@<TRIPOS>SUBSTRUCTURE
       1 MOL1            1 RESIDUE      1      MOL     
@<SCITEGIC>MOL_PROPERTY
VConf Rank
SciTegic.value.IntegerValue
899

@<SCITEGIC>MOL_PROPERTY
Conf_Id
SciTegic.value.IntegerValue
41

@<SCITEGIC>MOL_PROPERTY
Delta U+W
SciTegic.value.DoubleValue
-0.361

@<SCITEGIC>MOL_PROPERTY
U+W
SciTegic.value.DoubleValue
-55.252

@<SCITEGIC>MOL_PROPERTY
Grad RMS
SciTegic.value.DoubleValue
0.000000

@<SCITEGIC>MOL_PROPERTY
U
SciTegic.value.DoubleValue
7.244

@<SCITEGIC>MOL_PROPERTY
W
SciTegic.value.DoubleValue
-62.496

@<SCITEGIC>MOL_PROPERTY
W(PB)
SciTegic.value.DoubleValue
-64.596

@<SCITEGIC>MOL_PROPERTY
W(SA)
SciTegic.value.DoubleValue
2.099

@<SCITEGIC>MOL_PROPERTY
Valence
SciTegic.value.DoubleValue
7.174

@<SCITEGIC>MOL_PROPERTY
Coulomb
SciTegic.value.DoubleValue
-0.669

@<SCITEGIC>MOL_PROPERTY
VdW
SciTegic.value.DoubleValue
0.739

@<SCITEGIC>MOL_PROPERTY
VdW6
SciTegic.value.DoubleValue
-5.969

@<SCITEGIC>MOL_PROPERTY
VdW12
SciTegic.value.DoubleValue
6.708

@<SCITEGIC>MOL_PROPERTY
Bond
SciTegic.value.DoubleValue
0.116

@<SCITEGIC>MOL_PROPERTY
Angle
SciTegic.value.DoubleValue
2.481

@<SCITEGIC>MOL_PROPERTY
Pdih
SciTegic.value.DoubleValue
4.576

@<SCITEGIC>MOL_PROPERTY
Idih
SciTegic.value.DoubleValue
0.000

@<SCITEGIC>MOL_PROPERTY
Tether
SciTegic.value.DoubleValue
0.000

@<TRIPOS>MOLECULE
guest-7_confgen4.mol2 : confsearch ligand conformer 900
          19          18           1
SMALL
USER_CHARGES
 
@<TRIPOS>ATOM
       1    C1      18.613233   21.006931   23.965475 C.2        1 MOL1         0.6115
       2    O1      19.194730   21.987970   23.545983 O.co2      1 MOL1        -0.6776
       3    O2      17.403834   20.930290   24.055815 O.co2      1 MOL1        -0.6776
       4    C2      19.445935   19.813326   24.425105 C.3        1 MOL1        -0.2013
       5    H1      19.047289   19.488857   25.393564 H          1 MOL1         0.0727
       6    H2      20.474339   20.150924   24.602301 H          1 MOL1         0.0727
       7    C3      19.437673   18.619137   23.435692 C.3        1 MOL1        -0.1910
       8    H3      19.940863   17.763423   23.905891 H          1 MOL1         0.0729
       9    H4      18.400062   18.310891   23.246013 H          1 MOL1         0.0729
      10    C4      20.138071   18.950145   22.098835 C.3        1 MOL1        -0.1909
      11    H5      21.170660   19.270170   22.294730 H          1 MOL1         0.0729
      12    H6      19.629707   19.794895   21.613668 H          1 MOL1         0.0729
      13    C5      20.145837   17.739086   21.142865 C.3        1 MOL1        -0.1884
      14    H7      20.656893   16.892117   21.621296 H          1 MOL1         0.0729
      15    H8      19.113953   17.418375   20.943279 H          1 MOL1         0.0729
      16    C6      20.845387   18.072484   19.810030 C.3        1 MOL1        -0.2899
      17    H9      21.889795   18.366685   19.977548 H          1 MOL1         0.0741
      18    H10     20.841508   17.201037   19.142458 H          1 MOL1         0.0741
      19    H11     20.335450   18.896864   19.294468 H          1 MOL1         0.0741
@<TRIPOS>BOND
    1     1     2    1
    2     1     3    2
    3     1     4    1
    4     4     5    1
    5     4     6    1
    6     4     7    1
    7     7     8    1
    8     7     9    1
    9     7    10    1
   10    10    11    1
   11    10    12    1
   12    10    13    1
   13    13    14    1
   14    13    15    1
   15    13    16    1
   16    16    17    1
   17    16    18    1
   18    16    19    1
@<TRIPOS>SUBSTRUCTURE
       1 MOL1            1 RESIDUE      1      MOL     
@<SCITEGIC>MOL_PROPERTY
VConf Rank
SciTegic.value.IntegerValue
900

@<SCITEGIC>MOL_PROPERTY
Conf_Id
SciTegic.value.IntegerValue
36

@<SCITEGIC>MOL_PROPERTY
Delta U+W
SciTegic.value.DoubleValue
-0.079

@<SCITEGIC>MOL_PROPERTY
U+W
SciTegic.value.DoubleValue
-54.971

@<SCITEGIC>MOL_PROPERTY
Grad RMS
SciTegic.value.DoubleValue
0.000000

@<SCITEGIC>MOL_PROPERTY
U
SciTegic.value.DoubleValue
8.266

@<SCITEGIC>MOL_PROPERTY
W
SciTegic.value.DoubleValue
-63.237

@<SCITEGIC>MOL_PROPERTY
W(PB)
SciTegic.value.DoubleValue
-65.340

@<SCITEGIC>MOL_PROPERTY
W(SA)
SciTegic.value.DoubleValue
2.103

@<SCITEGIC>MOL_PROPERTY
Valence
SciTegic.value.DoubleValue
6.935

@<SCITEGIC>MOL_PROPERTY
Coulomb
SciTegic.value.DoubleValue
0.874

@<SCITEGIC>MOL_PROPERTY
VdW
SciTegic.value.DoubleValue
0.457

@<SCITEGIC>MOL_PROPERTY
VdW6
SciTegic.value.DoubleValue
-6.205

@<SCITEGIC>MOL_PROPERTY
VdW12
SciTegic.value.DoubleValue
6.662

@<SCITEGIC>MOL_PROPERTY
Bond
SciTegic.value.DoubleValue
0.107

@<SCITEGIC>MOL_PROPERTY
Angle
SciTegic.value.DoubleValue
2.420

@<SCITEGIC>MOL_PROPERTY
Pdih
SciTegic.value.DoubleValue
4.407

@<SCITEGIC>MOL_PROPERTY
Idih
SciTegic.value.DoubleValue
0.001

@<SCITEGIC>MOL_PROPERTY
Tether
SciTegic.value.DoubleValue
0.000

@<TRIPOS>MOLECULE
guest-7_confgen4.mol2 : confsearch ligand conformer 901
          19          18           1
SMALL
USER_CHARGES
 
@<TRIPOS>ATOM
       1    C1      18.898203   21.393315   21.500773 C.2        1 MOL1         0.6115
       2    O1      17.760155   21.001514   21.333765 O.co2      1 MOL1        -0.6776
       3    O2      19.521541   22.021335   20.667873 O.co2      1 MOL1        -0.6776
       4    C2      19.575868   21.100486   22.836575 C.3        1 MOL1        -0.2013
       5    H1      18.803663   20.847518   23.573253 H          1 MOL1         0.0727
       6    H2      20.046053   22.030756   23.176622 H          1 MOL1         0.0727
       7    C3      20.641691   19.975856   22.770829 C.3        1 MOL1        -0.1910
       8    H3      21.392069   20.229724   22.009176 H          1 MOL1         0.0729
       9    H4      21.170399   19.929412   23.732518 H          1 MOL1         0.0729
      10    C4      20.027579   18.592554   22.459942 C.3        1 MOL1        -0.1909
      11    H5      19.510999   18.626106   21.490694 H          1 MOL1         0.0729
      12    H6      19.269032   18.349191   23.216520 H          1 MOL1         0.0729
      13    C5      21.100971   17.484596   22.430548 C.3        1 MOL1        -0.1884
      14    H7      21.859829   17.724350   21.672837 H          1 MOL1         0.0729
      15    H8      21.618266   17.443488   23.399128 H          1 MOL1         0.0729
      16    C6      20.485099   16.105709   22.120143 C.3        1 MOL1        -0.2899
      17    H9      19.987387   16.109356   21.141515 H          1 MOL1         0.0741
      18    H10     21.261799   15.330135   22.102618 H          1 MOL1         0.0741
      19    H11     19.744082   15.826416   22.880600 H          1 MOL1         0.0741
@<TRIPOS>BOND
    1     1     2    1
    2     1     3    2
    3     1     4    1
    4     4     5    1
    5     4     6    1
    6     4     7    1
    7     7     8    1
    8     7     9    1
    9     7    10    1
   10    10    11    1
   11    10    12    1
   12    10    13    1
   13    13    14    1
   14    13    15    1
   15    13    16    1
   16    16    17    1
   17    16    18    1
   18    16    19    1
@<TRIPOS>SUBSTRUCTURE
       1 MOL1            1 RESIDUE      1      MOL     
@<SCITEGIC>MOL_PROPERTY
VConf Rank
SciTegic.value.IntegerValue
901

@<SCITEGIC>MOL_PROPERTY
Conf_Id
SciTegic.value.IntegerValue
35

@<SCITEGIC>MOL_PROPERTY
Delta U+W
SciTegic.value.DoubleValue
-0.030

@<SCITEGIC>MOL_PROPERTY
U+W
SciTegic.value.DoubleValue
-54.921

@<SCITEGIC>MOL_PROPERTY
Grad RMS
SciTegic.value.DoubleValue
0.000000

@<SCITEGIC>MOL_PROPERTY
U
SciTegic.value.DoubleValue
8.267

@<SCITEGIC>MOL_PROPERTY
W
SciTegic.value.DoubleValue
-63.188

@<SCITEGIC>MOL_PROPERTY
W(PB)
SciTegic.value.DoubleValue
-65.294

@<SCITEGIC>MOL_PROPERTY
W(SA)
SciTegic.value.DoubleValue
2.106

@<SCITEGIC>MOL_PROPERTY
Valence
SciTegic.value.DoubleValue
6.935

@<SCITEGIC>MOL_PROPERTY
Coulomb
SciTegic.value.DoubleValue
0.875

@<SCITEGIC>MOL_PROPERTY
VdW
SciTegic.value.DoubleValue
0.457

@<SCITEGIC>MOL_PROPERTY
VdW6
SciTegic.value.DoubleValue
-6.205

@<SCITEGIC>MOL_PROPERTY
VdW12
SciTegic.value.DoubleValue
6.662

@<SCITEGIC>MOL_PROPERTY
Bond
SciTegic.value.DoubleValue
0.107

@<SCITEGIC>MOL_PROPERTY
Angle
SciTegic.value.DoubleValue
2.420

@<SCITEGIC>MOL_PROPERTY
Pdih
SciTegic.value.DoubleValue
4.407

@<SCITEGIC>MOL_PROPERTY
Idih
SciTegic.value.DoubleValue
0.001

@<SCITEGIC>MOL_PROPERTY
Tether
SciTegic.value.DoubleValue
0.000

@<TRIPOS>MOLECULE
guest-7_confgen4.mol2 : confsearch ligand conformer 902
          19          18           1
SMALL
USER_CHARGES
 
@<TRIPOS>ATOM
       1    C1      21.176357   20.302533   24.621760 C.2        1 MOL1         0.6115
       2    O1      22.347664   20.600046   24.494340 O.co2      1 MOL1        -0.6776
       3    O2      20.722634   19.771509   25.616141 O.co2      1 MOL1        -0.6776
       4    C2      20.221183   20.634423   23.478531 C.3        1 MOL1        -0.2013
       5    H1      20.434422   21.662253   23.162008 H          1 MOL1         0.0727
       6    H2      19.195022   20.628164   23.865718 H          1 MOL1         0.0727
       7    C3      20.338519   19.683150   22.259091 C.3        1 MOL1        -0.1910
       8    H3      19.731966   20.090449   21.440219 H          1 MOL1         0.0729
       9    H4      21.379294   19.669479   21.907056 H          1 MOL1         0.0729
      10    C4      19.875178   18.242603   22.582855 C.3        1 MOL1        -0.1909
      11    H5      18.822812   18.254005   22.897836 H          1 MOL1         0.0729
      12    H6      20.450189   17.862113   23.438200 H          1 MOL1         0.0729
      13    C5      20.051533   17.260604   21.401581 C.3        1 MOL1        -0.1884
      14    H7      21.103798   17.245463   21.085637 H          1 MOL1         0.0729
      15    H8      19.817716   16.245194   21.750139 H          1 MOL1         0.0729
      16    C6      19.150177   17.589833   20.191960 C.3        1 MOL1        -0.2899
      17    H9      19.426641   18.548035   19.734754 H          1 MOL1         0.0741
      18    H10     19.245234   16.814587   19.420666 H          1 MOL1         0.0741
      19    H11     18.095087   17.641611   20.490706 H          1 MOL1         0.0741
@<TRIPOS>BOND
    1     1     2    1
    2     1     3    2
    3     1     4    1
    4     4     5    1
    5     4     6    1
    6     4     7    1
    7     7     8    1
    8     7     9    1
    9     7    10    1
   10    10    11    1
   11    10    12    1
   12    10    13    1
   13    13    14    1
   14    13    15    1
   15    13    16    1
   16    16    17    1
   17    16    18    1
   18    16    19    1
@<TRIPOS>SUBSTRUCTURE
       1 MOL1            1 RESIDUE      1      MOL     
@<SCITEGIC>MOL_PROPERTY
VConf Rank
SciTegic.value.IntegerValue
902

@<SCITEGIC>MOL_PROPERTY
Conf_Id
SciTegic.value.IntegerValue
74

@<SCITEGIC>MOL_PROPERTY
Delta U+W
SciTegic.value.DoubleValue
0.797

@<SCITEGIC>MOL_PROPERTY
U+W
SciTegic.value.DoubleValue
-54.095

@<SCITEGIC>MOL_PROPERTY
Grad RMS
SciTegic.value.DoubleValue
0.000000

@<SCITEGIC>MOL_PROPERTY
U
SciTegic.value.DoubleValue
8.869

@<SCITEGIC>MOL_PROPERTY
W
SciTegic.value.DoubleValue
-62.964

@<SCITEGIC>MOL_PROPERTY
W(PB)
SciTegic.value.DoubleValue
-65.046

@<SCITEGIC>MOL_PROPERTY
W(SA)
SciTegic.value.DoubleValue
2.082

@<SCITEGIC>MOL_PROPERTY
Valence
SciTegic.value.DoubleValue
7.469

@<SCITEGIC>MOL_PROPERTY
Coulomb
SciTegic.value.DoubleValue
0.762

@<SCITEGIC>MOL_PROPERTY
VdW
SciTegic.value.DoubleValue
0.639

@<SCITEGIC>MOL_PROPERTY
VdW6
SciTegic.value.DoubleValue
-6.782

@<SCITEGIC>MOL_PROPERTY
VdW12
SciTegic.value.DoubleValue
7.421

@<SCITEGIC>MOL_PROPERTY
Bond
SciTegic.value.DoubleValue
0.141

@<SCITEGIC>MOL_PROPERTY
Angle
SciTegic.value.DoubleValue
2.667

@<SCITEGIC>MOL_PROPERTY
Pdih
SciTegic.value.DoubleValue
4.660

@<SCITEGIC>MOL_PROPERTY
Idih
SciTegic.value.DoubleValue
0.001

@<SCITEGIC>MOL_PROPERTY
Tether
SciTegic.value.DoubleValue
0.000

@<TRIPOS>MOLECULE
guest-7_confgen4.mol2 : confsearch ligand conformer 903
          19          18           1
SMALL
USER_CHARGES
 
@<TRIPOS>ATOM
       1    C1      19.697943   19.518028   19.443078 C.2        1 MOL1         0.6115
       2    O1      20.546460   19.849199   18.638860 O.co2      1 MOL1        -0.6776
       3    O2      18.647520   18.991668   19.133434 O.co2      1 MOL1        -0.6776
       4    C2      19.975140   19.759258   20.922668 C.3        1 MOL1        -0.2013
       5    H1      19.016512   19.964328   21.412707 H          1 MOL1         0.0727
       6    H2      20.587416   20.664531   21.011851 H          1 MOL1         0.0727
       7    C3      20.688081   18.562100   21.603196 C.3        1 MOL1        -0.1910
       8    H3      20.049498   17.670939   21.541369 H          1 MOL1         0.0729
       9    H4      21.597503   18.323940   21.034487 H          1 MOL1         0.0729
      10    C4      21.084881   18.833532   23.076153 C.3        1 MOL1        -0.1909
      11    H5      21.803561   19.663914   23.103727 H          1 MOL1         0.0729
      12    H6      21.620239   17.956340   23.464363 H          1 MOL1         0.0729
      13    C5      19.907581   19.162191   24.026862 C.3        1 MOL1        -0.1884
      14    H7      20.311267   19.348663   25.031524 H          1 MOL1         0.0729
      15    H8      19.420061   20.096311   23.718068 H          1 MOL1         0.0729
      16    C6      18.859255   18.032320   24.115184 C.3        1 MOL1        -0.2899
      17    H9      19.328857   17.082069   24.400713 H          1 MOL1         0.0741
      18    H10     18.097284   18.273181   24.867648 H          1 MOL1         0.0741
      19    H11     18.345725   17.889053   23.156003 H          1 MOL1         0.0741
@<TRIPOS>BOND
    1     1     2    1
    2     1     3    2
    3     1     4    1
    4     4     5    1
    5     4     6    1
    6     4     7    1
    7     7     8    1
    8     7     9    1
    9     7    10    1
   10    10    11    1
   11    10    12    1
   12    10    13    1
   13    13    14    1
   14    13    15    1
   15    13    16    1
   16    16    17    1
   17    16    18    1
   18    16    19    1
@<TRIPOS>SUBSTRUCTURE
       1 MOL1            1 RESIDUE      1      MOL     
@<SCITEGIC>MOL_PROPERTY
VConf Rank
SciTegic.value.IntegerValue
903

@<SCITEGIC>MOL_PROPERTY
Conf_Id
SciTegic.value.IntegerValue
67

@<SCITEGIC>MOL_PROPERTY
Delta U+W
SciTegic.value.DoubleValue
0.308

@<SCITEGIC>MOL_PROPERTY
U+W
SciTegic.value.DoubleValue
-54.583

@<SCITEGIC>MOL_PROPERTY
Grad RMS
SciTegic.value.DoubleValue
0.000000

@<SCITEGIC>MOL_PROPERTY
U
SciTegic.value.DoubleValue
8.219

@<SCITEGIC>MOL_PROPERTY
W
SciTegic.value.DoubleValue
-62.802

@<SCITEGIC>MOL_PROPERTY
W(PB)
SciTegic.value.DoubleValue
-64.859

@<SCITEGIC>MOL_PROPERTY
W(SA)
SciTegic.value.DoubleValue
2.057

@<SCITEGIC>MOL_PROPERTY
Valence
SciTegic.value.DoubleValue
7.609

@<SCITEGIC>MOL_PROPERTY
Coulomb
SciTegic.value.DoubleValue
-0.089

@<SCITEGIC>MOL_PROPERTY
VdW
SciTegic.value.DoubleValue
0.699

@<SCITEGIC>MOL_PROPERTY
VdW6
SciTegic.value.DoubleValue
-6.924

@<SCITEGIC>MOL_PROPERTY
VdW12
SciTegic.value.DoubleValue
7.623

@<SCITEGIC>MOL_PROPERTY
Bond
SciTegic.value.DoubleValue
0.163

@<SCITEGIC>MOL_PROPERTY
Angle
SciTegic.value.DoubleValue
2.870

@<SCITEGIC>MOL_PROPERTY
Pdih
SciTegic.value.DoubleValue
4.576

@<SCITEGIC>MOL_PROPERTY
Idih
SciTegic.value.DoubleValue
0.001

@<SCITEGIC>MOL_PROPERTY
Tether
SciTegic.value.DoubleValue
0.000

@<TRIPOS>MOLECULE
guest-7_confgen4.mol2 : confsearch ligand conformer 904
          19          18           1
SMALL
USER_CHARGES
 
@<TRIPOS>ATOM
       1    C1      17.372803   17.683304   21.824004 C.2        1 MOL1         0.6115
       2    O1      17.000991   17.011383   20.882357 O.co2      1 MOL1        -0.6776
       3    O2      16.616982   18.290580   22.556311 O.co2      1 MOL1        -0.6776
       4    C2      18.870700   17.785292   22.088808 C.3        1 MOL1        -0.2013
       5    H1      19.335807   16.839587   21.786032 H          1 MOL1         0.0727
       6    H2      19.012181   17.886562   23.170883 H          1 MOL1         0.0727
       7    C3      19.533538   18.970966   21.340871 C.3        1 MOL1        -0.1910
       8    H3      19.296386   18.889624   20.271132 H          1 MOL1         0.0729
       9    H4      19.086563   19.914961   21.679788 H          1 MOL1         0.0729
      10    C4      21.073765   19.021358   21.501759 C.3        1 MOL1        -0.1909
      11    H5      21.462985   19.859431   20.907687 H          1 MOL1         0.0729
      12    H6      21.507162   18.112070   21.063403 H          1 MOL1         0.0729
      13    C5      21.580826   19.162513   22.958077 C.3        1 MOL1        -0.1884
      14    H7      21.291861   18.282244   23.547345 H          1 MOL1         0.0729
      15    H8      22.679393   19.172098   22.946249 H          1 MOL1         0.0729
      16    C6      21.080935   20.444537   23.658022 C.3        1 MOL1        -0.2899
      17    H9      19.992376   20.425072   23.795601 H          1 MOL1         0.0741
      18    H10     21.539806   20.544441   24.650127 H          1 MOL1         0.0741
      19    H11     21.339203   21.337327   23.073853 H          1 MOL1         0.0741
@<TRIPOS>BOND
    1     1     2    1
    2     1     3    2
    3     1     4    1
    4     4     5    1
    5     4     6    1
    6     4     7    1
    7     7     8    1
    8     7     9    1
    9     7    10    1
   10    10    11    1
   11    10    12    1
   12    10    13    1
   13    13    14    1
   14    13    15    1
   15    13    16    1
   16    16    17    1
   17    16    18    1
   18    16    19    1
@<TRIPOS>SUBSTRUCTURE
       1 MOL1            1 RESIDUE      1      MOL     
@<SCITEGIC>MOL_PROPERTY
VConf Rank
SciTegic.value.IntegerValue
904

@<SCITEGIC>MOL_PROPERTY
Conf_Id
SciTegic.value.IntegerValue
21

@<SCITEGIC>MOL_PROPERTY
Delta U+W
SciTegic.value.DoubleValue
0.319

@<SCITEGIC>MOL_PROPERTY
U+W
SciTegic.value.DoubleValue
-54.572

@<SCITEGIC>MOL_PROPERTY
Grad RMS
SciTegic.value.DoubleValue
0.000000

@<SCITEGIC>MOL_PROPERTY
U
SciTegic.value.DoubleValue
8.220

@<SCITEGIC>MOL_PROPERTY
W
SciTegic.value.DoubleValue
-62.792

@<SCITEGIC>MOL_PROPERTY
W(PB)
SciTegic.value.DoubleValue
-64.830

@<SCITEGIC>MOL_PROPERTY
W(SA)
SciTegic.value.DoubleValue
2.038

@<SCITEGIC>MOL_PROPERTY
Valence
SciTegic.value.DoubleValue
7.609

@<SCITEGIC>MOL_PROPERTY
Coulomb
SciTegic.value.DoubleValue
-0.088

@<SCITEGIC>MOL_PROPERTY
VdW
SciTegic.value.DoubleValue
0.699

@<SCITEGIC>MOL_PROPERTY
VdW6
SciTegic.value.DoubleValue
-6.924

@<SCITEGIC>MOL_PROPERTY
VdW12
SciTegic.value.DoubleValue
7.623

@<SCITEGIC>MOL_PROPERTY
Bond
SciTegic.value.DoubleValue
0.163

@<SCITEGIC>MOL_PROPERTY
Angle
SciTegic.value.DoubleValue
2.870

@<SCITEGIC>MOL_PROPERTY
Pdih
SciTegic.value.DoubleValue
4.576

@<SCITEGIC>MOL_PROPERTY
Idih
SciTegic.value.DoubleValue
0.000

@<SCITEGIC>MOL_PROPERTY
Tether
SciTegic.value.DoubleValue
0.000

@<TRIPOS>MOLECULE
guest-7_confgen4.mol2 : confsearch ligand conformer 905
          19          18           1
SMALL
USER_CHARGES
 
@<TRIPOS>ATOM
       1    C1      18.808999   18.745100   24.959907 C.2        1 MOL1         0.6115
       2    O1      17.919686   19.396225   25.471373 O.co2      1 MOL1        -0.6776
       3    O2      19.123217   17.630672   25.328107 O.co2      1 MOL1        -0.6776
       4    C2      19.558894   19.352834   23.779908 C.3        1 MOL1        -0.2013
       5    H1      20.587908   18.981183   23.808698 H          1 MOL1         0.0727
       6    H2      19.607091   20.437647   23.932363 H          1 MOL1         0.0727
       7    C3      18.889609   19.037447   22.416023 C.3        1 MOL1        -0.1910
       8    H3      18.787186   17.951099   22.287031 H          1 MOL1         0.0729
       9    H4      17.867517   19.440100   22.440426 H          1 MOL1         0.0729
      10    C4      19.636047   19.653433   21.205512 C.3        1 MOL1        -0.1909
      11    H5      20.147094   20.579006   21.503912 H          1 MOL1         0.0729
      12    H6      18.887376   19.953048   20.459392 H          1 MOL1         0.0729
      13    C5      20.632886   18.697027   20.505862 C.3        1 MOL1        -0.1884
      14    H7      20.095715   17.814471   20.131963 H          1 MOL1         0.0729
      15    H8      21.040982   19.205548   19.621521 H          1 MOL1         0.0729
      16    C6      21.805712   18.241623   21.398488 C.3        1 MOL1        -0.2899
      17    H9      22.539685   17.677328   20.808854 H          1 MOL1         0.0741
      18    H10     22.319564   19.102983   21.844573 H          1 MOL1         0.0741
      19    H11     21.456706   17.585507   22.205646 H          1 MOL1         0.0741
@<TRIPOS>BOND
    1     1     2    1
    2     1     3    2
    3     1     4    1
    4     4     5    1
    5     4     6    1
    6     4     7    1
    7     7     8    1
    8     7     9    1
    9     7    10    1
   10    10    11    1
   11    10    12    1
   12    10    13    1
   13    13    14    1
   14    13    15    1
   15    13    16    1
   16    16    17    1
   17    16    18    1
   18    16    19    1
@<TRIPOS>SUBSTRUCTURE
       1 MOL1            1 RESIDUE      1      MOL     
@<SCITEGIC>MOL_PROPERTY
VConf Rank
SciTegic.value.IntegerValue
905

@<SCITEGIC>MOL_PROPERTY
Conf_Id
SciTegic.value.IntegerValue
24

@<SCITEGIC>MOL_PROPERTY
Delta U+W
SciTegic.value.DoubleValue
2.477

@<SCITEGIC>MOL_PROPERTY
U+W
SciTegic.value.DoubleValue
-52.414

@<SCITEGIC>MOL_PROPERTY
Grad RMS
SciTegic.value.DoubleValue
0.000000

@<SCITEGIC>MOL_PROPERTY
U
SciTegic.value.DoubleValue
10.422

@<SCITEGIC>MOL_PROPERTY
W
SciTegic.value.DoubleValue
-62.836

@<SCITEGIC>MOL_PROPERTY
W(PB)
SciTegic.value.DoubleValue
-64.906

@<SCITEGIC>MOL_PROPERTY
W(SA)
SciTegic.value.DoubleValue
2.070

@<SCITEGIC>MOL_PROPERTY
Valence
SciTegic.value.DoubleValue
9.628

@<SCITEGIC>MOL_PROPERTY
Coulomb
SciTegic.value.DoubleValue
0.101

@<SCITEGIC>MOL_PROPERTY
VdW
SciTegic.value.DoubleValue
0.693

@<SCITEGIC>MOL_PROPERTY
VdW6
SciTegic.value.DoubleValue
-6.927

@<SCITEGIC>MOL_PROPERTY
VdW12
SciTegic.value.DoubleValue
7.620

@<SCITEGIC>MOL_PROPERTY
Bond
SciTegic.value.DoubleValue
0.173

@<SCITEGIC>MOL_PROPERTY
Angle
SciTegic.value.DoubleValue
2.989

@<SCITEGIC>MOL_PROPERTY
Pdih
SciTegic.value.DoubleValue
6.465

@<SCITEGIC>MOL_PROPERTY
Idih
SciTegic.value.DoubleValue
0.001

@<SCITEGIC>MOL_PROPERTY
Tether
SciTegic.value.DoubleValue
0.000

@<TRIPOS>MOLECULE
guest-7_confgen4.mol2 : confsearch ligand conformer 906
          19          18           1
SMALL
USER_CHARGES
 
@<TRIPOS>ATOM
       1    C1      21.020950   19.343235   20.080463 C.2        1 MOL1         0.6115
       2    O1      20.130759   19.999732   19.577209 O.co2      1 MOL1        -0.6776
       3    O2      22.193303   19.463900   19.783643 O.co2      1 MOL1        -0.6776
       4    C2      20.646920   18.289870   21.120057 C.3        1 MOL1        -0.2013
       5    H1      21.157593   17.361635   20.838367 H          1 MOL1         0.0727
       6    H2      19.573019   18.093007   21.041229 H          1 MOL1         0.0727
       7    C3      21.039717   18.670882   22.574525 C.3        1 MOL1        -0.1910
       8    H3      20.932135   17.796333   23.230133 H          1 MOL1         0.0729
       9    H4      22.108994   18.924107   22.582201 H          1 MOL1         0.0729
      10    C4      20.239535   19.864595   23.157823 C.3        1 MOL1        -0.1909
      11    H5      19.940892   20.555614   22.357754 H          1 MOL1         0.0729
      12    H6      20.911290   20.438306   23.810805 H          1 MOL1         0.0729
      13    C5      19.003041   19.463580   23.999355 C.3        1 MOL1        -0.1884
      14    H7      19.320457   18.845508   24.850494 H          1 MOL1         0.0729
      15    H8      18.563801   20.374769   24.428258 H          1 MOL1         0.0729
      16    C6      17.912476   18.717895   23.203003 C.3        1 MOL1        -0.2899
      17    H9      18.256548   17.721752   22.898587 H          1 MOL1         0.0741
      18    H10     17.012814   18.583382   23.817244 H          1 MOL1         0.0741
      19    H11     17.628561   19.279759   22.303455 H          1 MOL1         0.0741
@<TRIPOS>BOND
    1     1     2    1
    2     1     3    2
    3     1     4    1
    4     4     5    1
    5     4     6    1
    6     4     7    1
    7     7     8    1
    8     7     9    1
    9     7    10    1
   10    10    11    1
   11    10    12    1
   12    10    13    1
   13    13    14    1
   14    13    15    1
   15    13    16    1
   16    16    17    1
   17    16    18    1
   18    16    19    1
@<TRIPOS>SUBSTRUCTURE
       1 MOL1            1 RESIDUE      1      MOL     
@<SCITEGIC>MOL_PROPERTY
VConf Rank
SciTegic.value.IntegerValue
906

@<SCITEGIC>MOL_PROPERTY
Conf_Id
SciTegic.value.IntegerValue
4

@<SCITEGIC>MOL_PROPERTY
Delta U+W
SciTegic.value.DoubleValue
3.753

@<SCITEGIC>MOL_PROPERTY
U+W
SciTegic.value.DoubleValue
-51.138

@<SCITEGIC>MOL_PROPERTY
Grad RMS
SciTegic.value.DoubleValue
0.000000

@<SCITEGIC>MOL_PROPERTY
U
SciTegic.value.DoubleValue
12.334

@<SCITEGIC>MOL_PROPERTY
W
SciTegic.value.DoubleValue
-63.472

@<SCITEGIC>MOL_PROPERTY
W(PB)
SciTegic.value.DoubleValue
-65.500

@<SCITEGIC>MOL_PROPERTY
W(SA)
SciTegic.value.DoubleValue
2.028

@<SCITEGIC>MOL_PROPERTY
Valence
SciTegic.value.DoubleValue
9.984

@<SCITEGIC>MOL_PROPERTY
Coulomb
SciTegic.value.DoubleValue
1.767

@<SCITEGIC>MOL_PROPERTY
VdW
SciTegic.value.DoubleValue
0.583

@<SCITEGIC>MOL_PROPERTY
VdW6
SciTegic.value.DoubleValue
-7.767

@<SCITEGIC>MOL_PROPERTY
VdW12
SciTegic.value.DoubleValue
8.349

@<SCITEGIC>MOL_PROPERTY
Bond
SciTegic.value.DoubleValue
0.203

@<SCITEGIC>MOL_PROPERTY
Angle
SciTegic.value.DoubleValue
3.191

@<SCITEGIC>MOL_PROPERTY
Pdih
SciTegic.value.DoubleValue
6.589

@<SCITEGIC>MOL_PROPERTY
Idih
SciTegic.value.DoubleValue
0.001

@<SCITEGIC>MOL_PROPERTY
Tether
SciTegic.value.DoubleValue
0.000

@<TRIPOS>MOLECULE
guest-7_confgen4.mol2 : confsearch ligand conformer 907
          19          18           1
SMALL
USER_CHARGES
 
@<TRIPOS>ATOM
       1    C1      17.988867   17.366349   23.261171 C.2        1 MOL1         0.6115
       2    O1      17.294914   16.563116   22.669294 O.co2      1 MOL1        -0.6776
       3    O2      18.453080   17.165756   24.366142 O.co2      1 MOL1        -0.6776
       4    C2      18.266180   18.709285   22.590460 C.3        1 MOL1        -0.2013
       5    H1      18.618349   19.410312   23.353851 H          1 MOL1         0.0727
       6    H2      17.305696   19.095072   22.229361 H          1 MOL1         0.0727
       7    C3      19.265650   18.627683   21.403304 C.3        1 MOL1        -0.1910
       8    H3      18.900022   17.863352   20.703555 H          1 MOL1         0.0729
       9    H4      19.259660   19.574195   20.846246 H          1 MOL1         0.0729
      10    C4      20.717562   18.272410   21.817074 C.3        1 MOL1        -0.1909
      11    H5      21.156361   17.653590   21.022530 H          1 MOL1         0.0729
      12    H6      20.718306   17.643885   22.718051 H          1 MOL1         0.0729
      13    C5      21.647474   19.493368   22.023056 C.3        1 MOL1        -0.1884
      14    H7      22.662314   19.126693   22.229943 H          1 MOL1         0.0729
      15    H8      21.713165   20.069014   21.089505 H          1 MOL1         0.0729
      16    C6      21.216824   20.427988   23.172223 C.3        1 MOL1        -0.2899
      17    H9      21.070661   19.865078   24.103488 H          1 MOL1         0.0741
      18    H10     21.983984   21.191655   23.354033 H          1 MOL1         0.0741
      19    H11     20.282859   20.949415   22.928957 H          1 MOL1         0.0741
@<TRIPOS>BOND
    1     1     2    1
    2     1     3    2
    3     1     4    1
    4     4     5    1
    5     4     6    1
    6     4     7    1
    7     7     8    1
    8     7     9    1
    9     7    10    1
   10    10    11    1
   11    10    12    1
   12    10    13    1
   13    13    14    1
   14    13    15    1
   15    13    16    1
   16    16    17    1
   17    16    18    1
   18    16    19    1
@<TRIPOS>SUBSTRUCTURE
       1 MOL1            1 RESIDUE      1      MOL     
@<SCITEGIC>MOL_PROPERTY
VConf Rank
SciTegic.value.IntegerValue
907

@<SCITEGIC>MOL_PROPERTY
Conf_Id
SciTegic.value.IntegerValue
73

@<SCITEGIC>MOL_PROPERTY
Delta U+W
SciTegic.value.DoubleValue
3.707

@<SCITEGIC>MOL_PROPERTY
U+W
SciTegic.value.DoubleValue
-51.184

@<SCITEGIC>MOL_PROPERTY
Grad RMS
SciTegic.value.DoubleValue
0.000000

@<SCITEGIC>MOL_PROPERTY
U
SciTegic.value.DoubleValue
12.334

@<SCITEGIC>MOL_PROPERTY
W
SciTegic.value.DoubleValue
-63.519

@<SCITEGIC>MOL_PROPERTY
W(PB)
SciTegic.value.DoubleValue
-65.541

@<SCITEGIC>MOL_PROPERTY
W(SA)
SciTegic.value.DoubleValue
2.022

@<SCITEGIC>MOL_PROPERTY
Valence
SciTegic.value.DoubleValue
9.984

@<SCITEGIC>MOL_PROPERTY
Coulomb
SciTegic.value.DoubleValue
1.768

@<SCITEGIC>MOL_PROPERTY
VdW
SciTegic.value.DoubleValue
0.583

@<SCITEGIC>MOL_PROPERTY
VdW6
SciTegic.value.DoubleValue
-7.767

@<SCITEGIC>MOL_PROPERTY
VdW12
SciTegic.value.DoubleValue
8.350

@<SCITEGIC>MOL_PROPERTY
Bond
SciTegic.value.DoubleValue
0.203

@<SCITEGIC>MOL_PROPERTY
Angle
SciTegic.value.DoubleValue
3.192

@<SCITEGIC>MOL_PROPERTY
Pdih
SciTegic.value.DoubleValue
6.589

@<SCITEGIC>MOL_PROPERTY
Idih
SciTegic.value.DoubleValue
0.001

@<SCITEGIC>MOL_PROPERTY
Tether
SciTegic.value.DoubleValue
0.000

@<TRIPOS>MOLECULE
guest-7_confgen4.mol2 : confsearch ligand conformer 908
          19          18           1
SMALL
USER_CHARGES
 
@<TRIPOS>ATOM
       1    C1      18.160230   17.332901   23.389993 C.2        1 MOL1         0.6115
       2    O1      18.932129   16.793356   24.157963 O.co2      1 MOL1        -0.6776
       3    O2      16.979527   17.494688   23.628581 O.co2      1 MOL1        -0.6776
       4    C2      18.692293   17.804786   22.039601 C.3        1 MOL1        -0.2013
       5    H1      18.022931   17.407039   21.267966 H          1 MOL1         0.0727
       6    H2      19.672196   17.344979   21.867372 H          1 MOL1         0.0727
       7    C3      18.781053   19.348766   21.896368 C.3        1 MOL1        -0.1910
       8    H3      19.100107   19.599579   20.876484 H          1 MOL1         0.0729
       9    H4      17.772964   19.770841   22.009153 H          1 MOL1         0.0729
      10    C4      19.722524   20.033932   22.920221 C.3        1 MOL1        -0.1909
      11    H5      19.325132   19.877914   23.932555 H          1 MOL1         0.0729
      12    H6      19.697909   21.118902   22.750435 H          1 MOL1         0.0729
      13    C5      21.194491   19.555035   22.885747 C.3        1 MOL1        -0.1884
      14    H7      21.755813   20.095038   23.660480 H          1 MOL1         0.0729
      15    H8      21.251799   18.492043   23.156317 H          1 MOL1         0.0729
      16    C6      21.881583   19.785746   21.522534 C.3        1 MOL1        -0.2899
      17    H9      21.422011   19.174377   20.735811 H          1 MOL1         0.0741
      18    H10     21.816222   20.839848   21.223186 H          1 MOL1         0.0741
      19    H11     22.943717   19.514278   21.577052 H          1 MOL1         0.0741
@<TRIPOS>BOND
    1     1     2    1
    2     1     3    2
    3     1     4    1
    4     4     5    1
    5     4     6    1
    6     4     7    1
    7     7     8    1
    8     7     9    1
    9     7    10    1
   10    10    11    1
   11    10    12    1
   12    10    13    1
   13    13    14    1
   14    13    15    1
   15    13    16    1
   16    16    17    1
   17    16    18    1
   18    16    19    1
@<TRIPOS>SUBSTRUCTURE
       1 MOL1            1 RESIDUE      1      MOL     
@<SCITEGIC>MOL_PROPERTY
VConf Rank
SciTegic.value.IntegerValue
908

@<SCITEGIC>MOL_PROPERTY
Conf_Id
SciTegic.value.IntegerValue
56

@<SCITEGIC>MOL_PROPERTY
Delta U+W
SciTegic.value.DoubleValue
1.735

@<SCITEGIC>MOL_PROPERTY
U+W
SciTegic.value.DoubleValue
-53.156

@<SCITEGIC>MOL_PROPERTY
Grad RMS
SciTegic.value.DoubleValue
0.000000

@<SCITEGIC>MOL_PROPERTY
U
SciTegic.value.DoubleValue
10.214

@<SCITEGIC>MOL_PROPERTY
W
SciTegic.value.DoubleValue
-63.370

@<SCITEGIC>MOL_PROPERTY
W(PB)
SciTegic.value.DoubleValue
-65.388

@<SCITEGIC>MOL_PROPERTY
W(SA)
SciTegic.value.DoubleValue
2.018

@<SCITEGIC>MOL_PROPERTY
Valence
SciTegic.value.DoubleValue
7.868

@<SCITEGIC>MOL_PROPERTY
Coulomb
SciTegic.value.DoubleValue
1.968

@<SCITEGIC>MOL_PROPERTY
VdW
SciTegic.value.DoubleValue
0.378

@<SCITEGIC>MOL_PROPERTY
VdW6
SciTegic.value.DoubleValue
-8.067

@<SCITEGIC>MOL_PROPERTY
VdW12
SciTegic.value.DoubleValue
8.445

@<SCITEGIC>MOL_PROPERTY
Bond
SciTegic.value.DoubleValue
0.191

@<SCITEGIC>MOL_PROPERTY
Angle
SciTegic.value.DoubleValue
3.117

@<SCITEGIC>MOL_PROPERTY
Pdih
SciTegic.value.DoubleValue
4.559

@<SCITEGIC>MOL_PROPERTY
Idih
SciTegic.value.DoubleValue
0.001

@<SCITEGIC>MOL_PROPERTY
Tether
SciTegic.value.DoubleValue
0.000

@<TRIPOS>MOLECULE
guest-7_confgen4.mol2 : confsearch ligand conformer 909
          19          18           1
SMALL
USER_CHARGES
 
@<TRIPOS>ATOM
       1    C1      17.052640   19.094029   21.896258 C.2        1 MOL1         0.6115
       2    O1      16.321627   18.128391   21.993859 O.co2      1 MOL1        -0.6776
       3    O2      16.698147   20.161517   21.436716 O.co2      1 MOL1        -0.6776
       4    C2      18.499332   18.951624   22.355650 C.3        1 MOL1        -0.2013
       5    H1      18.525489   18.233611   23.183992 H          1 MOL1         0.0727
       6    H2      18.818909   19.922713   22.749816 H          1 MOL1         0.0727
       7    C3      19.448211   18.493944   21.219370 C.3        1 MOL1        -0.1910
       8    H3      19.025583   17.595209   20.749199 H          1 MOL1         0.0729
       9    H4      19.475101   19.265798   20.437888 H          1 MOL1         0.0729
      10    C4      20.891327   18.172538   21.682628 C.3        1 MOL1        -0.1909
      11    H5      21.446642   17.811448   20.806152 H          1 MOL1         0.0729
      12    H6      20.881584   17.336150   22.394919 H          1 MOL1         0.0729
      13    C5      21.662543   19.376066   22.279162 C.3        1 MOL1        -0.1884
      14    H7      22.718795   19.294875   21.987477 H          1 MOL1         0.0729
      15    H8      21.297168   20.316579   21.844139 H          1 MOL1         0.0729
      16    C6      21.597985   19.438099   23.821469 C.3        1 MOL1        -0.2899
      17    H9      22.172506   20.295551   24.195070 H          1 MOL1         0.0741
      18    H10     20.569207   19.541817   24.184067 H          1 MOL1         0.0741
      19    H11     22.024024   18.529541   24.266604 H          1 MOL1         0.0741
@<TRIPOS>BOND
    1     1     2    1
    2     1     3    2
    3     1     4    1
    4     4     5    1
    5     4     6    1
    6     4     7    1
    7     7     8    1
    8     7     9    1
    9     7    10    1
   10    10    11    1
   11    10    12    1
   12    10    13    1
   13    13    14    1
   14    13    15    1
   15    13    16    1
   16    16    17    1
   17    16    18    1
   18    16    19    1
@<TRIPOS>SUBSTRUCTURE
       1 MOL1            1 RESIDUE      1      MOL     
@<SCITEGIC>MOL_PROPERTY
VConf Rank
SciTegic.value.IntegerValue
909

@<SCITEGIC>MOL_PROPERTY
Conf_Id
SciTegic.value.IntegerValue
53

@<SCITEGIC>MOL_PROPERTY
Delta U+W
SciTegic.value.DoubleValue
2.279

@<SCITEGIC>MOL_PROPERTY
U+W
SciTegic.value.DoubleValue
-52.612

@<SCITEGIC>MOL_PROPERTY
Grad RMS
SciTegic.value.DoubleValue
0.000000

@<SCITEGIC>MOL_PROPERTY
U
SciTegic.value.DoubleValue
10.231

@<SCITEGIC>MOL_PROPERTY
W
SciTegic.value.DoubleValue
-62.843

@<SCITEGIC>MOL_PROPERTY
W(PB)
SciTegic.value.DoubleValue
-64.893

@<SCITEGIC>MOL_PROPERTY
W(SA)
SciTegic.value.DoubleValue
2.050

@<SCITEGIC>MOL_PROPERTY
Valence
SciTegic.value.DoubleValue
9.644

@<SCITEGIC>MOL_PROPERTY
Coulomb
SciTegic.value.DoubleValue
-0.164

@<SCITEGIC>MOL_PROPERTY
VdW
SciTegic.value.DoubleValue
0.751

@<SCITEGIC>MOL_PROPERTY
VdW6
SciTegic.value.DoubleValue
-6.881

@<SCITEGIC>MOL_PROPERTY
VdW12
SciTegic.value.DoubleValue
7.631

@<SCITEGIC>MOL_PROPERTY
Bond
SciTegic.value.DoubleValue
0.163

@<SCITEGIC>MOL_PROPERTY
Angle
SciTegic.value.DoubleValue
2.998

@<SCITEGIC>MOL_PROPERTY
Pdih
SciTegic.value.DoubleValue
6.482

@<SCITEGIC>MOL_PROPERTY
Idih
SciTegic.value.DoubleValue
0.001

@<SCITEGIC>MOL_PROPERTY
Tether
SciTegic.value.DoubleValue
0.000

@<TRIPOS>MOLECULE
guest-7_confgen4.mol2 : confsearch ligand conformer 910
          19          18           1
SMALL
USER_CHARGES
 
@<TRIPOS>ATOM
       1    C1      20.305379   17.735714   24.612250 C.2        1 MOL1         0.6115
       2    O1      21.001212   16.773348   24.354336 O.co2      1 MOL1        -0.6776
       3    O2      19.186738   17.647254   25.079225 O.co2      1 MOL1        -0.6776
       4    C2      20.896503   19.128708   24.403391 C.3        1 MOL1        -0.2013
       5    H1      21.923795   19.028453   24.032523 H          1 MOL1         0.0727
       6    H2      20.965344   19.586545   25.397006 H          1 MOL1         0.0727
       7    C3      20.076879   20.065005   23.471355 C.3        1 MOL1        -0.1910
       8    H3      19.008562   19.999754   23.720323 H          1 MOL1         0.0729
       9    H4      20.374014   21.100545   23.685325 H          1 MOL1         0.0729
      10    C4      20.285336   19.818345   21.956634 C.3        1 MOL1        -0.1909
      11    H5      21.354111   19.892134   21.713510 H          1 MOL1         0.0729
      12    H6      19.787188   20.628382   21.406454 H          1 MOL1         0.0729
      13    C5      19.731347   18.466115   21.456488 C.3        1 MOL1        -0.1884
      14    H7      20.304902   17.639032   21.893953 H          1 MOL1         0.0729
      15    H8      18.690141   18.345299   21.786171 H          1 MOL1         0.0729
      16    C6      19.799681   18.360673   19.919593 C.3        1 MOL1        -0.2899
      17    H9      20.834959   18.452617   19.565894 H          1 MOL1         0.0741
      18    H10     19.410636   17.391521   19.581311 H          1 MOL1         0.0741
      19    H11     19.202871   19.149913   19.443951 H          1 MOL1         0.0741
@<TRIPOS>BOND
    1     1     2    1
    2     1     3    2
    3     1     4    1
    4     4     5    1
    5     4     6    1
    6     4     7    1
    7     7     8    1
    8     7     9    1
    9     7    10    1
   10    10    11    1
   11    10    12    1
   12    10    13    1
   13    13    14    1
   14    13    15    1
   15    13    16    1
   16    16    17    1
   17    16    18    1
   18    16    19    1
@<TRIPOS>SUBSTRUCTURE
       1 MOL1            1 RESIDUE      1      MOL     
@<SCITEGIC>MOL_PROPERTY
VConf Rank
SciTegic.value.IntegerValue
910

@<SCITEGIC>MOL_PROPERTY
Conf_Id
SciTegic.value.IntegerValue
25

@<SCITEGIC>MOL_PROPERTY
Delta U+W
SciTegic.value.DoubleValue
2.065

@<SCITEGIC>MOL_PROPERTY
U+W
SciTegic.value.DoubleValue
-52.826

@<SCITEGIC>MOL_PROPERTY
Grad RMS
SciTegic.value.DoubleValue
0.000000

@<SCITEGIC>MOL_PROPERTY
U
SciTegic.value.DoubleValue
10.967

@<SCITEGIC>MOL_PROPERTY
W
SciTegic.value.DoubleValue
-63.794

@<SCITEGIC>MOL_PROPERTY
W(PB)
SciTegic.value.DoubleValue
-65.830

@<SCITEGIC>MOL_PROPERTY
W(SA)
SciTegic.value.DoubleValue
2.036

@<SCITEGIC>MOL_PROPERTY
Valence
SciTegic.value.DoubleValue
8.609

@<SCITEGIC>MOL_PROPERTY
Coulomb
SciTegic.value.DoubleValue
1.892

@<SCITEGIC>MOL_PROPERTY
VdW
SciTegic.value.DoubleValue
0.467

@<SCITEGIC>MOL_PROPERTY
VdW6
SciTegic.value.DoubleValue
-7.569

@<SCITEGIC>MOL_PROPERTY
VdW12
SciTegic.value.DoubleValue
8.036

@<SCITEGIC>MOL_PROPERTY
Bond
SciTegic.value.DoubleValue
0.170

@<SCITEGIC>MOL_PROPERTY
Angle
SciTegic.value.DoubleValue
3.195

@<SCITEGIC>MOL_PROPERTY
Pdih
SciTegic.value.DoubleValue
5.237

@<SCITEGIC>MOL_PROPERTY
Idih
SciTegic.value.DoubleValue
0.007

@<SCITEGIC>MOL_PROPERTY
Tether
SciTegic.value.DoubleValue
0.000

@<TRIPOS>MOLECULE
guest-7_confgen4.mol2 : confsearch ligand conformer 911
          19          18           1
SMALL
USER_CHARGES
 
@<TRIPOS>ATOM
       1    C1      18.377861   19.154496   20.846930 C.2        1 MOL1         0.6115
       2    O1      17.860181   18.077086   20.626833 O.co2      1 MOL1        -0.6776
       3    O2      18.922369   19.823047   19.990540 O.co2      1 MOL1        -0.6776
       4    C2      18.278873   19.732477   22.257470 C.3        1 MOL1        -0.2013
       5    H1      17.211186   19.883712   22.454440 H          1 MOL1         0.0727
       6    H2      18.743681   20.725821   22.269473 H          1 MOL1         0.0727
       7    C3      18.879347   18.843747   23.382955 C.3        1 MOL1        -0.1910
       8    H3      18.438056   19.161564   24.337247 H          1 MOL1         0.0729
       9    H4      18.570247   17.798918   23.240366 H          1 MOL1         0.0729
      10    C4      20.419328   18.927476   23.524824 C.3        1 MOL1        -0.1909
      11    H5      20.708411   18.389621   24.438144 H          1 MOL1         0.0729
      12    H6      20.720689   19.973270   23.674270 H          1 MOL1         0.0729
      13    C5      21.195387   18.329145   22.330961 C.3        1 MOL1        -0.1884
      14    H7      20.824436   17.317663   22.114873 H          1 MOL1         0.0729
      15    H8      21.025333   18.932921   21.430437 H          1 MOL1         0.0729
      16    C6      22.710357   18.272005   22.612808 C.3        1 MOL1        -0.2899
      17    H9      23.247725   17.852790   21.752262 H          1 MOL1         0.0741
      18    H10     23.111233   19.275506   22.806823 H          1 MOL1         0.0741
      19    H11     22.924846   17.641787   23.485813 H          1 MOL1         0.0741
@<TRIPOS>BOND
    1     1     2    1
    2     1     3    2
    3     1     4    1
    4     4     5    1
    5     4     6    1
    6     4     7    1
    7     7     8    1
    8     7     9    1
    9     7    10    1
   10    10    11    1
   11    10    12    1
   12    10    13    1
   13    13    14    1
   14    13    15    1
   15    13    16    1
   16    16    17    1
   17    16    18    1
   18    16    19    1
@<TRIPOS>SUBSTRUCTURE
       1 MOL1            1 RESIDUE      1      MOL     
@<SCITEGIC>MOL_PROPERTY
VConf Rank
SciTegic.value.IntegerValue
911

@<SCITEGIC>MOL_PROPERTY
Conf_Id
SciTegic.value.IntegerValue
52

@<SCITEGIC>MOL_PROPERTY
Delta U+W
SciTegic.value.DoubleValue
2.070

@<SCITEGIC>MOL_PROPERTY
U+W
SciTegic.value.DoubleValue
-52.822

@<SCITEGIC>MOL_PROPERTY
Grad RMS
SciTegic.value.DoubleValue
0.000000

@<SCITEGIC>MOL_PROPERTY
U
SciTegic.value.DoubleValue
10.967

@<SCITEGIC>MOL_PROPERTY
W
SciTegic.value.DoubleValue
-63.789

@<SCITEGIC>MOL_PROPERTY
W(PB)
SciTegic.value.DoubleValue
-65.837

@<SCITEGIC>MOL_PROPERTY
W(SA)
SciTegic.value.DoubleValue
2.048

@<SCITEGIC>MOL_PROPERTY
Valence
SciTegic.value.DoubleValue
8.609

@<SCITEGIC>MOL_PROPERTY
Coulomb
SciTegic.value.DoubleValue
1.892

@<SCITEGIC>MOL_PROPERTY
VdW
SciTegic.value.DoubleValue
0.467

@<SCITEGIC>MOL_PROPERTY
VdW6
SciTegic.value.DoubleValue
-7.569

@<SCITEGIC>MOL_PROPERTY
VdW12
SciTegic.value.DoubleValue
8.035

@<SCITEGIC>MOL_PROPERTY
Bond
SciTegic.value.DoubleValue
0.170

@<SCITEGIC>MOL_PROPERTY
Angle
SciTegic.value.DoubleValue
3.196

@<SCITEGIC>MOL_PROPERTY
Pdih
SciTegic.value.DoubleValue
5.237

@<SCITEGIC>MOL_PROPERTY
Idih
SciTegic.value.DoubleValue
0.007

@<SCITEGIC>MOL_PROPERTY
Tether
SciTegic.value.DoubleValue
0.000

@<TRIPOS>MOLECULE
guest-7_confgen4.mol2 : confsearch ligand conformer 912
          19          18           1
SMALL
USER_CHARGES
 
@<TRIPOS>ATOM
       1    C1      18.241896   17.836953   23.584826 C.2        1 MOL1         0.6115
       2    O1      18.601936   16.690115   23.767176 O.co2      1 MOL1        -0.6776
       3    O2      17.792761   18.541310   24.467355 O.co2      1 MOL1        -0.6776
       4    C2      18.231859   18.385186   22.156988 C.3        1 MOL1        -0.2013
       5    H1      18.030436   19.462649   22.189232 H          1 MOL1         0.0727
       6    H2      17.371487   17.921580   21.660900 H          1 MOL1         0.0727
       7    C3      19.508959   18.102387   21.315318 C.3        1 MOL1        -0.1910
       8    H3      19.860201   17.077536   21.498595 H          1 MOL1         0.0729
       9    H4      19.227333   18.134602   20.254184 H          1 MOL1         0.0729
      10    C4      20.674496   19.104136   21.518299 C.3        1 MOL1        -0.1909
      11    H5      20.352291   20.116453   21.238239 H          1 MOL1         0.0729
      12    H6      21.465856   18.837738   20.804333 H          1 MOL1         0.0729
      13    C5      21.292650   19.109842   22.937399 C.3        1 MOL1        -0.1884
      14    H7      21.089170   18.158913   23.448949 H          1 MOL1         0.0729
      15    H8      22.385511   19.179026   22.847865 H          1 MOL1         0.0729
      16    C6      20.805499   20.296373   23.796438 C.3        1 MOL1        -0.2899
      17    H9      21.093016   21.253035   23.341390 H          1 MOL1         0.0741
      18    H10     19.715153   20.289522   23.909701 H          1 MOL1         0.0741
      19    H11     21.248223   20.252869   24.799793 H          1 MOL1         0.0741
@<TRIPOS>BOND
    1     1     2    1
    2     1     3    2
    3     1     4    1
    4     4     5    1
    5     4     6    1
    6     4     7    1
    7     7     8    1
    8     7     9    1
    9     7    10    1
   10    10    11    1
   11    10    12    1
   12    10    13    1
   13    13    14    1
   14    13    15    1
   15    13    16    1
   16    16    17    1
   17    16    18    1
   18    16    19    1
@<TRIPOS>SUBSTRUCTURE
       1 MOL1            1 RESIDUE      1      MOL     
@<SCITEGIC>MOL_PROPERTY
VConf Rank
SciTegic.value.IntegerValue
912

@<SCITEGIC>MOL_PROPERTY
Conf_Id
SciTegic.value.IntegerValue
66

@<SCITEGIC>MOL_PROPERTY
Delta U+W
SciTegic.value.DoubleValue
5.819

@<SCITEGIC>MOL_PROPERTY
U+W
SciTegic.value.DoubleValue
-49.072

@<SCITEGIC>MOL_PROPERTY
Grad RMS
SciTegic.value.DoubleValue
0.000000

@<SCITEGIC>MOL_PROPERTY
U
SciTegic.value.DoubleValue
15.324

@<SCITEGIC>MOL_PROPERTY
W
SciTegic.value.DoubleValue
-64.396

@<SCITEGIC>MOL_PROPERTY
W(PB)
SciTegic.value.DoubleValue
-66.382

@<SCITEGIC>MOL_PROPERTY
W(SA)
SciTegic.value.DoubleValue
1.986

@<SCITEGIC>MOL_PROPERTY
Valence
SciTegic.value.DoubleValue
11.748

@<SCITEGIC>MOL_PROPERTY
Coulomb
SciTegic.value.DoubleValue
3.201

@<SCITEGIC>MOL_PROPERTY
VdW
SciTegic.value.DoubleValue
0.375

@<SCITEGIC>MOL_PROPERTY
VdW6
SciTegic.value.DoubleValue
-8.854

@<SCITEGIC>MOL_PROPERTY
VdW12
SciTegic.value.DoubleValue
9.229

@<SCITEGIC>MOL_PROPERTY
Bond
SciTegic.value.DoubleValue
0.216

@<SCITEGIC>MOL_PROPERTY
Angle
SciTegic.value.DoubleValue
3.812

@<SCITEGIC>MOL_PROPERTY
Pdih
SciTegic.value.DoubleValue
7.699

@<SCITEGIC>MOL_PROPERTY
Idih
SciTegic.value.DoubleValue
0.022

@<SCITEGIC>MOL_PROPERTY
Tether
SciTegic.value.DoubleValue
0.000

@<TRIPOS>MOLECULE
guest-7_confgen4.mol2 : confsearch ligand conformer 913
          19          18           1
SMALL
USER_CHARGES
 
@<TRIPOS>ATOM
       1    C1      21.207425   16.083942   20.644537 C.2        1 MOL1         0.6115
       2    O1      21.049960   15.382158   19.665575 O.co2      1 MOL1        -0.6776
       3    O2      22.044471   15.856245   21.496390 O.co2      1 MOL1        -0.6776
       4    C2      20.294447   17.303283   20.783651 C.3        1 MOL1        -0.2013
       5    H1      19.259950   16.940306   20.772921 H          1 MOL1         0.0727
       6    H2      20.428562   17.916619   19.884828 H          1 MOL1         0.0727
       7    C3      20.532887   18.169163   22.049285 C.3        1 MOL1        -0.1910
       8    H3      20.402720   17.547490   22.945972 H          1 MOL1         0.0729
       9    H4      21.572573   18.524779   22.056973 H          1 MOL1         0.0729
      10    C4      19.570792   19.375411   22.109298 C.3        1 MOL1        -0.1909
      11    H5      18.532007   19.017624   22.101329 H          1 MOL1         0.0729
      12    H6      19.702507   19.995464   21.211893 H          1 MOL1         0.0729
      13    C5      19.809458   20.234817   23.368208 C.3        1 MOL1        -0.1884
      14    H7      19.676772   19.618524   24.268247 H          1 MOL1         0.0729
      15    H8      20.847088   20.596345   23.378858 H          1 MOL1         0.0729
      16    C6      18.847190   21.438070   23.424895 C.3        1 MOL1        -0.2899
      17    H9      17.801544   21.104079   23.447186 H          1 MOL1         0.0741
      18    H10     19.030643   22.037938   24.325789 H          1 MOL1         0.0741
      19    H11     18.980659   22.089264   22.551080 H          1 MOL1         0.0741
@<TRIPOS>BOND
    1     1     2    1
    2     1     3    2
    3     1     4    1
    4     4     5    1
    5     4     6    1
    6     4     7    1
    7     7     8    1
    8     7     9    1
    9     7    10    1
   10    10    11    1
   11    10    12    1
   12    10    13    1
   13    13    14    1
   14    13    15    1
   15    13    16    1
   16    16    17    1
   17    16    18    1
   18    16    19    1
@<TRIPOS>SUBSTRUCTURE
       1 MOL1            1 RESIDUE      1      MOL     
@<SCITEGIC>MOL_PROPERTY
VConf Rank
SciTegic.value.IntegerValue
913

@<SCITEGIC>MOL_PROPERTY
Conf_Id
SciTegic.value.IntegerValue
0

@<SCITEGIC>MOL_PROPERTY
Delta U+W
SciTegic.value.DoubleValue
0.000

@<SCITEGIC>MOL_PROPERTY
U+W
SciTegic.value.DoubleValue
-54.891

@<SCITEGIC>MOL_PROPERTY
Grad RMS
SciTegic.value.DoubleValue
0.000000

@<SCITEGIC>MOL_PROPERTY
U
SciTegic.value.DoubleValue
6.966

@<SCITEGIC>MOL_PROPERTY
W
SciTegic.value.DoubleValue
-61.857

@<SCITEGIC>MOL_PROPERTY
W(PB)
SciTegic.value.DoubleValue
-63.965

@<SCITEGIC>MOL_PROPERTY
W(SA)
SciTegic.value.DoubleValue
2.108

@<SCITEGIC>MOL_PROPERTY
Valence
SciTegic.value.DoubleValue
7.175

@<SCITEGIC>MOL_PROPERTY
Coulomb
SciTegic.value.DoubleValue
-1.360

@<SCITEGIC>MOL_PROPERTY
VdW
SciTegic.value.DoubleValue
1.151

@<SCITEGIC>MOL_PROPERTY
VdW6
SciTegic.value.DoubleValue
-5.641

@<SCITEGIC>MOL_PROPERTY
VdW12
SciTegic.value.DoubleValue
6.792

@<SCITEGIC>MOL_PROPERTY
Bond
SciTegic.value.DoubleValue
0.119

@<SCITEGIC>MOL_PROPERTY
Angle
SciTegic.value.DoubleValue
2.715

@<SCITEGIC>MOL_PROPERTY
Pdih
SciTegic.value.DoubleValue
4.340

@<SCITEGIC>MOL_PROPERTY
Idih
SciTegic.value.DoubleValue
0.000

@<SCITEGIC>MOL_PROPERTY
Tether
SciTegic.value.DoubleValue
0.000

@<TRIPOS>MOLECULE
guest-7_confgen4.mol2 : confsearch ligand conformer 914
          19          18           1
SMALL
USER_CHARGES
 
@<TRIPOS>ATOM
       1    C1      17.874072   17.124256   24.149018 C.2        1 MOL1         0.6115
       2    O1      17.616516   17.641258   25.217921 O.co2      1 MOL1        -0.6776
       3    O2      17.118919   16.371378   23.566695 O.co2      1 MOL1        -0.6776
       4    C2      19.209832   17.454541   23.492489 C.3        1 MOL1        -0.2013
       5    H1      19.537752   16.574905   22.925524 H          1 MOL1         0.0727
       6    H2      19.947720   17.621952   24.286364 H          1 MOL1         0.0727
       7    C3      19.134740   18.691283   22.563541 C.3        1 MOL1        -0.1910
       8    H3      18.382997   18.512984   21.782106 H          1 MOL1         0.0729
       9    H4      18.792817   19.560094   23.143027 H          1 MOL1         0.0729
      10    C4      20.498944   19.004271   21.911918 C.3        1 MOL1        -0.1909
      11    H5      20.838663   18.133412   21.334520 H          1 MOL1         0.0729
      12    H6      21.248507   19.180775   22.695624 H          1 MOL1         0.0729
      13    C5      20.421133   20.236692   20.987008 C.3        1 MOL1        -0.1884
      14    H7      19.673627   20.063223   20.200474 H          1 MOL1         0.0729
      15    H8      20.083519   21.110494   21.561448 H          1 MOL1         0.0729
      16    C6      21.784940   20.546260   20.338045 C.3        1 MOL1        -0.2899
      17    H9      21.711550   21.424878   19.684017 H          1 MOL1         0.0741
      18    H10     22.545181   20.755045   21.102157 H          1 MOL1         0.0741
      19    H11     22.132227   19.699899   19.731014 H          1 MOL1         0.0741
@<TRIPOS>BOND
    1     1     2    1
    2     1     3    2
    3     1     4    1
    4     4     5    1
    5     4     6    1
    6     4     7    1
    7     7     8    1
    8     7     9    1
    9     7    10    1
   10    10    11    1
   11    10    12    1
   12    10    13    1
   13    13    14    1
   14    13    15    1
   15    13    16    1
   16    16    17    1
   17    16    18    1
   18    16    19    1
@<TRIPOS>SUBSTRUCTURE
       1 MOL1            1 RESIDUE      1      MOL     
@<SCITEGIC>MOL_PROPERTY
VConf Rank
SciTegic.value.IntegerValue
914

@<SCITEGIC>MOL_PROPERTY
Conf_Id
SciTegic.value.IntegerValue
18

@<SCITEGIC>MOL_PROPERTY
Delta U+W
SciTegic.value.DoubleValue
-1.199

@<SCITEGIC>MOL_PROPERTY
U+W
SciTegic.value.DoubleValue
-56.090

@<SCITEGIC>MOL_PROPERTY
Grad RMS
SciTegic.value.DoubleValue
0.000000

@<SCITEGIC>MOL_PROPERTY
U
SciTegic.value.DoubleValue
5.975

@<SCITEGIC>MOL_PROPERTY
W
SciTegic.value.DoubleValue
-62.066

@<SCITEGIC>MOL_PROPERTY
W(PB)
SciTegic.value.DoubleValue
-64.219

@<SCITEGIC>MOL_PROPERTY
W(SA)
SciTegic.value.DoubleValue
2.153

@<SCITEGIC>MOL_PROPERTY
Valence
SciTegic.value.DoubleValue
6.673

@<SCITEGIC>MOL_PROPERTY
Coulomb
SciTegic.value.DoubleValue
-1.307

@<SCITEGIC>MOL_PROPERTY
VdW
SciTegic.value.DoubleValue
0.610

@<SCITEGIC>MOL_PROPERTY
VdW6
SciTegic.value.DoubleValue
-5.351

@<SCITEGIC>MOL_PROPERTY
VdW12
SciTegic.value.DoubleValue
5.961

@<SCITEGIC>MOL_PROPERTY
Bond
SciTegic.value.DoubleValue
0.086

@<SCITEGIC>MOL_PROPERTY
Angle
SciTegic.value.DoubleValue
2.253

@<SCITEGIC>MOL_PROPERTY
Pdih
SciTegic.value.DoubleValue
4.333

@<SCITEGIC>MOL_PROPERTY
Idih
SciTegic.value.DoubleValue
0.001

@<SCITEGIC>MOL_PROPERTY
Tether
SciTegic.value.DoubleValue
0.000

@<TRIPOS>MOLECULE
guest-7_confgen4.mol2 : confsearch ligand conformer 915
          19          18           1
SMALL
USER_CHARGES
 
@<TRIPOS>ATOM
       1    C1      17.721425   19.651842   20.024625 C.2        1 MOL1         0.6115
       2    O1      17.939903   19.771987   18.835457 O.co2      1 MOL1        -0.6776
       3    O2      16.612914   19.476474   20.490148 O.co2      1 MOL1        -0.6776
       4    C2      18.905839   19.702643   20.983241 C.3        1 MOL1        -0.2013
       5    H1      18.557305   20.151481   21.920210 H          1 MOL1         0.0727
       6    H2      19.658432   20.377911   20.558829 H          1 MOL1         0.0727
       7    C3      19.527186   18.305849   21.244154 C.3        1 MOL1        -0.1910
       8    H3      18.777187   17.651799   21.710019 H          1 MOL1         0.0729
       9    H4      19.781499   17.847351   20.278479 H          1 MOL1         0.0729
      10    C4      20.800178   18.350142   22.122256 C.3        1 MOL1        -0.1909
      11    H5      21.551085   18.997989   21.649563 H          1 MOL1         0.0729
      12    H6      21.236039   17.342204   22.155429 H          1 MOL1         0.0729
      13    C5      20.533763   18.829629   23.566772 C.3        1 MOL1        -0.1884
      14    H7      20.168322   19.864895   23.560849 H          1 MOL1         0.0729
      15    H8      19.746222   18.213717   24.022513 H          1 MOL1         0.0729
      16    C6      21.808037   18.753043   24.431429 C.3        1 MOL1        -0.2899
      17    H9      21.603635   19.099362   25.452885 H          1 MOL1         0.0741
      18    H10     22.181132   17.722235   24.491607 H          1 MOL1         0.0741
      19    H11     22.604545   19.382307   24.013091 H          1 MOL1         0.0741
@<TRIPOS>BOND
    1     1     2    1
    2     1     3    2
    3     1     4    1
    4     4     5    1
    5     4     6    1
    6     4     7    1
    7     7     8    1
    8     7     9    1
    9     7    10    1
   10    10    11    1
   11    10    12    1
   12    10    13    1
   13    13    14    1
   14    13    15    1
   15    13    16    1
   16    16    17    1
   17    16    18    1
   18    16    19    1
@<TRIPOS>SUBSTRUCTURE
       1 MOL1            1 RESIDUE      1      MOL     
@<SCITEGIC>MOL_PROPERTY
VConf Rank
SciTegic.value.IntegerValue
915

@<SCITEGIC>MOL_PROPERTY
Conf_Id
SciTegic.value.IntegerValue
34

@<SCITEGIC>MOL_PROPERTY
Delta U+W
SciTegic.value.DoubleValue
-0.563

@<SCITEGIC>MOL_PROPERTY
U+W
SciTegic.value.DoubleValue
-55.455

@<SCITEGIC>MOL_PROPERTY
Grad RMS
SciTegic.value.DoubleValue
0.000000

@<SCITEGIC>MOL_PROPERTY
U
SciTegic.value.DoubleValue
6.914

@<SCITEGIC>MOL_PROPERTY
W
SciTegic.value.DoubleValue
-62.369

@<SCITEGIC>MOL_PROPERTY
W(PB)
SciTegic.value.DoubleValue
-64.446

@<SCITEGIC>MOL_PROPERTY
W(SA)
SciTegic.value.DoubleValue
2.077

@<SCITEGIC>MOL_PROPERTY
Valence
SciTegic.value.DoubleValue
7.196

@<SCITEGIC>MOL_PROPERTY
Coulomb
SciTegic.value.DoubleValue
-1.020

@<SCITEGIC>MOL_PROPERTY
VdW
SciTegic.value.DoubleValue
0.738

@<SCITEGIC>MOL_PROPERTY
VdW6
SciTegic.value.DoubleValue
-6.010

@<SCITEGIC>MOL_PROPERTY
VdW12
SciTegic.value.DoubleValue
6.748

@<SCITEGIC>MOL_PROPERTY
Bond
SciTegic.value.DoubleValue
0.126

@<SCITEGIC>MOL_PROPERTY
Angle
SciTegic.value.DoubleValue
2.499

@<SCITEGIC>MOL_PROPERTY
Pdih
SciTegic.value.DoubleValue
4.570

@<SCITEGIC>MOL_PROPERTY
Idih
SciTegic.value.DoubleValue
0.001

@<SCITEGIC>MOL_PROPERTY
Tether
SciTegic.value.DoubleValue
0.000

@<TRIPOS>MOLECULE
guest-7_confgen4.mol2 : confsearch ligand conformer 916
          19          18           1
SMALL
USER_CHARGES
 
@<TRIPOS>ATOM
       1    C1      21.070674   20.262224   24.891575 C.2        1 MOL1         0.6115
       2    O1      22.071351   19.888225   25.470418 O.co2      1 MOL1        -0.6776
       3    O2      20.209669   20.944974   25.410021 O.co2      1 MOL1        -0.6776
       4    C2      20.874239   19.832834   23.441955 C.3        1 MOL1        -0.2013
       5    H1      21.862856   19.748875   22.974945 H          1 MOL1         0.0727
       6    H2      20.337759   20.637014   22.925885 H          1 MOL1         0.0727
       7    C3      20.105890   18.491965   23.311992 C.3        1 MOL1        -0.1910
       8    H3      20.620778   17.730945   23.914620 H          1 MOL1         0.0729
       9    H4      19.101223   18.601438   23.743234 H          1 MOL1         0.0729
      10    C4      19.997111   17.980812   21.855827 C.3        1 MOL1        -0.1909
      11    H5      19.548143   16.978210   21.870935 H          1 MOL1         0.0729
      12    H6      21.003333   17.864306   21.430443 H          1 MOL1         0.0729
      13    C5      19.149360   18.896784   20.944880 C.3        1 MOL1        -0.1884
      14    H7      18.159923   19.054822   21.395775 H          1 MOL1         0.0729
      15    H8      19.622162   19.883539   20.854676 H          1 MOL1         0.0729
      16    C6      18.979405   18.292023   19.536816 C.3        1 MOL1        -0.2899
      17    H9      19.953541   18.148599   19.051126 H          1 MOL1         0.0741
      18    H10     18.473587   17.318785   19.585209 H          1 MOL1         0.0741
      19    H11     18.378042   18.954967   18.901239 H          1 MOL1         0.0741
@<TRIPOS>BOND
    1     1     2    1
    2     1     3    2
    3     1     4    1
    4     4     5    1
    5     4     6    1
    6     4     7    1
    7     7     8    1
    8     7     9    1
    9     7    10    1
   10    10    11    1
   11    10    12    1
   12    10    13    1
   13    13    14    1
   14    13    15    1
   15    13    16    1
   16    16    17    1
   17    16    18    1
   18    16    19    1
@<TRIPOS>SUBSTRUCTURE
       1 MOL1            1 RESIDUE      1      MOL     
@<SCITEGIC>MOL_PROPERTY
VConf Rank
SciTegic.value.IntegerValue
916

@<SCITEGIC>MOL_PROPERTY
Conf_Id
SciTegic.value.IntegerValue
33

@<SCITEGIC>MOL_PROPERTY
Delta U+W
SciTegic.value.DoubleValue
-0.526

@<SCITEGIC>MOL_PROPERTY
U+W
SciTegic.value.DoubleValue
-55.418

@<SCITEGIC>MOL_PROPERTY
Grad RMS
SciTegic.value.DoubleValue
0.000000

@<SCITEGIC>MOL_PROPERTY
U
SciTegic.value.DoubleValue
6.914

@<SCITEGIC>MOL_PROPERTY
W
SciTegic.value.DoubleValue
-62.332

@<SCITEGIC>MOL_PROPERTY
W(PB)
SciTegic.value.DoubleValue
-64.421

@<SCITEGIC>MOL_PROPERTY
W(SA)
SciTegic.value.DoubleValue
2.090

@<SCITEGIC>MOL_PROPERTY
Valence
SciTegic.value.DoubleValue
7.196

@<SCITEGIC>MOL_PROPERTY
Coulomb
SciTegic.value.DoubleValue
-1.020

@<SCITEGIC>MOL_PROPERTY
VdW
SciTegic.value.DoubleValue
0.738

@<SCITEGIC>MOL_PROPERTY
VdW6
SciTegic.value.DoubleValue
-6.010

@<SCITEGIC>MOL_PROPERTY
VdW12
SciTegic.value.DoubleValue
6.748

@<SCITEGIC>MOL_PROPERTY
Bond
SciTegic.value.DoubleValue
0.126

@<SCITEGIC>MOL_PROPERTY
Angle
SciTegic.value.DoubleValue
2.499

@<SCITEGIC>MOL_PROPERTY
Pdih
SciTegic.value.DoubleValue
4.570

@<SCITEGIC>MOL_PROPERTY
Idih
SciTegic.value.DoubleValue
0.001

@<SCITEGIC>MOL_PROPERTY
Tether
SciTegic.value.DoubleValue
0.000

@<TRIPOS>MOLECULE
guest-7_confgen4.mol2 : confsearch ligand conformer 917
          19          18           1
SMALL
USER_CHARGES
 
@<TRIPOS>ATOM
       1    C1      22.205591   18.593235   24.385200 C.2        1 MOL1         0.6115
       2    O1      22.761574   19.656669   24.575490 O.co2      1 MOL1        -0.6776
       3    O2      22.028729   17.761990   25.253529 O.co2      1 MOL1        -0.6776
       4    C2      21.685666   18.292698   22.983824 C.3        1 MOL1        -0.2013
       5    H1      21.757654   17.210939   22.818615 H          1 MOL1         0.0727
       6    H2      22.353962   18.776245   22.261128 H          1 MOL1         0.0727
       7    C3      20.228887   18.771241   22.766493 C.3        1 MOL1        -0.1910
       8    H3      19.573932   18.285854   23.503156 H          1 MOL1         0.0729
       9    H4      20.177891   19.851695   22.955280 H          1 MOL1         0.0729
      10    C4      19.729354   18.457016   21.337371 C.3        1 MOL1        -0.1909
      11    H5      19.855232   17.383124   21.142680 H          1 MOL1         0.0729
      12    H6      20.354766   18.982145   20.602452 H          1 MOL1         0.0729
      13    C5      18.245120   18.826241   21.110853 C.3        1 MOL1        -0.1884
      14    H7      17.939463   18.465339   20.119103 H          1 MOL1         0.0729
      15    H8      17.615698   18.298478   21.840663 H          1 MOL1         0.0729
      16    C6      17.973858   20.344005   21.192465 C.3        1 MOL1        -0.2899
      17    H9      18.613645   20.895759   20.491469 H          1 MOL1         0.0741
      18    H10     16.928300   20.561078   20.938243 H          1 MOL1         0.0741
      19    H11     18.156665   20.730062   22.203052 H          1 MOL1         0.0741
@<TRIPOS>BOND
    1     1     2    1
    2     1     3    2
    3     1     4    1
    4     4     5    1
    5     4     6    1
    6     4     7    1
    7     7     8    1
    8     7     9    1
    9     7    10    1
   10    10    11    1
   11    10    12    1
   12    10    13    1
   13    13    14    1
   14    13    15    1
   15    13    16    1
   16    16    17    1
   17    16    18    1
   18    16    19    1
@<TRIPOS>SUBSTRUCTURE
       1 MOL1            1 RESIDUE      1      MOL     
@<SCITEGIC>MOL_PROPERTY
VConf Rank
SciTegic.value.IntegerValue
917

@<SCITEGIC>MOL_PROPERTY
Conf_Id
SciTegic.value.IntegerValue
42

@<SCITEGIC>MOL_PROPERTY
Delta U+W
SciTegic.value.DoubleValue
-0.344

@<SCITEGIC>MOL_PROPERTY
U+W
SciTegic.value.DoubleValue
-55.236

@<SCITEGIC>MOL_PROPERTY
Grad RMS
SciTegic.value.DoubleValue
0.000000

@<SCITEGIC>MOL_PROPERTY
U
SciTegic.value.DoubleValue
7.244

@<SCITEGIC>MOL_PROPERTY
W
SciTegic.value.DoubleValue
-62.479

@<SCITEGIC>MOL_PROPERTY
W(PB)
SciTegic.value.DoubleValue
-64.610

@<SCITEGIC>MOL_PROPERTY
W(SA)
SciTegic.value.DoubleValue
2.130

@<SCITEGIC>MOL_PROPERTY
Valence
SciTegic.value.DoubleValue
7.174

@<SCITEGIC>MOL_PROPERTY
Coulomb
SciTegic.value.DoubleValue
-0.669

@<SCITEGIC>MOL_PROPERTY
VdW
SciTegic.value.DoubleValue
0.739

@<SCITEGIC>MOL_PROPERTY
VdW6
SciTegic.value.DoubleValue
-5.969

@<SCITEGIC>MOL_PROPERTY
VdW12
SciTegic.value.DoubleValue
6.708

@<SCITEGIC>MOL_PROPERTY
Bond
SciTegic.value.DoubleValue
0.116

@<SCITEGIC>MOL_PROPERTY
Angle
SciTegic.value.DoubleValue
2.481

@<SCITEGIC>MOL_PROPERTY
Pdih
SciTegic.value.DoubleValue
4.576

@<SCITEGIC>MOL_PROPERTY
Idih
SciTegic.value.DoubleValue
0.000

@<SCITEGIC>MOL_PROPERTY
Tether
SciTegic.value.DoubleValue
0.000

@<TRIPOS>MOLECULE
guest-7_confgen4.mol2 : confsearch ligand conformer 918
          19          18           1
SMALL
USER_CHARGES
 
@<TRIPOS>ATOM
       1    C1      17.725820   17.589431   23.900606 C.2        1 MOL1         0.6115
       2    O1      16.861286   18.409645   24.137357 O.co2      1 MOL1        -0.6776
       3    O2      18.034321   16.697546   24.665860 O.co2      1 MOL1        -0.6776
       4    C2      18.477430   17.696096   22.578409 C.3        1 MOL1        -0.2013
       5    H1      17.788911   18.099864   21.826318 H          1 MOL1         0.0727
       6    H2      18.749188   16.682945   22.258487 H          1 MOL1         0.0727
       7    C3      19.742620   18.584038   22.674829 C.3        1 MOL1        -0.1910
       8    H3      19.448507   19.586012   23.014192 H          1 MOL1         0.0729
       9    H4      20.417389   18.172347   23.438005 H          1 MOL1         0.0729
      10    C4      20.482255   18.677273   21.320242 C.3        1 MOL1        -0.1909
      11    H5      19.823550   19.134379   20.569130 H          1 MOL1         0.0729
      12    H6      20.704101   17.662165   20.963407 H          1 MOL1         0.0729
      13    C5      21.806973   19.470834   21.397521 C.3        1 MOL1        -0.1884
      14    H7      22.470878   19.013218   22.143941 H          1 MOL1         0.0729
      15    H8      22.323627   19.389325   20.431255 H          1 MOL1         0.0729
      16    C6      21.605384   20.965378   21.728508 C.3        1 MOL1        -0.2899
      17    H9      21.195432   21.100767   22.737148 H          1 MOL1         0.0741
      18    H10     22.562781   21.500552   21.684669 H          1 MOL1         0.0741
      19    H11     20.921063   21.437738   21.011754 H          1 MOL1         0.0741
@<TRIPOS>BOND
    1     1     2    1
    2     1     3    2
    3     1     4    1
    4     4     5    1
    5     4     6    1
    6     4     7    1
    7     7     8    1
    8     7     9    1
    9     7    10    1
   10    10    11    1
   11    10    12    1
   12    10    13    1
   13    13    14    1
   14    13    15    1
   15    13    16    1
   16    16    17    1
   17    16    18    1
   18    16    19    1
@<TRIPOS>SUBSTRUCTURE
       1 MOL1            1 RESIDUE      1      MOL     
@<SCITEGIC>MOL_PROPERTY
VConf Rank
SciTegic.value.IntegerValue
918

@<SCITEGIC>MOL_PROPERTY
Conf_Id
SciTegic.value.IntegerValue
41

@<SCITEGIC>MOL_PROPERTY
Delta U+W
SciTegic.value.DoubleValue
-0.361

@<SCITEGIC>MOL_PROPERTY
U+W
SciTegic.value.DoubleValue
-55.252

@<SCITEGIC>MOL_PROPERTY
Grad RMS
SciTegic.value.DoubleValue
0.000000

@<SCITEGIC>MOL_PROPERTY
U
SciTegic.value.DoubleValue
7.244

@<SCITEGIC>MOL_PROPERTY
W
SciTegic.value.DoubleValue
-62.496

@<SCITEGIC>MOL_PROPERTY
W(PB)
SciTegic.value.DoubleValue
-64.596

@<SCITEGIC>MOL_PROPERTY
W(SA)
SciTegic.value.DoubleValue
2.099

@<SCITEGIC>MOL_PROPERTY
Valence
SciTegic.value.DoubleValue
7.174

@<SCITEGIC>MOL_PROPERTY
Coulomb
SciTegic.value.DoubleValue
-0.669

@<SCITEGIC>MOL_PROPERTY
VdW
SciTegic.value.DoubleValue
0.739

@<SCITEGIC>MOL_PROPERTY
VdW6
SciTegic.value.DoubleValue
-5.969

@<SCITEGIC>MOL_PROPERTY
VdW12
SciTegic.value.DoubleValue
6.708

@<SCITEGIC>MOL_PROPERTY
Bond
SciTegic.value.DoubleValue
0.116

@<SCITEGIC>MOL_PROPERTY
Angle
SciTegic.value.DoubleValue
2.481

@<SCITEGIC>MOL_PROPERTY
Pdih
SciTegic.value.DoubleValue
4.576

@<SCITEGIC>MOL_PROPERTY
Idih
SciTegic.value.DoubleValue
0.000

@<SCITEGIC>MOL_PROPERTY
Tether
SciTegic.value.DoubleValue
0.000

@<TRIPOS>MOLECULE
guest-7_confgen4.mol2 : confsearch ligand conformer 919
          19          18           1
SMALL
USER_CHARGES
 
@<TRIPOS>ATOM
       1    C1      17.110448   18.985344   23.249217 C.2        1 MOL1         0.6115
       2    O1      17.290827   19.003666   24.450749 O.co2      1 MOL1        -0.6776
       3    O2      16.379802   19.762897   22.667627 O.co2      1 MOL1        -0.6776
       4    C2      17.821942   17.914563   22.426692 C.3        1 MOL1        -0.2013
       5    H1      17.080611   17.475389   21.748705 H          1 MOL1         0.0727
       6    H2      18.148566   17.113858   23.101359 H          1 MOL1         0.0727
       7    C3      19.024879   18.445477   21.604399 C.3        1 MOL1        -0.1910
       8    H3      19.385146   17.645762   20.943190 H          1 MOL1         0.0729
       9    H4      18.688118   19.265406   20.954829 H          1 MOL1         0.0729
      10    C4      20.188263   18.929974   22.498329 C.3        1 MOL1        -0.1909
      11    H5      20.512586   18.110871   23.154770 H          1 MOL1         0.0729
      12    H6      19.840054   19.742252   23.151305 H          1 MOL1         0.0729
      13    C5      21.385496   19.423976   21.659760 C.3        1 MOL1        -0.1884
      14    H7      21.740832   18.614193   21.007520 H          1 MOL1         0.0729
      15    H8      21.064393   20.245062   21.003876 H          1 MOL1         0.0729
      16    C6      22.544588   19.906596   22.554501 C.3        1 MOL1        -0.2899
      17    H9      22.906633   19.095395   23.199701 H          1 MOL1         0.0741
      18    H10     23.386823   20.254567   21.942419 H          1 MOL1         0.0741
      19    H11     22.225214   20.738360   23.196070 H          1 MOL1         0.0741
@<TRIPOS>BOND
    1     1     2    1
    2     1     3    2
    3     1     4    1
    4     4     5    1
    5     4     6    1
    6     4     7    1
    7     7     8    1
    8     7     9    1
    9     7    10    1
   10    10    11    1
   11    10    12    1
   12    10    13    1
   13    13    14    1
   14    13    15    1
   15    13    16    1
   16    16    17    1
   17    16    18    1
   18    16    19    1
@<TRIPOS>SUBSTRUCTURE
       1 MOL1            1 RESIDUE      1      MOL     
@<SCITEGIC>MOL_PROPERTY
VConf Rank
SciTegic.value.IntegerValue
919

@<SCITEGIC>MOL_PROPERTY
Conf_Id
SciTegic.value.IntegerValue
36

@<SCITEGIC>MOL_PROPERTY
Delta U+W
SciTegic.value.DoubleValue
-0.079

@<SCITEGIC>MOL_PROPERTY
U+W
SciTegic.value.DoubleValue
-54.971

@<SCITEGIC>MOL_PROPERTY
Grad RMS
SciTegic.value.DoubleValue
0.000000

@<SCITEGIC>MOL_PROPERTY
U
SciTegic.value.DoubleValue
8.266

@<SCITEGIC>MOL_PROPERTY
W
SciTegic.value.DoubleValue
-63.237

@<SCITEGIC>MOL_PROPERTY
W(PB)
SciTegic.value.DoubleValue
-65.340

@<SCITEGIC>MOL_PROPERTY
W(SA)
SciTegic.value.DoubleValue
2.103

@<SCITEGIC>MOL_PROPERTY
Valence
SciTegic.value.DoubleValue
6.935

@<SCITEGIC>MOL_PROPERTY
Coulomb
SciTegic.value.DoubleValue
0.874

@<SCITEGIC>MOL_PROPERTY
VdW
SciTegic.value.DoubleValue
0.457

@<SCITEGIC>MOL_PROPERTY
VdW6
SciTegic.value.DoubleValue
-6.205

@<SCITEGIC>MOL_PROPERTY
VdW12
SciTegic.value.DoubleValue
6.662

@<SCITEGIC>MOL_PROPERTY
Bond
SciTegic.value.DoubleValue
0.107

@<SCITEGIC>MOL_PROPERTY
Angle
SciTegic.value.DoubleValue
2.420

@<SCITEGIC>MOL_PROPERTY
Pdih
SciTegic.value.DoubleValue
4.407

@<SCITEGIC>MOL_PROPERTY
Idih
SciTegic.value.DoubleValue
0.001

@<SCITEGIC>MOL_PROPERTY
Tether
SciTegic.value.DoubleValue
0.000

@<TRIPOS>MOLECULE
guest-7_confgen4.mol2 : confsearch ligand conformer 920
          19          18           1
SMALL
USER_CHARGES
 
@<TRIPOS>ATOM
       1    C1      18.570874   20.049910   20.212573 C.2        1 MOL1         0.6115
       2    O1      17.460490   19.720708   20.580304 O.co2      1 MOL1        -0.6776
       3    O2      19.001715   19.831020   19.097609 O.co2      1 MOL1        -0.6776
       4    C2      19.466858   20.798019   21.195879 C.3        1 MOL1        -0.2013
       5    H1      18.841212   21.207680   21.998208 H          1 MOL1         0.0727
       6    H2      19.897742   21.653056   20.661688 H          1 MOL1         0.0727
       7    C3      20.606991   19.933873   21.794580 C.3        1 MOL1        -0.1910
       8    H3      21.207283   19.507600   20.978754 H          1 MOL1         0.0729
       9    H4      21.277477   20.581585   22.375486 H          1 MOL1         0.0729
      10    C4      20.079532   18.801113   22.703399 C.3        1 MOL1        -0.1909
      11    H5      19.420995   18.138502   22.124869 H          1 MOL1         0.0729
      12    H6      19.469486   19.231187   23.509569 H          1 MOL1         0.0729
      13    C5      21.231133   17.974560   23.312685 C.3        1 MOL1        -0.1884
      14    H7      21.841638   17.541196   22.508351 H          1 MOL1         0.0729
      15    H8      21.890951   18.631531   23.896174 H          1 MOL1         0.0729
      16    C6      20.701619   16.845233   24.218893 C.3        1 MOL1        -0.2899
      17    H9      20.062916   16.154524   23.652833 H          1 MOL1         0.0741
      18    H10     21.533132   16.267579   24.643144 H          1 MOL1         0.0741
      19    H11     20.112642   17.252940   25.050932 H          1 MOL1         0.0741
@<TRIPOS>BOND
    1     1     2    1
    2     1     3    2
    3     1     4    1
    4     4     5    1
    5     4     6    1
    6     4     7    1
    7     7     8    1
    8     7     9    1
    9     7    10    1
   10    10    11    1
   11    10    12    1
   12    10    13    1
   13    13    14    1
   14    13    15    1
   15    13    16    1
   16    16    17    1
   17    16    18    1
   18    16    19    1
@<TRIPOS>SUBSTRUCTURE
       1 MOL1            1 RESIDUE      1      MOL     
@<SCITEGIC>MOL_PROPERTY
VConf Rank
SciTegic.value.IntegerValue
920

@<SCITEGIC>MOL_PROPERTY
Conf_Id
SciTegic.value.IntegerValue
35

@<SCITEGIC>MOL_PROPERTY
Delta U+W
SciTegic.value.DoubleValue
-0.030

@<SCITEGIC>MOL_PROPERTY
U+W
SciTegic.value.DoubleValue
-54.921

@<SCITEGIC>MOL_PROPERTY
Grad RMS
SciTegic.value.DoubleValue
0.000000

@<SCITEGIC>MOL_PROPERTY
U
SciTegic.value.DoubleValue
8.267

@<SCITEGIC>MOL_PROPERTY
W
SciTegic.value.DoubleValue
-63.188

@<SCITEGIC>MOL_PROPERTY
W(PB)
SciTegic.value.DoubleValue
-65.294

@<SCITEGIC>MOL_PROPERTY
W(SA)
SciTegic.value.DoubleValue
2.106

@<SCITEGIC>MOL_PROPERTY
Valence
SciTegic.value.DoubleValue
6.935

@<SCITEGIC>MOL_PROPERTY
Coulomb
SciTegic.value.DoubleValue
0.875

@<SCITEGIC>MOL_PROPERTY
VdW
SciTegic.value.DoubleValue
0.457

@<SCITEGIC>MOL_PROPERTY
VdW6
SciTegic.value.DoubleValue
-6.205

@<SCITEGIC>MOL_PROPERTY
VdW12
SciTegic.value.DoubleValue
6.662

@<SCITEGIC>MOL_PROPERTY
Bond
SciTegic.value.DoubleValue
0.107

@<SCITEGIC>MOL_PROPERTY
Angle
SciTegic.value.DoubleValue
2.420

@<SCITEGIC>MOL_PROPERTY
Pdih
SciTegic.value.DoubleValue
4.407

@<SCITEGIC>MOL_PROPERTY
Idih
SciTegic.value.DoubleValue
0.001

@<SCITEGIC>MOL_PROPERTY
Tether
SciTegic.value.DoubleValue
0.000

@<TRIPOS>MOLECULE
guest-7_confgen4.mol2 : confsearch ligand conformer 921
          19          18           1
SMALL
USER_CHARGES
 
@<TRIPOS>ATOM
       1    C1      17.719565   19.141841   24.014662 C.2        1 MOL1         0.6115
       2    O1      17.962127   18.999686   25.196891 O.co2      1 MOL1        -0.6776
       3    O2      16.802376   18.583843   23.445411 O.co2      1 MOL1        -0.6776
       4    C2      18.602683   20.089800   23.207843 C.3        1 MOL1        -0.2013
       5    H1      18.722890   21.006333   23.797428 H          1 MOL1         0.0727
       6    H2      18.070319   20.370068   22.290784 H          1 MOL1         0.0727
       7    C3      19.999424   19.511963   22.860078 C.3        1 MOL1        -0.1910
       8    H3      20.608069   20.312824   22.421304 H          1 MOL1         0.0729
       9    H4      20.504398   19.199429   23.784552 H          1 MOL1         0.0729
      10    C4      19.920884   18.319961   21.876387 C.3        1 MOL1        -0.1909
      11    H5      19.450325   18.644348   20.938216 H          1 MOL1         0.0729
      12    H6      19.266435   17.545446   22.299292 H          1 MOL1         0.0729
      13    C5      21.296552   17.682794   21.572440 C.3        1 MOL1        -0.1884
      14    H7      21.768818   17.355363   22.508957 H          1 MOL1         0.0729
      15    H8      21.139592   16.776817   20.970949 H          1 MOL1         0.0729
      16    C6      22.252681   18.625233   20.809784 C.3        1 MOL1        -0.2899
      17    H9      22.533259   19.492170   21.420783 H          1 MOL1         0.0741
      18    H10     23.176254   18.097365   20.539032 H          1 MOL1         0.0741
      19    H11     21.788779   18.990769   19.884406 H          1 MOL1         0.0741
@<TRIPOS>BOND
    1     1     2    1
    2     1     3    2
    3     1     4    1
    4     4     5    1
    5     4     6    1
    6     4     7    1
    7     7     8    1
    8     7     9    1
    9     7    10    1
   10    10    11    1
   11    10    12    1
   12    10    13    1
   13    13    14    1
   14    13    15    1
   15    13    16    1
   16    16    17    1
   17    16    18    1
   18    16    19    1
@<TRIPOS>SUBSTRUCTURE
       1 MOL1            1 RESIDUE      1      MOL     
@<SCITEGIC>MOL_PROPERTY
VConf Rank
SciTegic.value.IntegerValue
921

@<SCITEGIC>MOL_PROPERTY
Conf_Id
SciTegic.value.IntegerValue
74

@<SCITEGIC>MOL_PROPERTY
Delta U+W
SciTegic.value.DoubleValue
0.797

@<SCITEGIC>MOL_PROPERTY
U+W
SciTegic.value.DoubleValue
-54.095

@<SCITEGIC>MOL_PROPERTY
Grad RMS
SciTegic.value.DoubleValue
0.000000

@<SCITEGIC>MOL_PROPERTY
U
SciTegic.value.DoubleValue
8.869

@<SCITEGIC>MOL_PROPERTY
W
SciTegic.value.DoubleValue
-62.964

@<SCITEGIC>MOL_PROPERTY
W(PB)
SciTegic.value.DoubleValue
-65.046

@<SCITEGIC>MOL_PROPERTY
W(SA)
SciTegic.value.DoubleValue
2.082

@<SCITEGIC>MOL_PROPERTY
Valence
SciTegic.value.DoubleValue
7.469

@<SCITEGIC>MOL_PROPERTY
Coulomb
SciTegic.value.DoubleValue
0.762

@<SCITEGIC>MOL_PROPERTY
VdW
SciTegic.value.DoubleValue
0.639

@<SCITEGIC>MOL_PROPERTY
VdW6
SciTegic.value.DoubleValue
-6.782

@<SCITEGIC>MOL_PROPERTY
VdW12
SciTegic.value.DoubleValue
7.421

@<SCITEGIC>MOL_PROPERTY
Bond
SciTegic.value.DoubleValue
0.141

@<SCITEGIC>MOL_PROPERTY
Angle
SciTegic.value.DoubleValue
2.667

@<SCITEGIC>MOL_PROPERTY
Pdih
SciTegic.value.DoubleValue
4.660

@<SCITEGIC>MOL_PROPERTY
Idih
SciTegic.value.DoubleValue
0.001

@<SCITEGIC>MOL_PROPERTY
Tether
SciTegic.value.DoubleValue
0.000

@<TRIPOS>MOLECULE
guest-7_confgen4.mol2 : confsearch ligand conformer 922
          19          18           1
SMALL
USER_CHARGES
 
@<TRIPOS>ATOM
       1    C1      22.575343   18.326074   23.516767 C.2        1 MOL1         0.6115
       2    O1      22.993683   18.615028   24.620361 O.co2      1 MOL1        -0.6776
       3    O2      23.004611   17.400939   22.856330 O.co2      1 MOL1        -0.6776
       4    C2      21.436955   19.158486   22.937646 C.3        1 MOL1        -0.2013
       5    H1      21.564159   19.186599   21.849442 H          1 MOL1         0.0727
       6    H2      21.544339   20.185917   23.305355 H          1 MOL1         0.0727
       7    C3      20.037577   18.601712   23.306881 C.3        1 MOL1        -0.1910
       8    H3      19.927071   17.587404   22.900994 H          1 MOL1         0.0729
       9    H4      19.975742   18.500008   24.399141 H          1 MOL1         0.0729
      10    C4      18.868225   19.498631   22.828465 C.3        1 MOL1        -0.1909
      11    H5      18.942000   20.475000   23.326516 H          1 MOL1         0.0729
      12    H6      17.922245   19.055628   23.168539 H          1 MOL1         0.0729
      13    C5      18.793220   19.724599   21.298362 C.3        1 MOL1        -0.1884
      14    H7      17.940032   20.382677   21.083691 H          1 MOL1         0.0729
      15    H8      19.685286   20.261739   20.950069 H          1 MOL1         0.0729
      16    C6      18.625914   18.417122   20.494678 C.3        1 MOL1        -0.2899
      17    H9      17.751555   17.851554   20.842039 H          1 MOL1         0.0741
      18    H10     18.485491   18.636846   19.428461 H          1 MOL1         0.0741
      19    H11     19.511342   17.775604   20.588158 H          1 MOL1         0.0741
@<TRIPOS>BOND
    1     1     2    1
    2     1     3    2
    3     1     4    1
    4     4     5    1
    5     4     6    1
    6     4     7    1
    7     7     8    1
    8     7     9    1
    9     7    10    1
   10    10    11    1
   11    10    12    1
   12    10    13    1
   13    13    14    1
   14    13    15    1
   15    13    16    1
   16    16    17    1
   17    16    18    1
   18    16    19    1
@<TRIPOS>SUBSTRUCTURE
       1 MOL1            1 RESIDUE      1      MOL     
@<SCITEGIC>MOL_PROPERTY
VConf Rank
SciTegic.value.IntegerValue
922

@<SCITEGIC>MOL_PROPERTY
Conf_Id
SciTegic.value.IntegerValue
67

@<SCITEGIC>MOL_PROPERTY
Delta U+W
SciTegic.value.DoubleValue
0.308

@<SCITEGIC>MOL_PROPERTY
U+W
SciTegic.value.DoubleValue
-54.583

@<SCITEGIC>MOL_PROPERTY
Grad RMS
SciTegic.value.DoubleValue
0.000000

@<SCITEGIC>MOL_PROPERTY
U
SciTegic.value.DoubleValue
8.219

@<SCITEGIC>MOL_PROPERTY
W
SciTegic.value.DoubleValue
-62.802

@<SCITEGIC>MOL_PROPERTY
W(PB)
SciTegic.value.DoubleValue
-64.859

@<SCITEGIC>MOL_PROPERTY
W(SA)
SciTegic.value.DoubleValue
2.057

@<SCITEGIC>MOL_PROPERTY
Valence
SciTegic.value.DoubleValue
7.609

@<SCITEGIC>MOL_PROPERTY
Coulomb
SciTegic.value.DoubleValue
-0.089

@<SCITEGIC>MOL_PROPERTY
VdW
SciTegic.value.DoubleValue
0.699

@<SCITEGIC>MOL_PROPERTY
VdW6
SciTegic.value.DoubleValue
-6.924

@<SCITEGIC>MOL_PROPERTY
VdW12
SciTegic.value.DoubleValue
7.623

@<SCITEGIC>MOL_PROPERTY
Bond
SciTegic.value.DoubleValue
0.163

@<SCITEGIC>MOL_PROPERTY
Angle
SciTegic.value.DoubleValue
2.870

@<SCITEGIC>MOL_PROPERTY
Pdih
SciTegic.value.DoubleValue
4.576

@<SCITEGIC>MOL_PROPERTY
Idih
SciTegic.value.DoubleValue
0.001

@<SCITEGIC>MOL_PROPERTY
Tether
SciTegic.value.DoubleValue
0.000

@<TRIPOS>MOLECULE
guest-7_confgen4.mol2 : confsearch ligand conformer 923
          19          18           1
SMALL
USER_CHARGES
 
@<TRIPOS>ATOM
       1    C1      21.909587   19.449310   20.154306 C.2        1 MOL1         0.6115
       2    O1      23.018024   19.942935   20.218518 O.co2      1 MOL1        -0.6776
       3    O2      21.236673   19.437659   19.142687 O.co2      1 MOL1        -0.6776
       4    C2      21.323818   18.828132   21.417329 C.3        1 MOL1        -0.2013
       5    H1      22.149232   18.412433   22.007450 H          1 MOL1         0.0727
       6    H2      20.686530   17.990216   21.112498 H          1 MOL1         0.0727
       7    C3      20.516770   19.843359   22.267372 C.3        1 MOL1        -0.1910
       8    H3      21.155226   20.712217   22.478698 H          1 MOL1         0.0729
       9    H4      19.671018   20.224145   21.679594 H          1 MOL1         0.0729
      10    C4      20.013539   19.262692   23.612849 C.3        1 MOL1        -0.1909
      11    H5      19.494090   20.056342   24.166991 H          1 MOL1         0.0729
      12    H6      20.880917   18.982709   24.226086 H          1 MOL1         0.0729
      13    C5      19.072812   18.038572   23.492593 C.3        1 MOL1        -0.1884
      14    H7      19.605115   17.194692   23.034193 H          1 MOL1         0.0729
      15    H8      18.796533   17.709467   24.503751 H          1 MOL1         0.0729
      16    C6      17.783061   18.334382   22.697334 C.3        1 MOL1        -0.2899
      17    H9      18.005123   18.556503   21.645850 H          1 MOL1         0.0741
      18    H10     17.110767   17.466998   22.719212 H          1 MOL1         0.0741
      19    H11     17.245427   19.190585   23.124996 H          1 MOL1         0.0741
@<TRIPOS>BOND
    1     1     2    1
    2     1     3    2
    3     1     4    1
    4     4     5    1
    5     4     6    1
    6     4     7    1
    7     7     8    1
    8     7     9    1
    9     7    10    1
   10    10    11    1
   11    10    12    1
   12    10    13    1
   13    13    14    1
   14    13    15    1
   15    13    16    1
   16    16    17    1
   17    16    18    1
   18    16    19    1
@<TRIPOS>SUBSTRUCTURE
       1 MOL1            1 RESIDUE      1      MOL     
@<SCITEGIC>MOL_PROPERTY
VConf Rank
SciTegic.value.IntegerValue
923

@<SCITEGIC>MOL_PROPERTY
Conf_Id
SciTegic.value.IntegerValue
21

@<SCITEGIC>MOL_PROPERTY
Delta U+W
SciTegic.value.DoubleValue
0.319

@<SCITEGIC>MOL_PROPERTY
U+W
SciTegic.value.DoubleValue
-54.572

@<SCITEGIC>MOL_PROPERTY
Grad RMS
SciTegic.value.DoubleValue
0.000000

@<SCITEGIC>MOL_PROPERTY
U
SciTegic.value.DoubleValue
8.220

@<SCITEGIC>MOL_PROPERTY
W
SciTegic.value.DoubleValue
-62.792

@<SCITEGIC>MOL_PROPERTY
W(PB)
SciTegic.value.DoubleValue
-64.830

@<SCITEGIC>MOL_PROPERTY
W(SA)
SciTegic.value.DoubleValue
2.038

@<SCITEGIC>MOL_PROPERTY
Valence
SciTegic.value.DoubleValue
7.609

@<SCITEGIC>MOL_PROPERTY
Coulomb
SciTegic.value.DoubleValue
-0.088

@<SCITEGIC>MOL_PROPERTY
VdW
SciTegic.value.DoubleValue
0.699

@<SCITEGIC>MOL_PROPERTY
VdW6
SciTegic.value.DoubleValue
-6.924

@<SCITEGIC>MOL_PROPERTY
VdW12
SciTegic.value.DoubleValue
7.623

@<SCITEGIC>MOL_PROPERTY
Bond
SciTegic.value.DoubleValue
0.163

@<SCITEGIC>MOL_PROPERTY
Angle
SciTegic.value.DoubleValue
2.870

@<SCITEGIC>MOL_PROPERTY
Pdih
SciTegic.value.DoubleValue
4.576

@<SCITEGIC>MOL_PROPERTY
Idih
SciTegic.value.DoubleValue
0.000

@<SCITEGIC>MOL_PROPERTY
Tether
SciTegic.value.DoubleValue
0.000

@<TRIPOS>MOLECULE
guest-7_confgen4.mol2 : confsearch ligand conformer 924
          19          18           1
SMALL
USER_CHARGES
 
@<TRIPOS>ATOM
       1    C1      22.532260   17.555237   22.173756 C.2        1 MOL1         0.6115
       2    O1      23.208776   17.250778   21.211431 O.co2      1 MOL1        -0.6776
       3    O2      22.979562   17.684611   23.296002 O.co2      1 MOL1        -0.6776
       4    C2      21.044285   17.806451   21.957184 C.3        1 MOL1        -0.2013
       5    H1      20.517151   17.507109   22.868418 H          1 MOL1         0.0727
       6    H2      20.701757   17.139754   21.156825 H          1 MOL1         0.0727
       7    C3      20.731192   19.281221   21.590277 C.3        1 MOL1        -0.1910
       8    H3      21.125529   19.955322   22.363172 H          1 MOL1         0.0729
       9    H4      21.276274   19.522459   20.667192 H          1 MOL1         0.0729
      10    C4      19.222776   19.552790   21.360333 C.3        1 MOL1        -0.1909
      11    H5      18.725754   18.647970   20.984610 H          1 MOL1         0.0729
      12    H6      19.128569   20.299355   20.559871 H          1 MOL1         0.0729
      13    C5      18.468467   20.099571   22.597248 C.3        1 MOL1        -0.1884
      14    H7      18.918102   21.051546   22.911619 H          1 MOL1         0.0729
      15    H8      17.435882   20.330625   22.301317 H          1 MOL1         0.0729
      16    C6      18.433024   19.130060   23.796618 C.3        1 MOL1        -0.2899
      17    H9      17.777001   19.519951   24.585562 H          1 MOL1         0.0741
      18    H10     18.053367   18.144817   23.496393 H          1 MOL1         0.0741
      19    H11     19.432146   19.002654   24.231727 H          1 MOL1         0.0741
@<TRIPOS>BOND
    1     1     2    1
    2     1     3    2
    3     1     4    1
    4     4     5    1
    5     4     6    1
    6     4     7    1
    7     7     8    1
    8     7     9    1
    9     7    10    1
   10    10    11    1
   11    10    12    1
   12    10    13    1
   13    13    14    1
   14    13    15    1
   15    13    16    1
   16    16    17    1
   17    16    18    1
   18    16    19    1
@<TRIPOS>SUBSTRUCTURE
       1 MOL1            1 RESIDUE      1      MOL     
@<SCITEGIC>MOL_PROPERTY
VConf Rank
SciTegic.value.IntegerValue
924

@<SCITEGIC>MOL_PROPERTY
Conf_Id
SciTegic.value.IntegerValue
24

@<SCITEGIC>MOL_PROPERTY
Delta U+W
SciTegic.value.DoubleValue
2.477

@<SCITEGIC>MOL_PROPERTY
U+W
SciTegic.value.DoubleValue
-52.414

@<SCITEGIC>MOL_PROPERTY
Grad RMS
SciTegic.value.DoubleValue
0.000000

@<SCITEGIC>MOL_PROPERTY
U
SciTegic.value.DoubleValue
10.422

@<SCITEGIC>MOL_PROPERTY
W
SciTegic.value.DoubleValue
-62.836

@<SCITEGIC>MOL_PROPERTY
W(PB)
SciTegic.value.DoubleValue
-64.906

@<SCITEGIC>MOL_PROPERTY
W(SA)
SciTegic.value.DoubleValue
2.070

@<SCITEGIC>MOL_PROPERTY
Valence
SciTegic.value.DoubleValue
9.628

@<SCITEGIC>MOL_PROPERTY
Coulomb
SciTegic.value.DoubleValue
0.101

@<SCITEGIC>MOL_PROPERTY
VdW
SciTegic.value.DoubleValue
0.693

@<SCITEGIC>MOL_PROPERTY
VdW6
SciTegic.value.DoubleValue
-6.927

@<SCITEGIC>MOL_PROPERTY
VdW12
SciTegic.value.DoubleValue
7.620

@<SCITEGIC>MOL_PROPERTY
Bond
SciTegic.value.DoubleValue
0.173

@<SCITEGIC>MOL_PROPERTY
Angle
SciTegic.value.DoubleValue
2.989

@<SCITEGIC>MOL_PROPERTY
Pdih
SciTegic.value.DoubleValue
6.465

@<SCITEGIC>MOL_PROPERTY
Idih
SciTegic.value.DoubleValue
0.001

@<SCITEGIC>MOL_PROPERTY
Tether
SciTegic.value.DoubleValue
0.000

@<TRIPOS>MOLECULE
guest-7_confgen4.mol2 : confsearch ligand conformer 925
          19          18           1
SMALL
USER_CHARGES
 
@<TRIPOS>ATOM
       1    C1      22.093428   19.901447   23.467409 C.2        1 MOL1         0.6115
       2    O1      21.681823   19.951550   24.609670 O.co2      1 MOL1        -0.6776
       3    O2      23.252220   19.672244   23.181504 O.co2      1 MOL1        -0.6776
       4    C2      21.111276   20.168892   22.329831 C.3        1 MOL1        -0.2013
       5    H1      21.582419   20.897908   21.660266 H          1 MOL1         0.0727
       6    H2      20.223557   20.654733   22.747139 H          1 MOL1         0.0727
       7    C3      20.724815   18.901258   21.518235 C.3        1 MOL1        -0.1910
       8    H3      20.189374   19.193250   20.604848 H          1 MOL1         0.0729
       9    H4      21.652429   18.417112   21.182573 H          1 MOL1         0.0729
      10    C4      19.882058   17.869559   22.312486 C.3        1 MOL1        -0.1909
      11    H5      20.129146   17.912288   23.382032 H          1 MOL1         0.0729
      12    H6      20.173204   16.863826   21.980042 H          1 MOL1         0.0729
      13    C5      18.351325   17.999118   22.117608 C.3        1 MOL1        -0.1884
      14    H7      18.101761   17.865759   21.055941 H          1 MOL1         0.0729
      15    H8      17.861364   17.175029   22.654238 H          1 MOL1         0.0729
      16    C6      17.761971   19.333635   22.618889 C.3        1 MOL1        -0.2899
      17    H9      18.096573   20.172422   21.996127 H          1 MOL1         0.0741
      18    H10     16.665395   19.308528   22.578045 H          1 MOL1         0.0741
      19    H11     18.058665   19.529302   23.657722 H          1 MOL1         0.0741
@<TRIPOS>BOND
    1     1     2    1
    2     1     3    2
    3     1     4    1
    4     4     5    1
    5     4     6    1
    6     4     7    1
    7     7     8    1
    8     7     9    1
    9     7    10    1
   10    10    11    1
   11    10    12    1
   12    10    13    1
   13    13    14    1
   14    13    15    1
   15    13    16    1
   16    16    17    1
   17    16    18    1
   18    16    19    1
@<TRIPOS>SUBSTRUCTURE
       1 MOL1            1 RESIDUE      1      MOL     
@<SCITEGIC>MOL_PROPERTY
VConf Rank
SciTegic.value.IntegerValue
925

@<SCITEGIC>MOL_PROPERTY
Conf_Id
SciTegic.value.IntegerValue
4

@<SCITEGIC>MOL_PROPERTY
Delta U+W
SciTegic.value.DoubleValue
3.753

@<SCITEGIC>MOL_PROPERTY
U+W
SciTegic.value.DoubleValue
-51.138

@<SCITEGIC>MOL_PROPERTY
Grad RMS
SciTegic.value.DoubleValue
0.000000

@<SCITEGIC>MOL_PROPERTY
U
SciTegic.value.DoubleValue
12.334

@<SCITEGIC>MOL_PROPERTY
W
SciTegic.value.DoubleValue
-63.472

@<SCITEGIC>MOL_PROPERTY
W(PB)
SciTegic.value.DoubleValue
-65.500

@<SCITEGIC>MOL_PROPERTY
W(SA)
SciTegic.value.DoubleValue
2.028

@<SCITEGIC>MOL_PROPERTY
Valence
SciTegic.value.DoubleValue
9.984

@<SCITEGIC>MOL_PROPERTY
Coulomb
SciTegic.value.DoubleValue
1.767

@<SCITEGIC>MOL_PROPERTY
VdW
SciTegic.value.DoubleValue
0.583

@<SCITEGIC>MOL_PROPERTY
VdW6
SciTegic.value.DoubleValue
-7.767

@<SCITEGIC>MOL_PROPERTY
VdW12
SciTegic.value.DoubleValue
8.349

@<SCITEGIC>MOL_PROPERTY
Bond
SciTegic.value.DoubleValue
0.203

@<SCITEGIC>MOL_PROPERTY
Angle
SciTegic.value.DoubleValue
3.191

@<SCITEGIC>MOL_PROPERTY
Pdih
SciTegic.value.DoubleValue
6.589

@<SCITEGIC>MOL_PROPERTY
Idih
SciTegic.value.DoubleValue
0.001

@<SCITEGIC>MOL_PROPERTY
Tether
SciTegic.value.DoubleValue
0.000

@<TRIPOS>MOLECULE
guest-7_confgen4.mol2 : confsearch ligand conformer 926
          19          18           1
SMALL
USER_CHARGES
 
@<TRIPOS>ATOM
       1    C1      20.157130   21.488373   22.221252 C.2        1 MOL1         0.6115
       2    O1      20.949711   22.169838   21.601176 O.co2      1 MOL1        -0.6776
       3    O2      18.968897   21.734263   22.287081 O.co2      1 MOL1        -0.6776
       4    C2      20.690453   20.276271   22.980598 C.3        1 MOL1        -0.2013
       5    H1      19.938935   19.971306   23.715748 H          1 MOL1         0.0727
       6    H2      21.567097   20.609942   23.547974 H          1 MOL1         0.0727
       7    C3      21.093175   19.085725   22.066622 C.3        1 MOL1        -0.1910
       8    H3      21.793505   19.461859   21.307942 H          1 MOL1         0.0729
       9    H4      21.651585   18.341275   22.649893 H          1 MOL1         0.0729
      10    C4      19.899967   18.401916   21.349591 C.3        1 MOL1        -0.1909
      11    H5      20.240470   18.075726   20.357402 H          1 MOL1         0.0729
      12    H6      19.095441   19.126655   21.164394 H          1 MOL1         0.0729
      13    C5      19.334419   17.158758   22.079397 C.3        1 MOL1        -0.1884
      14    H7      18.555643   16.709164   21.448107 H          1 MOL1         0.0729
      15    H8      20.122788   16.400330   22.181680 H          1 MOL1         0.0729
      16    C6      18.731257   17.461297   23.466561 C.3        1 MOL1        -0.2899
      17    H9      17.991366   18.270236   23.406012 H          1 MOL1         0.0741
      18    H10     18.229678   16.571966   23.869409 H          1 MOL1         0.0741
      19    H11     19.510412   17.753312   24.181405 H          1 MOL1         0.0741
@<TRIPOS>BOND
    1     1     2    1
    2     1     3    2
    3     1     4    1
    4     4     5    1
    5     4     6    1
    6     4     7    1
    7     7     8    1
    8     7     9    1
    9     7    10    1
   10    10    11    1
   11    10    12    1
   12    10    13    1
   13    13    14    1
   14    13    15    1
   15    13    16    1
   16    16    17    1
   17    16    18    1
   18    16    19    1
@<TRIPOS>SUBSTRUCTURE
       1 MOL1            1 RESIDUE      1      MOL     
@<SCITEGIC>MOL_PROPERTY
VConf Rank
SciTegic.value.IntegerValue
926

@<SCITEGIC>MOL_PROPERTY
Conf_Id
SciTegic.value.IntegerValue
73

@<SCITEGIC>MOL_PROPERTY
Delta U+W
SciTegic.value.DoubleValue
3.707

@<SCITEGIC>MOL_PROPERTY
U+W
SciTegic.value.DoubleValue
-51.184

@<SCITEGIC>MOL_PROPERTY
Grad RMS
SciTegic.value.DoubleValue
0.000000

@<SCITEGIC>MOL_PROPERTY
U
SciTegic.value.DoubleValue
12.334

@<SCITEGIC>MOL_PROPERTY
W
SciTegic.value.DoubleValue
-63.519

@<SCITEGIC>MOL_PROPERTY
W(PB)
SciTegic.value.DoubleValue
-65.541

@<SCITEGIC>MOL_PROPERTY
W(SA)
SciTegic.value.DoubleValue
2.022

@<SCITEGIC>MOL_PROPERTY
Valence
SciTegic.value.DoubleValue
9.984

@<SCITEGIC>MOL_PROPERTY
Coulomb
SciTegic.value.DoubleValue
1.768

@<SCITEGIC>MOL_PROPERTY
VdW
SciTegic.value.DoubleValue
0.583

@<SCITEGIC>MOL_PROPERTY
VdW6
SciTegic.value.DoubleValue
-7.767

@<SCITEGIC>MOL_PROPERTY
VdW12
SciTegic.value.DoubleValue
8.350

@<SCITEGIC>MOL_PROPERTY
Bond
SciTegic.value.DoubleValue
0.203

@<SCITEGIC>MOL_PROPERTY
Angle
SciTegic.value.DoubleValue
3.192

@<SCITEGIC>MOL_PROPERTY
Pdih
SciTegic.value.DoubleValue
6.589

@<SCITEGIC>MOL_PROPERTY
Idih
SciTegic.value.DoubleValue
0.001

@<SCITEGIC>MOL_PROPERTY
Tether
SciTegic.value.DoubleValue
0.000

@<TRIPOS>MOLECULE
guest-7_confgen4.mol2 : confsearch ligand conformer 927
          19          18           1
SMALL
USER_CHARGES
 
@<TRIPOS>ATOM
       1    C1      22.045107   17.732606   22.848831 C.2        1 MOL1         0.6115
       2    O1      22.766243   18.706433   22.940132 O.co2      1 MOL1        -0.6776
       3    O2      22.206748   16.715097   23.493586 O.co2      1 MOL1        -0.6776
       4    C2      20.893207   17.774752   21.848494 C.3        1 MOL1        -0.2013
       5    H1      20.956965   16.865988   21.238779 H          1 MOL1         0.0727
       6    H2      21.050503   18.617896   21.166100 H          1 MOL1         0.0727
       7    C3      19.486853   17.856831   22.502482 C.3        1 MOL1        -0.1910
       8    H3      18.720084   17.807777   21.718567 H          1 MOL1         0.0729
       9    H4      19.336926   16.965352   23.126901 H          1 MOL1         0.0729
      10    C4      19.259228   19.117563   23.375886 C.3        1 MOL1        -0.1909
      11    H5      19.953222   19.093613   24.227286 H          1 MOL1         0.0729
      12    H6      18.250347   19.069645   23.807690 H          1 MOL1         0.0729
      13    C5      19.424676   20.469044   22.638768 C.3        1 MOL1        -0.1884
      14    H7      19.257345   21.282204   23.358260 H          1 MOL1         0.0729
      15    H8      20.459358   20.583443   22.288352 H          1 MOL1         0.0729
      16    C6      18.448990   20.644281   21.455129 C.3        1 MOL1        -0.2899
      17    H9      18.655783   19.919979   20.657298 H          1 MOL1         0.0741
      18    H10     17.408981   20.512018   21.780553 H          1 MOL1         0.0741
      19    H11     18.544062   21.649523   21.024727 H          1 MOL1         0.0741
@<TRIPOS>BOND
    1     1     2    1
    2     1     3    2
    3     1     4    1
    4     4     5    1
    5     4     6    1
    6     4     7    1
    7     7     8    1
    8     7     9    1
    9     7    10    1
   10    10    11    1
   11    10    12    1
   12    10    13    1
   13    13    14    1
   14    13    15    1
   15    13    16    1
   16    16    17    1
   17    16    18    1
   18    16    19    1
@<TRIPOS>SUBSTRUCTURE
       1 MOL1            1 RESIDUE      1      MOL     
@<SCITEGIC>MOL_PROPERTY
VConf Rank
SciTegic.value.IntegerValue
927

@<SCITEGIC>MOL_PROPERTY
Conf_Id
SciTegic.value.IntegerValue
56

@<SCITEGIC>MOL_PROPERTY
Delta U+W
SciTegic.value.DoubleValue
1.735

@<SCITEGIC>MOL_PROPERTY
U+W
SciTegic.value.DoubleValue
-53.156

@<SCITEGIC>MOL_PROPERTY
Grad RMS
SciTegic.value.DoubleValue
0.000000

@<SCITEGIC>MOL_PROPERTY
U
SciTegic.value.DoubleValue
10.214

@<SCITEGIC>MOL_PROPERTY
W
SciTegic.value.DoubleValue
-63.370

@<SCITEGIC>MOL_PROPERTY
W(PB)
SciTegic.value.DoubleValue
-65.388

@<SCITEGIC>MOL_PROPERTY
W(SA)
SciTegic.value.DoubleValue
2.018

@<SCITEGIC>MOL_PROPERTY
Valence
SciTegic.value.DoubleValue
7.868

@<SCITEGIC>MOL_PROPERTY
Coulomb
SciTegic.value.DoubleValue
1.968

@<SCITEGIC>MOL_PROPERTY
VdW
SciTegic.value.DoubleValue
0.378

@<SCITEGIC>MOL_PROPERTY
VdW6
SciTegic.value.DoubleValue
-8.067

@<SCITEGIC>MOL_PROPERTY
VdW12
SciTegic.value.DoubleValue
8.445

@<SCITEGIC>MOL_PROPERTY
Bond
SciTegic.value.DoubleValue
0.191

@<SCITEGIC>MOL_PROPERTY
Angle
SciTegic.value.DoubleValue
3.117

@<SCITEGIC>MOL_PROPERTY
Pdih
SciTegic.value.DoubleValue
4.559

@<SCITEGIC>MOL_PROPERTY
Idih
SciTegic.value.DoubleValue
0.001

@<SCITEGIC>MOL_PROPERTY
Tether
SciTegic.value.DoubleValue
0.000

@<TRIPOS>MOLECULE
guest-7_confgen4.mol2 : confsearch ligand conformer 928
          19          18           1
SMALL
USER_CHARGES
 
@<TRIPOS>ATOM
       1    C1      19.428840   21.529644   21.008322 C.2        1 MOL1         0.6115
       2    O1      20.272859   22.142856   20.385452 O.co2      1 MOL1        -0.6776
       3    O2      18.358293   22.002865   21.334461 O.co2      1 MOL1        -0.6776
       4    C2      19.738986   20.095345   21.421639 C.3        1 MOL1        -0.2013
       5    H1      20.391717   19.653791   20.659176 H          1 MOL1         0.0727
       6    H2      18.796319   19.536936   21.413311 H          1 MOL1         0.0727
       7    C3      20.406183   20.003164   22.817105 C.3        1 MOL1        -0.1910
       8    H3      21.268459   20.683866   22.840034 H          1 MOL1         0.0729
       9    H4      19.704328   20.370594   23.578414 H          1 MOL1         0.0729
      10    C4      20.892307   18.582844   23.200336 C.3        1 MOL1        -0.1909
      11    H5      21.390154   18.656671   24.176896 H          1 MOL1         0.0729
      12    H6      21.665300   18.245725   22.496182 H          1 MOL1         0.0729
      13    C5      19.768768   17.522453   23.311413 C.3        1 MOL1        -0.1884
      14    H7      20.018106   16.831940   24.128948 H          1 MOL1         0.0729
      15    H8      18.820307   17.999965   23.593745 H          1 MOL1         0.0729
      16    C6      19.586827   16.689200   22.023270 C.3        1 MOL1        -0.2899
      17    H9      18.793598   15.942612   22.158434 H          1 MOL1         0.0741
      18    H10     19.313963   17.315064   21.166265 H          1 MOL1         0.0741
      19    H11     20.511505   16.153963   21.771031 H          1 MOL1         0.0741
@<TRIPOS>BOND
    1     1     2    1
    2     1     3    2
    3     1     4    1
    4     4     5    1
    5     4     6    1
    6     4     7    1
    7     7     8    1
    8     7     9    1
    9     7    10    1
   10    10    11    1
   11    10    12    1
   12    10    13    1
   13    13    14    1
   14    13    15    1
   15    13    16    1
   16    16    17    1
   17    16    18    1
   18    16    19    1
@<TRIPOS>SUBSTRUCTURE
       1 MOL1            1 RESIDUE      1      MOL     
@<SCITEGIC>MOL_PROPERTY
VConf Rank
SciTegic.value.IntegerValue
928

@<SCITEGIC>MOL_PROPERTY
Conf_Id
SciTegic.value.IntegerValue
53

@<SCITEGIC>MOL_PROPERTY
Delta U+W
SciTegic.value.DoubleValue
2.279

@<SCITEGIC>MOL_PROPERTY
U+W
SciTegic.value.DoubleValue
-52.612

@<SCITEGIC>MOL_PROPERTY
Grad RMS
SciTegic.value.DoubleValue
0.000000

@<SCITEGIC>MOL_PROPERTY
U
SciTegic.value.DoubleValue
10.231

@<SCITEGIC>MOL_PROPERTY
W
SciTegic.value.DoubleValue
-62.843

@<SCITEGIC>MOL_PROPERTY
W(PB)
SciTegic.value.DoubleValue
-64.893

@<SCITEGIC>MOL_PROPERTY
W(SA)
SciTegic.value.DoubleValue
2.050

@<SCITEGIC>MOL_PROPERTY
Valence
SciTegic.value.DoubleValue
9.644

@<SCITEGIC>MOL_PROPERTY
Coulomb
SciTegic.value.DoubleValue
-0.164

@<SCITEGIC>MOL_PROPERTY
VdW
SciTegic.value.DoubleValue
0.751

@<SCITEGIC>MOL_PROPERTY
VdW6
SciTegic.value.DoubleValue
-6.881

@<SCITEGIC>MOL_PROPERTY
VdW12
SciTegic.value.DoubleValue
7.631

@<SCITEGIC>MOL_PROPERTY
Bond
SciTegic.value.DoubleValue
0.163

@<SCITEGIC>MOL_PROPERTY
Angle
SciTegic.value.DoubleValue
2.998

@<SCITEGIC>MOL_PROPERTY
Pdih
SciTegic.value.DoubleValue
6.482

@<SCITEGIC>MOL_PROPERTY
Idih
SciTegic.value.DoubleValue
0.001

@<SCITEGIC>MOL_PROPERTY
Tether
SciTegic.value.DoubleValue
0.000

@<TRIPOS>MOLECULE
guest-7_confgen4.mol2 : confsearch ligand conformer 929
          19          18           1
SMALL
USER_CHARGES
 
@<TRIPOS>ATOM
       1    C1      20.000585   17.659552   20.431417 C.2        1 MOL1         0.6115
       2    O1      20.832359   16.783669   20.564961 O.co2      1 MOL1        -0.6776
       3    O2      19.999975   18.446785   19.505398 O.co2      1 MOL1        -0.6776
       4    C2      18.857893   17.728046   21.442874 C.3        1 MOL1        -0.2013
       5    H1      18.979144   16.919113   22.173524 H          1 MOL1         0.0727
       6    H2      17.939259   17.511596   20.885304 H          1 MOL1         0.0727
       7    C3      18.697052   19.091869   22.171738 C.3        1 MOL1        -0.1910
       8    H3      18.784738   19.915333   21.449408 H          1 MOL1         0.0729
       9    H4      17.674070   19.145564   22.568023 H          1 MOL1         0.0729
      10    C4      19.672605   19.315843   23.353604 C.3        1 MOL1        -0.1909
      11    H5      19.574633   18.493216   24.075075 H          1 MOL1         0.0729
      12    H6      19.365218   20.228352   23.882613 H          1 MOL1         0.0729
      13    C5      21.150962   19.462412   22.931048 C.3        1 MOL1        -0.1884
      14    H7      21.520596   18.514962   22.518599 H          1 MOL1         0.0729
      15    H8      21.238070   20.215341   22.135494 H          1 MOL1         0.0729
      16    C6      22.042116   19.867643   24.122463 C.3        1 MOL1        -0.2899
      17    H9      21.992723   19.117081   24.922197 H          1 MOL1         0.0741
      18    H10     23.089744   19.959120   23.807578 H          1 MOL1         0.0741
      19    H11     21.727854   20.833860   24.538374 H          1 MOL1         0.0741
@<TRIPOS>BOND
    1     1     2    1
    2     1     3    2
    3     1     4    1
    4     4     5    1
    5     4     6    1
    6     4     7    1
    7     7     8    1
    8     7     9    1
    9     7    10    1
   10    10    11    1
   11    10    12    1
   12    10    13    1
   13    13    14    1
   14    13    15    1
   15    13    16    1
   16    16    17    1
   17    16    18    1
   18    16    19    1
@<TRIPOS>SUBSTRUCTURE
       1 MOL1            1 RESIDUE      1      MOL     
@<SCITEGIC>MOL_PROPERTY
VConf Rank
SciTegic.value.IntegerValue
929

@<SCITEGIC>MOL_PROPERTY
Conf_Id
SciTegic.value.IntegerValue
25

@<SCITEGIC>MOL_PROPERTY
Delta U+W
SciTegic.value.DoubleValue
2.065

@<SCITEGIC>MOL_PROPERTY
U+W
SciTegic.value.DoubleValue
-52.826

@<SCITEGIC>MOL_PROPERTY
Grad RMS
SciTegic.value.DoubleValue
0.000000

@<SCITEGIC>MOL_PROPERTY
U
SciTegic.value.DoubleValue
10.967

@<SCITEGIC>MOL_PROPERTY
W
SciTegic.value.DoubleValue
-63.794

@<SCITEGIC>MOL_PROPERTY
W(PB)
SciTegic.value.DoubleValue
-65.830

@<SCITEGIC>MOL_PROPERTY
W(SA)
SciTegic.value.DoubleValue
2.036

@<SCITEGIC>MOL_PROPERTY
Valence
SciTegic.value.DoubleValue
8.609

@<SCITEGIC>MOL_PROPERTY
Coulomb
SciTegic.value.DoubleValue
1.892

@<SCITEGIC>MOL_PROPERTY
VdW
SciTegic.value.DoubleValue
0.467

@<SCITEGIC>MOL_PROPERTY
VdW6
SciTegic.value.DoubleValue
-7.569

@<SCITEGIC>MOL_PROPERTY
VdW12
SciTegic.value.DoubleValue
8.036

@<SCITEGIC>MOL_PROPERTY
Bond
SciTegic.value.DoubleValue
0.170

@<SCITEGIC>MOL_PROPERTY
Angle
SciTegic.value.DoubleValue
3.195

@<SCITEGIC>MOL_PROPERTY
Pdih
SciTegic.value.DoubleValue
5.237

@<SCITEGIC>MOL_PROPERTY
Idih
SciTegic.value.DoubleValue
0.007

@<SCITEGIC>MOL_PROPERTY
Tether
SciTegic.value.DoubleValue
0.000

@<TRIPOS>MOLECULE
guest-7_confgen4.mol2 : confsearch ligand conformer 930
          19          18           1
SMALL
USER_CHARGES
 
@<TRIPOS>ATOM
       1    C1      20.265855   16.780133   21.256855 C.2        1 MOL1         0.6115
       2    O1      19.937166   16.998036   20.107189 O.co2      1 MOL1        -0.6776
       3    O2      19.701040   15.977984   21.974067 O.co2      1 MOL1        -0.6776
       4    C2      21.495523   17.499083   21.808681 C.3        1 MOL1        -0.2013
       5    H1      22.345397   17.166656   21.201367 H          1 MOL1         0.0727
       6    H2      21.684668   17.149181   22.830795 H          1 MOL1         0.0727
       7    C3      21.427495   19.051949   21.775433 C.3        1 MOL1        -0.1910
       8    H3      22.454196   19.437358   21.836776 H          1 MOL1         0.0729
       9    H4      21.035757   19.389127   20.805693 H          1 MOL1         0.0729
      10    C4      20.614456   19.691408   22.928142 C.3        1 MOL1        -0.1909
      11    H5      20.766580   20.778855   22.891728 H          1 MOL1         0.0729
      12    H6      21.015747   19.355995   23.894217 H          1 MOL1         0.0729
      13    C5      19.098735   19.400928   22.866596 C.3        1 MOL1        -0.1884
      14    H7      18.713713   19.641466   21.865949 H          1 MOL1         0.0729
      15    H8      18.912823   18.332380   23.034076 H          1 MOL1         0.0729
      16    C6      18.324025   20.212438   23.924477 C.3        1 MOL1        -0.2899
      17    H9      17.250621   19.988329   23.873243 H          1 MOL1         0.0741
      18    H10     18.672934   19.970715   24.936994 H          1 MOL1         0.0741
      19    H11     18.452814   21.291030   23.765192 H          1 MOL1         0.0741
@<TRIPOS>BOND
    1     1     2    1
    2     1     3    2
    3     1     4    1
    4     4     5    1
    5     4     6    1
    6     4     7    1
    7     7     8    1
    8     7     9    1
    9     7    10    1
   10    10    11    1
   11    10    12    1
   12    10    13    1
   13    13    14    1
   14    13    15    1
   15    13    16    1
   16    16    17    1
   17    16    18    1
   18    16    19    1
@<TRIPOS>SUBSTRUCTURE
       1 MOL1            1 RESIDUE      1      MOL     
@<SCITEGIC>MOL_PROPERTY
VConf Rank
SciTegic.value.IntegerValue
930

@<SCITEGIC>MOL_PROPERTY
Conf_Id
SciTegic.value.IntegerValue
52

@<SCITEGIC>MOL_PROPERTY
Delta U+W
SciTegic.value.DoubleValue
2.070

@<SCITEGIC>MOL_PROPERTY
U+W
SciTegic.value.DoubleValue
-52.822

@<SCITEGIC>MOL_PROPERTY
Grad RMS
SciTegic.value.DoubleValue
0.000000

@<SCITEGIC>MOL_PROPERTY
U
SciTegic.value.DoubleValue
10.967

@<SCITEGIC>MOL_PROPERTY
W
SciTegic.value.DoubleValue
-63.789

@<SCITEGIC>MOL_PROPERTY
W(PB)
SciTegic.value.DoubleValue
-65.837

@<SCITEGIC>MOL_PROPERTY
W(SA)
SciTegic.value.DoubleValue
2.048

@<SCITEGIC>MOL_PROPERTY
Valence
SciTegic.value.DoubleValue
8.609

@<SCITEGIC>MOL_PROPERTY
Coulomb
SciTegic.value.DoubleValue
1.892

@<SCITEGIC>MOL_PROPERTY
VdW
SciTegic.value.DoubleValue
0.467

@<SCITEGIC>MOL_PROPERTY
VdW6
SciTegic.value.DoubleValue
-7.569

@<SCITEGIC>MOL_PROPERTY
VdW12
SciTegic.value.DoubleValue
8.035

@<SCITEGIC>MOL_PROPERTY
Bond
SciTegic.value.DoubleValue
0.170

@<SCITEGIC>MOL_PROPERTY
Angle
SciTegic.value.DoubleValue
3.196

@<SCITEGIC>MOL_PROPERTY
Pdih
SciTegic.value.DoubleValue
5.237

@<SCITEGIC>MOL_PROPERTY
Idih
SciTegic.value.DoubleValue
0.007

@<SCITEGIC>MOL_PROPERTY
Tether
SciTegic.value.DoubleValue
0.000

@<TRIPOS>MOLECULE
guest-7_confgen4.mol2 : confsearch ligand conformer 931
          19          18           1
SMALL
USER_CHARGES
 
@<TRIPOS>ATOM
       1    C1      21.976332   18.782732   22.803545 C.2        1 MOL1         0.6115
       2    O1      22.465318   19.377564   21.862704 O.co2      1 MOL1        -0.6776
       3    O2      22.276329   19.005691   23.959828 O.co2      1 MOL1        -0.6776
       4    C2      21.033390   17.611837   22.522035 C.3        1 MOL1        -0.2013
       5    H1      20.570459   17.291493   23.463105 H          1 MOL1         0.0727
       6    H2      21.669968   16.783838   22.189680 H          1 MOL1         0.0727
       7    C3      19.940276   17.867950   21.445524 C.3        1 MOL1        -0.1910
       8    H3      20.365990   18.433515   20.605176 H          1 MOL1         0.0729
       9    H4      19.642882   16.896053   21.029197 H          1 MOL1         0.0729
      10    C4      18.655176   18.568548   21.956269 C.3        1 MOL1        -0.1909
      11    H5      18.173490   17.952636   22.728064 H          1 MOL1         0.0729
      12    H6      17.944180   18.603190   21.119459 H          1 MOL1         0.0729
      13    C5      18.858637   20.014020   22.471248 C.3        1 MOL1        -0.1884
      14    H7      19.770493   20.450501   22.040715 H          1 MOL1         0.0729
      15    H8      18.026415   20.637360   22.116281 H          1 MOL1         0.0729
      16    C6      18.898668   20.099141   24.012116 C.3        1 MOL1        -0.2899
      17    H9      17.950834   19.757357   24.447699 H          1 MOL1         0.0741
      18    H10     19.704095   19.482545   24.427839 H          1 MOL1         0.0741
      19    H11     19.065800   21.134255   24.336497 H          1 MOL1         0.0741
@<TRIPOS>BOND
    1     1     2    1
    2     1     3    2
    3     1     4    1
    4     4     5    1
    5     4     6    1
    6     4     7    1
    7     7     8    1
    8     7     9    1
    9     7    10    1
   10    10    11    1
   11    10    12    1
   12    10    13    1
   13    13    14    1
   14    13    15    1
   15    13    16    1
   16    16    17    1
   17    16    18    1
   18    16    19    1
@<TRIPOS>SUBSTRUCTURE
       1 MOL1            1 RESIDUE      1      MOL     
@<SCITEGIC>MOL_PROPERTY
VConf Rank
SciTegic.value.IntegerValue
931

@<SCITEGIC>MOL_PROPERTY
Conf_Id
SciTegic.value.IntegerValue
66

@<SCITEGIC>MOL_PROPERTY
Delta U+W
SciTegic.value.DoubleValue
5.819

@<SCITEGIC>MOL_PROPERTY
U+W
SciTegic.value.DoubleValue
-49.072

@<SCITEGIC>MOL_PROPERTY
Grad RMS
SciTegic.value.DoubleValue
0.000000

@<SCITEGIC>MOL_PROPERTY
U
SciTegic.value.DoubleValue
15.324

@<SCITEGIC>MOL_PROPERTY
W
SciTegic.value.DoubleValue
-64.396

@<SCITEGIC>MOL_PROPERTY
W(PB)
SciTegic.value.DoubleValue
-66.382

@<SCITEGIC>MOL_PROPERTY
W(SA)
SciTegic.value.DoubleValue
1.986

@<SCITEGIC>MOL_PROPERTY
Valence
SciTegic.value.DoubleValue
11.748

@<SCITEGIC>MOL_PROPERTY
Coulomb
SciTegic.value.DoubleValue
3.201

@<SCITEGIC>MOL_PROPERTY
VdW
SciTegic.value.DoubleValue
0.375

@<SCITEGIC>MOL_PROPERTY
VdW6
SciTegic.value.DoubleValue
-8.854

@<SCITEGIC>MOL_PROPERTY
VdW12
SciTegic.value.DoubleValue
9.229

@<SCITEGIC>MOL_PROPERTY
Bond
SciTegic.value.DoubleValue
0.216

@<SCITEGIC>MOL_PROPERTY
Angle
SciTegic.value.DoubleValue
3.812

@<SCITEGIC>MOL_PROPERTY
Pdih
SciTegic.value.DoubleValue
7.699

@<SCITEGIC>MOL_PROPERTY
Idih
SciTegic.value.DoubleValue
0.022

@<SCITEGIC>MOL_PROPERTY
Tether
SciTegic.value.DoubleValue
0.000

@<TRIPOS>MOLECULE
guest-7_confgen4.mol2 : confsearch ligand conformer 932
          19          18           1
SMALL
USER_CHARGES
 
@<TRIPOS>ATOM
       1    C1      18.539705   20.087933   19.263181 C.2        1 MOL1         0.6115
       2    O1      18.691242   20.091616   18.057907 O.co2      1 MOL1        -0.6776
       3    O2      17.611987   20.645474   19.816925 O.co2      1 MOL1        -0.6776
       4    C2      19.581501   19.338617   20.095563 C.3        1 MOL1        -0.2013
       5    H1      20.560318   19.775298   19.864747 H          1 MOL1         0.0727
       6    H2      19.600699   18.301877   19.739400 H          1 MOL1         0.0727
       7    C3      19.345995   19.361509   21.629332 C.3        1 MOL1        -0.1910
       8    H3      19.322041   20.403017   21.978839 H          1 MOL1         0.0729
       9    H4      18.361393   18.928102   21.853352 H          1 MOL1         0.0729
      10    C4      20.441413   18.583317   22.390079 C.3        1 MOL1        -0.1909
      11    H5      21.424880   19.018147   22.164546 H          1 MOL1         0.0729
      12    H6      20.463696   17.542440   22.039040 H          1 MOL1         0.0729
      13    C5      20.205451   18.607352   23.914592 C.3        1 MOL1        -0.1884
      14    H7      20.184370   19.646941   24.269981 H          1 MOL1         0.0729
      15    H8      19.223362   18.171305   24.144501 H          1 MOL1         0.0729
      16    C6      21.300951   17.829603   24.670883 C.3        1 MOL1        -0.2899
      17    H9      22.291589   18.264405   24.483788 H          1 MOL1         0.0741
      18    H10     21.117702   17.856922   25.752910 H          1 MOL1         0.0741
      19    H11     21.323361   16.777646   24.357348 H          1 MOL1         0.0741
@<TRIPOS>BOND
    1     1     2    1
    2     1     3    2
    3     1     4    1
    4     4     5    1
    5     4     6    1
    6     4     7    1
    7     7     8    1
    8     7     9    1
    9     7    10    1
   10    10    11    1
   11    10    12    1
   12    10    13    1
   13    13    14    1
   14    13    15    1
   15    13    16    1
   16    16    17    1
   17    16    18    1
   18    16    19    1
@<TRIPOS>SUBSTRUCTURE
       1 MOL1            1 RESIDUE      1      MOL     
@<SCITEGIC>MOL_PROPERTY
VConf Rank
SciTegic.value.IntegerValue
932

@<SCITEGIC>MOL_PROPERTY
Conf_Id
SciTegic.value.IntegerValue
0

@<SCITEGIC>MOL_PROPERTY
Delta U+W
SciTegic.value.DoubleValue
0.000

@<SCITEGIC>MOL_PROPERTY
U+W
SciTegic.value.DoubleValue
-54.891

@<SCITEGIC>MOL_PROPERTY
Grad RMS
SciTegic.value.DoubleValue
0.000000

@<SCITEGIC>MOL_PROPERTY
U
SciTegic.value.DoubleValue
6.966

@<SCITEGIC>MOL_PROPERTY
W
SciTegic.value.DoubleValue
-61.857

@<SCITEGIC>MOL_PROPERTY
W(PB)
SciTegic.value.DoubleValue
-63.965

@<SCITEGIC>MOL_PROPERTY
W(SA)
SciTegic.value.DoubleValue
2.108

@<SCITEGIC>MOL_PROPERTY
Valence
SciTegic.value.DoubleValue
7.175

@<SCITEGIC>MOL_PROPERTY
Coulomb
SciTegic.value.DoubleValue
-1.360

@<SCITEGIC>MOL_PROPERTY
VdW
SciTegic.value.DoubleValue
1.151

@<SCITEGIC>MOL_PROPERTY
VdW6
SciTegic.value.DoubleValue
-5.641

@<SCITEGIC>MOL_PROPERTY
VdW12
SciTegic.value.DoubleValue
6.792

@<SCITEGIC>MOL_PROPERTY
Bond
SciTegic.value.DoubleValue
0.119

@<SCITEGIC>MOL_PROPERTY
Angle
SciTegic.value.DoubleValue
2.715

@<SCITEGIC>MOL_PROPERTY
Pdih
SciTegic.value.DoubleValue
4.340

@<SCITEGIC>MOL_PROPERTY
Idih
SciTegic.value.DoubleValue
0.000

@<SCITEGIC>MOL_PROPERTY
Tether
SciTegic.value.DoubleValue
0.000

@<TRIPOS>MOLECULE
guest-7_confgen4.mol2 : confsearch ligand conformer 933
          19          18           1
SMALL
USER_CHARGES
 
@<TRIPOS>ATOM
       1    C1      19.859146   22.287640   21.652485 C.2        1 MOL1         0.6115
       2    O1      19.533250   22.941167   22.623502 O.co2      1 MOL1        -0.6776
       3    O2      20.610705   22.694875   20.789060 O.co2      1 MOL1        -0.6776
       4    C2      19.311036   20.871098   21.520746 C.3        1 MOL1        -0.2013
       5    H1      19.196512   20.647803   20.453149 H          1 MOL1         0.0727
       6    H2      18.308746   20.850661   21.965428 H          1 MOL1         0.0727
       7    C3      20.215993   19.810202   22.194295 C.3        1 MOL1        -0.1910
       8    H3      21.218838   19.852039   21.746969 H          1 MOL1         0.0729
       9    H4      20.331151   20.055019   23.259355 H          1 MOL1         0.0729
      10    C4      19.639168   18.385710   22.046917 C.3        1 MOL1        -0.1909
      11    H5      19.523959   18.144497   20.981208 H          1 MOL1         0.0729
      12    H6      18.636203   18.347479   22.493898 H          1 MOL1         0.0729
      13    C5      20.542764   17.330945   22.718749 C.3        1 MOL1        -0.1884
      14    H7      21.546568   17.364781   22.272963 H          1 MOL1         0.0729
      15    H8      20.658832   17.567684   23.785509 H          1 MOL1         0.0729
      16    C6      19.963843   15.909831   22.569606 C.3        1 MOL1        -0.2899
      17    H9      20.618496   15.172818   23.052669 H          1 MOL1         0.0741
      18    H10     18.972046   15.838876   23.035145 H          1 MOL1         0.0741
      19    H11     19.866402   15.634477   21.511254 H          1 MOL1         0.0741
@<TRIPOS>BOND
    1     1     2    1
    2     1     3    2
    3     1     4    1
    4     4     5    1
    5     4     6    1
    6     4     7    1
    7     7     8    1
    8     7     9    1
    9     7    10    1
   10    10    11    1
   11    10    12    1
   12    10    13    1
   13    13    14    1
   14    13    15    1
   15    13    16    1
   16    16    17    1
   17    16    18    1
   18    16    19    1
@<TRIPOS>SUBSTRUCTURE
       1 MOL1            1 RESIDUE      1      MOL     
@<SCITEGIC>MOL_PROPERTY
VConf Rank
SciTegic.value.IntegerValue
933

@<SCITEGIC>MOL_PROPERTY
Conf_Id
SciTegic.value.IntegerValue
18

@<SCITEGIC>MOL_PROPERTY
Delta U+W
SciTegic.value.DoubleValue
-1.199

@<SCITEGIC>MOL_PROPERTY
U+W
SciTegic.value.DoubleValue
-56.090

@<SCITEGIC>MOL_PROPERTY
Grad RMS
SciTegic.value.DoubleValue
0.000000

@<SCITEGIC>MOL_PROPERTY
U
SciTegic.value.DoubleValue
5.975

@<SCITEGIC>MOL_PROPERTY
W
SciTegic.value.DoubleValue
-62.066

@<SCITEGIC>MOL_PROPERTY
W(PB)
SciTegic.value.DoubleValue
-64.219

@<SCITEGIC>MOL_PROPERTY
W(SA)
SciTegic.value.DoubleValue
2.153

@<SCITEGIC>MOL_PROPERTY
Valence
SciTegic.value.DoubleValue
6.673

@<SCITEGIC>MOL_PROPERTY
Coulomb
SciTegic.value.DoubleValue
-1.307

@<SCITEGIC>MOL_PROPERTY
VdW
SciTegic.value.DoubleValue
0.610

@<SCITEGIC>MOL_PROPERTY
VdW6
SciTegic.value.DoubleValue
-5.351

@<SCITEGIC>MOL_PROPERTY
VdW12
SciTegic.value.DoubleValue
5.961

@<SCITEGIC>MOL_PROPERTY
Bond
SciTegic.value.DoubleValue
0.086

@<SCITEGIC>MOL_PROPERTY
Angle
SciTegic.value.DoubleValue
2.253

@<SCITEGIC>MOL_PROPERTY
Pdih
SciTegic.value.DoubleValue
4.333

@<SCITEGIC>MOL_PROPERTY
Idih
SciTegic.value.DoubleValue
0.001

@<SCITEGIC>MOL_PROPERTY
Tether
SciTegic.value.DoubleValue
0.000

@<TRIPOS>MOLECULE
guest-7_confgen4.mol2 : confsearch ligand conformer 934
          19          18           1
SMALL
USER_CHARGES
 
@<TRIPOS>ATOM
       1    C1      19.078447   18.665832   19.112689 C.2        1 MOL1         0.6115
       2    O1      17.938097   18.431564   18.764829 O.co2      1 MOL1        -0.6776
       3    O2      19.922240   19.137883   18.376861 O.co2      1 MOL1        -0.6776
       4    C2      19.465631   18.371099   20.557536 C.3        1 MOL1        -0.2013
       5    H1      20.520524   18.074503   20.566072 H          1 MOL1         0.0727
       6    H2      18.881677   17.507184   20.896887 H          1 MOL1         0.0727
       7    C3      19.229911   19.579538   21.500559 C.3        1 MOL1        -0.1910
       8    H3      19.853397   20.424502   21.177124 H          1 MOL1         0.0729
       9    H4      18.186127   19.907546   21.398831 H          1 MOL1         0.0729
      10    C4      19.507511   19.264612   22.989617 C.3        1 MOL1        -0.1909
      11    H5      18.876547   18.425051   23.312154 H          1 MOL1         0.0729
      12    H6      19.202970   20.131496   23.591929 H          1 MOL1         0.0729
      13    C5      20.990304   18.944874   23.283904 C.3        1 MOL1        -0.1884
      14    H7      21.294880   18.035383   22.749658 H          1 MOL1         0.0729
      15    H8      21.625921   19.761838   22.915355 H          1 MOL1         0.0729
      16    C6      21.236506   18.745756   24.792879 C.3        1 MOL1        -0.2899
      17    H9      22.292688   18.516654   24.985440 H          1 MOL1         0.0741
      18    H10     20.978313   19.651912   25.356442 H          1 MOL1         0.0741
      19    H11     20.632956   17.915632   25.182786 H          1 MOL1         0.0741
@<TRIPOS>BOND
    1     1     2    1
    2     1     3    2
    3     1     4    1
    4     4     5    1
    5     4     6    1
    6     4     7    1
    7     7     8    1
    8     7     9    1
    9     7    10    1
   10    10    11    1
   11    10    12    1
   12    10    13    1
   13    13    14    1
   14    13    15    1
   15    13    16    1
   16    16    17    1
   17    16    18    1
   18    16    19    1
@<TRIPOS>SUBSTRUCTURE
       1 MOL1            1 RESIDUE      1      MOL     
@<SCITEGIC>MOL_PROPERTY
VConf Rank
SciTegic.value.IntegerValue
934

@<SCITEGIC>MOL_PROPERTY
Conf_Id
SciTegic.value.IntegerValue
34

@<SCITEGIC>MOL_PROPERTY
Delta U+W
SciTegic.value.DoubleValue
-0.563

@<SCITEGIC>MOL_PROPERTY
U+W
SciTegic.value.DoubleValue
-55.455

@<SCITEGIC>MOL_PROPERTY
Grad RMS
SciTegic.value.DoubleValue
0.000000

@<SCITEGIC>MOL_PROPERTY
U
SciTegic.value.DoubleValue
6.914

@<SCITEGIC>MOL_PROPERTY
W
SciTegic.value.DoubleValue
-62.369

@<SCITEGIC>MOL_PROPERTY
W(PB)
SciTegic.value.DoubleValue
-64.446

@<SCITEGIC>MOL_PROPERTY
W(SA)
SciTegic.value.DoubleValue
2.077

@<SCITEGIC>MOL_PROPERTY
Valence
SciTegic.value.DoubleValue
7.196

@<SCITEGIC>MOL_PROPERTY
Coulomb
SciTegic.value.DoubleValue
-1.020

@<SCITEGIC>MOL_PROPERTY
VdW
SciTegic.value.DoubleValue
0.738

@<SCITEGIC>MOL_PROPERTY
VdW6
SciTegic.value.DoubleValue
-6.010

@<SCITEGIC>MOL_PROPERTY
VdW12
SciTegic.value.DoubleValue
6.748

@<SCITEGIC>MOL_PROPERTY
Bond
SciTegic.value.DoubleValue
0.126

@<SCITEGIC>MOL_PROPERTY
Angle
SciTegic.value.DoubleValue
2.499

@<SCITEGIC>MOL_PROPERTY
Pdih
SciTegic.value.DoubleValue
4.570

@<SCITEGIC>MOL_PROPERTY
Idih
SciTegic.value.DoubleValue
0.001

@<SCITEGIC>MOL_PROPERTY
Tether
SciTegic.value.DoubleValue
0.000

@<TRIPOS>MOLECULE
guest-7_confgen4.mol2 : confsearch ligand conformer 935
          19          18           1
SMALL
USER_CHARGES
 
@<TRIPOS>ATOM
       1    C1      20.750857   15.809313   21.995682 C.2        1 MOL1         0.6115
       2    O1      19.973932   14.906316   22.235003 O.co2      1 MOL1        -0.6776
       3    O2      21.957641   15.669822   21.973889 O.co2      1 MOL1        -0.6776
       4    C2      20.181045   17.198202   21.729862 C.3        1 MOL1        -0.2013
       5    H1      19.204959   17.078449   21.244653 H          1 MOL1         0.0727
       6    H2      20.841882   17.697942   21.012647 H          1 MOL1         0.0727
       7    C3      20.035961   18.044693   23.021212 C.3        1 MOL1        -0.1910
       8    H3      19.444297   17.475156   23.751270 H          1 MOL1         0.0729
       9    H4      21.025580   18.195547   23.474210 H          1 MOL1         0.0729
      10    C4      19.352808   19.413294   22.789358 C.3        1 MOL1        -0.1909
      11    H5      19.184998   19.888945   23.765375 H          1 MOL1         0.0729
      12    H6      18.360321   19.258627   22.344323 H          1 MOL1         0.0729
      13    C5      20.179002   20.369594   21.900310 C.3        1 MOL1        -0.1884
      14    H7      21.188853   20.484277   22.317826 H          1 MOL1         0.0729
      15    H8      20.294092   19.946391   20.893823 H          1 MOL1         0.0729
      16    C6      19.511281   21.754806   21.788058 C.3        1 MOL1        -0.2899
      17    H9      18.509024   21.672775   21.347423 H          1 MOL1         0.0741
      18    H10     19.414622   22.225959   22.775002 H          1 MOL1         0.0741
      19    H11     20.107891   22.421235   21.151647 H          1 MOL1         0.0741
@<TRIPOS>BOND
    1     1     2    1
    2     1     3    2
    3     1     4    1
    4     4     5    1
    5     4     6    1
    6     4     7    1
    7     7     8    1
    8     7     9    1
    9     7    10    1
   10    10    11    1
   11    10    12    1
   12    10    13    1
   13    13    14    1
   14    13    15    1
   15    13    16    1
   16    16    17    1
   17    16    18    1
   18    16    19    1
@<TRIPOS>SUBSTRUCTURE
       1 MOL1            1 RESIDUE      1      MOL     
@<SCITEGIC>MOL_PROPERTY
VConf Rank
SciTegic.value.IntegerValue
935

@<SCITEGIC>MOL_PROPERTY
Conf_Id
SciTegic.value.IntegerValue
33

@<SCITEGIC>MOL_PROPERTY
Delta U+W
SciTegic.value.DoubleValue
-0.526

@<SCITEGIC>MOL_PROPERTY
U+W
SciTegic.value.DoubleValue
-55.418

@<SCITEGIC>MOL_PROPERTY
Grad RMS
SciTegic.value.DoubleValue
0.000000

@<SCITEGIC>MOL_PROPERTY
U
SciTegic.value.DoubleValue
6.914

@<SCITEGIC>MOL_PROPERTY
W
SciTegic.value.DoubleValue
-62.332

@<SCITEGIC>MOL_PROPERTY
W(PB)
SciTegic.value.DoubleValue
-64.421

@<SCITEGIC>MOL_PROPERTY
W(SA)
SciTegic.value.DoubleValue
2.090

@<SCITEGIC>MOL_PROPERTY
Valence
SciTegic.value.DoubleValue
7.196

@<SCITEGIC>MOL_PROPERTY
Coulomb
SciTegic.value.DoubleValue
-1.020

@<SCITEGIC>MOL_PROPERTY
VdW
SciTegic.value.DoubleValue
0.738

@<SCITEGIC>MOL_PROPERTY
VdW6
SciTegic.value.DoubleValue
-6.010

@<SCITEGIC>MOL_PROPERTY
VdW12
SciTegic.value.DoubleValue
6.748

@<SCITEGIC>MOL_PROPERTY
Bond
SciTegic.value.DoubleValue
0.126

@<SCITEGIC>MOL_PROPERTY
Angle
SciTegic.value.DoubleValue
2.499

@<SCITEGIC>MOL_PROPERTY
Pdih
SciTegic.value.DoubleValue
4.570

@<SCITEGIC>MOL_PROPERTY
Idih
SciTegic.value.DoubleValue
0.001

@<SCITEGIC>MOL_PROPERTY
Tether
SciTegic.value.DoubleValue
0.000

@<TRIPOS>MOLECULE
guest-7_confgen4.mol2 : confsearch ligand conformer 936
          19          18           1
SMALL
USER_CHARGES
 
@<TRIPOS>ATOM
       1    C1      21.770070   20.187429   24.482212 C.2        1 MOL1         0.6115
       2    O1      22.547566   20.976889   23.983742 O.co2      1 MOL1        -0.6776
       3    O2      21.289217   20.325157   25.589486 O.co2      1 MOL1        -0.6776
       4    C2      21.361742   18.965768   23.666544 C.3        1 MOL1        -0.2013
       5    H1      21.180134   18.137295   24.361763 H          1 MOL1         0.0727
       6    H2      22.210629   18.678443   23.034435 H          1 MOL1         0.0727
       7    C3      20.107286   19.216323   22.793615 C.3        1 MOL1        -0.1910
       8    H3      19.269101   19.512107   23.439522 H          1 MOL1         0.0729
       9    H4      20.305941   20.060347   22.119982 H          1 MOL1         0.0729
      10    C4      19.718426   17.963226   21.975572 C.3        1 MOL1        -0.1909
      11    H5      19.594071   17.113423   22.660673 H          1 MOL1         0.0729
      12    H6      20.537950   17.696571   21.294189 H          1 MOL1         0.0729
      13    C5      18.411353   18.138330   21.168426 C.3        1 MOL1        -0.1884
      14    H7      18.145191   17.173614   20.714858 H          1 MOL1         0.0729
      15    H8      17.587924   18.399696   21.847382 H          1 MOL1         0.0729
      16    C6      18.520384   19.199005   20.051764 C.3        1 MOL1        -0.2899
      17    H9      19.356348   18.974266   19.376625 H          1 MOL1         0.0741
      18    H10     17.600110   19.222601   19.453866 H          1 MOL1         0.0741
      19    H11     18.672544   20.203326   20.466408 H          1 MOL1         0.0741
@<TRIPOS>BOND
    1     1     2    1
    2     1     3    2
    3     1     4    1
    4     4     5    1
    5     4     6    1
    6     4     7    1
    7     7     8    1
    8     7     9    1
    9     7    10    1
   10    10    11    1
   11    10    12    1
   12    10    13    1
   13    13    14    1
   14    13    15    1
   15    13    16    1
   16    16    17    1
   17    16    18    1
   18    16    19    1
@<TRIPOS>SUBSTRUCTURE
       1 MOL1            1 RESIDUE      1      MOL     
@<SCITEGIC>MOL_PROPERTY
VConf Rank
SciTegic.value.IntegerValue
936

@<SCITEGIC>MOL_PROPERTY
Conf_Id
SciTegic.value.IntegerValue
42

@<SCITEGIC>MOL_PROPERTY
Delta U+W
SciTegic.value.DoubleValue
-0.344

@<SCITEGIC>MOL_PROPERTY
U+W
SciTegic.value.DoubleValue
-55.236

@<SCITEGIC>MOL_PROPERTY
Grad RMS
SciTegic.value.DoubleValue
0.000000

@<SCITEGIC>MOL_PROPERTY
U
SciTegic.value.DoubleValue
7.244

@<SCITEGIC>MOL_PROPERTY
W
SciTegic.value.DoubleValue
-62.479

@<SCITEGIC>MOL_PROPERTY
W(PB)
SciTegic.value.DoubleValue
-64.610

@<SCITEGIC>MOL_PROPERTY
W(SA)
SciTegic.value.DoubleValue
2.130

@<SCITEGIC>MOL_PROPERTY
Valence
SciTegic.value.DoubleValue
7.174

@<SCITEGIC>MOL_PROPERTY
Coulomb
SciTegic.value.DoubleValue
-0.669

@<SCITEGIC>MOL_PROPERTY
VdW
SciTegic.value.DoubleValue
0.739

@<SCITEGIC>MOL_PROPERTY
VdW6
SciTegic.value.DoubleValue
-5.969

@<SCITEGIC>MOL_PROPERTY
VdW12
SciTegic.value.DoubleValue
6.708

@<SCITEGIC>MOL_PROPERTY
Bond
SciTegic.value.DoubleValue
0.116

@<SCITEGIC>MOL_PROPERTY
Angle
SciTegic.value.DoubleValue
2.481

@<SCITEGIC>MOL_PROPERTY
Pdih
SciTegic.value.DoubleValue
4.576

@<SCITEGIC>MOL_PROPERTY
Idih
SciTegic.value.DoubleValue
0.000

@<SCITEGIC>MOL_PROPERTY
Tether
SciTegic.value.DoubleValue
0.000

@<TRIPOS>MOLECULE
guest-7_confgen4.mol2 : confsearch ligand conformer 937
          19          18           1
SMALL
USER_CHARGES
 
@<TRIPOS>ATOM
       1    C1      19.784863   17.911156   25.220870 C.2        1 MOL1         0.6115
       2    O1      18.635462   18.035384   25.594588 O.co2      1 MOL1        -0.6776
       3    O2      20.747635   18.054033   25.948127 O.co2      1 MOL1        -0.6776
       4    C2      20.033381   17.575407   23.754578 C.3        1 MOL1        -0.2013
       5    H1      19.200256   16.956326   23.400506 H          1 MOL1         0.0727
       6    H2      20.940951   16.962708   23.694612 H          1 MOL1         0.0727
       7    C3      20.178244   18.834559   22.864637 C.3        1 MOL1        -0.1910
       8    H3      19.267098   19.440536   22.955339 H          1 MOL1         0.0729
       9    H4      21.009868   19.448382   23.237279 H          1 MOL1         0.0729
      10    C4      20.425618   18.464723   21.383865 C.3        1 MOL1        -0.1909
      11    H5      19.571112   17.892658   20.997124 H          1 MOL1         0.0729
      12    H6      21.298546   17.800499   21.322266 H          1 MOL1         0.0729
      13    C5      20.678119   19.692363   20.478474 C.3        1 MOL1        -0.1884
      14    H7      21.535802   20.264147   20.858960 H          1 MOL1         0.0729
      15    H8      20.960118   19.339634   19.476824 H          1 MOL1         0.0729
      16    C6      19.450661   20.620243   20.351044 C.3        1 MOL1        -0.2899
      17    H9      19.200760   21.088465   21.311286 H          1 MOL1         0.0741
      18    H10     19.650921   21.424720   19.631562 H          1 MOL1         0.0741
      19    H11     18.572100   20.063608   19.999696 H          1 MOL1         0.0741
@<TRIPOS>BOND
    1     1     2    1
    2     1     3    2
    3     1     4    1
    4     4     5    1
    5     4     6    1
    6     4     7    1
    7     7     8    1
    8     7     9    1
    9     7    10    1
   10    10    11    1
   11    10    12    1
   12    10    13    1
   13    13    14    1
   14    13    15    1
   15    13    16    1
   16    16    17    1
   17    16    18    1
   18    16    19    1
@<TRIPOS>SUBSTRUCTURE
       1 MOL1            1 RESIDUE      1      MOL     
@<SCITEGIC>MOL_PROPERTY
VConf Rank
SciTegic.value.IntegerValue
937

@<SCITEGIC>MOL_PROPERTY
Conf_Id
SciTegic.value.IntegerValue
41

@<SCITEGIC>MOL_PROPERTY
Delta U+W
SciTegic.value.DoubleValue
-0.361

@<SCITEGIC>MOL_PROPERTY
U+W
SciTegic.value.DoubleValue
-55.252

@<SCITEGIC>MOL_PROPERTY
Grad RMS
SciTegic.value.DoubleValue
0.000000

@<SCITEGIC>MOL_PROPERTY
U
SciTegic.value.DoubleValue
7.244

@<SCITEGIC>MOL_PROPERTY
W
SciTegic.value.DoubleValue
-62.496

@<SCITEGIC>MOL_PROPERTY
W(PB)
SciTegic.value.DoubleValue
-64.596

@<SCITEGIC>MOL_PROPERTY
W(SA)
SciTegic.value.DoubleValue
2.099

@<SCITEGIC>MOL_PROPERTY
Valence
SciTegic.value.DoubleValue
7.174

@<SCITEGIC>MOL_PROPERTY
Coulomb
SciTegic.value.DoubleValue
-0.669

@<SCITEGIC>MOL_PROPERTY
VdW
SciTegic.value.DoubleValue
0.739

@<SCITEGIC>MOL_PROPERTY
VdW6
SciTegic.value.DoubleValue
-5.969

@<SCITEGIC>MOL_PROPERTY
VdW12
SciTegic.value.DoubleValue
6.708

@<SCITEGIC>MOL_PROPERTY
Bond
SciTegic.value.DoubleValue
0.116

@<SCITEGIC>MOL_PROPERTY
Angle
SciTegic.value.DoubleValue
2.481

@<SCITEGIC>MOL_PROPERTY
Pdih
SciTegic.value.DoubleValue
4.576

@<SCITEGIC>MOL_PROPERTY
Idih
SciTegic.value.DoubleValue
0.000

@<SCITEGIC>MOL_PROPERTY
Tether
SciTegic.value.DoubleValue
0.000

@<TRIPOS>MOLECULE
guest-7_confgen4.mol2 : confsearch ligand conformer 938
          19          18           1
SMALL
USER_CHARGES
 
@<TRIPOS>ATOM
       1    C1      21.484084   21.093733   21.340481 C.2        1 MOL1         0.6115
       2    O1      20.751627   21.544597   20.482122 O.co2      1 MOL1        -0.6776
       3    O2      22.015654   21.774315   22.195420 O.co2      1 MOL1        -0.6776
       4    C2      21.771010   19.594746   21.332990 C.3        1 MOL1        -0.2013
       5    H1      22.852898   19.467343   21.457078 H          1 MOL1         0.0727
       6    H2      21.515628   19.194002   20.344471 H          1 MOL1         0.0727
       7    C3      21.026431   18.803760   22.439804 C.3        1 MOL1        -0.1910
       8    H3      21.395782   17.769331   22.448205 H          1 MOL1         0.0729
       9    H4      21.269590   19.234516   23.421107 H          1 MOL1         0.0729
      10    C4      19.494782   18.796009   22.236578 C.3        1 MOL1        -0.1909
      11    H5      19.257547   18.376681   21.249201 H          1 MOL1         0.0729
      12    H6      19.115016   19.827098   22.244033 H          1 MOL1         0.0729
      13    C5      18.777561   17.977733   23.330481 C.3        1 MOL1        -0.1884
      14    H7      19.150448   16.944121   23.324990 H          1 MOL1         0.0729
      15    H8      19.011231   18.396566   24.319142 H          1 MOL1         0.0729
      16    C6      17.249597   17.971841   23.124894 C.3        1 MOL1        -0.2899
      17    H9      16.985483   17.528849   22.155663 H          1 MOL1         0.0741
      18    H10     16.755664   17.386305   23.911192 H          1 MOL1         0.0741
      19    H11     16.845186   18.992063   23.157163 H          1 MOL1         0.0741
@<TRIPOS>BOND
    1     1     2    1
    2     1     3    2
    3     1     4    1
    4     4     5    1
    5     4     6    1
    6     4     7    1
    7     7     8    1
    8     7     9    1
    9     7    10    1
   10    10    11    1
   11    10    12    1
   12    10    13    1
   13    13    14    1
   14    13    15    1
   15    13    16    1
   16    16    17    1
   17    16    18    1
   18    16    19    1
@<TRIPOS>SUBSTRUCTURE
       1 MOL1            1 RESIDUE      1      MOL     
@<SCITEGIC>MOL_PROPERTY
VConf Rank
SciTegic.value.IntegerValue
938

@<SCITEGIC>MOL_PROPERTY
Conf_Id
SciTegic.value.IntegerValue
36

@<SCITEGIC>MOL_PROPERTY
Delta U+W
SciTegic.value.DoubleValue
-0.079

@<SCITEGIC>MOL_PROPERTY
U+W
SciTegic.value.DoubleValue
-54.971

@<SCITEGIC>MOL_PROPERTY
Grad RMS
SciTegic.value.DoubleValue
0.000000

@<SCITEGIC>MOL_PROPERTY
U
SciTegic.value.DoubleValue
8.266

@<SCITEGIC>MOL_PROPERTY
W
SciTegic.value.DoubleValue
-63.237

@<SCITEGIC>MOL_PROPERTY
W(PB)
SciTegic.value.DoubleValue
-65.340

@<SCITEGIC>MOL_PROPERTY
W(SA)
SciTegic.value.DoubleValue
2.103

@<SCITEGIC>MOL_PROPERTY
Valence
SciTegic.value.DoubleValue
6.935

@<SCITEGIC>MOL_PROPERTY
Coulomb
SciTegic.value.DoubleValue
0.874

@<SCITEGIC>MOL_PROPERTY
VdW
SciTegic.value.DoubleValue
0.457

@<SCITEGIC>MOL_PROPERTY
VdW6
SciTegic.value.DoubleValue
-6.205

@<SCITEGIC>MOL_PROPERTY
VdW12
SciTegic.value.DoubleValue
6.662

@<SCITEGIC>MOL_PROPERTY
Bond
SciTegic.value.DoubleValue
0.107

@<SCITEGIC>MOL_PROPERTY
Angle
SciTegic.value.DoubleValue
2.420

@<SCITEGIC>MOL_PROPERTY
Pdih
SciTegic.value.DoubleValue
4.407

@<SCITEGIC>MOL_PROPERTY
Idih
SciTegic.value.DoubleValue
0.001

@<SCITEGIC>MOL_PROPERTY
Tether
SciTegic.value.DoubleValue
0.000

@<TRIPOS>MOLECULE
guest-7_confgen4.mol2 : confsearch ligand conformer 939
          19          18           1
SMALL
USER_CHARGES
 
@<TRIPOS>ATOM
       1    C1      18.437122   19.420974   24.597687 C.2        1 MOL1         0.6115
       2    O1      19.270288   19.714912   25.431945 O.co2      1 MOL1        -0.6776
       3    O2      17.580281   18.577141   24.772188 O.co2      1 MOL1        -0.6776
       4    C2      18.452398   20.165848   23.265667 C.3        1 MOL1        -0.2013
       5    H1      19.030361   21.090015   23.387573 H          1 MOL1         0.0727
       6    H2      17.420638   20.463790   23.044736 H          1 MOL1         0.0727
       7    C3      19.015398   19.334531   22.083704 C.3        1 MOL1        -0.1910
       8    H3      18.445179   18.399591   21.992212 H          1 MOL1         0.0729
       9    H4      18.860317   19.892187   21.150160 H          1 MOL1         0.0729
      10    C4      20.519052   19.017045   22.243506 C.3        1 MOL1        -0.1909
      11    H5      20.680430   18.444125   23.167163 H          1 MOL1         0.0729
      12    H6      21.083091   19.954085   22.347657 H          1 MOL1         0.0729
      13    C5      21.064789   18.217155   21.042278 C.3        1 MOL1        -0.1884
      14    H7      20.503852   17.278118   20.937231 H          1 MOL1         0.0729
      15    H8      20.909926   18.787312   20.115796 H          1 MOL1         0.0729
      16    C6      22.565210   17.901990   21.204723 C.3        1 MOL1        -0.2899
      17    H9      22.745365   17.304915   22.108320 H          1 MOL1         0.0741
      18    H10     22.936560   17.332810   20.342620 H          1 MOL1         0.0741
      19    H11     23.154425   18.825272   21.280762 H          1 MOL1         0.0741
@<TRIPOS>BOND
    1     1     2    1
    2     1     3    2
    3     1     4    1
    4     4     5    1
    5     4     6    1
    6     4     7    1
    7     7     8    1
    8     7     9    1
    9     7    10    1
   10    10    11    1
   11    10    12    1
   12    10    13    1
   13    13    14    1
   14    13    15    1
   15    13    16    1
   16    16    17    1
   17    16    18    1
   18    16    19    1
@<TRIPOS>SUBSTRUCTURE
       1 MOL1            1 RESIDUE      1      MOL     
@<SCITEGIC>MOL_PROPERTY
VConf Rank
SciTegic.value.IntegerValue
939

@<SCITEGIC>MOL_PROPERTY
Conf_Id
SciTegic.value.IntegerValue
35

@<SCITEGIC>MOL_PROPERTY
Delta U+W
SciTegic.value.DoubleValue
-0.030

@<SCITEGIC>MOL_PROPERTY
U+W
SciTegic.value.DoubleValue
-54.921

@<SCITEGIC>MOL_PROPERTY
Grad RMS
SciTegic.value.DoubleValue
0.000000

@<SCITEGIC>MOL_PROPERTY
U
SciTegic.value.DoubleValue
8.267

@<SCITEGIC>MOL_PROPERTY
W
SciTegic.value.DoubleValue
-63.188

@<SCITEGIC>MOL_PROPERTY
W(PB)
SciTegic.value.DoubleValue
-65.294

@<SCITEGIC>MOL_PROPERTY
W(SA)
SciTegic.value.DoubleValue
2.106

@<SCITEGIC>MOL_PROPERTY
Valence
SciTegic.value.DoubleValue
6.935

@<SCITEGIC>MOL_PROPERTY
Coulomb
SciTegic.value.DoubleValue
0.875

@<SCITEGIC>MOL_PROPERTY
VdW
SciTegic.value.DoubleValue
0.457

@<SCITEGIC>MOL_PROPERTY
VdW6
SciTegic.value.DoubleValue
-6.205

@<SCITEGIC>MOL_PROPERTY
VdW12
SciTegic.value.DoubleValue
6.662

@<SCITEGIC>MOL_PROPERTY
Bond
SciTegic.value.DoubleValue
0.107

@<SCITEGIC>MOL_PROPERTY
Angle
SciTegic.value.DoubleValue
2.420

@<SCITEGIC>MOL_PROPERTY
Pdih
SciTegic.value.DoubleValue
4.407

@<SCITEGIC>MOL_PROPERTY
Idih
SciTegic.value.DoubleValue
0.001

@<SCITEGIC>MOL_PROPERTY
Tether
SciTegic.value.DoubleValue
0.000

@<TRIPOS>MOLECULE
guest-7_confgen4.mol2 : confsearch ligand conformer 940
          19          18           1
SMALL
USER_CHARGES
 
@<TRIPOS>ATOM
       1    C1      19.175817   19.296496   19.555118 C.2        1 MOL1         0.6115
       2    O1      19.893135   18.769938   18.727532 O.co2      1 MOL1        -0.6776
       3    O2      18.788263   20.445378   19.474385 O.co2      1 MOL1        -0.6776
       4    C2      18.720529   18.461110   20.748568 C.3        1 MOL1        -0.2013
       5    H1      18.391361   17.489617   20.361344 H          1 MOL1         0.0727
       6    H2      17.840507   18.938960   21.195984 H          1 MOL1         0.0727
       7    C3      19.816421   18.244297   21.824549 C.3        1 MOL1        -0.1910
       8    H3      19.447075   17.513592   22.555305 H          1 MOL1         0.0729
       9    H4      20.705499   17.801768   21.354402 H          1 MOL1         0.0729
      10    C4      20.204032   19.555074   22.550018 C.3        1 MOL1        -0.1909
      11    H5      19.321763   19.975659   23.051543 H          1 MOL1         0.0729
      12    H6      20.521368   20.298965   21.806413 H          1 MOL1         0.0729
      13    C5      21.346152   19.374305   23.576523 C.3        1 MOL1        -0.1884
      14    H7      22.230893   18.955648   23.077254 H          1 MOL1         0.0729
      15    H8      21.641277   20.363636   23.952485 H          1 MOL1         0.0729
      16    C6      20.955969   18.483819   24.776027 C.3        1 MOL1        -0.2899
      17    H9      20.765567   17.449782   24.462759 H          1 MOL1         0.0741
      18    H10     21.765607   18.462214   25.516942 H          1 MOL1         0.0741
      19    H11     20.054193   18.865798   25.272049 H          1 MOL1         0.0741
@<TRIPOS>BOND
    1     1     2    1
    2     1     3    2
    3     1     4    1
    4     4     5    1
    5     4     6    1
    6     4     7    1
    7     7     8    1
    8     7     9    1
    9     7    10    1
   10    10    11    1
   11    10    12    1
   12    10    13    1
   13    13    14    1
   14    13    15    1
   15    13    16    1
   16    16    17    1
   17    16    18    1
   18    16    19    1
@<TRIPOS>SUBSTRUCTURE
       1 MOL1            1 RESIDUE      1      MOL     
@<SCITEGIC>MOL_PROPERTY
VConf Rank
SciTegic.value.IntegerValue
940

@<SCITEGIC>MOL_PROPERTY
Conf_Id
SciTegic.value.IntegerValue
74

@<SCITEGIC>MOL_PROPERTY
Delta U+W
SciTegic.value.DoubleValue
0.797

@<SCITEGIC>MOL_PROPERTY
U+W
SciTegic.value.DoubleValue
-54.095

@<SCITEGIC>MOL_PROPERTY
Grad RMS
SciTegic.value.DoubleValue
0.000000

@<SCITEGIC>MOL_PROPERTY
U
SciTegic.value.DoubleValue
8.869

@<SCITEGIC>MOL_PROPERTY
W
SciTegic.value.DoubleValue
-62.964

@<SCITEGIC>MOL_PROPERTY
W(PB)
SciTegic.value.DoubleValue
-65.046

@<SCITEGIC>MOL_PROPERTY
W(SA)
SciTegic.value.DoubleValue
2.082

@<SCITEGIC>MOL_PROPERTY
Valence
SciTegic.value.DoubleValue
7.469

@<SCITEGIC>MOL_PROPERTY
Coulomb
SciTegic.value.DoubleValue
0.762

@<SCITEGIC>MOL_PROPERTY
VdW
SciTegic.value.DoubleValue
0.639

@<SCITEGIC>MOL_PROPERTY
VdW6
SciTegic.value.DoubleValue
-6.782

@<SCITEGIC>MOL_PROPERTY
VdW12
SciTegic.value.DoubleValue
7.421

@<SCITEGIC>MOL_PROPERTY
Bond
SciTegic.value.DoubleValue
0.141

@<SCITEGIC>MOL_PROPERTY
Angle
SciTegic.value.DoubleValue
2.667

@<SCITEGIC>MOL_PROPERTY
Pdih
SciTegic.value.DoubleValue
4.660

@<SCITEGIC>MOL_PROPERTY
Idih
SciTegic.value.DoubleValue
0.001

@<SCITEGIC>MOL_PROPERTY
Tether
SciTegic.value.DoubleValue
0.000

@<TRIPOS>MOLECULE
guest-7_confgen4.mol2 : confsearch ligand conformer 941
          19          18           1
SMALL
USER_CHARGES
 
@<TRIPOS>ATOM
       1    C1      21.516127   17.353794   20.365278 C.2        1 MOL1         0.6115
       2    O1      21.964783   17.685954   19.286019 O.co2      1 MOL1        -0.6776
       3    O2      21.952535   16.426475   21.017925 O.co2      1 MOL1        -0.6776
       4    C2      20.354417   18.156524   20.939972 C.3        1 MOL1        -0.2013
       5    H1      19.732398   17.470500   21.526166 H          1 MOL1         0.0727
       6    H2      19.743215   18.518023   20.104445 H          1 MOL1         0.0727
       7    C3      20.822403   19.348011   21.815150 C.3        1 MOL1        -0.1910
       8    H3      21.400878   18.971479   22.669181 H          1 MOL1         0.0729
       9    H4      21.515529   19.965862   21.227752 H          1 MOL1         0.0729
      10    C4      19.661099   20.245888   22.311052 C.3        1 MOL1        -0.1909
      11    H5      19.160597   20.692809   21.441251 H          1 MOL1         0.0729
      12    H6      20.082846   21.084322   22.881962 H          1 MOL1         0.0729
      13    C5      18.599967   19.530569   23.182956 C.3        1 MOL1        -0.1884
      14    H7      17.825846   20.259493   23.459519 H          1 MOL1         0.0729
      15    H8      18.089650   18.753800   22.598305 H          1 MOL1         0.0729
      16    C6      19.183229   18.913005   24.472071 C.3        1 MOL1        -0.2899
      17    H9      19.718554   19.668152   25.062165 H          1 MOL1         0.0741
      18    H10     18.381045   18.500519   25.097507 H          1 MOL1         0.0741
      19    H11     19.879669   18.096387   24.243219 H          1 MOL1         0.0741
@<TRIPOS>BOND
    1     1     2    1
    2     1     3    2
    3     1     4    1
    4     4     5    1
    5     4     6    1
    6     4     7    1
    7     7     8    1
    8     7     9    1
    9     7    10    1
   10    10    11    1
   11    10    12    1
   12    10    13    1
   13    13    14    1
   14    13    15    1
   15    13    16    1
   16    16    17    1
   17    16    18    1
   18    16    19    1
@<TRIPOS>SUBSTRUCTURE
       1 MOL1            1 RESIDUE      1      MOL     
@<SCITEGIC>MOL_PROPERTY
VConf Rank
SciTegic.value.IntegerValue
941

@<SCITEGIC>MOL_PROPERTY
Conf_Id
SciTegic.value.IntegerValue
67

@<SCITEGIC>MOL_PROPERTY
Delta U+W
SciTegic.value.DoubleValue
0.308

@<SCITEGIC>MOL_PROPERTY
U+W
SciTegic.value.DoubleValue
-54.583

@<SCITEGIC>MOL_PROPERTY
Grad RMS
SciTegic.value.DoubleValue
0.000000

@<SCITEGIC>MOL_PROPERTY
U
SciTegic.value.DoubleValue
8.219

@<SCITEGIC>MOL_PROPERTY
W
SciTegic.value.DoubleValue
-62.802

@<SCITEGIC>MOL_PROPERTY
W(PB)
SciTegic.value.DoubleValue
-64.859

@<SCITEGIC>MOL_PROPERTY
W(SA)
SciTegic.value.DoubleValue
2.057

@<SCITEGIC>MOL_PROPERTY
Valence
SciTegic.value.DoubleValue
7.609

@<SCITEGIC>MOL_PROPERTY
Coulomb
SciTegic.value.DoubleValue
-0.089

@<SCITEGIC>MOL_PROPERTY
VdW
SciTegic.value.DoubleValue
0.699

@<SCITEGIC>MOL_PROPERTY
VdW6
SciTegic.value.DoubleValue
-6.924

@<SCITEGIC>MOL_PROPERTY
VdW12
SciTegic.value.DoubleValue
7.623

@<SCITEGIC>MOL_PROPERTY
Bond
SciTegic.value.DoubleValue
0.163

@<SCITEGIC>MOL_PROPERTY
Angle
SciTegic.value.DoubleValue
2.870

@<SCITEGIC>MOL_PROPERTY
Pdih
SciTegic.value.DoubleValue
4.576

@<SCITEGIC>MOL_PROPERTY
Idih
SciTegic.value.DoubleValue
0.001

@<SCITEGIC>MOL_PROPERTY
Tether
SciTegic.value.DoubleValue
0.000

@<TRIPOS>MOLECULE
guest-7_confgen4.mol2 : confsearch ligand conformer 942
          19          18           1
SMALL
USER_CHARGES
 
@<TRIPOS>ATOM
       1    C1      20.913604   17.081450   20.223536 C.2        1 MOL1         0.6115
       2    O1      21.117076   15.885499   20.292245 O.co2      1 MOL1        -0.6776
       3    O2      21.428551   17.804176   19.393584 O.co2      1 MOL1        -0.6776
       4    C2      19.976079   17.712223   21.246956 C.3        1 MOL1        -0.2013
       5    H1      19.211159   16.972108   21.510553 H          1 MOL1         0.0727
       6    H2      19.464834   18.550097   20.759353 H          1 MOL1         0.0727
       7    C3      20.715489   18.194584   22.521785 C.3        1 MOL1        -0.1910
       8    H3      21.290814   17.354483   22.934616 H          1 MOL1         0.0729
       9    H4      21.452031   18.962576   22.250732 H          1 MOL1         0.0729
      10    C4      19.766209   18.730181   23.623024 C.3        1 MOL1        -0.1909
      11    H5      20.365579   19.006713   24.501127 H          1 MOL1         0.0729
      12    H6      19.106257   17.915467   23.950893 H          1 MOL1         0.0729
      13    C5      18.894465   19.941777   23.210716 C.3        1 MOL1        -0.1884
      14    H7      18.210052   19.658341   22.400251 H          1 MOL1         0.0729
      15    H8      18.257777   20.219958   24.061789 H          1 MOL1         0.0729
      16    C6      19.721856   21.174139   22.786328 C.3        1 MOL1        -0.2899
      17    H9      20.288532   20.976728   21.867538 H          1 MOL1         0.0741
      18    H10     19.063515   22.030984   22.593404 H          1 MOL1         0.0741
      19    H11     20.430383   21.461866   23.573876 H          1 MOL1         0.0741
@<TRIPOS>BOND
    1     1     2    1
    2     1     3    2
    3     1     4    1
    4     4     5    1
    5     4     6    1
    6     4     7    1
    7     7     8    1
    8     7     9    1
    9     7    10    1
   10    10    11    1
   11    10    12    1
   12    10    13    1
   13    13    14    1
   14    13    15    1
   15    13    16    1
   16    16    17    1
   17    16    18    1
   18    16    19    1
@<TRIPOS>SUBSTRUCTURE
       1 MOL1            1 RESIDUE      1      MOL     
@<SCITEGIC>MOL_PROPERTY
VConf Rank
SciTegic.value.IntegerValue
942

@<SCITEGIC>MOL_PROPERTY
Conf_Id
SciTegic.value.IntegerValue
21

@<SCITEGIC>MOL_PROPERTY
Delta U+W
SciTegic.value.DoubleValue
0.319

@<SCITEGIC>MOL_PROPERTY
U+W
SciTegic.value.DoubleValue
-54.572

@<SCITEGIC>MOL_PROPERTY
Grad RMS
SciTegic.value.DoubleValue
0.000000

@<SCITEGIC>MOL_PROPERTY
U
SciTegic.value.DoubleValue
8.220

@<SCITEGIC>MOL_PROPERTY
W
SciTegic.value.DoubleValue
-62.792

@<SCITEGIC>MOL_PROPERTY
W(PB)
SciTegic.value.DoubleValue
-64.830

@<SCITEGIC>MOL_PROPERTY
W(SA)
SciTegic.value.DoubleValue
2.038

@<SCITEGIC>MOL_PROPERTY
Valence
SciTegic.value.DoubleValue
7.609

@<SCITEGIC>MOL_PROPERTY
Coulomb
SciTegic.value.DoubleValue
-0.088

@<SCITEGIC>MOL_PROPERTY
VdW
SciTegic.value.DoubleValue
0.699

@<SCITEGIC>MOL_PROPERTY
VdW6
SciTegic.value.DoubleValue
-6.924

@<SCITEGIC>MOL_PROPERTY
VdW12
SciTegic.value.DoubleValue
7.623

@<SCITEGIC>MOL_PROPERTY
Bond
SciTegic.value.DoubleValue
0.163

@<SCITEGIC>MOL_PROPERTY
Angle
SciTegic.value.DoubleValue
2.870

@<SCITEGIC>MOL_PROPERTY
Pdih
SciTegic.value.DoubleValue
4.576

@<SCITEGIC>MOL_PROPERTY
Idih
SciTegic.value.DoubleValue
0.000

@<SCITEGIC>MOL_PROPERTY
Tether
SciTegic.value.DoubleValue
0.000

@<TRIPOS>MOLECULE
guest-7_confgen4.mol2 : confsearch ligand conformer 943
          19          18           1
SMALL
USER_CHARGES
 
@<TRIPOS>ATOM
       1    C1      19.867783   16.337286   23.621321 C.2        1 MOL1         0.6115
       2    O1      19.350850   15.297471   23.263546 O.co2      1 MOL1        -0.6776
       3    O2      20.772844   16.394600   24.429920 O.co2      1 MOL1        -0.6776
       4    C2      19.365249   17.639358   23.008010 C.3        1 MOL1        -0.2013
       5    H1      19.469646   18.427178   23.760516 H          1 MOL1         0.0727
       6    H2      18.292607   17.527822   22.809559 H          1 MOL1         0.0727
       7    C3      20.111099   18.014527   21.700130 C.3        1 MOL1        -0.1910
       8    H3      21.192974   18.069539   21.883982 H          1 MOL1         0.0729
       9    H4      19.964385   17.196494   20.981316 H          1 MOL1         0.0729
      10    C4      19.608023   19.333102   21.059647 C.3        1 MOL1        -0.1909
      11    H5      18.546609   19.490383   21.295360 H          1 MOL1         0.0729
      12    H6      19.658169   19.222959   19.967710 H          1 MOL1         0.0729
      13    C5      20.429148   20.590172   21.438381 C.3        1 MOL1        -0.1884
      14    H7      21.471916   20.459199   21.117855 H          1 MOL1         0.0729
      15    H8      20.038397   21.445527   20.870161 H          1 MOL1         0.0729
      16    C6      20.395939   20.938947   22.940695 C.3        1 MOL1        -0.2899
      17    H9      20.883626   21.905670   23.120757 H          1 MOL1         0.0741
      18    H10     19.363448   21.006809   23.307212 H          1 MOL1         0.0741
      19    H11     20.929161   20.185237   23.533479 H          1 MOL1         0.0741
@<TRIPOS>BOND
    1     1     2    1
    2     1     3    2
    3     1     4    1
    4     4     5    1
    5     4     6    1
    6     4     7    1
    7     7     8    1
    8     7     9    1
    9     7    10    1
   10    10    11    1
   11    10    12    1
   12    10    13    1
   13    13    14    1
   14    13    15    1
   15    13    16    1
   16    16    17    1
   17    16    18    1
   18    16    19    1
@<TRIPOS>SUBSTRUCTURE
       1 MOL1            1 RESIDUE      1      MOL     
@<SCITEGIC>MOL_PROPERTY
VConf Rank
SciTegic.value.IntegerValue
943

@<SCITEGIC>MOL_PROPERTY
Conf_Id
SciTegic.value.IntegerValue
24

@<SCITEGIC>MOL_PROPERTY
Delta U+W
SciTegic.value.DoubleValue
2.477

@<SCITEGIC>MOL_PROPERTY
U+W
SciTegic.value.DoubleValue
-52.414

@<SCITEGIC>MOL_PROPERTY
Grad RMS
SciTegic.value.DoubleValue
0.000000

@<SCITEGIC>MOL_PROPERTY
U
SciTegic.value.DoubleValue
10.422

@<SCITEGIC>MOL_PROPERTY
W
SciTegic.value.DoubleValue
-62.836

@<SCITEGIC>MOL_PROPERTY
W(PB)
SciTegic.value.DoubleValue
-64.906

@<SCITEGIC>MOL_PROPERTY
W(SA)
SciTegic.value.DoubleValue
2.070

@<SCITEGIC>MOL_PROPERTY
Valence
SciTegic.value.DoubleValue
9.628

@<SCITEGIC>MOL_PROPERTY
Coulomb
SciTegic.value.DoubleValue
0.101

@<SCITEGIC>MOL_PROPERTY
VdW
SciTegic.value.DoubleValue
0.693

@<SCITEGIC>MOL_PROPERTY
VdW6
SciTegic.value.DoubleValue
-6.927

@<SCITEGIC>MOL_PROPERTY
VdW12
SciTegic.value.DoubleValue
7.620

@<SCITEGIC>MOL_PROPERTY
Bond
SciTegic.value.DoubleValue
0.173

@<SCITEGIC>MOL_PROPERTY
Angle
SciTegic.value.DoubleValue
2.989

@<SCITEGIC>MOL_PROPERTY
Pdih
SciTegic.value.DoubleValue
6.465

@<SCITEGIC>MOL_PROPERTY
Idih
SciTegic.value.DoubleValue
0.001

@<SCITEGIC>MOL_PROPERTY
Tether
SciTegic.value.DoubleValue
0.000

@<TRIPOS>MOLECULE
guest-7_confgen4.mol2 : confsearch ligand conformer 944
          19          18           1
SMALL
USER_CHARGES
 
@<TRIPOS>ATOM
       1    C1      22.319639   18.691416   21.569411 C.2        1 MOL1         0.6115
       2    O1      22.265858   19.495292   20.659696 O.co2      1 MOL1        -0.6776
       3    O2      23.338646   18.438444   22.181542 O.co2      1 MOL1        -0.6776
       4    C2      21.047741   17.936260   21.946567 C.3        1 MOL1        -0.2013
       5    H1      21.308121   16.873010   22.005368 H          1 MOL1         0.0727
       6    H2      20.329717   18.038117   21.126628 H          1 MOL1         0.0727
       7    C3      20.422449   18.387064   23.295909 C.3        1 MOL1        -0.1910
       8    H3      19.643913   17.675169   23.601392 H          1 MOL1         0.0729
       9    H4      21.202799   18.330371   24.067514 H          1 MOL1         0.0729
      10    C4      19.840434   19.824577   23.278814 C.3        1 MOL1        -0.1909
      11    H5      20.394027   20.455705   22.570282 H          1 MOL1         0.0729
      12    H6      20.007516   20.271434   24.268352 H          1 MOL1         0.0729
      13    C5      18.322466   19.903220   22.983019 C.3        1 MOL1        -0.1884
      14    H7      17.767729   19.343153   23.748392 H          1 MOL1         0.0729
      15    H8      18.003531   20.950398   23.077116 H          1 MOL1         0.0729
      16    C6      17.924715   19.390243   21.583661 C.3        1 MOL1        -0.2899
      17    H9      18.069933   18.305844   21.503992 H          1 MOL1         0.0741
      18    H10     16.865113   19.597212   21.385709 H          1 MOL1         0.0741
      19    H11     18.518456   19.880933   20.801241 H          1 MOL1         0.0741
@<TRIPOS>BOND
    1     1     2    1
    2     1     3    2
    3     1     4    1
    4     4     5    1
    5     4     6    1
    6     4     7    1
    7     7     8    1
    8     7     9    1
    9     7    10    1
   10    10    11    1
   11    10    12    1
   12    10    13    1
   13    13    14    1
   14    13    15    1
   15    13    16    1
   16    16    17    1
   17    16    18    1
   18    16    19    1
@<TRIPOS>SUBSTRUCTURE
       1 MOL1            1 RESIDUE      1      MOL     
@<SCITEGIC>MOL_PROPERTY
VConf Rank
SciTegic.value.IntegerValue
944

@<SCITEGIC>MOL_PROPERTY
Conf_Id
SciTegic.value.IntegerValue
4

@<SCITEGIC>MOL_PROPERTY
Delta U+W
SciTegic.value.DoubleValue
3.753

@<SCITEGIC>MOL_PROPERTY
U+W
SciTegic.value.DoubleValue
-51.138

@<SCITEGIC>MOL_PROPERTY
Grad RMS
SciTegic.value.DoubleValue
0.000000

@<SCITEGIC>MOL_PROPERTY
U
SciTegic.value.DoubleValue
12.334

@<SCITEGIC>MOL_PROPERTY
W
SciTegic.value.DoubleValue
-63.472

@<SCITEGIC>MOL_PROPERTY
W(PB)
SciTegic.value.DoubleValue
-65.500

@<SCITEGIC>MOL_PROPERTY
W(SA)
SciTegic.value.DoubleValue
2.028

@<SCITEGIC>MOL_PROPERTY
Valence
SciTegic.value.DoubleValue
9.984

@<SCITEGIC>MOL_PROPERTY
Coulomb
SciTegic.value.DoubleValue
1.767

@<SCITEGIC>MOL_PROPERTY
VdW
SciTegic.value.DoubleValue
0.583

@<SCITEGIC>MOL_PROPERTY
VdW6
SciTegic.value.DoubleValue
-7.767

@<SCITEGIC>MOL_PROPERTY
VdW12
SciTegic.value.DoubleValue
8.349

@<SCITEGIC>MOL_PROPERTY
Bond
SciTegic.value.DoubleValue
0.203

@<SCITEGIC>MOL_PROPERTY
Angle
SciTegic.value.DoubleValue
3.191

@<SCITEGIC>MOL_PROPERTY
Pdih
SciTegic.value.DoubleValue
6.589

@<SCITEGIC>MOL_PROPERTY
Idih
SciTegic.value.DoubleValue
0.001

@<SCITEGIC>MOL_PROPERTY
Tether
SciTegic.value.DoubleValue
0.000

@<TRIPOS>MOLECULE
guest-7_confgen4.mol2 : confsearch ligand conformer 945
          19          18           1
SMALL
USER_CHARGES
 
@<TRIPOS>ATOM
       1    C1      19.144612   17.710926   24.602647 C.2        1 MOL1         0.6115
       2    O1      18.073506   17.725762   25.176742 O.co2      1 MOL1        -0.6776
       3    O2      19.810602   16.705785   24.451510 O.co2      1 MOL1        -0.6776
       4    C2      19.693431   19.031945   24.069789 C.3        1 MOL1        -0.2013
       5    H1      20.763696   18.908232   23.876253 H          1 MOL1         0.0727
       6    H2      19.603567   19.768628   24.876621 H          1 MOL1         0.0727
       7    C3      18.954962   19.559512   22.808331 C.3        1 MOL1        -0.1910
       8    H3      17.880557   19.599037   23.035543 H          1 MOL1         0.0729
       9    H4      19.258666   20.595290   22.605452 H          1 MOL1         0.0729
      10    C4      19.165503   18.693564   21.538969 C.3        1 MOL1        -0.1909
      11    H5      18.234526   18.711663   20.956100 H          1 MOL1         0.0729
      12    H6      19.324577   17.641588   21.812549 H          1 MOL1         0.0729
      13    C5      20.305907   19.176694   20.609471 C.3        1 MOL1        -0.1884
      14    H7      20.311643   18.546519   19.709471 H          1 MOL1         0.0729
      15    H8      20.095001   20.199228   20.267207 H          1 MOL1         0.0729
      16    C6      21.707075   19.130428   21.253013 C.3        1 MOL1        -0.2899
      17    H9      21.915333   18.136913   21.671395 H          1 MOL1         0.0741
      18    H10     22.480106   19.353137   20.506286 H          1 MOL1         0.0741
      19    H11     21.798657   19.873363   22.054896 H          1 MOL1         0.0741
@<TRIPOS>BOND
    1     1     2    1
    2     1     3    2
    3     1     4    1
    4     4     5    1
    5     4     6    1
    6     4     7    1
    7     7     8    1
    8     7     9    1
    9     7    10    1
   10    10    11    1
   11    10    12    1
   12    10    13    1
   13    13    14    1
   14    13    15    1
   15    13    16    1
   16    16    17    1
   17    16    18    1
   18    16    19    1
@<TRIPOS>SUBSTRUCTURE
       1 MOL1            1 RESIDUE      1      MOL     
@<SCITEGIC>MOL_PROPERTY
VConf Rank
SciTegic.value.IntegerValue
945

@<SCITEGIC>MOL_PROPERTY
Conf_Id
SciTegic.value.IntegerValue
73

@<SCITEGIC>MOL_PROPERTY
Delta U+W
SciTegic.value.DoubleValue
3.707

@<SCITEGIC>MOL_PROPERTY
U+W
SciTegic.value.DoubleValue
-51.184

@<SCITEGIC>MOL_PROPERTY
Grad RMS
SciTegic.value.DoubleValue
0.000000

@<SCITEGIC>MOL_PROPERTY
U
SciTegic.value.DoubleValue
12.334

@<SCITEGIC>MOL_PROPERTY
W
SciTegic.value.DoubleValue
-63.519

@<SCITEGIC>MOL_PROPERTY
W(PB)
SciTegic.value.DoubleValue
-65.541

@<SCITEGIC>MOL_PROPERTY
W(SA)
SciTegic.value.DoubleValue
2.022

@<SCITEGIC>MOL_PROPERTY
Valence
SciTegic.value.DoubleValue
9.984

@<SCITEGIC>MOL_PROPERTY
Coulomb
SciTegic.value.DoubleValue
1.768

@<SCITEGIC>MOL_PROPERTY
VdW
SciTegic.value.DoubleValue
0.583

@<SCITEGIC>MOL_PROPERTY
VdW6
SciTegic.value.DoubleValue
-7.767

@<SCITEGIC>MOL_PROPERTY
VdW12
SciTegic.value.DoubleValue
8.350

@<SCITEGIC>MOL_PROPERTY
Bond
SciTegic.value.DoubleValue
0.203

@<SCITEGIC>MOL_PROPERTY
Angle
SciTegic.value.DoubleValue
3.192

@<SCITEGIC>MOL_PROPERTY
Pdih
SciTegic.value.DoubleValue
6.589

@<SCITEGIC>MOL_PROPERTY
Idih
SciTegic.value.DoubleValue
0.001

@<SCITEGIC>MOL_PROPERTY
Tether
SciTegic.value.DoubleValue
0.000

@<TRIPOS>MOLECULE
guest-7_confgen4.mol2 : confsearch ligand conformer 946
          19          18           1
SMALL
USER_CHARGES
 
@<TRIPOS>ATOM
       1    C1      18.740466   19.939090   24.543147 C.2        1 MOL1         0.6115
       2    O1      19.567921   20.798204   24.775427 O.co2      1 MOL1        -0.6776
       3    O2      17.557111   20.062570   24.791309 O.co2      1 MOL1        -0.6776
       4    C2      19.214435   18.621039   23.936994 C.3        1 MOL1        -0.2013
       5    H1      18.800779   17.812201   24.550459 H          1 MOL1         0.0727
       6    H2      20.304216   18.559734   24.036565 H          1 MOL1         0.0727
       7    C3      18.788873   18.412891   22.457859 C.3        1 MOL1        -0.1910
       8    H3      19.105159   17.415025   22.127567 H          1 MOL1         0.0729
       9    H4      17.691498   18.414326   22.404220 H          1 MOL1         0.0729
      10    C4      19.334291   19.483393   21.477739 C.3        1 MOL1        -0.1909
      11    H5      18.913371   20.462184   21.745838 H          1 MOL1         0.0729
      12    H6      18.960839   19.260529   20.469048 H          1 MOL1         0.0729
      13    C5      20.876962   19.604278   21.425108 C.3        1 MOL1        -0.1884
      14    H7      21.141049   20.399700   20.714855 H          1 MOL1         0.0729
      15    H8      21.263395   19.929294   22.400545 H          1 MOL1         0.0729
      16    C6      21.578947   18.298914   20.992771 C.3        1 MOL1        -0.2899
      17    H9      21.435428   17.504116   21.735475 H          1 MOL1         0.0741
      18    H10     21.190893   17.944969   20.028847 H          1 MOL1         0.0741
      19    H11     22.658998   18.461588   20.884048 H          1 MOL1         0.0741
@<TRIPOS>BOND
    1     1     2    1
    2     1     3    2
    3     1     4    1
    4     4     5    1
    5     4     6    1
    6     4     7    1
    7     7     8    1
    8     7     9    1
    9     7    10    1
   10    10    11    1
   11    10    12    1
   12    10    13    1
   13    13    14    1
   14    13    15    1
   15    13    16    1
   16    16    17    1
   17    16    18    1
   18    16    19    1
@<TRIPOS>SUBSTRUCTURE
       1 MOL1            1 RESIDUE      1      MOL     
@<SCITEGIC>MOL_PROPERTY
VConf Rank
SciTegic.value.IntegerValue
946

@<SCITEGIC>MOL_PROPERTY
Conf_Id
SciTegic.value.IntegerValue
56

@<SCITEGIC>MOL_PROPERTY
Delta U+W
SciTegic.value.DoubleValue
1.735

@<SCITEGIC>MOL_PROPERTY
U+W
SciTegic.value.DoubleValue
-53.156

@<SCITEGIC>MOL_PROPERTY
Grad RMS
SciTegic.value.DoubleValue
0.000000

@<SCITEGIC>MOL_PROPERTY
U
SciTegic.value.DoubleValue
10.214

@<SCITEGIC>MOL_PROPERTY
W
SciTegic.value.DoubleValue
-63.370

@<SCITEGIC>MOL_PROPERTY
W(PB)
SciTegic.value.DoubleValue
-65.388

@<SCITEGIC>MOL_PROPERTY
W(SA)
SciTegic.value.DoubleValue
2.018

@<SCITEGIC>MOL_PROPERTY
Valence
SciTegic.value.DoubleValue
7.868

@<SCITEGIC>MOL_PROPERTY
Coulomb
SciTegic.value.DoubleValue
1.968

@<SCITEGIC>MOL_PROPERTY
VdW
SciTegic.value.DoubleValue
0.378

@<SCITEGIC>MOL_PROPERTY
VdW6
SciTegic.value.DoubleValue
-8.067

@<SCITEGIC>MOL_PROPERTY
VdW12
SciTegic.value.DoubleValue
8.445

@<SCITEGIC>MOL_PROPERTY
Bond
SciTegic.value.DoubleValue
0.191

@<SCITEGIC>MOL_PROPERTY
Angle
SciTegic.value.DoubleValue
3.117

@<SCITEGIC>MOL_PROPERTY
Pdih
SciTegic.value.DoubleValue
4.559

@<SCITEGIC>MOL_PROPERTY
Idih
SciTegic.value.DoubleValue
0.001

@<SCITEGIC>MOL_PROPERTY
Tether
SciTegic.value.DoubleValue
0.000

@<TRIPOS>MOLECULE
guest-7_confgen4.mol2 : confsearch ligand conformer 947
          19          18           1
SMALL
USER_CHARGES
 
@<TRIPOS>ATOM
       1    C1      20.551192   17.417320   19.859017 C.2        1 MOL1         0.6115
       2    O1      19.866366   17.474096   18.856942 O.co2      1 MOL1        -0.6776
       3    O2      21.421639   16.587387   20.031953 O.co2      1 MOL1        -0.6776
       4    C2      20.289272   18.429319   20.968744 C.3        1 MOL1        -0.2013
       5    H1      19.940352   19.360403   20.506448 H          1 MOL1         0.0727
       6    H2      21.247135   18.641319   21.456663 H          1 MOL1         0.0727
       7    C3      19.255905   17.926942   22.008332 C.3        1 MOL1        -0.1910
       8    H3      18.356996   17.588122   21.474888 H          1 MOL1         0.0729
       9    H4      19.659785   17.043516   22.521784 H          1 MOL1         0.0729
      10    C4      18.834145   18.988936   23.054650 C.3        1 MOL1        -0.1909
      11    H5      18.066747   18.534008   23.695831 H          1 MOL1         0.0729
      12    H6      18.342663   19.835597   22.556043 H          1 MOL1         0.0729
      13    C5      19.982677   19.494438   23.962642 C.3        1 MOL1        -0.1884
      14    H7      19.580064   19.675906   24.968779 H          1 MOL1         0.0729
      15    H8      20.749545   18.715826   24.076587 H          1 MOL1         0.0729
      16    C6      20.622940   20.808260   23.461982 C.3        1 MOL1        -0.2899
      17    H9      21.416944   21.133095   24.146757 H          1 MOL1         0.0741
      18    H10     21.066424   20.693916   22.466560 H          1 MOL1         0.0741
      19    H11     19.876032   21.611092   23.409830 H          1 MOL1         0.0741
@<TRIPOS>BOND
    1     1     2    1
    2     1     3    2
    3     1     4    1
    4     4     5    1
    5     4     6    1
    6     4     7    1
    7     7     8    1
    8     7     9    1
    9     7    10    1
   10    10    11    1
   11    10    12    1
   12    10    13    1
   13    13    14    1
   14    13    15    1
   15    13    16    1
   16    16    17    1
   17    16    18    1
   18    16    19    1
@<TRIPOS>SUBSTRUCTURE
       1 MOL1            1 RESIDUE      1      MOL     
@<SCITEGIC>MOL_PROPERTY
VConf Rank
SciTegic.value.IntegerValue
947

@<SCITEGIC>MOL_PROPERTY
Conf_Id
SciTegic.value.IntegerValue
53

@<SCITEGIC>MOL_PROPERTY
Delta U+W
SciTegic.value.DoubleValue
2.279

@<SCITEGIC>MOL_PROPERTY
U+W
SciTegic.value.DoubleValue
-52.612

@<SCITEGIC>MOL_PROPERTY
Grad RMS
SciTegic.value.DoubleValue
0.000000

@<SCITEGIC>MOL_PROPERTY
U
SciTegic.value.DoubleValue
10.231

@<SCITEGIC>MOL_PROPERTY
W
SciTegic.value.DoubleValue
-62.843

@<SCITEGIC>MOL_PROPERTY
W(PB)
SciTegic.value.DoubleValue
-64.893

@<SCITEGIC>MOL_PROPERTY
W(SA)
SciTegic.value.DoubleValue
2.050

@<SCITEGIC>MOL_PROPERTY
Valence
SciTegic.value.DoubleValue
9.644

@<SCITEGIC>MOL_PROPERTY
Coulomb
SciTegic.value.DoubleValue
-0.164

@<SCITEGIC>MOL_PROPERTY
VdW
SciTegic.value.DoubleValue
0.751

@<SCITEGIC>MOL_PROPERTY
VdW6
SciTegic.value.DoubleValue
-6.881

@<SCITEGIC>MOL_PROPERTY
VdW12
SciTegic.value.DoubleValue
7.631

@<SCITEGIC>MOL_PROPERTY
Bond
SciTegic.value.DoubleValue
0.163

@<SCITEGIC>MOL_PROPERTY
Angle
SciTegic.value.DoubleValue
2.998

@<SCITEGIC>MOL_PROPERTY
Pdih
SciTegic.value.DoubleValue
6.482

@<SCITEGIC>MOL_PROPERTY
Idih
SciTegic.value.DoubleValue
0.001

@<SCITEGIC>MOL_PROPERTY
Tether
SciTegic.value.DoubleValue
0.000

@<TRIPOS>MOLECULE
guest-7_confgen4.mol2 : confsearch ligand conformer 948
          19          18           1
SMALL
USER_CHARGES
 
@<TRIPOS>ATOM
       1    C1      18.715420   20.650334   23.341080 C.2        1 MOL1         0.6115
       2    O1      18.908941   21.571256   22.572115 O.co2      1 MOL1        -0.6776
       3    O2      18.873959   20.737043   24.542992 O.co2      1 MOL1        -0.6776
       4    C2      18.177935   19.338220   22.772796 C.3        1 MOL1        -0.2013
       5    H1      18.041211   19.447742   21.690098 H          1 MOL1         0.0727
       6    H2      17.178738   19.202433   23.202669 H          1 MOL1         0.0727
       7    C3      19.036380   18.079458   23.082179 C.3        1 MOL1        -0.1910
       8    H3      19.345068   18.086444   24.136790 H          1 MOL1         0.0729
       9    H4      18.396604   17.194948   22.960748 H          1 MOL1         0.0729
      10    C4      20.272951   17.895715   22.167954 C.3        1 MOL1        -0.1909
      11    H5      19.956527   17.882391   21.116035 H          1 MOL1         0.0729
      12    H6      20.705600   16.906781   22.372486 H          1 MOL1         0.0729
      13    C5      21.368225   18.966373   22.367052 C.3        1 MOL1        -0.1884
      14    H7      20.999452   19.947551   22.041933 H          1 MOL1         0.0729
      15    H8      21.614878   19.052913   23.434324 H          1 MOL1         0.0729
      16    C6      22.643758   18.625409   21.570437 C.3        1 MOL1        -0.2899
      17    H9      22.428815   18.558537   20.495874 H          1 MOL1         0.0741
      18    H10     23.408318   19.399609   21.715723 H          1 MOL1         0.0741
      19    H11     23.066817   17.666200   21.896407 H          1 MOL1         0.0741
@<TRIPOS>BOND
    1     1     2    1
    2     1     3    2
    3     1     4    1
    4     4     5    1
    5     4     6    1
    6     4     7    1
    7     7     8    1
    8     7     9    1
    9     7    10    1
   10    10    11    1
   11    10    12    1
   12    10    13    1
   13    13    14    1
   14    13    15    1
   15    13    16    1
   16    16    17    1
   17    16    18    1
   18    16    19    1
@<TRIPOS>SUBSTRUCTURE
       1 MOL1            1 RESIDUE      1      MOL     
@<SCITEGIC>MOL_PROPERTY
VConf Rank
SciTegic.value.IntegerValue
948

@<SCITEGIC>MOL_PROPERTY
Conf_Id
SciTegic.value.IntegerValue
25

@<SCITEGIC>MOL_PROPERTY
Delta U+W
SciTegic.value.DoubleValue
2.065

@<SCITEGIC>MOL_PROPERTY
U+W
SciTegic.value.DoubleValue
-52.826

@<SCITEGIC>MOL_PROPERTY
Grad RMS
SciTegic.value.DoubleValue
0.000000

@<SCITEGIC>MOL_PROPERTY
U
SciTegic.value.DoubleValue
10.967

@<SCITEGIC>MOL_PROPERTY
W
SciTegic.value.DoubleValue
-63.794

@<SCITEGIC>MOL_PROPERTY
W(PB)
SciTegic.value.DoubleValue
-65.830

@<SCITEGIC>MOL_PROPERTY
W(SA)
SciTegic.value.DoubleValue
2.036

@<SCITEGIC>MOL_PROPERTY
Valence
SciTegic.value.DoubleValue
8.609

@<SCITEGIC>MOL_PROPERTY
Coulomb
SciTegic.value.DoubleValue
1.892

@<SCITEGIC>MOL_PROPERTY
VdW
SciTegic.value.DoubleValue
0.467

@<SCITEGIC>MOL_PROPERTY
VdW6
SciTegic.value.DoubleValue
-7.569

@<SCITEGIC>MOL_PROPERTY
VdW12
SciTegic.value.DoubleValue
8.036

@<SCITEGIC>MOL_PROPERTY
Bond
SciTegic.value.DoubleValue
0.170

@<SCITEGIC>MOL_PROPERTY
Angle
SciTegic.value.DoubleValue
3.195

@<SCITEGIC>MOL_PROPERTY
Pdih
SciTegic.value.DoubleValue
5.237

@<SCITEGIC>MOL_PROPERTY
Idih
SciTegic.value.DoubleValue
0.007

@<SCITEGIC>MOL_PROPERTY
Tether
SciTegic.value.DoubleValue
0.000

@<TRIPOS>MOLECULE
guest-7_confgen4.mol2 : confsearch ligand conformer 949
          19          18           1
SMALL
USER_CHARGES
 
@<TRIPOS>ATOM
       1    C1      18.962999   20.716075   23.523950 C.2        1 MOL1         0.6115
       2    O1      19.022425   21.665450   22.767377 O.co2      1 MOL1        -0.6776
       3    O2      19.404658   20.733474   24.655977 O.co2      1 MOL1        -0.6776
       4    C2      18.233816   19.458573   23.054411 C.3        1 MOL1        -0.2013
       5    H1      17.191678   19.752291   22.883232 H          1 MOL1         0.0727
       6    H2      18.223122   18.726434   23.870977 H          1 MOL1         0.0727
       7    C3      18.795538   18.810307   21.757743 C.3        1 MOL1        -0.1910
       8    H3      18.008699   18.175793   21.327984 H          1 MOL1         0.0729
       9    H4      18.999619   19.587640   21.008311 H          1 MOL1         0.0729
      10    C4      20.051869   17.928395   21.963999 C.3        1 MOL1        -0.1909
      11    H5      20.260806   17.404844   21.020998 H          1 MOL1         0.0729
      12    H6      19.838727   17.149357   22.708652 H          1 MOL1         0.0729
      13    C5      21.312597   18.716104   22.383113 C.3        1 MOL1        -0.1884
      14    H7      21.470592   19.559065   21.696199 H          1 MOL1         0.0729
      15    H8      21.175752   19.140200   23.386020 H          1 MOL1         0.0729
      16    C6      22.565083   17.816622   22.390020 C.3        1 MOL1        -0.2899
      17    H9      23.449814   18.388874   22.697954 H          1 MOL1         0.0741
      18    H10     22.442597   16.979209   23.089373 H          1 MOL1         0.0741
      19    H11     22.759153   17.404343   21.391180 H          1 MOL1         0.0741
@<TRIPOS>BOND
    1     1     2    1
    2     1     3    2
    3     1     4    1
    4     4     5    1
    5     4     6    1
    6     4     7    1
    7     7     8    1
    8     7     9    1
    9     7    10    1
   10    10    11    1
   11    10    12    1
   12    10    13    1
   13    13    14    1
   14    13    15    1
   15    13    16    1
   16    16    17    1
   17    16    18    1
   18    16    19    1
@<TRIPOS>SUBSTRUCTURE
       1 MOL1            1 RESIDUE      1      MOL     
@<SCITEGIC>MOL_PROPERTY
VConf Rank
SciTegic.value.IntegerValue
949

@<SCITEGIC>MOL_PROPERTY
Conf_Id
SciTegic.value.IntegerValue
52

@<SCITEGIC>MOL_PROPERTY
Delta U+W
SciTegic.value.DoubleValue
2.070

@<SCITEGIC>MOL_PROPERTY
U+W
SciTegic.value.DoubleValue
-52.822

@<SCITEGIC>MOL_PROPERTY
Grad RMS
SciTegic.value.DoubleValue
0.000000

@<SCITEGIC>MOL_PROPERTY
U
SciTegic.value.DoubleValue
10.967

@<SCITEGIC>MOL_PROPERTY
W
SciTegic.value.DoubleValue
-63.789

@<SCITEGIC>MOL_PROPERTY
W(PB)
SciTegic.value.DoubleValue
-65.837

@<SCITEGIC>MOL_PROPERTY
W(SA)
SciTegic.value.DoubleValue
2.048

@<SCITEGIC>MOL_PROPERTY
Valence
SciTegic.value.DoubleValue
8.609

@<SCITEGIC>MOL_PROPERTY
Coulomb
SciTegic.value.DoubleValue
1.892

@<SCITEGIC>MOL_PROPERTY
VdW
SciTegic.value.DoubleValue
0.467

@<SCITEGIC>MOL_PROPERTY
VdW6
SciTegic.value.DoubleValue
-7.569

@<SCITEGIC>MOL_PROPERTY
VdW12
SciTegic.value.DoubleValue
8.035

@<SCITEGIC>MOL_PROPERTY
Bond
SciTegic.value.DoubleValue
0.170

@<SCITEGIC>MOL_PROPERTY
Angle
SciTegic.value.DoubleValue
3.196

@<SCITEGIC>MOL_PROPERTY
Pdih
SciTegic.value.DoubleValue
5.237

@<SCITEGIC>MOL_PROPERTY
Idih
SciTegic.value.DoubleValue
0.007

@<SCITEGIC>MOL_PROPERTY
Tether
SciTegic.value.DoubleValue
0.000

@<TRIPOS>MOLECULE
guest-7_confgen4.mol2 : confsearch ligand conformer 950
          19          18           1
SMALL
USER_CHARGES
 
@<TRIPOS>ATOM
       1    C1      21.965925   18.618083   22.454863 C.2        1 MOL1         0.6115
       2    O1      22.499189   19.553552   23.019346 O.co2      1 MOL1        -0.6776
       3    O2      22.236778   17.457137   22.690535 O.co2      1 MOL1        -0.6776
       4    C2      21.000345   18.908242   21.304713 C.3        1 MOL1        -0.2013
       5    H1      20.500595   17.976466   21.013882 H          1 MOL1         0.0727
       6    H2      21.623865   19.206583   20.454131 H          1 MOL1         0.0727
       7    C3      19.947687   20.022079   21.570508 C.3        1 MOL1        -0.1910
       8    H3      20.413893   20.858558   22.109244 H          1 MOL1         0.0729
       9    H4      19.636625   20.430560   20.599561 H          1 MOL1         0.0729
      10    C4      18.667313   19.563192   22.314311 C.3        1 MOL1        -0.1909
      11    H5      18.145881   18.796076   21.725516 H          1 MOL1         0.0729
      12    H6      17.983164   20.421924   22.352856 H          1 MOL1         0.0729
      13    C5      18.894452   19.067154   23.762878 C.3        1 MOL1        -0.1884
      14    H7      19.830480   19.476914   24.166988 H          1 MOL1         0.0729
      15    H8      18.090660   19.458198   24.401744 H          1 MOL1         0.0729
      16    C6      18.890162   17.527477   23.874668 C.3        1 MOL1        -0.2899
      17    H9      17.920616   17.115405   23.566260 H          1 MOL1         0.0741
      18    H10     19.665527   17.076654   23.244354 H          1 MOL1         0.0741
      19    H11     19.075575   17.215973   24.910625 H          1 MOL1         0.0741
@<TRIPOS>BOND
    1     1     2    1
    2     1     3    2
    3     1     4    1
    4     4     5    1
    5     4     6    1
    6     4     7    1
    7     7     8    1
    8     7     9    1
    9     7    10    1
   10    10    11    1
   11    10    12    1
   12    10    13    1
   13    13    14    1
   14    13    15    1
   15    13    16    1
   16    16    17    1
   17    16    18    1
   18    16    19    1
@<TRIPOS>SUBSTRUCTURE
       1 MOL1            1 RESIDUE      1      MOL     
@<SCITEGIC>MOL_PROPERTY
VConf Rank
SciTegic.value.IntegerValue
950

@<SCITEGIC>MOL_PROPERTY
Conf_Id
SciTegic.value.IntegerValue
66

@<SCITEGIC>MOL_PROPERTY
Delta U+W
SciTegic.value.DoubleValue
5.819

@<SCITEGIC>MOL_PROPERTY
U+W
SciTegic.value.DoubleValue
-49.072

@<SCITEGIC>MOL_PROPERTY
Grad RMS
SciTegic.value.DoubleValue
0.000000

@<SCITEGIC>MOL_PROPERTY
U
SciTegic.value.DoubleValue
15.324

@<SCITEGIC>MOL_PROPERTY
W
SciTegic.value.DoubleValue
-64.396

@<SCITEGIC>MOL_PROPERTY
W(PB)
SciTegic.value.DoubleValue
-66.382

@<SCITEGIC>MOL_PROPERTY
W(SA)
SciTegic.value.DoubleValue
1.986

@<SCITEGIC>MOL_PROPERTY
Valence
SciTegic.value.DoubleValue
11.748

@<SCITEGIC>MOL_PROPERTY
Coulomb
SciTegic.value.DoubleValue
3.201

@<SCITEGIC>MOL_PROPERTY
VdW
SciTegic.value.DoubleValue
0.375

@<SCITEGIC>MOL_PROPERTY
VdW6
SciTegic.value.DoubleValue
-8.854

@<SCITEGIC>MOL_PROPERTY
VdW12
SciTegic.value.DoubleValue
9.229

@<SCITEGIC>MOL_PROPERTY
Bond
SciTegic.value.DoubleValue
0.216

@<SCITEGIC>MOL_PROPERTY
Angle
SciTegic.value.DoubleValue
3.812

@<SCITEGIC>MOL_PROPERTY
Pdih
SciTegic.value.DoubleValue
7.699

@<SCITEGIC>MOL_PROPERTY
Idih
SciTegic.value.DoubleValue
0.022

@<SCITEGIC>MOL_PROPERTY
Tether
SciTegic.value.DoubleValue
0.000

@<TRIPOS>MOLECULE
guest-7_confgen4.mol2 : confsearch ligand conformer 951
          19          18           1
SMALL
USER_CHARGES
 
@<TRIPOS>ATOM
       1    C1      20.011618   19.734413   18.813834 C.2        1 MOL1         0.6115
       2    O1      19.315033   20.236458   17.954542 O.co2      1 MOL1        -0.6776
       3    O2      21.137854   19.328564   18.601647 O.co2      1 MOL1        -0.6776
       4    C2      19.415612   19.621442   20.218003 C.3        1 MOL1        -0.2013
       5    H1      18.487856   19.043279   20.134056 H          1 MOL1         0.0727
       6    H2      19.135846   20.632410   20.536946 H          1 MOL1         0.0727
       7    C3      20.342116   18.974043   21.281439 C.3        1 MOL1        -0.1910
       8    H3      20.623391   17.963798   20.953175 H          1 MOL1         0.0729
       9    H4      21.272082   19.554566   21.356446 H          1 MOL1         0.0729
      10    C4      19.662790   18.900035   22.666105 C.3        1 MOL1        -0.1909
      11    H5      18.733247   18.319416   22.588771 H          1 MOL1         0.0729
      12    H6      19.382325   19.911022   22.992288 H          1 MOL1         0.0729
      13    C5      20.585472   18.256113   23.721764 C.3        1 MOL1        -0.1884
      14    H7      20.866795   17.243781   23.399995 H          1 MOL1         0.0729
      15    H8      21.515738   18.835259   23.803552 H          1 MOL1         0.0729
      16    C6      19.904031   18.183765   25.102848 C.3        1 MOL1        -0.2899
      17    H9      18.986159   17.583075   25.056976 H          1 MOL1         0.0741
      18    H10     20.573725   17.723536   25.840958 H          1 MOL1         0.0741
      19    H11     19.639967   19.186547   25.463571 H          1 MOL1         0.0741
@<TRIPOS>BOND
    1     1     2    1
    2     1     3    2
    3     1     4    1
    4     4     5    1
    5     4     6    1
    6     4     7    1
    7     7     8    1
    8     7     9    1
    9     7    10    1
   10    10    11    1
   11    10    12    1
   12    10    13    1
   13    13    14    1
   14    13    15    1
   15    13    16    1
   16    16    17    1
   17    16    18    1
   18    16    19    1
@<TRIPOS>SUBSTRUCTURE
       1 MOL1            1 RESIDUE      1      MOL     
@<SCITEGIC>MOL_PROPERTY
VConf Rank
SciTegic.value.IntegerValue
951

@<SCITEGIC>MOL_PROPERTY
Conf_Id
SciTegic.value.IntegerValue
0

@<SCITEGIC>MOL_PROPERTY
Delta U+W
SciTegic.value.DoubleValue
0.000

@<SCITEGIC>MOL_PROPERTY
U+W
SciTegic.value.DoubleValue
-54.891

@<SCITEGIC>MOL_PROPERTY
Grad RMS
SciTegic.value.DoubleValue
0.000000

@<SCITEGIC>MOL_PROPERTY
U
SciTegic.value.DoubleValue
6.966

@<SCITEGIC>MOL_PROPERTY
W
SciTegic.value.DoubleValue
-61.857

@<SCITEGIC>MOL_PROPERTY
W(PB)
SciTegic.value.DoubleValue
-63.965

@<SCITEGIC>MOL_PROPERTY
W(SA)
SciTegic.value.DoubleValue
2.108

@<SCITEGIC>MOL_PROPERTY
Valence
SciTegic.value.DoubleValue
7.175

@<SCITEGIC>MOL_PROPERTY
Coulomb
SciTegic.value.DoubleValue
-1.360

@<SCITEGIC>MOL_PROPERTY
VdW
SciTegic.value.DoubleValue
1.151

@<SCITEGIC>MOL_PROPERTY
VdW6
SciTegic.value.DoubleValue
-5.641

@<SCITEGIC>MOL_PROPERTY
VdW12
SciTegic.value.DoubleValue
6.792

@<SCITEGIC>MOL_PROPERTY
Bond
SciTegic.value.DoubleValue
0.119

@<SCITEGIC>MOL_PROPERTY
Angle
SciTegic.value.DoubleValue
2.715

@<SCITEGIC>MOL_PROPERTY
Pdih
SciTegic.value.DoubleValue
4.340

@<SCITEGIC>MOL_PROPERTY
Idih
SciTegic.value.DoubleValue
0.000

@<SCITEGIC>MOL_PROPERTY
Tether
SciTegic.value.DoubleValue
0.000

@<TRIPOS>MOLECULE
guest-7_confgen4.mol2 : confsearch ligand conformer 952
          19          18           1
SMALL
USER_CHARGES
 
@<TRIPOS>ATOM
       1    C1      19.246735   21.261796   19.770782 C.2        1 MOL1         0.6115
       2    O1      20.144957   21.463069   18.977769 O.co2      1 MOL1        -0.6776
       3    O2      18.069295   21.391204   19.500465 O.co2      1 MOL1        -0.6776
       4    C2      19.616645   20.801716   21.176436 C.3        1 MOL1        -0.2013
       5    H1      18.867736   21.197751   21.872879 H          1 MOL1         0.0727
       6    H2      20.578606   21.256577   21.441911 H          1 MOL1         0.0727
       7    C3      19.701466   19.260630   21.302822 C.3        1 MOL1        -0.1910
       8    H3      18.734967   18.819788   21.021596 H          1 MOL1         0.0729
       9    H4      20.445860   18.878592   20.590451 H          1 MOL1         0.0729
      10    C4      20.077316   18.821223   22.734355 C.3        1 MOL1        -0.1909
      11    H5      19.332084   19.205804   23.444228 H          1 MOL1         0.0729
      12    H6      21.043259   19.264523   23.012977 H          1 MOL1         0.0729
      13    C5      20.161006   17.285565   22.857329 C.3        1 MOL1        -0.1884
      14    H7      19.195928   16.838479   22.581228 H          1 MOL1         0.0729
      15    H8      20.906985   16.897198   22.150094 H          1 MOL1         0.0729
      16    C6      20.536407   16.850386   24.287940 C.3        1 MOL1        -0.2899
      17    H9      20.591456   15.756202   24.357499 H          1 MOL1         0.0741
      18    H10     21.513409   17.258109   24.578893 H          1 MOL1         0.0741
      19    H11     19.789538   17.198991   25.013257 H          1 MOL1         0.0741
@<TRIPOS>BOND
    1     1     2    1
    2     1     3    2
    3     1     4    1
    4     4     5    1
    5     4     6    1
    6     4     7    1
    7     7     8    1
    8     7     9    1
    9     7    10    1
   10    10    11    1
   11    10    12    1
   12    10    13    1
   13    13    14    1
   14    13    15    1
   15    13    16    1
   16    16    17    1
   17    16    18    1
   18    16    19    1
@<TRIPOS>SUBSTRUCTURE
       1 MOL1            1 RESIDUE      1      MOL     
@<SCITEGIC>MOL_PROPERTY
VConf Rank
SciTegic.value.IntegerValue
952

@<SCITEGIC>MOL_PROPERTY
Conf_Id
SciTegic.value.IntegerValue
18

@<SCITEGIC>MOL_PROPERTY
Delta U+W
SciTegic.value.DoubleValue
-1.199

@<SCITEGIC>MOL_PROPERTY
U+W
SciTegic.value.DoubleValue
-56.090

@<SCITEGIC>MOL_PROPERTY
Grad RMS
SciTegic.value.DoubleValue
0.000000

@<SCITEGIC>MOL_PROPERTY
U
SciTegic.value.DoubleValue
5.975

@<SCITEGIC>MOL_PROPERTY
W
SciTegic.value.DoubleValue
-62.066

@<SCITEGIC>MOL_PROPERTY
W(PB)
SciTegic.value.DoubleValue
-64.219

@<SCITEGIC>MOL_PROPERTY
W(SA)
SciTegic.value.DoubleValue
2.153

@<SCITEGIC>MOL_PROPERTY
Valence
SciTegic.value.DoubleValue
6.673

@<SCITEGIC>MOL_PROPERTY
Coulomb
SciTegic.value.DoubleValue
-1.307

@<SCITEGIC>MOL_PROPERTY
VdW
SciTegic.value.DoubleValue
0.610

@<SCITEGIC>MOL_PROPERTY
VdW6
SciTegic.value.DoubleValue
-5.351

@<SCITEGIC>MOL_PROPERTY
VdW12
SciTegic.value.DoubleValue
5.961

@<SCITEGIC>MOL_PROPERTY
Bond
SciTegic.value.DoubleValue
0.086

@<SCITEGIC>MOL_PROPERTY
Angle
SciTegic.value.DoubleValue
2.253

@<SCITEGIC>MOL_PROPERTY
Pdih
SciTegic.value.DoubleValue
4.333

@<SCITEGIC>MOL_PROPERTY
Idih
SciTegic.value.DoubleValue
0.001

@<SCITEGIC>MOL_PROPERTY
Tether
SciTegic.value.DoubleValue
0.000

@<TRIPOS>MOLECULE
guest-7_confgen4.mol2 : confsearch ligand conformer 953
          19          18           1
SMALL
USER_CHARGES
 
@<TRIPOS>ATOM
       1    C1      17.648832   18.467352   24.343900 C.2        1 MOL1         0.6115
       2    O1      17.779125   18.685399   25.532078 O.co2      1 MOL1        -0.6776
       3    O2      16.570500   18.367075   23.793077 O.co2      1 MOL1        -0.6776
       4    C2      18.907420   18.333470   23.493962 C.3        1 MOL1        -0.2013
       5    H1      18.693688   17.617546   22.692330 H          1 MOL1         0.0727
       6    H2      19.695385   17.896694   24.119141 H          1 MOL1         0.0727
       7    C3      19.381078   19.687859   22.905354 C.3        1 MOL1        -0.1910
       8    H3      18.601642   20.094084   22.245983 H          1 MOL1         0.0729
       9    H4      19.498028   20.407669   23.727315 H          1 MOL1         0.0729
      10    C4      20.719795   19.592696   22.135735 C.3        1 MOL1        -0.1909
      11    H5      21.498830   19.194275   22.800093 H          1 MOL1         0.0729
      12    H6      21.036176   20.607955   21.859752 H          1 MOL1         0.0729
      13    C5      20.633564   18.728890   20.857488 C.3        1 MOL1        -0.1884
      14    H7      20.392352   17.689993   21.118006 H          1 MOL1         0.0729
      15    H8      19.820581   19.096130   20.216035 H          1 MOL1         0.0729
      16    C6      21.958300   18.753065   20.068972 C.3        1 MOL1        -0.2899
      17    H9      21.882326   18.133136   19.166195 H          1 MOL1         0.0741
      18    H10     22.212167   19.774870   19.757761 H          1 MOL1         0.0741
      19    H11     22.784860   18.364699   20.678378 H          1 MOL1         0.0741
@<TRIPOS>BOND
    1     1     2    1
    2     1     3    2
    3     1     4    1
    4     4     5    1
    5     4     6    1
    6     4     7    1
    7     7     8    1
    8     7     9    1
    9     7    10    1
   10    10    11    1
   11    10    12    1
   12    10    13    1
   13    13    14    1
   14    13    15    1
   15    13    16    1
   16    16    17    1
   17    16    18    1
   18    16    19    1
@<TRIPOS>SUBSTRUCTURE
       1 MOL1            1 RESIDUE      1      MOL     
@<SCITEGIC>MOL_PROPERTY
VConf Rank
SciTegic.value.IntegerValue
953

@<SCITEGIC>MOL_PROPERTY
Conf_Id
SciTegic.value.IntegerValue
34

@<SCITEGIC>MOL_PROPERTY
Delta U+W
SciTegic.value.DoubleValue
-0.563

@<SCITEGIC>MOL_PROPERTY
U+W
SciTegic.value.DoubleValue
-55.455

@<SCITEGIC>MOL_PROPERTY
Grad RMS
SciTegic.value.DoubleValue
0.000000

@<SCITEGIC>MOL_PROPERTY
U
SciTegic.value.DoubleValue
6.914

@<SCITEGIC>MOL_PROPERTY
W
SciTegic.value.DoubleValue
-62.369

@<SCITEGIC>MOL_PROPERTY
W(PB)
SciTegic.value.DoubleValue
-64.446

@<SCITEGIC>MOL_PROPERTY
W(SA)
SciTegic.value.DoubleValue
2.077

@<SCITEGIC>MOL_PROPERTY
Valence
SciTegic.value.DoubleValue
7.196

@<SCITEGIC>MOL_PROPERTY
Coulomb
SciTegic.value.DoubleValue
-1.020

@<SCITEGIC>MOL_PROPERTY
VdW
SciTegic.value.DoubleValue
0.738

@<SCITEGIC>MOL_PROPERTY
VdW6
SciTegic.value.DoubleValue
-6.010

@<SCITEGIC>MOL_PROPERTY
VdW12
SciTegic.value.DoubleValue
6.748

@<SCITEGIC>MOL_PROPERTY
Bond
SciTegic.value.DoubleValue
0.126

@<SCITEGIC>MOL_PROPERTY
Angle
SciTegic.value.DoubleValue
2.499

@<SCITEGIC>MOL_PROPERTY
Pdih
SciTegic.value.DoubleValue
4.570

@<SCITEGIC>MOL_PROPERTY
Idih
SciTegic.value.DoubleValue
0.001

@<SCITEGIC>MOL_PROPERTY
Tether
SciTegic.value.DoubleValue
0.000

@<TRIPOS>MOLECULE
guest-7_confgen4.mol2 : confsearch ligand conformer 954
          19          18           1
SMALL
USER_CHARGES
 
@<TRIPOS>ATOM
       1    C1      20.245163   16.448628   24.218501 C.2        1 MOL1         0.6115
       2    O1      21.309558   15.979721   24.569898 O.co2      1 MOL1        -0.6776
       3    O2      19.185171   15.864413   24.325136 O.co2      1 MOL1        -0.6776
       4    C2      20.242539   17.837257   23.589166 C.3        1 MOL1        -0.2013
       5    H1      21.053412   18.418625   24.044147 H          1 MOL1         0.0727
       6    H2      19.299826   18.324958   23.861721 H          1 MOL1         0.0727
       7    C3      20.412185   17.798144   22.048105 C.3        1 MOL1        -0.1910
       8    H3      21.317932   17.224317   21.807756 H          1 MOL1         0.0729
       9    H4      19.570848   17.251587   21.600068 H          1 MOL1         0.0729
      10    C4      20.527918   19.199782   21.403480 C.3        1 MOL1        -0.1909
      11    H5      20.763211   19.074935   20.337618 H          1 MOL1         0.0729
      12    H6      21.375075   19.740352   21.847460 H          1 MOL1         0.0729
      13    C5      19.242046   20.045931   21.537933 C.3        1 MOL1        -0.1884
      14    H7      18.385483   19.484412   21.140107 H          1 MOL1         0.0729
      15    H8      19.030111   20.247297   22.596186 H          1 MOL1         0.0729
      16    C6      19.367505   21.387255   20.788017 C.3        1 MOL1        -0.2899
      17    H9      20.200735   21.982126   21.184581 H          1 MOL1         0.0741
      18    H10     19.542063   21.223926   19.716458 H          1 MOL1         0.0741
      19    H11     18.448265   21.977674   20.895231 H          1 MOL1         0.0741
@<TRIPOS>BOND
    1     1     2    1
    2     1     3    2
    3     1     4    1
    4     4     5    1
    5     4     6    1
    6     4     7    1
    7     7     8    1
    8     7     9    1
    9     7    10    1
   10    10    11    1
   11    10    12    1
   12    10    13    1
   13    13    14    1
   14    13    15    1
   15    13    16    1
   16    16    17    1
   17    16    18    1
   18    16    19    1
@<TRIPOS>SUBSTRUCTURE
       1 MOL1            1 RESIDUE      1      MOL     
@<SCITEGIC>MOL_PROPERTY
VConf Rank
SciTegic.value.IntegerValue
954

@<SCITEGIC>MOL_PROPERTY
Conf_Id
SciTegic.value.IntegerValue
33

@<SCITEGIC>MOL_PROPERTY
Delta U+W
SciTegic.value.DoubleValue
-0.526

@<SCITEGIC>MOL_PROPERTY
U+W
SciTegic.value.DoubleValue
-55.418

@<SCITEGIC>MOL_PROPERTY
Grad RMS
SciTegic.value.DoubleValue
0.000000

@<SCITEGIC>MOL_PROPERTY
U
SciTegic.value.DoubleValue
6.914

@<SCITEGIC>MOL_PROPERTY
W
SciTegic.value.DoubleValue
-62.332

@<SCITEGIC>MOL_PROPERTY
W(PB)
SciTegic.value.DoubleValue
-64.421

@<SCITEGIC>MOL_PROPERTY
W(SA)
SciTegic.value.DoubleValue
2.090

@<SCITEGIC>MOL_PROPERTY
Valence
SciTegic.value.DoubleValue
7.196

@<SCITEGIC>MOL_PROPERTY
Coulomb
SciTegic.value.DoubleValue
-1.020

@<SCITEGIC>MOL_PROPERTY
VdW
SciTegic.value.DoubleValue
0.738

@<SCITEGIC>MOL_PROPERTY
VdW6
SciTegic.value.DoubleValue
-6.010

@<SCITEGIC>MOL_PROPERTY
VdW12
SciTegic.value.DoubleValue
6.748

@<SCITEGIC>MOL_PROPERTY
Bond
SciTegic.value.DoubleValue
0.126

@<SCITEGIC>MOL_PROPERTY
Angle
SciTegic.value.DoubleValue
2.499

@<SCITEGIC>MOL_PROPERTY
Pdih
SciTegic.value.DoubleValue
4.570

@<SCITEGIC>MOL_PROPERTY
Idih
SciTegic.value.DoubleValue
0.001

@<SCITEGIC>MOL_PROPERTY
Tether
SciTegic.value.DoubleValue
0.000

@<TRIPOS>MOLECULE
guest-7_confgen4.mol2 : confsearch ligand conformer 955
          19          18           1
SMALL
USER_CHARGES
 
@<TRIPOS>ATOM
       1    C1      18.819637   18.190444   25.114043 C.2        1 MOL1         0.6115
       2    O1      19.705114   17.668923   25.762245 O.co2      1 MOL1        -0.6776
       3    O2      17.968424   18.911065   25.596108 O.co2      1 MOL1        -0.6776
       4    C2      18.784988   17.941087   23.610340 C.3        1 MOL1        -0.2013
       5    H1      17.736879   17.949924   23.287745 H          1 MOL1         0.0727
       6    H2      19.173468   16.932804   23.422791 H          1 MOL1         0.0727
       7    C3      19.600488   18.984848   22.807866 C.3        1 MOL1        -0.1910
       8    H3      19.205818   19.989446   23.013432 H          1 MOL1         0.0729
       9    H4      20.640239   18.970818   23.160487 H          1 MOL1         0.0729
      10    C4      19.550698   18.705847   21.287886 C.3        1 MOL1        -0.1909
      11    H5      18.500909   18.652851   20.968312 H          1 MOL1         0.0729
      12    H6      19.990401   17.721303   21.077311 H          1 MOL1         0.0729
      13    C5      20.267412   19.783634   20.442142 C.3        1 MOL1        -0.1884
      14    H7      20.085161   19.576053   19.378686 H          1 MOL1         0.0729
      15    H8      19.826573   20.769269   20.645888 H          1 MOL1         0.0729
      16    C6      21.791429   19.836258   20.683912 C.3        1 MOL1        -0.2899
      17    H9      22.250314   18.853463   20.514510 H          1 MOL1         0.0741
      18    H10     22.263992   20.552373   19.999218 H          1 MOL1         0.0741
      19    H11     22.024047   20.153404   21.708144 H          1 MOL1         0.0741
@<TRIPOS>BOND
    1     1     2    1
    2     1     3    2
    3     1     4    1
    4     4     5    1
    5     4     6    1
    6     4     7    1
    7     7     8    1
    8     7     9    1
    9     7    10    1
   10    10    11    1
   11    10    12    1
   12    10    13    1
   13    13    14    1
   14    13    15    1
   15    13    16    1
   16    16    17    1
   17    16    18    1
   18    16    19    1
@<TRIPOS>SUBSTRUCTURE
       1 MOL1            1 RESIDUE      1      MOL     
@<SCITEGIC>MOL_PROPERTY
VConf Rank
SciTegic.value.IntegerValue
955

@<SCITEGIC>MOL_PROPERTY
Conf_Id
SciTegic.value.IntegerValue
42

@<SCITEGIC>MOL_PROPERTY
Delta U+W
SciTegic.value.DoubleValue
-0.344

@<SCITEGIC>MOL_PROPERTY
U+W
SciTegic.value.DoubleValue
-55.236

@<SCITEGIC>MOL_PROPERTY
Grad RMS
SciTegic.value.DoubleValue
0.000000

@<SCITEGIC>MOL_PROPERTY
U
SciTegic.value.DoubleValue
7.244

@<SCITEGIC>MOL_PROPERTY
W
SciTegic.value.DoubleValue
-62.479

@<SCITEGIC>MOL_PROPERTY
W(PB)
SciTegic.value.DoubleValue
-64.610

@<SCITEGIC>MOL_PROPERTY
W(SA)
SciTegic.value.DoubleValue
2.130

@<SCITEGIC>MOL_PROPERTY
Valence
SciTegic.value.DoubleValue
7.174

@<SCITEGIC>MOL_PROPERTY
Coulomb
SciTegic.value.DoubleValue
-0.669

@<SCITEGIC>MOL_PROPERTY
VdW
SciTegic.value.DoubleValue
0.739

@<SCITEGIC>MOL_PROPERTY
VdW6
SciTegic.value.DoubleValue
-5.969

@<SCITEGIC>MOL_PROPERTY
VdW12
SciTegic.value.DoubleValue
6.708

@<SCITEGIC>MOL_PROPERTY
Bond
SciTegic.value.DoubleValue
0.116

@<SCITEGIC>MOL_PROPERTY
Angle
SciTegic.value.DoubleValue
2.481

@<SCITEGIC>MOL_PROPERTY
Pdih
SciTegic.value.DoubleValue
4.576

@<SCITEGIC>MOL_PROPERTY
Idih
SciTegic.value.DoubleValue
0.000

@<SCITEGIC>MOL_PROPERTY
Tether
SciTegic.value.DoubleValue
0.000

@<TRIPOS>MOLECULE
guest-7_confgen4.mol2 : confsearch ligand conformer 956
          19          18           1
SMALL
USER_CHARGES
 
@<TRIPOS>ATOM
       1    C1      22.532268   20.714309   23.123224 C.2        1 MOL1         0.6115
       2    O1      22.946023   21.348216   22.172861 O.co2      1 MOL1        -0.6776
       3    O2      23.248444   20.269925   23.998358 O.co2      1 MOL1        -0.6776
       4    C2      21.034107   20.446118   23.213143 C.3        1 MOL1        -0.2013
       5    H1      20.507752   21.297023   22.764101 H          1 MOL1         0.0727
       6    H2      20.756561   20.416225   24.273687 H          1 MOL1         0.0727
       7    C3      20.614882   19.129781   22.513177 C.3        1 MOL1        -0.1910
       8    H3      20.919194   19.175280   21.459163 H          1 MOL1         0.0729
       9    H4      21.156996   18.288890   22.967328 H          1 MOL1         0.0729
      10    C4      19.091682   18.885250   22.616743 C.3        1 MOL1        -0.1909
      11    H5      18.550670   19.701859   22.119288 H          1 MOL1         0.0729
      12    H6      18.795948   18.914674   23.674414 H          1 MOL1         0.0729
      13    C5      18.645469   17.530565   22.019825 C.3        1 MOL1        -0.1884
      14    H7      19.180438   16.710739   22.518843 H          1 MOL1         0.0729
      15    H8      17.578768   17.383316   22.238256 H          1 MOL1         0.0729
      16    C6      18.857617   17.436029   20.493421 C.3        1 MOL1        -0.2899
      17    H9      19.923426   17.463111   20.234456 H          1 MOL1         0.0741
      18    H10     18.445734   16.495014   20.106400 H          1 MOL1         0.0741
      19    H11     18.355536   18.263229   19.974951 H          1 MOL1         0.0741
@<TRIPOS>BOND
    1     1     2    1
    2     1     3    2
    3     1     4    1
    4     4     5    1
    5     4     6    1
    6     4     7    1
    7     7     8    1
    8     7     9    1
    9     7    10    1
   10    10    11    1
   11    10    12    1
   12    10    13    1
   13    13    14    1
   14    13    15    1
   15    13    16    1
   16    16    17    1
   17    16    18    1
   18    16    19    1
@<TRIPOS>SUBSTRUCTURE
       1 MOL1            1 RESIDUE      1      MOL     
@<SCITEGIC>MOL_PROPERTY
VConf Rank
SciTegic.value.IntegerValue
956

@<SCITEGIC>MOL_PROPERTY
Conf_Id
SciTegic.value.IntegerValue
41

@<SCITEGIC>MOL_PROPERTY
Delta U+W
SciTegic.value.DoubleValue
-0.361

@<SCITEGIC>MOL_PROPERTY
U+W
SciTegic.value.DoubleValue
-55.252

@<SCITEGIC>MOL_PROPERTY
Grad RMS
SciTegic.value.DoubleValue
0.000000

@<SCITEGIC>MOL_PROPERTY
U
SciTegic.value.DoubleValue
7.244

@<SCITEGIC>MOL_PROPERTY
W
SciTegic.value.DoubleValue
-62.496

@<SCITEGIC>MOL_PROPERTY
W(PB)
SciTegic.value.DoubleValue
-64.596

@<SCITEGIC>MOL_PROPERTY
W(SA)
SciTegic.value.DoubleValue
2.099

@<SCITEGIC>MOL_PROPERTY
Valence
SciTegic.value.DoubleValue
7.174

@<SCITEGIC>MOL_PROPERTY
Coulomb
SciTegic.value.DoubleValue
-0.669

@<SCITEGIC>MOL_PROPERTY
VdW
SciTegic.value.DoubleValue
0.739

@<SCITEGIC>MOL_PROPERTY
VdW6
SciTegic.value.DoubleValue
-5.969

@<SCITEGIC>MOL_PROPERTY
VdW12
SciTegic.value.DoubleValue
6.708

@<SCITEGIC>MOL_PROPERTY
Bond
SciTegic.value.DoubleValue
0.116

@<SCITEGIC>MOL_PROPERTY
Angle
SciTegic.value.DoubleValue
2.481

@<SCITEGIC>MOL_PROPERTY
Pdih
SciTegic.value.DoubleValue
4.576

@<SCITEGIC>MOL_PROPERTY
Idih
SciTegic.value.DoubleValue
0.000

@<SCITEGIC>MOL_PROPERTY
Tether
SciTegic.value.DoubleValue
0.000

@<TRIPOS>MOLECULE
guest-7_confgen4.mol2 : confsearch ligand conformer 957
          19          18           1
SMALL
USER_CHARGES
 
@<TRIPOS>ATOM
       1    C1      19.409530   20.917058   24.413762 C.2        1 MOL1         0.6115
       2    O1      19.093670   20.180505   25.327147 O.co2      1 MOL1        -0.6776
       3    O2      20.276349   21.764043   24.502768 O.co2      1 MOL1        -0.6776
       4    C2      18.663248   20.788087   23.088706 C.3        1 MOL1        -0.2013
       5    H1      18.393494   21.800111   22.764435 H          1 MOL1         0.0727
       6    H2      17.723698   20.250859   23.266523 H          1 MOL1         0.0727
       7    C3      19.477698   20.086344   21.970977 C.3        1 MOL1        -0.1910
       8    H3      18.923628   20.161825   21.025544 H          1 MOL1         0.0729
       9    H4      20.427844   20.618623   21.824231 H          1 MOL1         0.0729
      10    C4      19.753962   18.598300   22.281962 C.3        1 MOL1        -0.1909
      11    H5      18.801901   18.073493   22.440670 H          1 MOL1         0.0729
      12    H6      20.323119   18.515128   23.218213 H          1 MOL1         0.0729
      13    C5      20.537438   17.912673   21.143241 C.3        1 MOL1        -0.1884
      14    H7      19.970879   17.989050   20.204834 H          1 MOL1         0.0729
      15    H8      21.491426   18.434226   20.983983 H          1 MOL1         0.0729
      16    C6      20.811421   16.428152   21.456459 C.3        1 MOL1        -0.2899
      17    H9      19.872371   15.875134   21.589738 H          1 MOL1         0.0741
      18    H10     21.369357   15.956437   20.637143 H          1 MOL1         0.0741
      19    H11     21.404186   16.323560   22.374681 H          1 MOL1         0.0741
@<TRIPOS>BOND
    1     1     2    1
    2     1     3    2
    3     1     4    1
    4     4     5    1
    5     4     6    1
    6     4     7    1
    7     7     8    1
    8     7     9    1
    9     7    10    1
   10    10    11    1
   11    10    12    1
   12    10    13    1
   13    13    14    1
   14    13    15    1
   15    13    16    1
   16    16    17    1
   17    16    18    1
   18    16    19    1
@<TRIPOS>SUBSTRUCTURE
       1 MOL1            1 RESIDUE      1      MOL     
@<SCITEGIC>MOL_PROPERTY
VConf Rank
SciTegic.value.IntegerValue
957

@<SCITEGIC>MOL_PROPERTY
Conf_Id
SciTegic.value.IntegerValue
36

@<SCITEGIC>MOL_PROPERTY
Delta U+W
SciTegic.value.DoubleValue
-0.079

@<SCITEGIC>MOL_PROPERTY
U+W
SciTegic.value.DoubleValue
-54.971

@<SCITEGIC>MOL_PROPERTY
Grad RMS
SciTegic.value.DoubleValue
0.000000

@<SCITEGIC>MOL_PROPERTY
U
SciTegic.value.DoubleValue
8.266

@<SCITEGIC>MOL_PROPERTY
W
SciTegic.value.DoubleValue
-63.237

@<SCITEGIC>MOL_PROPERTY
W(PB)
SciTegic.value.DoubleValue
-65.340

@<SCITEGIC>MOL_PROPERTY
W(SA)
SciTegic.value.DoubleValue
2.103

@<SCITEGIC>MOL_PROPERTY
Valence
SciTegic.value.DoubleValue
6.935

@<SCITEGIC>MOL_PROPERTY
Coulomb
SciTegic.value.DoubleValue
0.874

@<SCITEGIC>MOL_PROPERTY
VdW
SciTegic.value.DoubleValue
0.457

@<SCITEGIC>MOL_PROPERTY
VdW6
SciTegic.value.DoubleValue
-6.205

@<SCITEGIC>MOL_PROPERTY
VdW12
SciTegic.value.DoubleValue
6.662

@<SCITEGIC>MOL_PROPERTY
Bond
SciTegic.value.DoubleValue
0.107

@<SCITEGIC>MOL_PROPERTY
Angle
SciTegic.value.DoubleValue
2.420

@<SCITEGIC>MOL_PROPERTY
Pdih
SciTegic.value.DoubleValue
4.407

@<SCITEGIC>MOL_PROPERTY
Idih
SciTegic.value.DoubleValue
0.001

@<SCITEGIC>MOL_PROPERTY
Tether
SciTegic.value.DoubleValue
0.000

@<TRIPOS>MOLECULE
guest-7_confgen4.mol2 : confsearch ligand conformer 958
          19          18           1
SMALL
USER_CHARGES
 
@<TRIPOS>ATOM
       1    C1      21.077503   19.694821   19.739492 C.2        1 MOL1         0.6115
       2    O1      21.653776   20.729512   20.011294 O.co2      1 MOL1        -0.6776
       3    O2      20.250545   19.598960   18.854263 O.co2      1 MOL1        -0.6776
       4    C2      21.425257   18.441358   20.537768 C.3        1 MOL1        -0.2013
       5    H1      22.389217   18.599703   21.036462 H          1 MOL1         0.0727
       6    H2      21.569694   17.625132   19.820116 H          1 MOL1         0.0727
       7    C3      20.346721   18.033778   21.574942 C.3        1 MOL1        -0.1910
       8    H3      19.381424   17.906740   21.065339 H          1 MOL1         0.0729
       9    H4      20.611688   17.055694   21.998829 H          1 MOL1         0.0729
      10    C4      20.203366   19.062601   22.718744 C.3        1 MOL1        -0.1909
      11    H5      19.921537   20.040401   22.304133 H          1 MOL1         0.0729
      12    H6      21.173684   19.195776   23.216516 H          1 MOL1         0.0729
      13    C5      19.148289   18.621782   23.754648 C.3        1 MOL1        -0.1884
      14    H7      18.176052   18.490121   23.259779 H          1 MOL1         0.0729
      15    H8      19.427198   17.646022   24.175994 H          1 MOL1         0.0729
      16    C6      19.007634   19.650320   24.894518 C.3        1 MOL1        -0.2899
      17    H9      18.698593   20.628942   24.504345 H          1 MOL1         0.0741
      18    H10     18.253529   19.321603   25.621400 H          1 MOL1         0.0741
      19    H11     19.958979   19.778552   25.427347 H          1 MOL1         0.0741
@<TRIPOS>BOND
    1     1     2    1
    2     1     3    2
    3     1     4    1
    4     4     5    1
    5     4     6    1
    6     4     7    1
    7     7     8    1
    8     7     9    1
    9     7    10    1
   10    10    11    1
   11    10    12    1
   12    10    13    1
   13    13    14    1
   14    13    15    1
   15    13    16    1
   16    16    17    1
   17    16    18    1
   18    16    19    1
@<TRIPOS>SUBSTRUCTURE
       1 MOL1            1 RESIDUE      1      MOL     
@<SCITEGIC>MOL_PROPERTY
VConf Rank
SciTegic.value.IntegerValue
958

@<SCITEGIC>MOL_PROPERTY
Conf_Id
SciTegic.value.IntegerValue
35

@<SCITEGIC>MOL_PROPERTY
Delta U+W
SciTegic.value.DoubleValue
-0.030

@<SCITEGIC>MOL_PROPERTY
U+W
SciTegic.value.DoubleValue
-54.921

@<SCITEGIC>MOL_PROPERTY
Grad RMS
SciTegic.value.DoubleValue
0.000000

@<SCITEGIC>MOL_PROPERTY
U
SciTegic.value.DoubleValue
8.267

@<SCITEGIC>MOL_PROPERTY
W
SciTegic.value.DoubleValue
-63.188

@<SCITEGIC>MOL_PROPERTY
W(PB)
SciTegic.value.DoubleValue
-65.294

@<SCITEGIC>MOL_PROPERTY
W(SA)
SciTegic.value.DoubleValue
2.106

@<SCITEGIC>MOL_PROPERTY
Valence
SciTegic.value.DoubleValue
6.935

@<SCITEGIC>MOL_PROPERTY
Coulomb
SciTegic.value.DoubleValue
0.875

@<SCITEGIC>MOL_PROPERTY
VdW
SciTegic.value.DoubleValue
0.457

@<SCITEGIC>MOL_PROPERTY
VdW6
SciTegic.value.DoubleValue
-6.205

@<SCITEGIC>MOL_PROPERTY
VdW12
SciTegic.value.DoubleValue
6.662

@<SCITEGIC>MOL_PROPERTY
Bond
SciTegic.value.DoubleValue
0.107

@<SCITEGIC>MOL_PROPERTY
Angle
SciTegic.value.DoubleValue
2.420

@<SCITEGIC>MOL_PROPERTY
Pdih
SciTegic.value.DoubleValue
4.407

@<SCITEGIC>MOL_PROPERTY
Idih
SciTegic.value.DoubleValue
0.001

@<SCITEGIC>MOL_PROPERTY
Tether
SciTegic.value.DoubleValue
0.000

@<TRIPOS>MOLECULE
guest-7_confgen4.mol2 : confsearch ligand conformer 959
          19          18           1
SMALL
USER_CHARGES
 
@<TRIPOS>ATOM
       1    C1      21.960137   19.078911   24.545576 C.2        1 MOL1         0.6115
       2    O1      21.862400   20.119971   25.164729 O.co2      1 MOL1        -0.6776
       3    O2      23.019574   18.619372   24.167342 O.co2      1 MOL1        -0.6776
       4    C2      20.683953   18.296876   24.246820 C.3        1 MOL1        -0.2013
       5    H1      20.096331   18.263943   25.171866 H          1 MOL1         0.0727
       6    H2      20.955056   17.261713   24.006197 H          1 MOL1         0.0727
       7    C3      19.822175   18.902510   23.108283 C.3        1 MOL1        -0.1910
       8    H3      18.864766   18.367215   23.073973 H          1 MOL1         0.0729
       9    H4      19.591806   19.950599   23.344440 H          1 MOL1         0.0729
      10    C4      20.516202   18.816029   21.727873 C.3        1 MOL1        -0.1909
      11    H5      20.710961   17.764517   21.476459 H          1 MOL1         0.0729
      12    H6      21.497191   19.307301   21.785631 H          1 MOL1         0.0729
      13    C5      19.705508   19.478879   20.590228 C.3        1 MOL1        -0.1884
      14    H7      19.510944   20.531536   20.837957 H          1 MOL1         0.0729
      15    H8      20.317852   19.483011   19.677957 H          1 MOL1         0.0729
      16    C6      18.372248   18.760488   20.289647 C.3        1 MOL1        -0.2899
      17    H9      17.677963   18.832780   21.136031 H          1 MOL1         0.0741
      18    H10     17.881110   19.212464   19.418190 H          1 MOL1         0.0741
      19    H11     18.539251   17.697938   20.069998 H          1 MOL1         0.0741
@<TRIPOS>BOND
    1     1     2    1
    2     1     3    2
    3     1     4    1
    4     4     5    1
    5     4     6    1
    6     4     7    1
    7     7     8    1
    8     7     9    1
    9     7    10    1
   10    10    11    1
   11    10    12    1
   12    10    13    1
   13    13    14    1
   14    13    15    1
   15    13    16    1
   16    16    17    1
   17    16    18    1
   18    16    19    1
@<TRIPOS>SUBSTRUCTURE
       1 MOL1            1 RESIDUE      1      MOL     
@<SCITEGIC>MOL_PROPERTY
VConf Rank
SciTegic.value.IntegerValue
959

@<SCITEGIC>MOL_PROPERTY
Conf_Id
SciTegic.value.IntegerValue
74

@<SCITEGIC>MOL_PROPERTY
Delta U+W
SciTegic.value.DoubleValue
0.797

@<SCITEGIC>MOL_PROPERTY
U+W
SciTegic.value.DoubleValue
-54.095

@<SCITEGIC>MOL_PROPERTY
Grad RMS
SciTegic.value.DoubleValue
0.000000

@<SCITEGIC>MOL_PROPERTY
U
SciTegic.value.DoubleValue
8.869

@<SCITEGIC>MOL_PROPERTY
W
SciTegic.value.DoubleValue
-62.964

@<SCITEGIC>MOL_PROPERTY
W(PB)
SciTegic.value.DoubleValue
-65.046

@<SCITEGIC>MOL_PROPERTY
W(SA)
SciTegic.value.DoubleValue
2.082

@<SCITEGIC>MOL_PROPERTY
Valence
SciTegic.value.DoubleValue
7.469

@<SCITEGIC>MOL_PROPERTY
Coulomb
SciTegic.value.DoubleValue
0.762

@<SCITEGIC>MOL_PROPERTY
VdW
SciTegic.value.DoubleValue
0.639

@<SCITEGIC>MOL_PROPERTY
VdW6
SciTegic.value.DoubleValue
-6.782

@<SCITEGIC>MOL_PROPERTY
VdW12
SciTegic.value.DoubleValue
7.421

@<SCITEGIC>MOL_PROPERTY
Bond
SciTegic.value.DoubleValue
0.141

@<SCITEGIC>MOL_PROPERTY
Angle
SciTegic.value.DoubleValue
2.667

@<SCITEGIC>MOL_PROPERTY
Pdih
SciTegic.value.DoubleValue
4.660

@<SCITEGIC>MOL_PROPERTY
Idih
SciTegic.value.DoubleValue
0.001

@<SCITEGIC>MOL_PROPERTY
Tether
SciTegic.value.DoubleValue
0.000

@<TRIPOS>MOLECULE
guest-7_confgen4.mol2 : confsearch ligand conformer 960
          19          18           1
SMALL
USER_CHARGES
 
@<TRIPOS>ATOM
       1    C1      18.130971   16.662499   22.504532 C.2        1 MOL1         0.6115
       2    O1      17.063421   16.487606   21.951204 O.co2      1 MOL1        -0.6776
       3    O2      18.816134   15.760230   22.943604 O.co2      1 MOL1        -0.6776
       4    C2      18.647216   18.090738   22.638109 C.3        1 MOL1        -0.2013
       5    H1      19.222037   18.152123   23.569222 H          1 MOL1         0.0727
       6    H2      17.783018   18.757361   22.743617 H          1 MOL1         0.0727
       7    C3      19.517610   18.530069   21.432293 C.3        1 MOL1        -0.1910
       8    H3      20.399343   17.879667   21.359479 H          1 MOL1         0.0729
       9    H4      18.945476   18.370440   20.507965 H          1 MOL1         0.0729
      10    C4      19.953426   20.015753   21.491758 C.3        1 MOL1        -0.1909
      11    H5      19.057581   20.650792   21.460420 H          1 MOL1         0.0729
      12    H6      20.524465   20.252201   20.583580 H          1 MOL1         0.0729
      13    C5      20.797817   20.406688   22.729527 C.3        1 MOL1        -0.1884
      14    H7      21.032018   21.478371   22.668492 H          1 MOL1         0.0729
      15    H8      20.208622   20.277110   23.646951 H          1 MOL1         0.0729
      16    C6      22.118794   19.615791   22.843109 C.3        1 MOL1        -0.2899
      17    H9      22.714753   19.712561   21.926322 H          1 MOL1         0.0741
      18    H10     22.721142   19.992113   23.679992 H          1 MOL1         0.0741
      19    H11     21.930943   18.549453   23.021720 H          1 MOL1         0.0741
@<TRIPOS>BOND
    1     1     2    1
    2     1     3    2
    3     1     4    1
    4     4     5    1
    5     4     6    1
    6     4     7    1
    7     7     8    1
    8     7     9    1
    9     7    10    1
   10    10    11    1
   11    10    12    1
   12    10    13    1
   13    13    14    1
   14    13    15    1
   15    13    16    1
   16    16    17    1
   17    16    18    1
   18    16    19    1
@<TRIPOS>SUBSTRUCTURE
       1 MOL1            1 RESIDUE      1      MOL     
@<SCITEGIC>MOL_PROPERTY
VConf Rank
SciTegic.value.IntegerValue
960

@<SCITEGIC>MOL_PROPERTY
Conf_Id
SciTegic.value.IntegerValue
67

@<SCITEGIC>MOL_PROPERTY
Delta U+W
SciTegic.value.DoubleValue
0.308

@<SCITEGIC>MOL_PROPERTY
U+W
SciTegic.value.DoubleValue
-54.583

@<SCITEGIC>MOL_PROPERTY
Grad RMS
SciTegic.value.DoubleValue
0.000000

@<SCITEGIC>MOL_PROPERTY
U
SciTegic.value.DoubleValue
8.219

@<SCITEGIC>MOL_PROPERTY
W
SciTegic.value.DoubleValue
-62.802

@<SCITEGIC>MOL_PROPERTY
W(PB)
SciTegic.value.DoubleValue
-64.859

@<SCITEGIC>MOL_PROPERTY
W(SA)
SciTegic.value.DoubleValue
2.057

@<SCITEGIC>MOL_PROPERTY
Valence
SciTegic.value.DoubleValue
7.609

@<SCITEGIC>MOL_PROPERTY
Coulomb
SciTegic.value.DoubleValue
-0.089

@<SCITEGIC>MOL_PROPERTY
VdW
SciTegic.value.DoubleValue
0.699

@<SCITEGIC>MOL_PROPERTY
VdW6
SciTegic.value.DoubleValue
-6.924

@<SCITEGIC>MOL_PROPERTY
VdW12
SciTegic.value.DoubleValue
7.623

@<SCITEGIC>MOL_PROPERTY
Bond
SciTegic.value.DoubleValue
0.163

@<SCITEGIC>MOL_PROPERTY
Angle
SciTegic.value.DoubleValue
2.870

@<SCITEGIC>MOL_PROPERTY
Pdih
SciTegic.value.DoubleValue
4.576

@<SCITEGIC>MOL_PROPERTY
Idih
SciTegic.value.DoubleValue
0.001

@<SCITEGIC>MOL_PROPERTY
Tether
SciTegic.value.DoubleValue
0.000

@<TRIPOS>MOLECULE
guest-7_confgen4.mol2 : confsearch ligand conformer 961
          19          18           1
SMALL
USER_CHARGES
 
@<TRIPOS>ATOM
       1    C1      21.815659   18.582774   20.039567 C.2        1 MOL1         0.6115
       2    O1      22.926716   18.091344   20.017832 O.co2      1 MOL1        -0.6776
       3    O2      21.414425   19.374021   19.209349 O.co2      1 MOL1        -0.6776
       4    C2      20.881423   18.200210   21.181960 C.3        1 MOL1        -0.2013
       5    H1      21.102557   17.166044   21.471715 H          1 MOL1         0.0727
       6    H2      19.856199   18.218345   20.794989 H          1 MOL1         0.0727
       7    C3      21.016004   19.139740   22.408238 C.3        1 MOL1        -0.1910
       8    H3      22.070667   19.170222   22.714761 H          1 MOL1         0.0729
       9    H4      20.755411   20.165463   22.115387 H          1 MOL1         0.0729
      10    C4      20.162180   18.698123   23.623426 C.3        1 MOL1        -0.1909
      11    H5      20.350539   19.389176   24.456340 H          1 MOL1         0.0729
      12    H6      20.509327   17.712672   23.962792 H          1 MOL1         0.0729
      13    C5      18.636634   18.627544   23.367243 C.3        1 MOL1        -0.1884
      14    H7      18.414190   17.865073   22.609110 H          1 MOL1         0.0729
      15    H8      18.142616   18.291466   24.289240 H          1 MOL1         0.0729
      16    C6      18.025011   19.979455   22.941037 C.3        1 MOL1        -0.2899
      17    H9      18.406727   20.299126   21.963095 H          1 MOL1         0.0741
      18    H10     16.933173   19.899246   22.861838 H          1 MOL1         0.0741
      19    H11     18.254806   20.763304   23.674389 H          1 MOL1         0.0741
@<TRIPOS>BOND
    1     1     2    1
    2     1     3    2
    3     1     4    1
    4     4     5    1
    5     4     6    1
    6     4     7    1
    7     7     8    1
    8     7     9    1
    9     7    10    1
   10    10    11    1
   11    10    12    1
   12    10    13    1
   13    13    14    1
   14    13    15    1
   15    13    16    1
   16    16    17    1
   17    16    18    1
   18    16    19    1
@<TRIPOS>SUBSTRUCTURE
       1 MOL1            1 RESIDUE      1      MOL     
@<SCITEGIC>MOL_PROPERTY
VConf Rank
SciTegic.value.IntegerValue
961

@<SCITEGIC>MOL_PROPERTY
Conf_Id
SciTegic.value.IntegerValue
21

@<SCITEGIC>MOL_PROPERTY
Delta U+W
SciTegic.value.DoubleValue
0.319

@<SCITEGIC>MOL_PROPERTY
U+W
SciTegic.value.DoubleValue
-54.572

@<SCITEGIC>MOL_PROPERTY
Grad RMS
SciTegic.value.DoubleValue
0.000000

@<SCITEGIC>MOL_PROPERTY
U
SciTegic.value.DoubleValue
8.220

@<SCITEGIC>MOL_PROPERTY
W
SciTegic.value.DoubleValue
-62.792

@<SCITEGIC>MOL_PROPERTY
W(PB)
SciTegic.value.DoubleValue
-64.830

@<SCITEGIC>MOL_PROPERTY
W(SA)
SciTegic.value.DoubleValue
2.038

@<SCITEGIC>MOL_PROPERTY
Valence
SciTegic.value.DoubleValue
7.609

@<SCITEGIC>MOL_PROPERTY
Coulomb
SciTegic.value.DoubleValue
-0.088

@<SCITEGIC>MOL_PROPERTY
VdW
SciTegic.value.DoubleValue
0.699

@<SCITEGIC>MOL_PROPERTY
VdW6
SciTegic.value.DoubleValue
-6.924

@<SCITEGIC>MOL_PROPERTY
VdW12
SciTegic.value.DoubleValue
7.623

@<SCITEGIC>MOL_PROPERTY
Bond
SciTegic.value.DoubleValue
0.163

@<SCITEGIC>MOL_PROPERTY
Angle
SciTegic.value.DoubleValue
2.870

@<SCITEGIC>MOL_PROPERTY
Pdih
SciTegic.value.DoubleValue
4.576

@<SCITEGIC>MOL_PROPERTY
Idih
SciTegic.value.DoubleValue
0.000

@<SCITEGIC>MOL_PROPERTY
Tether
SciTegic.value.DoubleValue
0.000

@<TRIPOS>MOLECULE
guest-7_confgen4.mol2 : confsearch ligand conformer 962
          19          18           1
SMALL
USER_CHARGES
 
@<TRIPOS>ATOM
       1    C1      21.095992   21.579133   22.058677 C.2        1 MOL1         0.6115
       2    O1      21.618894   22.300223   22.885140 O.co2      1 MOL1        -0.6776
       3    O2      21.281351   21.683149   20.862401 O.co2      1 MOL1        -0.6776
       4    C2      20.171264   20.471839   22.551488 C.3        1 MOL1        -0.2013
       5    H1      19.397505   20.318172   21.792867 H          1 MOL1         0.0727
       6    H2      19.665023   20.831297   23.455310 H          1 MOL1         0.0727
       7    C3      20.925323   19.150191   22.855186 C.3        1 MOL1        -0.1910
       8    H3      21.481055   18.818967   21.967078 H          1 MOL1         0.0729
       9    H4      21.679086   19.361136   23.626379 H          1 MOL1         0.0729
      10    C4      20.000536   18.015172   23.363562 C.3        1 MOL1        -0.1909
      11    H5      19.141501   18.436676   23.903277 H          1 MOL1         0.0729
      12    H6      20.558641   17.426200   24.104239 H          1 MOL1         0.0729
      13    C5      19.512010   17.038690   22.265503 C.3        1 MOL1        -0.1884
      14    H7      20.377196   16.554921   21.791502 H          1 MOL1         0.0729
      15    H8      18.935738   16.235516   22.745102 H          1 MOL1         0.0729
      16    C6      18.634663   17.694994   21.179583 C.3        1 MOL1        -0.2899
      17    H9      18.216279   16.931288   20.511359 H          1 MOL1         0.0741
      18    H10     17.798838   18.247321   21.628256 H          1 MOL1         0.0741
      19    H11     19.220980   18.387395   20.562647 H          1 MOL1         0.0741
@<TRIPOS>BOND
    1     1     2    1
    2     1     3    2
    3     1     4    1
    4     4     5    1
    5     4     6    1
    6     4     7    1
    7     7     8    1
    8     7     9    1
    9     7    10    1
   10    10    11    1
   11    10    12    1
   12    10    13    1
   13    13    14    1
   14    13    15    1
   15    13    16    1
   16    16    17    1
   17    16    18    1
   18    16    19    1
@<TRIPOS>SUBSTRUCTURE
       1 MOL1            1 RESIDUE      1      MOL     
@<SCITEGIC>MOL_PROPERTY
VConf Rank
SciTegic.value.IntegerValue
962

@<SCITEGIC>MOL_PROPERTY
Conf_Id
SciTegic.value.IntegerValue
24

@<SCITEGIC>MOL_PROPERTY
Delta U+W
SciTegic.value.DoubleValue
2.477

@<SCITEGIC>MOL_PROPERTY
U+W
SciTegic.value.DoubleValue
-52.414

@<SCITEGIC>MOL_PROPERTY
Grad RMS
SciTegic.value.DoubleValue
0.000000

@<SCITEGIC>MOL_PROPERTY
U
SciTegic.value.DoubleValue
10.422

@<SCITEGIC>MOL_PROPERTY
W
SciTegic.value.DoubleValue
-62.836

@<SCITEGIC>MOL_PROPERTY
W(PB)
SciTegic.value.DoubleValue
-64.906

@<SCITEGIC>MOL_PROPERTY
W(SA)
SciTegic.value.DoubleValue
2.070

@<SCITEGIC>MOL_PROPERTY
Valence
SciTegic.value.DoubleValue
9.628

@<SCITEGIC>MOL_PROPERTY
Coulomb
SciTegic.value.DoubleValue
0.101

@<SCITEGIC>MOL_PROPERTY
VdW
SciTegic.value.DoubleValue
0.693

@<SCITEGIC>MOL_PROPERTY
VdW6
SciTegic.value.DoubleValue
-6.927

@<SCITEGIC>MOL_PROPERTY
VdW12
SciTegic.value.DoubleValue
7.620

@<SCITEGIC>MOL_PROPERTY
Bond
SciTegic.value.DoubleValue
0.173

@<SCITEGIC>MOL_PROPERTY
Angle
SciTegic.value.DoubleValue
2.989

@<SCITEGIC>MOL_PROPERTY
Pdih
SciTegic.value.DoubleValue
6.465

@<SCITEGIC>MOL_PROPERTY
Idih
SciTegic.value.DoubleValue
0.001

@<SCITEGIC>MOL_PROPERTY
Tether
SciTegic.value.DoubleValue
0.000

@<TRIPOS>MOLECULE
guest-7_confgen4.mol2 : confsearch ligand conformer 963
          19          18           1
SMALL
USER_CHARGES
 
@<TRIPOS>ATOM
       1    C1      21.340932   17.622643   24.026068 C.2        1 MOL1         0.6115
       2    O1      22.344322   18.300500   23.924052 O.co2      1 MOL1        -0.6776
       3    O2      21.045602   17.008934   25.032654 O.co2      1 MOL1        -0.6776
       4    C2      20.414988   17.510601   22.817636 C.3        1 MOL1        -0.2013
       5    H1      20.200659   16.445435   22.671892 H          1 MOL1         0.0727
       6    H2      20.962944   17.844163   21.930668 H          1 MOL1         0.0727
       7    C3      19.077692   18.286813   22.972795 C.3        1 MOL1        -0.1910
       8    H3      18.385139   17.998773   22.170526 H          1 MOL1         0.0729
       9    H4      18.604428   17.963800   23.910461 H          1 MOL1         0.0729
      10    C4      19.236624   19.829385   22.999057 C.3        1 MOL1        -0.1909
      11    H5      20.209463   20.109011   23.425906 H          1 MOL1         0.0729
      12    H6      18.482366   20.237828   23.685389 H          1 MOL1         0.0729
      13    C5      19.041788   20.522100   21.627893 C.3        1 MOL1        -0.1884
      14    H7      18.032586   20.311445   21.247976 H          1 MOL1         0.0729
      15    H8      19.093137   21.609420   21.777070 H          1 MOL1         0.0729
      16    C6      20.084083   20.120363   20.564039 C.3        1 MOL1        -0.2899
      17    H9      19.955460   19.074345   20.259640 H          1 MOL1         0.0741
      18    H10     19.975057   20.741745   19.665832 H          1 MOL1         0.0741
      19    H11     21.105536   20.250559   20.945049 H          1 MOL1         0.0741
@<TRIPOS>BOND
    1     1     2    1
    2     1     3    2
    3     1     4    1
    4     4     5    1
    5     4     6    1
    6     4     7    1
    7     7     8    1
    8     7     9    1
    9     7    10    1
   10    10    11    1
   11    10    12    1
   12    10    13    1
   13    13    14    1
   14    13    15    1
   15    13    16    1
   16    16    17    1
   17    16    18    1
   18    16    19    1
@<TRIPOS>SUBSTRUCTURE
       1 MOL1            1 RESIDUE      1      MOL     
@<SCITEGIC>MOL_PROPERTY
VConf Rank
SciTegic.value.IntegerValue
963

@<SCITEGIC>MOL_PROPERTY
Conf_Id
SciTegic.value.IntegerValue
4

@<SCITEGIC>MOL_PROPERTY
Delta U+W
SciTegic.value.DoubleValue
3.753

@<SCITEGIC>MOL_PROPERTY
U+W
SciTegic.value.DoubleValue
-51.138

@<SCITEGIC>MOL_PROPERTY
Grad RMS
SciTegic.value.DoubleValue
0.000000

@<SCITEGIC>MOL_PROPERTY
U
SciTegic.value.DoubleValue
12.334

@<SCITEGIC>MOL_PROPERTY
W
SciTegic.value.DoubleValue
-63.472

@<SCITEGIC>MOL_PROPERTY
W(PB)
SciTegic.value.DoubleValue
-65.500

@<SCITEGIC>MOL_PROPERTY
W(SA)
SciTegic.value.DoubleValue
2.028

@<SCITEGIC>MOL_PROPERTY
Valence
SciTegic.value.DoubleValue
9.984

@<SCITEGIC>MOL_PROPERTY
Coulomb
SciTegic.value.DoubleValue
1.767

@<SCITEGIC>MOL_PROPERTY
VdW
SciTegic.value.DoubleValue
0.583

@<SCITEGIC>MOL_PROPERTY
VdW6
SciTegic.value.DoubleValue
-7.767

@<SCITEGIC>MOL_PROPERTY
VdW12
SciTegic.value.DoubleValue
8.349

@<SCITEGIC>MOL_PROPERTY
Bond
SciTegic.value.DoubleValue
0.203

@<SCITEGIC>MOL_PROPERTY
Angle
SciTegic.value.DoubleValue
3.191

@<SCITEGIC>MOL_PROPERTY
Pdih
SciTegic.value.DoubleValue
6.589

@<SCITEGIC>MOL_PROPERTY
Idih
SciTegic.value.DoubleValue
0.001

@<SCITEGIC>MOL_PROPERTY
Tether
SciTegic.value.DoubleValue
0.000

@<TRIPOS>MOLECULE
guest-7_confgen4.mol2 : confsearch ligand conformer 964
          19          18           1
SMALL
USER_CHARGES
 
@<TRIPOS>ATOM
       1    C1      19.876180   21.411661   23.109148 C.2        1 MOL1         0.6115
       2    O1      20.593456   22.040983   23.861838 O.co2      1 MOL1        -0.6776
       3    O2      19.489526   21.837539   22.038719 O.co2      1 MOL1        -0.6776
       4    C2      19.414476   20.024316   23.547708 C.3        1 MOL1        -0.2013
       5    H1      18.554454   19.736791   22.934585 H          1 MOL1         0.0727
       6    H2      19.049377   20.115286   24.577360 H          1 MOL1         0.0727
       7    C3      20.527600   18.941387   23.491514 C.3        1 MOL1        -0.1910
       8    H3      21.389529   19.310367   24.064634 H          1 MOL1         0.0729
       9    H4      20.189031   18.032791   24.007322 H          1 MOL1         0.0729
      10    C4      20.997188   18.585319   22.056880 C.3        1 MOL1        -0.1909
      11    H5      22.073041   18.366557   22.095156 H          1 MOL1         0.0729
      12    H6      20.893767   19.453193   21.391370 H          1 MOL1         0.0729
      13    C5      20.293906   17.354312   21.434048 C.3        1 MOL1        -0.1884
      14    H7      20.757862   17.144262   20.460509 H          1 MOL1         0.0729
      15    H8      20.476852   16.469281   22.058910 H          1 MOL1         0.0729
      16    C6      18.775369   17.531740   21.228810 C.3        1 MOL1        -0.2899
      17    H9      18.558670   18.451395   20.669559 H          1 MOL1         0.0741
      18    H10     18.362826   16.685818   20.664007 H          1 MOL1         0.0741
      19    H11     18.248817   17.575218   22.190168 H          1 MOL1         0.0741
@<TRIPOS>BOND
    1     1     2    1
    2     1     3    2
    3     1     4    1
    4     4     5    1
    5     4     6    1
    6     4     7    1
    7     7     8    1
    8     7     9    1
    9     7    10    1
   10    10    11    1
   11    10    12    1
   12    10    13    1
   13    13    14    1
   14    13    15    1
   15    13    16    1
   16    16    17    1
   17    16    18    1
   18    16    19    1
@<TRIPOS>SUBSTRUCTURE
       1 MOL1            1 RESIDUE      1      MOL     
@<SCITEGIC>MOL_PROPERTY
VConf Rank
SciTegic.value.IntegerValue
964

@<SCITEGIC>MOL_PROPERTY
Conf_Id
SciTegic.value.IntegerValue
73

@<SCITEGIC>MOL_PROPERTY
Delta U+W
SciTegic.value.DoubleValue
3.707

@<SCITEGIC>MOL_PROPERTY
U+W
SciTegic.value.DoubleValue
-51.184

@<SCITEGIC>MOL_PROPERTY
Grad RMS
SciTegic.value.DoubleValue
0.000000

@<SCITEGIC>MOL_PROPERTY
U
SciTegic.value.DoubleValue
12.334

@<SCITEGIC>MOL_PROPERTY
W
SciTegic.value.DoubleValue
-63.519

@<SCITEGIC>MOL_PROPERTY
W(PB)
SciTegic.value.DoubleValue
-65.541

@<SCITEGIC>MOL_PROPERTY
W(SA)
SciTegic.value.DoubleValue
2.022

@<SCITEGIC>MOL_PROPERTY
Valence
SciTegic.value.DoubleValue
9.984

@<SCITEGIC>MOL_PROPERTY
Coulomb
SciTegic.value.DoubleValue
1.768

@<SCITEGIC>MOL_PROPERTY
VdW
SciTegic.value.DoubleValue
0.583

@<SCITEGIC>MOL_PROPERTY
VdW6
SciTegic.value.DoubleValue
-7.767

@<SCITEGIC>MOL_PROPERTY
VdW12
SciTegic.value.DoubleValue
8.350

@<SCITEGIC>MOL_PROPERTY
Bond
SciTegic.value.DoubleValue
0.203

@<SCITEGIC>MOL_PROPERTY
Angle
SciTegic.value.DoubleValue
3.192

@<SCITEGIC>MOL_PROPERTY
Pdih
SciTegic.value.DoubleValue
6.589

@<SCITEGIC>MOL_PROPERTY
Idih
SciTegic.value.DoubleValue
0.001

@<SCITEGIC>MOL_PROPERTY
Tether
SciTegic.value.DoubleValue
0.000

@<TRIPOS>MOLECULE
guest-7_confgen4.mol2 : confsearch ligand conformer 965
          19          18           1
SMALL
USER_CHARGES
 
@<TRIPOS>ATOM
       1    C1      22.307400   19.760377   22.085787 C.2        1 MOL1         0.6115
       2    O1      22.131978   20.427609   21.085417 O.co2      1 MOL1        -0.6776
       3    O2      23.128736   20.033424   22.939023 O.co2      1 MOL1        -0.6776
       4    C2      21.475648   18.493677   22.267409 C.3        1 MOL1        -0.2013
       5    H1      22.170369   17.676866   22.495122 H          1 MOL1         0.0727
       6    H2      21.004063   18.242217   21.310501 H          1 MOL1         0.0727
       7    C3      20.409532   18.589913   23.392755 C.3        1 MOL1        -0.1910
       8    H3      19.912007   17.617782   23.503641 H          1 MOL1         0.0729
       9    H4      20.921286   18.777108   24.346786 H          1 MOL1         0.0729
      10    C4      19.346537   19.697482   23.174984 C.3        1 MOL1        -0.1909
      11    H5      19.842778   20.677626   23.187038 H          1 MOL1         0.0729
      12    H6      18.657527   19.697717   24.030472 H          1 MOL1         0.0729
      13    C5      18.523578   19.574024   21.869337 C.3        1 MOL1        -0.1884
      14    H7      17.820976   20.417013   21.818178 H          1 MOL1         0.0729
      15    H8      19.182817   19.676412   20.996775 H          1 MOL1         0.0729
      16    C6      17.726005   18.255758   21.770714 C.3        1 MOL1        -0.2899
      17    H9      18.395251   17.388830   21.703958 H          1 MOL1         0.0741
      18    H10     17.075954   18.123649   22.645353 H          1 MOL1         0.0741
      19    H11     17.092190   18.256562   20.874571 H          1 MOL1         0.0741
@<TRIPOS>BOND
    1     1     2    1
    2     1     3    2
    3     1     4    1
    4     4     5    1
    5     4     6    1
    6     4     7    1
    7     7     8    1
    8     7     9    1
    9     7    10    1
   10    10    11    1
   11    10    12    1
   12    10    13    1
   13    13    14    1
   14    13    15    1
   15    13    16    1
   16    16    17    1
   17    16    18    1
   18    16    19    1
@<TRIPOS>SUBSTRUCTURE
       1 MOL1            1 RESIDUE      1      MOL     
@<SCITEGIC>MOL_PROPERTY
VConf Rank
SciTegic.value.IntegerValue
965

@<SCITEGIC>MOL_PROPERTY
Conf_Id
SciTegic.value.IntegerValue
56

@<SCITEGIC>MOL_PROPERTY
Delta U+W
SciTegic.value.DoubleValue
1.735

@<SCITEGIC>MOL_PROPERTY
U+W
SciTegic.value.DoubleValue
-53.156

@<SCITEGIC>MOL_PROPERTY
Grad RMS
SciTegic.value.DoubleValue
0.000000

@<SCITEGIC>MOL_PROPERTY
U
SciTegic.value.DoubleValue
10.214

@<SCITEGIC>MOL_PROPERTY
W
SciTegic.value.DoubleValue
-63.370

@<SCITEGIC>MOL_PROPERTY
W(PB)
SciTegic.value.DoubleValue
-65.388

@<SCITEGIC>MOL_PROPERTY
W(SA)
SciTegic.value.DoubleValue
2.018

@<SCITEGIC>MOL_PROPERTY
Valence
SciTegic.value.DoubleValue
7.868

@<SCITEGIC>MOL_PROPERTY
Coulomb
SciTegic.value.DoubleValue
1.968

@<SCITEGIC>MOL_PROPERTY
VdW
SciTegic.value.DoubleValue
0.378

@<SCITEGIC>MOL_PROPERTY
VdW6
SciTegic.value.DoubleValue
-8.067

@<SCITEGIC>MOL_PROPERTY
VdW12
SciTegic.value.DoubleValue
8.445

@<SCITEGIC>MOL_PROPERTY
Bond
SciTegic.value.DoubleValue
0.191

@<SCITEGIC>MOL_PROPERTY
Angle
SciTegic.value.DoubleValue
3.117

@<SCITEGIC>MOL_PROPERTY
Pdih
SciTegic.value.DoubleValue
4.559

@<SCITEGIC>MOL_PROPERTY
Idih
SciTegic.value.DoubleValue
0.001

@<SCITEGIC>MOL_PROPERTY
Tether
SciTegic.value.DoubleValue
0.000

@<TRIPOS>MOLECULE
guest-7_confgen4.mol2 : confsearch ligand conformer 966
          19          18           1
SMALL
USER_CHARGES
 
@<TRIPOS>ATOM
       1    C1      21.678154   16.640124   22.843767 C.2        1 MOL1         0.6115
       2    O1      22.880672   16.656642   22.670449 O.co2      1 MOL1        -0.6776
       3    O2      21.045278   15.627270   23.067306 O.co2      1 MOL1        -0.6776
       4    C2      20.919357   17.959403   22.754501 C.3        1 MOL1        -0.2013
       5    H1      21.585565   18.760352   23.096591 H          1 MOL1         0.0727
       6    H2      20.079066   17.906417   23.455652 H          1 MOL1         0.0727
       7    C3      20.407452   18.262418   21.323729 C.3        1 MOL1        -0.1910
       8    H3      21.248116   18.168328   20.622423 H          1 MOL1         0.0729
       9    H4      19.676273   17.496149   21.031487 H          1 MOL1         0.0729
      10    C4      19.782015   19.669673   21.153564 C.3        1 MOL1        -0.1909
      11    H5      19.509192   19.783886   20.095502 H          1 MOL1         0.0729
      12    H6      20.535432   20.444103   21.352613 H          1 MOL1         0.0729
      13    C5      18.514797   19.922122   22.007692 C.3        1 MOL1        -0.1884
      14    H7      17.822380   20.550265   21.430338 H          1 MOL1         0.0729
      15    H8      17.986241   18.977084   22.194342 H          1 MOL1         0.0729
      16    C6      18.811762   20.642744   23.341575 C.3        1 MOL1        -0.2899
      17    H9      17.882458   20.813591   23.900217 H          1 MOL1         0.0741
      18    H10     19.483490   20.059298   23.981099 H          1 MOL1         0.0741
      19    H11     19.279124   21.619631   23.161586 H          1 MOL1         0.0741
@<TRIPOS>BOND
    1     1     2    1
    2     1     3    2
    3     1     4    1
    4     4     5    1
    5     4     6    1
    6     4     7    1
    7     7     8    1
    8     7     9    1
    9     7    10    1
   10    10    11    1
   11    10    12    1
   12    10    13    1
   13    13    14    1
   14    13    15    1
   15    13    16    1
   16    16    17    1
   17    16    18    1
   18    16    19    1
@<TRIPOS>SUBSTRUCTURE
       1 MOL1            1 RESIDUE      1      MOL     
@<SCITEGIC>MOL_PROPERTY
VConf Rank
SciTegic.value.IntegerValue
966

@<SCITEGIC>MOL_PROPERTY
Conf_Id
SciTegic.value.IntegerValue
53

@<SCITEGIC>MOL_PROPERTY
Delta U+W
SciTegic.value.DoubleValue
2.279

@<SCITEGIC>MOL_PROPERTY
U+W
SciTegic.value.DoubleValue
-52.612

@<SCITEGIC>MOL_PROPERTY
Grad RMS
SciTegic.value.DoubleValue
0.000000

@<SCITEGIC>MOL_PROPERTY
U
SciTegic.value.DoubleValue
10.231

@<SCITEGIC>MOL_PROPERTY
W
SciTegic.value.DoubleValue
-62.843

@<SCITEGIC>MOL_PROPERTY
W(PB)
SciTegic.value.DoubleValue
-64.893

@<SCITEGIC>MOL_PROPERTY
W(SA)
SciTegic.value.DoubleValue
2.050

@<SCITEGIC>MOL_PROPERTY
Valence
SciTegic.value.DoubleValue
9.644

@<SCITEGIC>MOL_PROPERTY
Coulomb
SciTegic.value.DoubleValue
-0.164

@<SCITEGIC>MOL_PROPERTY
VdW
SciTegic.value.DoubleValue
0.751

@<SCITEGIC>MOL_PROPERTY
VdW6
SciTegic.value.DoubleValue
-6.881

@<SCITEGIC>MOL_PROPERTY
VdW12
SciTegic.value.DoubleValue
7.631

@<SCITEGIC>MOL_PROPERTY
Bond
SciTegic.value.DoubleValue
0.163

@<SCITEGIC>MOL_PROPERTY
Angle
SciTegic.value.DoubleValue
2.998

@<SCITEGIC>MOL_PROPERTY
Pdih
SciTegic.value.DoubleValue
6.482

@<SCITEGIC>MOL_PROPERTY
Idih
SciTegic.value.DoubleValue
0.001

@<SCITEGIC>MOL_PROPERTY
Tether
SciTegic.value.DoubleValue
0.000

@<TRIPOS>MOLECULE
guest-7_confgen4.mol2 : confsearch ligand conformer 967
          19          18           1
SMALL
USER_CHARGES
 
@<TRIPOS>ATOM
       1    C1      21.854334   18.321070   24.129839 C.2        1 MOL1         0.6115
       2    O1      22.386839   17.342852   23.643648 O.co2      1 MOL1        -0.6776
       3    O2      21.343984   18.326826   25.232906 O.co2      1 MOL1        -0.6776
       4    C2      21.891662   19.628483   23.340688 C.3        1 MOL1        -0.2013
       5    H1      22.432323   19.462716   22.400938 H          1 MOL1         0.0727
       6    H2      22.495745   20.327529   23.930638 H          1 MOL1         0.0727
       7    C3      20.505485   20.273044   23.057529 C.3        1 MOL1        -0.1910
       8    H3      19.887448   20.246577   23.965753 H          1 MOL1         0.0729
       9    H4      20.665871   21.336062   22.832394 H          1 MOL1         0.0729
      10    C4      19.730543   19.651421   21.869369 C.3        1 MOL1        -0.1909
      11    H5      20.351058   19.687648   20.963563 H          1 MOL1         0.0729
      12    H6      18.852592   20.280179   21.667196 H          1 MOL1         0.0729
      13    C5      19.255938   18.202433   22.115865 C.3        1 MOL1        -0.1884
      14    H7      20.120318   17.530213   22.189164 H          1 MOL1         0.0729
      15    H8      18.720597   18.143681   23.073652 H          1 MOL1         0.0729
      16    C6      18.336022   17.707982   20.981357 C.3        1 MOL1        -0.2899
      17    H9      18.857002   17.732526   20.015264 H          1 MOL1         0.0741
      18    H10     18.014799   16.674865   21.167179 H          1 MOL1         0.0741
      19    H11     17.437035   18.333250   20.902749 H          1 MOL1         0.0741
@<TRIPOS>BOND
    1     1     2    1
    2     1     3    2
    3     1     4    1
    4     4     5    1
    5     4     6    1
    6     4     7    1
    7     7     8    1
    8     7     9    1
    9     7    10    1
   10    10    11    1
   11    10    12    1
   12    10    13    1
   13    13    14    1
   14    13    15    1
   15    13    16    1
   16    16    17    1
   17    16    18    1
   18    16    19    1
@<TRIPOS>SUBSTRUCTURE
       1 MOL1            1 RESIDUE      1      MOL     
@<SCITEGIC>MOL_PROPERTY
VConf Rank
SciTegic.value.IntegerValue
967

@<SCITEGIC>MOL_PROPERTY
Conf_Id
SciTegic.value.IntegerValue
25

@<SCITEGIC>MOL_PROPERTY
Delta U+W
SciTegic.value.DoubleValue
2.065

@<SCITEGIC>MOL_PROPERTY
U+W
SciTegic.value.DoubleValue
-52.826

@<SCITEGIC>MOL_PROPERTY
Grad RMS
SciTegic.value.DoubleValue
0.000000

@<SCITEGIC>MOL_PROPERTY
U
SciTegic.value.DoubleValue
10.967

@<SCITEGIC>MOL_PROPERTY
W
SciTegic.value.DoubleValue
-63.794

@<SCITEGIC>MOL_PROPERTY
W(PB)
SciTegic.value.DoubleValue
-65.830

@<SCITEGIC>MOL_PROPERTY
W(SA)
SciTegic.value.DoubleValue
2.036

@<SCITEGIC>MOL_PROPERTY
Valence
SciTegic.value.DoubleValue
8.609

@<SCITEGIC>MOL_PROPERTY
Coulomb
SciTegic.value.DoubleValue
1.892

@<SCITEGIC>MOL_PROPERTY
VdW
SciTegic.value.DoubleValue
0.467

@<SCITEGIC>MOL_PROPERTY
VdW6
SciTegic.value.DoubleValue
-7.569

@<SCITEGIC>MOL_PROPERTY
VdW12
SciTegic.value.DoubleValue
8.036

@<SCITEGIC>MOL_PROPERTY
Bond
SciTegic.value.DoubleValue
0.170

@<SCITEGIC>MOL_PROPERTY
Angle
SciTegic.value.DoubleValue
3.195

@<SCITEGIC>MOL_PROPERTY
Pdih
SciTegic.value.DoubleValue
5.237

@<SCITEGIC>MOL_PROPERTY
Idih
SciTegic.value.DoubleValue
0.007

@<SCITEGIC>MOL_PROPERTY
Tether
SciTegic.value.DoubleValue
0.000

@<TRIPOS>MOLECULE
guest-7_confgen4.mol2 : confsearch ligand conformer 968
          19          18           1
SMALL
USER_CHARGES
 
@<TRIPOS>ATOM
       1    C1      18.044951   19.706685   23.418348 C.2        1 MOL1         0.6115
       2    O1      18.282061   20.748690   23.997357 O.co2      1 MOL1        -0.6776
       3    O2      17.553889   18.736253   23.960540 O.co2      1 MOL1        -0.6776
       4    C2      18.312112   19.634285   21.916060 C.3        1 MOL1        -0.2013
       5    H1      17.653186   20.375847   21.449664 H          1 MOL1         0.0727
       6    H2      17.993055   18.653194   21.543786 H          1 MOL1         0.0727
       7    C3      19.778845   19.921371   21.487803 C.3        1 MOL1        -0.1910
       8    H3      19.772912   20.201859   20.425867 H          1 MOL1         0.0729
       9    H4      20.162684   20.797118   22.029354 H          1 MOL1         0.0729
      10    C4      20.749904   18.726358   21.654138 C.3        1 MOL1        -0.1909
      11    H5      21.704288   18.992539   21.179471 H          1 MOL1         0.0729
      12    H6      20.364006   17.856918   21.104599 H          1 MOL1         0.0729
      13    C5      21.019878   18.333807   23.123353 C.3        1 MOL1        -0.1884
      14    H7      21.309144   19.223616   23.699513 H          1 MOL1         0.0729
      15    H8      20.104765   17.937743   23.581731 H          1 MOL1         0.0729
      16    C6      22.130324   17.269139   23.229315 C.3        1 MOL1        -0.2899
      17    H9      22.303841   16.995155   24.278061 H          1 MOL1         0.0741
      18    H10     21.853796   16.358339   22.682200 H          1 MOL1         0.0741
      19    H11     23.075905   17.644134   22.816311 H          1 MOL1         0.0741
@<TRIPOS>BOND
    1     1     2    1
    2     1     3    2
    3     1     4    1
    4     4     5    1
    5     4     6    1
    6     4     7    1
    7     7     8    1
    8     7     9    1
    9     7    10    1
   10    10    11    1
   11    10    12    1
   12    10    13    1
   13    13    14    1
   14    13    15    1
   15    13    16    1
   16    16    17    1
   17    16    18    1
   18    16    19    1
@<TRIPOS>SUBSTRUCTURE
       1 MOL1            1 RESIDUE      1      MOL     
@<SCITEGIC>MOL_PROPERTY
VConf Rank
SciTegic.value.IntegerValue
968

@<SCITEGIC>MOL_PROPERTY
Conf_Id
SciTegic.value.IntegerValue
52

@<SCITEGIC>MOL_PROPERTY
Delta U+W
SciTegic.value.DoubleValue
2.070

@<SCITEGIC>MOL_PROPERTY
U+W
SciTegic.value.DoubleValue
-52.822

@<SCITEGIC>MOL_PROPERTY
Grad RMS
SciTegic.value.DoubleValue
0.000000

@<SCITEGIC>MOL_PROPERTY
U
SciTegic.value.DoubleValue
10.967

@<SCITEGIC>MOL_PROPERTY
W
SciTegic.value.DoubleValue
-63.789

@<SCITEGIC>MOL_PROPERTY
W(PB)
SciTegic.value.DoubleValue
-65.837

@<SCITEGIC>MOL_PROPERTY
W(SA)
SciTegic.value.DoubleValue
2.048

@<SCITEGIC>MOL_PROPERTY
Valence
SciTegic.value.DoubleValue
8.609

@<SCITEGIC>MOL_PROPERTY
Coulomb
SciTegic.value.DoubleValue
1.892

@<SCITEGIC>MOL_PROPERTY
VdW
SciTegic.value.DoubleValue
0.467

@<SCITEGIC>MOL_PROPERTY
VdW6
SciTegic.value.DoubleValue
-7.569

@<SCITEGIC>MOL_PROPERTY
VdW12
SciTegic.value.DoubleValue
8.035

@<SCITEGIC>MOL_PROPERTY
Bond
SciTegic.value.DoubleValue
0.170

@<SCITEGIC>MOL_PROPERTY
Angle
SciTegic.value.DoubleValue
3.196

@<SCITEGIC>MOL_PROPERTY
Pdih
SciTegic.value.DoubleValue
5.237

@<SCITEGIC>MOL_PROPERTY
Idih
SciTegic.value.DoubleValue
0.007

@<SCITEGIC>MOL_PROPERTY
Tether
SciTegic.value.DoubleValue
0.000

@<TRIPOS>MOLECULE
guest-7_confgen4.mol2 : confsearch ligand conformer 969
          19          18           1
SMALL
USER_CHARGES
 
@<TRIPOS>ATOM
       1    C1      18.420377   20.391029   23.161958 C.2        1 MOL1         0.6115
       2    O1      17.334250   20.057782   22.729070 O.co2      1 MOL1        -0.6776
       3    O2      18.607405   20.700862   24.322011 O.co2      1 MOL1        -0.6776
       4    C2      19.583364   20.552664   22.181797 C.3        1 MOL1        -0.2013
       5    H1      20.509756   20.705281   22.748404 H          1 MOL1         0.0727
       6    H2      19.393171   21.484890   21.637686 H          1 MOL1         0.0727
       7    C3      19.766178   19.399803   21.153760 C.3        1 MOL1        -0.1910
       8    H3      18.786557   19.070274   20.780887 H          1 MOL1         0.0729
       9    H4      20.294586   19.806887   20.281163 H          1 MOL1         0.0729
      10    C4      20.576021   18.178988   21.660658 C.3        1 MOL1        -0.1909
      11    H5      21.591507   18.491994   21.939681 H          1 MOL1         0.0729
      12    H6      20.701093   17.491676   20.812764 H          1 MOL1         0.0729
      13    C5      19.917775   17.393085   22.820424 C.3        1 MOL1        -0.1884
      14    H7      18.833595   17.570816   22.838320 H          1 MOL1         0.0729
      15    H8      20.046447   16.317340   22.637768 H          1 MOL1         0.0729
      16    C6      20.538674   17.724136   24.194474 C.3        1 MOL1        -0.2899
      17    H9      21.602849   17.455958   24.217891 H          1 MOL1         0.0741
      18    H10     20.453483   18.792000   24.427151 H          1 MOL1         0.0741
      19    H11     20.031643   17.164761   24.991116 H          1 MOL1         0.0741
@<TRIPOS>BOND
    1     1     2    1
    2     1     3    2
    3     1     4    1
    4     4     5    1
    5     4     6    1
    6     4     7    1
    7     7     8    1
    8     7     9    1
    9     7    10    1
   10    10    11    1
   11    10    12    1
   12    10    13    1
   13    13    14    1
   14    13    15    1
   15    13    16    1
   16    16    17    1
   17    16    18    1
   18    16    19    1
@<TRIPOS>SUBSTRUCTURE
       1 MOL1            1 RESIDUE      1      MOL     
@<SCITEGIC>MOL_PROPERTY
VConf Rank
SciTegic.value.IntegerValue
969

@<SCITEGIC>MOL_PROPERTY
Conf_Id
SciTegic.value.IntegerValue
66

@<SCITEGIC>MOL_PROPERTY
Delta U+W
SciTegic.value.DoubleValue
5.819

@<SCITEGIC>MOL_PROPERTY
U+W
SciTegic.value.DoubleValue
-49.072

@<SCITEGIC>MOL_PROPERTY
Grad RMS
SciTegic.value.DoubleValue
0.000000

@<SCITEGIC>MOL_PROPERTY
U
SciTegic.value.DoubleValue
15.324

@<SCITEGIC>MOL_PROPERTY
W
SciTegic.value.DoubleValue
-64.396

@<SCITEGIC>MOL_PROPERTY
W(PB)
SciTegic.value.DoubleValue
-66.382

@<SCITEGIC>MOL_PROPERTY
W(SA)
SciTegic.value.DoubleValue
1.986

@<SCITEGIC>MOL_PROPERTY
Valence
SciTegic.value.DoubleValue
11.748

@<SCITEGIC>MOL_PROPERTY
Coulomb
SciTegic.value.DoubleValue
3.201

@<SCITEGIC>MOL_PROPERTY
VdW
SciTegic.value.DoubleValue
0.375

@<SCITEGIC>MOL_PROPERTY
VdW6
SciTegic.value.DoubleValue
-8.854

@<SCITEGIC>MOL_PROPERTY
VdW12
SciTegic.value.DoubleValue
9.229

@<SCITEGIC>MOL_PROPERTY
Bond
SciTegic.value.DoubleValue
0.216

@<SCITEGIC>MOL_PROPERTY
Angle
SciTegic.value.DoubleValue
3.812

@<SCITEGIC>MOL_PROPERTY
Pdih
SciTegic.value.DoubleValue
7.699

@<SCITEGIC>MOL_PROPERTY
Idih
SciTegic.value.DoubleValue
0.022

@<SCITEGIC>MOL_PROPERTY
Tether
SciTegic.value.DoubleValue
0.000

@<TRIPOS>MOLECULE
guest-7_confgen4.mol2 : confsearch ligand conformer 970
          19          18           1
SMALL
USER_CHARGES
 
@<TRIPOS>ATOM
       1    C1      19.792270   16.442835   24.493578 C.2        1 MOL1         0.6115
       2    O1      19.028450   15.607611   24.934760 O.co2      1 MOL1        -0.6776
       3    O2      20.921081   16.599244   24.917214 O.co2      1 MOL1        -0.6776
       4    C2      19.280529   17.323516   23.352439 C.3        1 MOL1        -0.2013
       5    H1      18.374747   17.827763   23.709291 H          1 MOL1         0.0727
       6    H2      18.976545   16.657529   22.536286 H          1 MOL1         0.0727
       7    C3      20.291184   18.374986   22.821948 C.3        1 MOL1        -0.1910
       8    H3      20.596126   19.035310   23.645629 H          1 MOL1         0.0729
       9    H4      21.198574   17.863850   22.471446 H          1 MOL1         0.0729
      10    C4      19.693599   19.217838   21.674449 C.3        1 MOL1        -0.1909
      11    H5      18.786505   19.727791   22.026980 H          1 MOL1         0.0729
      12    H6      19.389319   18.555728   20.852151 H          1 MOL1         0.0729
      13    C5      20.699862   20.262487   21.148582 C.3        1 MOL1        -0.1884
      14    H7      21.005301   20.928022   21.967889 H          1 MOL1         0.0729
      15    H8      21.607986   19.756099   20.793091 H          1 MOL1         0.0729
      16    C6      20.099898   21.102171   20.003172 C.3        1 MOL1        -0.2899
      17    H9      19.207043   21.645035   20.340113 H          1 MOL1         0.0741
      18    H10     20.828394   21.839427   19.641432 H          1 MOL1         0.0741
      19    H11     19.814244   20.464279   19.156463 H          1 MOL1         0.0741
@<TRIPOS>BOND
    1     1     2    1
    2     1     3    2
    3     1     4    1
    4     4     5    1
    5     4     6    1
    6     4     7    1
    7     7     8    1
    8     7     9    1
    9     7    10    1
   10    10    11    1
   11    10    12    1
   12    10    13    1
   13    13    14    1
   14    13    15    1
   15    13    16    1
   16    16    17    1
   17    16    18    1
   18    16    19    1
@<TRIPOS>SUBSTRUCTURE
       1 MOL1            1 RESIDUE      1      MOL     
@<SCITEGIC>MOL_PROPERTY
VConf Rank
SciTegic.value.IntegerValue
970

@<SCITEGIC>MOL_PROPERTY
Conf_Id
SciTegic.value.IntegerValue
0

@<SCITEGIC>MOL_PROPERTY
Delta U+W
SciTegic.value.DoubleValue
0.000

@<SCITEGIC>MOL_PROPERTY
U+W
SciTegic.value.DoubleValue
-54.891

@<SCITEGIC>MOL_PROPERTY
Grad RMS
SciTegic.value.DoubleValue
0.000000

@<SCITEGIC>MOL_PROPERTY
U
SciTegic.value.DoubleValue
6.966

@<SCITEGIC>MOL_PROPERTY
W
SciTegic.value.DoubleValue
-61.857

@<SCITEGIC>MOL_PROPERTY
W(PB)
SciTegic.value.DoubleValue
-63.965

@<SCITEGIC>MOL_PROPERTY
W(SA)
SciTegic.value.DoubleValue
2.108

@<SCITEGIC>MOL_PROPERTY
Valence
SciTegic.value.DoubleValue
7.175

@<SCITEGIC>MOL_PROPERTY
Coulomb
SciTegic.value.DoubleValue
-1.360

@<SCITEGIC>MOL_PROPERTY
VdW
SciTegic.value.DoubleValue
1.151

@<SCITEGIC>MOL_PROPERTY
VdW6
SciTegic.value.DoubleValue
-5.641

@<SCITEGIC>MOL_PROPERTY
VdW12
SciTegic.value.DoubleValue
6.792

@<SCITEGIC>MOL_PROPERTY
Bond
SciTegic.value.DoubleValue
0.119

@<SCITEGIC>MOL_PROPERTY
Angle
SciTegic.value.DoubleValue
2.715

@<SCITEGIC>MOL_PROPERTY
Pdih
SciTegic.value.DoubleValue
4.340

@<SCITEGIC>MOL_PROPERTY
Idih
SciTegic.value.DoubleValue
0.000

@<SCITEGIC>MOL_PROPERTY
Tether
SciTegic.value.DoubleValue
0.000

@<TRIPOS>MOLECULE
guest-7_confgen4.mol2 : confsearch ligand conformer 971
          19          18           1
SMALL
USER_CHARGES
 
@<TRIPOS>ATOM
       1    C1      16.687890   18.868356   23.154250 C.2        1 MOL1         0.6115
       2    O1      16.268955   19.918360   23.599409 O.co2      1 MOL1        -0.6776
       3    O2      15.989170   18.051240   22.588306 O.co2      1 MOL1        -0.6776
       4    C2      18.176095   18.568893   23.295453 C.3        1 MOL1        -0.2013
       5    H1      18.297337   17.483630   23.396675 H          1 MOL1         0.0727
       6    H2      18.528027   19.022819   24.229711 H          1 MOL1         0.0727
       7    C3      19.011345   19.090534   22.100312 C.3        1 MOL1        -0.1910
       8    H3      18.638560   18.636654   21.171564 H          1 MOL1         0.0729
       9    H4      18.869124   20.175961   22.004553 H          1 MOL1         0.0729
      10    C4      20.513365   18.775001   22.267654 C.3        1 MOL1        -0.1909
      11    H5      20.652091   17.689381   22.364489 H          1 MOL1         0.0729
      12    H6      20.882708   19.228993   23.197529 H          1 MOL1         0.0729
      13    C5      21.342956   19.295727   21.075598 C.3        1 MOL1        -0.1884
      14    H7      20.977702   18.842359   20.143643 H          1 MOL1         0.0729
      15    H8      21.208372   20.381816   20.976650 H          1 MOL1         0.0729
      16    C6      22.842138   18.978897   21.245973 C.3        1 MOL1        -0.2899
      17    H9      23.416868   19.355910   20.390019 H          1 MOL1         0.0741
      18    H10     23.241684   19.447035   22.155167 H          1 MOL1         0.0741
      19    H11     23.009270   17.896034   21.315955 H          1 MOL1         0.0741
@<TRIPOS>BOND
    1     1     2    1
    2     1     3    2
    3     1     4    1
    4     4     5    1
    5     4     6    1
    6     4     7    1
    7     7     8    1
    8     7     9    1
    9     7    10    1
   10    10    11    1
   11    10    12    1
   12    10    13    1
   13    13    14    1
   14    13    15    1
   15    13    16    1
   16    16    17    1
   17    16    18    1
   18    16    19    1
@<TRIPOS>SUBSTRUCTURE
       1 MOL1            1 RESIDUE      1      MOL     
@<SCITEGIC>MOL_PROPERTY
VConf Rank
SciTegic.value.IntegerValue
971

@<SCITEGIC>MOL_PROPERTY
Conf_Id
SciTegic.value.IntegerValue
18

@<SCITEGIC>MOL_PROPERTY
Delta U+W
SciTegic.value.DoubleValue
-1.199

@<SCITEGIC>MOL_PROPERTY
U+W
SciTegic.value.DoubleValue
-56.090

@<SCITEGIC>MOL_PROPERTY
Grad RMS
SciTegic.value.DoubleValue
0.000000

@<SCITEGIC>MOL_PROPERTY
U
SciTegic.value.DoubleValue
5.975

@<SCITEGIC>MOL_PROPERTY
W
SciTegic.value.DoubleValue
-62.066

@<SCITEGIC>MOL_PROPERTY
W(PB)
SciTegic.value.DoubleValue
-64.219

@<SCITEGIC>MOL_PROPERTY
W(SA)
SciTegic.value.DoubleValue
2.153

@<SCITEGIC>MOL_PROPERTY
Valence
SciTegic.value.DoubleValue
6.673

@<SCITEGIC>MOL_PROPERTY
Coulomb
SciTegic.value.DoubleValue
-1.307

@<SCITEGIC>MOL_PROPERTY
VdW
SciTegic.value.DoubleValue
0.610

@<SCITEGIC>MOL_PROPERTY
VdW6
SciTegic.value.DoubleValue
-5.351

@<SCITEGIC>MOL_PROPERTY
VdW12
SciTegic.value.DoubleValue
5.961

@<SCITEGIC>MOL_PROPERTY
Bond
SciTegic.value.DoubleValue
0.086

@<SCITEGIC>MOL_PROPERTY
Angle
SciTegic.value.DoubleValue
2.253

@<SCITEGIC>MOL_PROPERTY
Pdih
SciTegic.value.DoubleValue
4.333

@<SCITEGIC>MOL_PROPERTY
Idih
SciTegic.value.DoubleValue
0.001

@<SCITEGIC>MOL_PROPERTY
Tether
SciTegic.value.DoubleValue
0.000

@<TRIPOS>MOLECULE
guest-7_confgen4.mol2 : confsearch ligand conformer 972
          19          18           1
SMALL
USER_CHARGES
 
@<TRIPOS>ATOM
       1    C1      19.881852   21.599566   20.413479 C.2        1 MOL1         0.6115
       2    O1      19.615095   21.612649   19.228170 O.co2      1 MOL1        -0.6776
       3    O2      19.825530   22.582018   21.126135 O.co2      1 MOL1        -0.6776
       4    C2      20.288935   20.273220   21.045500 C.3        1 MOL1        -0.2013
       5    H1      21.005521   20.491171   21.845402 H          1 MOL1         0.0727
       6    H2      20.816980   19.682764   20.287186 H          1 MOL1         0.0727
       7    C3      19.079260   19.475165   21.597748 C.3        1 MOL1        -0.1910
       8    H3      18.584901   20.057782   22.387353 H          1 MOL1         0.0729
       9    H4      18.340528   19.353573   20.793439 H          1 MOL1         0.0729
      10    C4      19.457310   18.076024   22.139056 C.3        1 MOL1        -0.1909
      11    H5      19.943617   17.493116   21.344870 H          1 MOL1         0.0729
      12    H6      18.533223   17.540354   22.396220 H          1 MOL1         0.0729
      13    C5      20.371896   18.125236   23.383492 C.3        1 MOL1        -0.1884
      14    H7      21.333420   18.589905   23.128708 H          1 MOL1         0.0729
      15    H8      19.908789   18.750313   24.159430 H          1 MOL1         0.0729
      16    C6      20.631456   16.714876   23.949869 C.3        1 MOL1        -0.2899
      17    H9      21.284421   16.766085   24.830837 H          1 MOL1         0.0741
      18    H10     19.692171   16.233392   24.252033 H          1 MOL1         0.0741
      19    H11     21.119744   16.075650   23.202627 H          1 MOL1         0.0741
@<TRIPOS>BOND
    1     1     2    1
    2     1     3    2
    3     1     4    1
    4     4     5    1
    5     4     6    1
    6     4     7    1
    7     7     8    1
    8     7     9    1
    9     7    10    1
   10    10    11    1
   11    10    12    1
   12    10    13    1
   13    13    14    1
   14    13    15    1
   15    13    16    1
   16    16    17    1
   17    16    18    1
   18    16    19    1
@<TRIPOS>SUBSTRUCTURE
       1 MOL1            1 RESIDUE      1      MOL     
@<SCITEGIC>MOL_PROPERTY
VConf Rank
SciTegic.value.IntegerValue
972

@<SCITEGIC>MOL_PROPERTY
Conf_Id
SciTegic.value.IntegerValue
34

@<SCITEGIC>MOL_PROPERTY
Delta U+W
SciTegic.value.DoubleValue
-0.563

@<SCITEGIC>MOL_PROPERTY
U+W
SciTegic.value.DoubleValue
-55.455

@<SCITEGIC>MOL_PROPERTY
Grad RMS
SciTegic.value.DoubleValue
0.000000

@<SCITEGIC>MOL_PROPERTY
U
SciTegic.value.DoubleValue
6.914

@<SCITEGIC>MOL_PROPERTY
W
SciTegic.value.DoubleValue
-62.369

@<SCITEGIC>MOL_PROPERTY
W(PB)
SciTegic.value.DoubleValue
-64.446

@<SCITEGIC>MOL_PROPERTY
W(SA)
SciTegic.value.DoubleValue
2.077

@<SCITEGIC>MOL_PROPERTY
Valence
SciTegic.value.DoubleValue
7.196

@<SCITEGIC>MOL_PROPERTY
Coulomb
SciTegic.value.DoubleValue
-1.020

@<SCITEGIC>MOL_PROPERTY
VdW
SciTegic.value.DoubleValue
0.738

@<SCITEGIC>MOL_PROPERTY
VdW6
SciTegic.value.DoubleValue
-6.010

@<SCITEGIC>MOL_PROPERTY
VdW12
SciTegic.value.DoubleValue
6.748

@<SCITEGIC>MOL_PROPERTY
Bond
SciTegic.value.DoubleValue
0.126

@<SCITEGIC>MOL_PROPERTY
Angle
SciTegic.value.DoubleValue
2.499

@<SCITEGIC>MOL_PROPERTY
Pdih
SciTegic.value.DoubleValue
4.570

@<SCITEGIC>MOL_PROPERTY
Idih
SciTegic.value.DoubleValue
0.001

@<SCITEGIC>MOL_PROPERTY
Tether
SciTegic.value.DoubleValue
0.000

@<TRIPOS>MOLECULE
guest-7_confgen4.mol2 : confsearch ligand conformer 973
          19          18           1
SMALL
USER_CHARGES
 
@<TRIPOS>ATOM
       1    C1      20.811203   21.863468   23.170110 C.2        1 MOL1         0.6115
       2    O1      20.702985   22.859453   22.482658 O.co2      1 MOL1        -0.6776
       3    O2      21.521707   21.799398   24.153645 O.co2      1 MOL1        -0.6776
       4    C2      20.029516   20.619282   22.763508 C.3        1 MOL1        -0.2013
       5    H1      19.095511   20.943994   22.289475 H          1 MOL1         0.0727
       6    H2      19.759783   20.081067   23.679157 H          1 MOL1         0.0727
       7    C3      20.824941   19.698204   21.802209 C.3        1 MOL1        -0.1910
       8    H3      21.157192   20.292171   20.939519 H          1 MOL1         0.0729
       9    H4      21.735931   19.343535   22.303825 H          1 MOL1         0.0729
      10    C4      20.007594   18.489987   21.286767 C.3        1 MOL1        -0.1909
      11    H5      20.603027   17.964750   20.527426 H          1 MOL1         0.0729
      12    H6      19.101909   18.848176   20.778393 H          1 MOL1         0.0729
      13    C5      19.619551   17.490954   22.399811 C.3        1 MOL1        -0.1884
      14    H7      20.520375   17.171538   22.941806 H          1 MOL1         0.0729
      15    H8      18.960178   17.976266   23.131291 H          1 MOL1         0.0729
      16    C6      18.903314   16.253237   21.823334 C.3        1 MOL1        -0.2899
      17    H9      17.982961   16.541367   21.298606 H          1 MOL1         0.0741
      18    H10     19.549693   15.719481   21.114331 H          1 MOL1         0.0741
      19    H11     18.631676   15.555014   22.625698 H          1 MOL1         0.0741
@<TRIPOS>BOND
    1     1     2    1
    2     1     3    2
    3     1     4    1
    4     4     5    1
    5     4     6    1
    6     4     7    1
    7     7     8    1
    8     7     9    1
    9     7    10    1
   10    10    11    1
   11    10    12    1
   12    10    13    1
   13    13    14    1
   14    13    15    1
   15    13    16    1
   16    16    17    1
   17    16    18    1
   18    16    19    1
@<TRIPOS>SUBSTRUCTURE
       1 MOL1            1 RESIDUE      1      MOL     
@<SCITEGIC>MOL_PROPERTY
VConf Rank
SciTegic.value.IntegerValue
973

@<SCITEGIC>MOL_PROPERTY
Conf_Id
SciTegic.value.IntegerValue
33

@<SCITEGIC>MOL_PROPERTY
Delta U+W
SciTegic.value.DoubleValue
-0.526

@<SCITEGIC>MOL_PROPERTY
U+W
SciTegic.value.DoubleValue
-55.418

@<SCITEGIC>MOL_PROPERTY
Grad RMS
SciTegic.value.DoubleValue
0.000000

@<SCITEGIC>MOL_PROPERTY
U
SciTegic.value.DoubleValue
6.914

@<SCITEGIC>MOL_PROPERTY
W
SciTegic.value.DoubleValue
-62.332

@<SCITEGIC>MOL_PROPERTY
W(PB)
SciTegic.value.DoubleValue
-64.421

@<SCITEGIC>MOL_PROPERTY
W(SA)
SciTegic.value.DoubleValue
2.090

@<SCITEGIC>MOL_PROPERTY
Valence
SciTegic.value.DoubleValue
7.196

@<SCITEGIC>MOL_PROPERTY
Coulomb
SciTegic.value.DoubleValue
-1.020

@<SCITEGIC>MOL_PROPERTY
VdW
SciTegic.value.DoubleValue
0.738

@<SCITEGIC>MOL_PROPERTY
VdW6
SciTegic.value.DoubleValue
-6.010

@<SCITEGIC>MOL_PROPERTY
VdW12
SciTegic.value.DoubleValue
6.748

@<SCITEGIC>MOL_PROPERTY
Bond
SciTegic.value.DoubleValue
0.126

@<SCITEGIC>MOL_PROPERTY
Angle
SciTegic.value.DoubleValue
2.499

@<SCITEGIC>MOL_PROPERTY
Pdih
SciTegic.value.DoubleValue
4.570

@<SCITEGIC>MOL_PROPERTY
Idih
SciTegic.value.DoubleValue
0.001

@<SCITEGIC>MOL_PROPERTY
Tether
SciTegic.value.DoubleValue
0.000

@<TRIPOS>MOLECULE
guest-7_confgen4.mol2 : confsearch ligand conformer 974
          19          18           1
SMALL
USER_CHARGES
 
@<TRIPOS>ATOM
       1    C1      17.115691   20.000624   23.319539 C.2        1 MOL1         0.6115
       2    O1      17.227673   20.343697   24.479703 O.co2      1 MOL1        -0.6776
       3    O2      16.381684   20.551424   22.523236 O.co2      1 MOL1        -0.6776
       4    C2      17.955450   18.825407   22.831511 C.3        1 MOL1        -0.2013
       5    H1      17.384526   18.296519   22.058852 H          1 MOL1         0.0727
       6    H2      18.088581   18.130220   23.669197 H          1 MOL1         0.0727
       7    C3      19.333675   19.260148   22.274791 C.3        1 MOL1        -0.1910
       8    H3      19.183824   19.962819   21.443505 H          1 MOL1         0.0729
       9    H4      19.878433   19.802759   23.058649 H          1 MOL1         0.0729
      10    C4      20.164423   18.049225   21.790867 C.3        1 MOL1        -0.1909
      11    H5      19.573847   17.479474   21.060389 H          1 MOL1         0.0729
      12    H6      20.355966   17.370800   22.633516 H          1 MOL1         0.0729
      13    C5      21.505691   18.448346   21.133379 C.3        1 MOL1        -0.1884
      14    H7      21.974859   17.547395   20.714557 H          1 MOL1         0.0729
      15    H8      21.317834   19.122655   20.286417 H          1 MOL1         0.0729
      16    C6      22.494251   19.111992   22.116321 C.3        1 MOL1        -0.2899
      17    H9      22.674893   18.467865   22.986738 H          1 MOL1         0.0741
      18    H10     23.458828   19.294930   21.625335 H          1 MOL1         0.0741
      19    H11     22.115861   20.077511   22.474561 H          1 MOL1         0.0741
@<TRIPOS>BOND
    1     1     2    1
    2     1     3    2
    3     1     4    1
    4     4     5    1
    5     4     6    1
    6     4     7    1
    7     7     8    1
    8     7     9    1
    9     7    10    1
   10    10    11    1
   11    10    12    1
   12    10    13    1
   13    13    14    1
   14    13    15    1
   15    13    16    1
   16    16    17    1
   17    16    18    1
   18    16    19    1
@<TRIPOS>SUBSTRUCTURE
       1 MOL1            1 RESIDUE      1      MOL     
@<SCITEGIC>MOL_PROPERTY
VConf Rank
SciTegic.value.IntegerValue
974

@<SCITEGIC>MOL_PROPERTY
Conf_Id
SciTegic.value.IntegerValue
42

@<SCITEGIC>MOL_PROPERTY
Delta U+W
SciTegic.value.DoubleValue
-0.344

@<SCITEGIC>MOL_PROPERTY
U+W
SciTegic.value.DoubleValue
-55.236

@<SCITEGIC>MOL_PROPERTY
Grad RMS
SciTegic.value.DoubleValue
0.000000

@<SCITEGIC>MOL_PROPERTY
U
SciTegic.value.DoubleValue
7.244

@<SCITEGIC>MOL_PROPERTY
W
SciTegic.value.DoubleValue
-62.479

@<SCITEGIC>MOL_PROPERTY
W(PB)
SciTegic.value.DoubleValue
-64.610

@<SCITEGIC>MOL_PROPERTY
W(SA)
SciTegic.value.DoubleValue
2.130

@<SCITEGIC>MOL_PROPERTY
Valence
SciTegic.value.DoubleValue
7.174

@<SCITEGIC>MOL_PROPERTY
Coulomb
SciTegic.value.DoubleValue
-0.669

@<SCITEGIC>MOL_PROPERTY
VdW
SciTegic.value.DoubleValue
0.739

@<SCITEGIC>MOL_PROPERTY
VdW6
SciTegic.value.DoubleValue
-5.969

@<SCITEGIC>MOL_PROPERTY
VdW12
SciTegic.value.DoubleValue
6.708

@<SCITEGIC>MOL_PROPERTY
Bond
SciTegic.value.DoubleValue
0.116

@<SCITEGIC>MOL_PROPERTY
Angle
SciTegic.value.DoubleValue
2.481

@<SCITEGIC>MOL_PROPERTY
Pdih
SciTegic.value.DoubleValue
4.576

@<SCITEGIC>MOL_PROPERTY
Idih
SciTegic.value.DoubleValue
0.000

@<SCITEGIC>MOL_PROPERTY
Tether
SciTegic.value.DoubleValue
0.000

@<TRIPOS>MOLECULE
guest-7_confgen4.mol2 : confsearch ligand conformer 975
          19          18           1
SMALL
USER_CHARGES
 
@<TRIPOS>ATOM
       1    C1      18.793846   21.055999   20.244188 C.2        1 MOL1         0.6115
       2    O1      18.109231   20.485255   19.418491 O.co2      1 MOL1        -0.6776
       3    O2      19.446902   22.051983   20.003819 O.co2      1 MOL1        -0.6776
       4    C2      18.851000   20.480357   21.654816 C.3        1 MOL1        -0.2013
       5    H1      17.881840   20.015822   21.873136 H          1 MOL1         0.0727
       6    H2      18.977153   21.312844   22.357475 H          1 MOL1         0.0727
       7    C3      19.990832   19.448093   21.838277 C.3        1 MOL1        -0.1910
       8    H3      19.854102   18.635112   21.113027 H          1 MOL1         0.0729
       9    H4      20.953118   19.925392   21.607129 H          1 MOL1         0.0729
      10    C4      20.022906   18.878732   23.275447 C.3        1 MOL1        -0.1909
      11    H5      19.078999   18.358740   23.489114 H          1 MOL1         0.0729
      12    H6      20.087863   19.711830   23.988694 H          1 MOL1         0.0729
      13    C5      21.209760   17.921029   23.529953 C.3        1 MOL1        -0.1884
      14    H7      22.156147   18.439395   23.322650 H          1 MOL1         0.0729
      15    H8      21.227550   17.657352   24.596443 H          1 MOL1         0.0729
      16    C6      21.135927   16.622269   22.698315 C.3        1 MOL1        -0.2899
      17    H9      21.230641   16.827835   21.624761 H          1 MOL1         0.0741
      18    H10     21.949131   15.940374   22.978781 H          1 MOL1         0.0741
      19    H11     20.184567   16.101140   22.867121 H          1 MOL1         0.0741
@<TRIPOS>BOND
    1     1     2    1
    2     1     3    2
    3     1     4    1
    4     4     5    1
    5     4     6    1
    6     4     7    1
    7     7     8    1
    8     7     9    1
    9     7    10    1
   10    10    11    1
   11    10    12    1
   12    10    13    1
   13    13    14    1
   14    13    15    1
   15    13    16    1
   16    16    17    1
   17    16    18    1
   18    16    19    1
@<TRIPOS>SUBSTRUCTURE
       1 MOL1            1 RESIDUE      1      MOL     
@<SCITEGIC>MOL_PROPERTY
VConf Rank
SciTegic.value.IntegerValue
975

@<SCITEGIC>MOL_PROPERTY
Conf_Id
SciTegic.value.IntegerValue
41

@<SCITEGIC>MOL_PROPERTY
Delta U+W
SciTegic.value.DoubleValue
-0.361

@<SCITEGIC>MOL_PROPERTY
U+W
SciTegic.value.DoubleValue
-55.252

@<SCITEGIC>MOL_PROPERTY
Grad RMS
SciTegic.value.DoubleValue
0.000000

@<SCITEGIC>MOL_PROPERTY
U
SciTegic.value.DoubleValue
7.244

@<SCITEGIC>MOL_PROPERTY
W
SciTegic.value.DoubleValue
-62.496

@<SCITEGIC>MOL_PROPERTY
W(PB)
SciTegic.value.DoubleValue
-64.596

@<SCITEGIC>MOL_PROPERTY
W(SA)
SciTegic.value.DoubleValue
2.099

@<SCITEGIC>MOL_PROPERTY
Valence
SciTegic.value.DoubleValue
7.174

@<SCITEGIC>MOL_PROPERTY
Coulomb
SciTegic.value.DoubleValue
-0.669

@<SCITEGIC>MOL_PROPERTY
VdW
SciTegic.value.DoubleValue
0.739

@<SCITEGIC>MOL_PROPERTY
VdW6
SciTegic.value.DoubleValue
-5.969

@<SCITEGIC>MOL_PROPERTY
VdW12
SciTegic.value.DoubleValue
6.708

@<SCITEGIC>MOL_PROPERTY
Bond
SciTegic.value.DoubleValue
0.116

@<SCITEGIC>MOL_PROPERTY
Angle
SciTegic.value.DoubleValue
2.481

@<SCITEGIC>MOL_PROPERTY
Pdih
SciTegic.value.DoubleValue
4.576

@<SCITEGIC>MOL_PROPERTY
Idih
SciTegic.value.DoubleValue
0.000

@<SCITEGIC>MOL_PROPERTY
Tether
SciTegic.value.DoubleValue
0.000

@<TRIPOS>MOLECULE
guest-7_confgen4.mol2 : confsearch ligand conformer 976
          19          18           1
SMALL
USER_CHARGES
 
@<TRIPOS>ATOM
       1    C1      17.708713   18.931063   24.269559 C.2        1 MOL1         0.6115
       2    O1      16.919385   18.209262   23.692917 O.co2      1 MOL1        -0.6776
       3    O2      18.067245   18.753319   25.416965 O.co2      1 MOL1        -0.6776
       4    C2      18.264374   20.139707   23.521385 C.3        1 MOL1        -0.2013
       5    H1      18.195374   21.002281   24.194673 H          1 MOL1         0.0727
       6    H2      17.612208   20.352254   22.665528 H          1 MOL1         0.0727
       7    C3      19.731086   19.969284   23.047251 C.3        1 MOL1        -0.1910
       8    H3      20.089840   20.927367   22.647368 H          1 MOL1         0.0729
       9    H4      20.367003   19.728777   23.910614 H          1 MOL1         0.0729
      10    C4      19.882695   18.876952   21.965060 C.3        1 MOL1        -0.1909
      11    H5      19.235386   19.115032   21.109877 H          1 MOL1         0.0729
      12    H6      19.541574   17.911297   22.363267 H          1 MOL1         0.0729
      13    C5      21.343495   18.746516   21.485836 C.3        1 MOL1        -0.1884
      14    H7      21.688876   19.708531   21.082513 H          1 MOL1         0.0729
      15    H8      21.992909   18.505974   22.338991 H          1 MOL1         0.0729
      16    C6      21.491456   17.655975   20.406113 C.3        1 MOL1        -0.2899
      17    H9      20.875786   17.887597   19.527075 H          1 MOL1         0.0741
      18    H10     22.535754   17.576329   20.077197 H          1 MOL1         0.0741
      19    H11     21.182063   16.676092   20.792827 H          1 MOL1         0.0741
@<TRIPOS>BOND
    1     1     2    1
    2     1     3    2
    3     1     4    1
    4     4     5    1
    5     4     6    1
    6     4     7    1
    7     7     8    1
    8     7     9    1
    9     7    10    1
   10    10    11    1
   11    10    12    1
   12    10    13    1
   13    13    14    1
   14    13    15    1
   15    13    16    1
   16    16    17    1
   17    16    18    1
   18    16    19    1
@<TRIPOS>SUBSTRUCTURE
       1 MOL1            1 RESIDUE      1      MOL     
@<SCITEGIC>MOL_PROPERTY
VConf Rank
SciTegic.value.IntegerValue
976

@<SCITEGIC>MOL_PROPERTY
Conf_Id
SciTegic.value.IntegerValue
36

@<SCITEGIC>MOL_PROPERTY
Delta U+W
SciTegic.value.DoubleValue
-0.079

@<SCITEGIC>MOL_PROPERTY
U+W
SciTegic.value.DoubleValue
-54.971

@<SCITEGIC>MOL_PROPERTY
Grad RMS
SciTegic.value.DoubleValue
0.000000

@<SCITEGIC>MOL_PROPERTY
U
SciTegic.value.DoubleValue
8.266

@<SCITEGIC>MOL_PROPERTY
W
SciTegic.value.DoubleValue
-63.237

@<SCITEGIC>MOL_PROPERTY
W(PB)
SciTegic.value.DoubleValue
-65.340

@<SCITEGIC>MOL_PROPERTY
W(SA)
SciTegic.value.DoubleValue
2.103

@<SCITEGIC>MOL_PROPERTY
Valence
SciTegic.value.DoubleValue
6.935

@<SCITEGIC>MOL_PROPERTY
Coulomb
SciTegic.value.DoubleValue
0.874

@<SCITEGIC>MOL_PROPERTY
VdW
SciTegic.value.DoubleValue
0.457

@<SCITEGIC>MOL_PROPERTY
VdW6
SciTegic.value.DoubleValue
-6.205

@<SCITEGIC>MOL_PROPERTY
VdW12
SciTegic.value.DoubleValue
6.662

@<SCITEGIC>MOL_PROPERTY
Bond
SciTegic.value.DoubleValue
0.107

@<SCITEGIC>MOL_PROPERTY
Angle
SciTegic.value.DoubleValue
2.420

@<SCITEGIC>MOL_PROPERTY
Pdih
SciTegic.value.DoubleValue
4.407

@<SCITEGIC>MOL_PROPERTY
Idih
SciTegic.value.DoubleValue
0.001

@<SCITEGIC>MOL_PROPERTY
Tether
SciTegic.value.DoubleValue
0.000

@<TRIPOS>MOLECULE
guest-7_confgen4.mol2 : confsearch ligand conformer 977
          19          18           1
SMALL
USER_CHARGES
 
@<TRIPOS>ATOM
       1    C1      21.294734   17.615563   24.597298 C.2        1 MOL1         0.6115
       2    O1      21.021551   18.410562   25.474739 O.co2      1 MOL1        -0.6776
       3    O2      22.412953   17.177455   24.412018 O.co2      1 MOL1        -0.6776
       4    C2      20.169845   17.122757   23.691145 C.3        1 MOL1        -0.2013
       5    H1      19.210084   17.327820   24.180834 H          1 MOL1         0.0727
       6    H2      20.261844   16.032703   23.617475 H          1 MOL1         0.0727
       7    C3      20.187885   17.740952   22.268963 C.3        1 MOL1        -0.1910
       8    H3      21.164829   17.552207   21.802500 H          1 MOL1         0.0729
       9    H4      19.437790   17.231102   21.649329 H          1 MOL1         0.0729
      10    C4      19.895955   19.258195   22.276751 C.3        1 MOL1        -0.1909
      11    H5      20.652463   19.777751   22.881053 H          1 MOL1         0.0729
      12    H6      18.924538   19.442707   22.755640 H          1 MOL1         0.0729
      13    C5      19.887707   19.845641   20.850062 C.3        1 MOL1        -0.1884
      14    H7      20.859179   19.664544   20.369520 H          1 MOL1         0.0729
      15    H8      19.129771   19.332566   20.242017 H          1 MOL1         0.0729
      16    C6      19.596162   21.359529   20.861230 C.3        1 MOL1        -0.2899
      17    H9      20.357554   21.901721   21.437209 H          1 MOL1         0.0741
      18    H10     19.594498   21.760779   19.839426 H          1 MOL1         0.0741
      19    H11     18.615344   21.567263   21.308721 H          1 MOL1         0.0741
@<TRIPOS>BOND
    1     1     2    1
    2     1     3    2
    3     1     4    1
    4     4     5    1
    5     4     6    1
    6     4     7    1
    7     7     8    1
    8     7     9    1
    9     7    10    1
   10    10    11    1
   11    10    12    1
   12    10    13    1
   13    13    14    1
   14    13    15    1
   15    13    16    1
   16    16    17    1
   17    16    18    1
   18    16    19    1
@<TRIPOS>SUBSTRUCTURE
       1 MOL1            1 RESIDUE      1      MOL     
@<SCITEGIC>MOL_PROPERTY
VConf Rank
SciTegic.value.IntegerValue
977

@<SCITEGIC>MOL_PROPERTY
Conf_Id
SciTegic.value.IntegerValue
35

@<SCITEGIC>MOL_PROPERTY
Delta U+W
SciTegic.value.DoubleValue
-0.030

@<SCITEGIC>MOL_PROPERTY
U+W
SciTegic.value.DoubleValue
-54.921

@<SCITEGIC>MOL_PROPERTY
Grad RMS
SciTegic.value.DoubleValue
0.000000

@<SCITEGIC>MOL_PROPERTY
U
SciTegic.value.DoubleValue
8.267

@<SCITEGIC>MOL_PROPERTY
W
SciTegic.value.DoubleValue
-63.188

@<SCITEGIC>MOL_PROPERTY
W(PB)
SciTegic.value.DoubleValue
-65.294

@<SCITEGIC>MOL_PROPERTY
W(SA)
SciTegic.value.DoubleValue
2.106

@<SCITEGIC>MOL_PROPERTY
Valence
SciTegic.value.DoubleValue
6.935

@<SCITEGIC>MOL_PROPERTY
Coulomb
SciTegic.value.DoubleValue
0.875

@<SCITEGIC>MOL_PROPERTY
VdW
SciTegic.value.DoubleValue
0.457

@<SCITEGIC>MOL_PROPERTY
VdW6
SciTegic.value.DoubleValue
-6.205

@<SCITEGIC>MOL_PROPERTY
VdW12
SciTegic.value.DoubleValue
6.662

@<SCITEGIC>MOL_PROPERTY
Bond
SciTegic.value.DoubleValue
0.107

@<SCITEGIC>MOL_PROPERTY
Angle
SciTegic.value.DoubleValue
2.420

@<SCITEGIC>MOL_PROPERTY
Pdih
SciTegic.value.DoubleValue
4.407

@<SCITEGIC>MOL_PROPERTY
Idih
SciTegic.value.DoubleValue
0.001

@<SCITEGIC>MOL_PROPERTY
Tether
SciTegic.value.DoubleValue
0.000

@<TRIPOS>MOLECULE
guest-7_confgen4.mol2 : confsearch ligand conformer 978
          19          18           1
SMALL
USER_CHARGES
 
@<TRIPOS>ATOM
       1    C1      20.418099   16.609357   20.491639 C.2        1 MOL1         0.6115
       2    O1      19.364785   16.154258   20.091486 O.co2      1 MOL1        -0.6776
       3    O2      21.320047   15.925881   20.934353 O.co2      1 MOL1        -0.6776
       4    C2      20.625751   18.119373   20.412823 C.3        1 MOL1        -0.2013
       5    H1      20.298099   18.443161   19.417886 H          1 MOL1         0.0727
       6    H2      21.700311   18.329543   20.476920 H          1 MOL1         0.0727
       7    C3      19.858368   18.921377   21.496167 C.3        1 MOL1        -0.1910
       8    H3      19.944885   19.990546   21.264344 H          1 MOL1         0.0729
       9    H4      18.789715   18.670865   21.445634 H          1 MOL1         0.0729
      10    C4      20.393109   18.653687   22.923429 C.3        1 MOL1        -0.1909
      11    H5      21.451826   18.940882   22.982211 H          1 MOL1         0.0729
      12    H6      20.353244   17.574880   23.127420 H          1 MOL1         0.0729
      13    C5      19.595418   19.387876   24.025919 C.3        1 MOL1        -0.1884
      14    H7      18.536198   19.100920   23.970959 H          1 MOL1         0.0729
      15    H8      19.957782   19.050066   25.006632 H          1 MOL1         0.0729
      16    C6      19.722146   20.924947   23.952651 C.3        1 MOL1        -0.2899
      17    H9      19.264722   21.321980   23.037910 H          1 MOL1         0.0741
      18    H10     19.215552   21.392619   24.806807 H          1 MOL1         0.0741
      19    H11     20.775369   21.233835   23.974010 H          1 MOL1         0.0741
@<TRIPOS>BOND
    1     1     2    1
    2     1     3    2
    3     1     4    1
    4     4     5    1
    5     4     6    1
    6     4     7    1
    7     7     8    1
    8     7     9    1
    9     7    10    1
   10    10    11    1
   11    10    12    1
   12    10    13    1
   13    13    14    1
   14    13    15    1
   15    13    16    1
   16    16    17    1
   17    16    18    1
   18    16    19    1
@<TRIPOS>SUBSTRUCTURE
       1 MOL1            1 RESIDUE      1      MOL     
@<SCITEGIC>MOL_PROPERTY
VConf Rank
SciTegic.value.IntegerValue
978

@<SCITEGIC>MOL_PROPERTY
Conf_Id
SciTegic.value.IntegerValue
74

@<SCITEGIC>MOL_PROPERTY
Delta U+W
SciTegic.value.DoubleValue
0.797

@<SCITEGIC>MOL_PROPERTY
U+W
SciTegic.value.DoubleValue
-54.095

@<SCITEGIC>MOL_PROPERTY
Grad RMS
SciTegic.value.DoubleValue
0.000000

@<SCITEGIC>MOL_PROPERTY
U
SciTegic.value.DoubleValue
8.869

@<SCITEGIC>MOL_PROPERTY
W
SciTegic.value.DoubleValue
-62.964

@<SCITEGIC>MOL_PROPERTY
W(PB)
SciTegic.value.DoubleValue
-65.046

@<SCITEGIC>MOL_PROPERTY
W(SA)
SciTegic.value.DoubleValue
2.082

@<SCITEGIC>MOL_PROPERTY
Valence
SciTegic.value.DoubleValue
7.469

@<SCITEGIC>MOL_PROPERTY
Coulomb
SciTegic.value.DoubleValue
0.762

@<SCITEGIC>MOL_PROPERTY
VdW
SciTegic.value.DoubleValue
0.639

@<SCITEGIC>MOL_PROPERTY
VdW6
SciTegic.value.DoubleValue
-6.782

@<SCITEGIC>MOL_PROPERTY
VdW12
SciTegic.value.DoubleValue
7.421

@<SCITEGIC>MOL_PROPERTY
Bond
SciTegic.value.DoubleValue
0.141

@<SCITEGIC>MOL_PROPERTY
Angle
SciTegic.value.DoubleValue
2.667

@<SCITEGIC>MOL_PROPERTY
Pdih
SciTegic.value.DoubleValue
4.660

@<SCITEGIC>MOL_PROPERTY
Idih
SciTegic.value.DoubleValue
0.001

@<SCITEGIC>MOL_PROPERTY
Tether
SciTegic.value.DoubleValue
0.000

@<TRIPOS>MOLECULE
guest-7_confgen4.mol2 : confsearch ligand conformer 979
          19          18           1
SMALL
USER_CHARGES
 
@<TRIPOS>ATOM
       1    C1      22.809835   18.881250   21.546484 C.2        1 MOL1         0.6115
       2    O1      23.709199   19.624044   21.886812 O.co2      1 MOL1        -0.6776
       3    O2      22.989623   17.750334   21.140247 O.co2      1 MOL1        -0.6776
       4    C2      21.376639   19.389995   21.653012 C.3        1 MOL1        -0.2013
       5    H1      20.797292   18.926966   20.846092 H          1 MOL1         0.0727
       6    H2      21.384003   20.471189   21.470477 H          1 MOL1         0.0727
       7    C3      20.731494   19.084290   23.029573 C.3        1 MOL1        -0.1910
       8    H3      20.694712   17.997858   23.184784 H          1 MOL1         0.0729
       9    H4      21.382739   19.481998   23.820084 H          1 MOL1         0.0729
      10    C4      19.318400   19.696303   23.200854 C.3        1 MOL1        -0.1909
      11    H5      19.395377   20.790650   23.143647 H          1 MOL1         0.0729
      12    H6      18.956794   19.470419   24.213276 H          1 MOL1         0.0729
      13    C5      18.262870   19.217061   22.174169 C.3        1 MOL1        -0.1884
      14    H7      17.312912   19.726857   22.385749 H          1 MOL1         0.0729
      15    H8      18.552549   19.524562   21.160691 H          1 MOL1         0.0729
      16    C6      18.025732   17.691925   22.207670 C.3        1 MOL1        -0.2899
      17    H9      17.756738   17.358224   23.218272 H          1 MOL1         0.0741
      18    H10     17.207264   17.415421   21.530565 H          1 MOL1         0.0741
      19    H11     18.920616   17.142219   21.889437 H          1 MOL1         0.0741
@<TRIPOS>BOND
    1     1     2    1
    2     1     3    2
    3     1     4    1
    4     4     5    1
    5     4     6    1
    6     4     7    1
    7     7     8    1
    8     7     9    1
    9     7    10    1
   10    10    11    1
   11    10    12    1
   12    10    13    1
   13    13    14    1
   14    13    15    1
   15    13    16    1
   16    16    17    1
   17    16    18    1
   18    16    19    1
@<TRIPOS>SUBSTRUCTURE
       1 MOL1            1 RESIDUE      1      MOL     
@<SCITEGIC>MOL_PROPERTY
VConf Rank
SciTegic.value.IntegerValue
979

@<SCITEGIC>MOL_PROPERTY
Conf_Id
SciTegic.value.IntegerValue
67

@<SCITEGIC>MOL_PROPERTY
Delta U+W
SciTegic.value.DoubleValue
0.308

@<SCITEGIC>MOL_PROPERTY
U+W
SciTegic.value.DoubleValue
-54.583

@<SCITEGIC>MOL_PROPERTY
Grad RMS
SciTegic.value.DoubleValue
0.000000

@<SCITEGIC>MOL_PROPERTY
U
SciTegic.value.DoubleValue
8.219

@<SCITEGIC>MOL_PROPERTY
W
SciTegic.value.DoubleValue
-62.802

@<SCITEGIC>MOL_PROPERTY
W(PB)
SciTegic.value.DoubleValue
-64.859

@<SCITEGIC>MOL_PROPERTY
W(SA)
SciTegic.value.DoubleValue
2.057

@<SCITEGIC>MOL_PROPERTY
Valence
SciTegic.value.DoubleValue
7.609

@<SCITEGIC>MOL_PROPERTY
Coulomb
SciTegic.value.DoubleValue
-0.089

@<SCITEGIC>MOL_PROPERTY
VdW
SciTegic.value.DoubleValue
0.699

@<SCITEGIC>MOL_PROPERTY
VdW6
SciTegic.value.DoubleValue
-6.924

@<SCITEGIC>MOL_PROPERTY
VdW12
SciTegic.value.DoubleValue
7.623

@<SCITEGIC>MOL_PROPERTY
Bond
SciTegic.value.DoubleValue
0.163

@<SCITEGIC>MOL_PROPERTY
Angle
SciTegic.value.DoubleValue
2.870

@<SCITEGIC>MOL_PROPERTY
Pdih
SciTegic.value.DoubleValue
4.576

@<SCITEGIC>MOL_PROPERTY
Idih
SciTegic.value.DoubleValue
0.001

@<SCITEGIC>MOL_PROPERTY
Tether
SciTegic.value.DoubleValue
0.000

@<TRIPOS>MOLECULE
guest-7_confgen4.mol2 : confsearch ligand conformer 980
          19          18           1
SMALL
USER_CHARGES
 
@<TRIPOS>ATOM
       1    C1      22.770924   19.807666   22.096414 C.2        1 MOL1         0.6115
       2    O1      23.321121   20.750965   22.629230 O.co2      1 MOL1        -0.6776
       3    O2      23.173312   19.283108   21.076980 O.co2      1 MOL1        -0.6776
       4    C2      21.495318   19.265612   22.731414 C.3        1 MOL1        -0.2013
       5    H1      21.570350   19.401260   23.816921 H          1 MOL1         0.0727
       6    H2      21.459047   18.187225   22.539254 H          1 MOL1         0.0727
       7    C3      20.215796   19.956752   22.193143 C.3        1 MOL1        -0.1910
       8    H3      20.323162   21.043114   22.317598 H          1 MOL1         0.0729
       9    H4      20.131029   19.782105   21.112360 H          1 MOL1         0.0729
      10    C4      18.919091   19.504299   22.910476 C.3        1 MOL1        -0.1909
      11    H5      18.072879   20.072181   22.500337 H          1 MOL1         0.0729
      12    H6      18.984278   19.781428   23.971487 H          1 MOL1         0.0729
      13    C5      18.602456   17.991872   22.809441 C.3        1 MOL1        -0.1884
      14    H7      19.386516   17.406103   23.307169 H          1 MOL1         0.0729
      15    H8      17.675675   17.791021   23.364252 H          1 MOL1         0.0729
      16    C6      18.427731   17.499465   21.356718 C.3        1 MOL1        -0.2899
      17    H9      19.367194   17.574633   20.794556 H          1 MOL1         0.0741
      18    H10     18.115015   16.447407   21.342653 H          1 MOL1         0.0741
      19    H11     17.663369   18.087133   20.831906 H          1 MOL1         0.0741
@<TRIPOS>BOND
    1     1     2    1
    2     1     3    2
    3     1     4    1
    4     4     5    1
    5     4     6    1
    6     4     7    1
    7     7     8    1
    8     7     9    1
    9     7    10    1
   10    10    11    1
   11    10    12    1
   12    10    13    1
   13    13    14    1
   14    13    15    1
   15    13    16    1
   16    16    17    1
   17    16    18    1
   18    16    19    1
@<TRIPOS>SUBSTRUCTURE
       1 MOL1            1 RESIDUE      1      MOL     
@<SCITEGIC>MOL_PROPERTY
VConf Rank
SciTegic.value.IntegerValue
980

@<SCITEGIC>MOL_PROPERTY
Conf_Id
SciTegic.value.IntegerValue
21

@<SCITEGIC>MOL_PROPERTY
Delta U+W
SciTegic.value.DoubleValue
0.319

@<SCITEGIC>MOL_PROPERTY
U+W
SciTegic.value.DoubleValue
-54.572

@<SCITEGIC>MOL_PROPERTY
Grad RMS
SciTegic.value.DoubleValue
0.000000

@<SCITEGIC>MOL_PROPERTY
U
SciTegic.value.DoubleValue
8.220

@<SCITEGIC>MOL_PROPERTY
W
SciTegic.value.DoubleValue
-62.792

@<SCITEGIC>MOL_PROPERTY
W(PB)
SciTegic.value.DoubleValue
-64.830

@<SCITEGIC>MOL_PROPERTY
W(SA)
SciTegic.value.DoubleValue
2.038

@<SCITEGIC>MOL_PROPERTY
Valence
SciTegic.value.DoubleValue
7.609

@<SCITEGIC>MOL_PROPERTY
Coulomb
SciTegic.value.DoubleValue
-0.088

@<SCITEGIC>MOL_PROPERTY
VdW
SciTegic.value.DoubleValue
0.699

@<SCITEGIC>MOL_PROPERTY
VdW6
SciTegic.value.DoubleValue
-6.924

@<SCITEGIC>MOL_PROPERTY
VdW12
SciTegic.value.DoubleValue
7.623

@<SCITEGIC>MOL_PROPERTY
Bond
SciTegic.value.DoubleValue
0.163

@<SCITEGIC>MOL_PROPERTY
Angle
SciTegic.value.DoubleValue
2.870

@<SCITEGIC>MOL_PROPERTY
Pdih
SciTegic.value.DoubleValue
4.576

@<SCITEGIC>MOL_PROPERTY
Idih
SciTegic.value.DoubleValue
0.000

@<SCITEGIC>MOL_PROPERTY
Tether
SciTegic.value.DoubleValue
0.000

@<TRIPOS>MOLECULE
guest-7_confgen4.mol2 : confsearch ligand conformer 981
          19          18           1
SMALL
USER_CHARGES
 
@<TRIPOS>ATOM
       1    C1      20.141261   20.482500   19.890790 C.2        1 MOL1         0.6115
       2    O1      19.350631   20.597357   18.975285 O.co2      1 MOL1        -0.6776
       3    O2      20.996858   21.306139   20.147357 O.co2      1 MOL1        -0.6776
       4    C2      20.041931   19.245945   20.776876 C.3        1 MOL1        -0.2013
       5    H1      21.050476   18.998843   21.122710 H          1 MOL1         0.0727
       6    H2      19.704527   18.409384   20.153410 H          1 MOL1         0.0727
       7    C3      19.073687   19.440656   21.973615 C.3        1 MOL1        -0.1910
       8    H3      19.376447   20.314461   22.566981 H          1 MOL1         0.0729
       9    H4      18.079568   19.675633   21.568760 H          1 MOL1         0.0729
      10    C4      18.955996   18.190219   22.881636 C.3        1 MOL1        -0.1909
      11    H5      19.122145   17.276395   22.294935 H          1 MOL1         0.0729
      12    H6      17.920825   18.128024   23.244299 H          1 MOL1         0.0729
      13    C5      19.883230   18.202283   24.121797 C.3        1 MOL1        -0.1884
      14    H7      19.648060   19.073285   24.748940 H          1 MOL1         0.0729
      15    H8      19.660683   17.315811   24.731580 H          1 MOL1         0.0729
      16    C6      21.388935   18.205316   23.786329 C.3        1 MOL1        -0.2899
      17    H9      21.985432   18.081208   24.699348 H          1 MOL1         0.0741
      18    H10     21.642296   17.385294   23.101969 H          1 MOL1         0.0741
      19    H11     21.688885   19.153523   23.322939 H          1 MOL1         0.0741
@<TRIPOS>BOND
    1     1     2    1
    2     1     3    2
    3     1     4    1
    4     4     5    1
    5     4     6    1
    6     4     7    1
    7     7     8    1
    8     7     9    1
    9     7    10    1
   10    10    11    1
   11    10    12    1
   12    10    13    1
   13    13    14    1
   14    13    15    1
   15    13    16    1
   16    16    17    1
   17    16    18    1
   18    16    19    1
@<TRIPOS>SUBSTRUCTURE
       1 MOL1            1 RESIDUE      1      MOL     
@<SCITEGIC>MOL_PROPERTY
VConf Rank
SciTegic.value.IntegerValue
981

@<SCITEGIC>MOL_PROPERTY
Conf_Id
SciTegic.value.IntegerValue
24

@<SCITEGIC>MOL_PROPERTY
Delta U+W
SciTegic.value.DoubleValue
2.477

@<SCITEGIC>MOL_PROPERTY
U+W
SciTegic.value.DoubleValue
-52.414

@<SCITEGIC>MOL_PROPERTY
Grad RMS
SciTegic.value.DoubleValue
0.000000

@<SCITEGIC>MOL_PROPERTY
U
SciTegic.value.DoubleValue
10.422

@<SCITEGIC>MOL_PROPERTY
W
SciTegic.value.DoubleValue
-62.836

@<SCITEGIC>MOL_PROPERTY
W(PB)
SciTegic.value.DoubleValue
-64.906

@<SCITEGIC>MOL_PROPERTY
W(SA)
SciTegic.value.DoubleValue
2.070

@<SCITEGIC>MOL_PROPERTY
Valence
SciTegic.value.DoubleValue
9.628

@<SCITEGIC>MOL_PROPERTY
Coulomb
SciTegic.value.DoubleValue
0.101

@<SCITEGIC>MOL_PROPERTY
VdW
SciTegic.value.DoubleValue
0.693

@<SCITEGIC>MOL_PROPERTY
VdW6
SciTegic.value.DoubleValue
-6.927

@<SCITEGIC>MOL_PROPERTY
VdW12
SciTegic.value.DoubleValue
7.620

@<SCITEGIC>MOL_PROPERTY
Bond
SciTegic.value.DoubleValue
0.173

@<SCITEGIC>MOL_PROPERTY
Angle
SciTegic.value.DoubleValue
2.989

@<SCITEGIC>MOL_PROPERTY
Pdih
SciTegic.value.DoubleValue
6.465

@<SCITEGIC>MOL_PROPERTY
Idih
SciTegic.value.DoubleValue
0.001

@<SCITEGIC>MOL_PROPERTY
Tether
SciTegic.value.DoubleValue
0.000

@<TRIPOS>MOLECULE
guest-7_confgen4.mol2 : confsearch ligand conformer 982
          19          18           1
SMALL
USER_CHARGES
 
@<TRIPOS>ATOM
       1    C1      22.045952   18.749148   23.815638 C.2        1 MOL1         0.6115
       2    O1      22.416032   19.903422   23.729716 O.co2      1 MOL1        -0.6776
       3    O2      22.280800   18.039067   24.773607 O.co2      1 MOL1        -0.6776
       4    C2      21.269570   18.147196   22.647256 C.3        1 MOL1        -0.2013
       5    H1      21.733737   17.182006   22.413348 H          1 MOL1         0.0727
       6    H2      21.415439   18.785750   21.770214 H          1 MOL1         0.0727
       7    C3      19.757933   17.933067   22.937152 C.3        1 MOL1        -0.1910
       8    H3      19.310886   17.317180   22.145279 H          1 MOL1         0.0729
       9    H4      19.669357   17.346350   23.862058 H          1 MOL1         0.0729
      10    C4      18.948814   19.246277   23.099280 C.3        1 MOL1        -0.1909
      11    H5      19.586609   20.044054   23.503723 H          1 MOL1         0.0729
      12    H6      18.170585   19.075628   23.855601 H          1 MOL1         0.0729
      13    C5      18.244933   19.734550   21.809300 C.3        1 MOL1        -0.1884
      14    H7      17.540993   18.966806   21.459672 H          1 MOL1         0.0729
      15    H8      17.639081   20.617181   22.056405 H          1 MOL1         0.0729
      16    C6      19.210641   20.103862   20.664498 C.3        1 MOL1        -0.2899
      17    H9      19.715802   19.213383   20.270523 H          1 MOL1         0.0741
      18    H10     18.662422   20.567345   19.834187 H          1 MOL1         0.0741
      19    H11     19.973218   20.815588   21.007146 H          1 MOL1         0.0741
@<TRIPOS>BOND
    1     1     2    1
    2     1     3    2
    3     1     4    1
    4     4     5    1
    5     4     6    1
    6     4     7    1
    7     7     8    1
    8     7     9    1
    9     7    10    1
   10    10    11    1
   11    10    12    1
   12    10    13    1
   13    13    14    1
   14    13    15    1
   15    13    16    1
   16    16    17    1
   17    16    18    1
   18    16    19    1
@<TRIPOS>SUBSTRUCTURE
       1 MOL1            1 RESIDUE      1      MOL     
@<SCITEGIC>MOL_PROPERTY
VConf Rank
SciTegic.value.IntegerValue
982

@<SCITEGIC>MOL_PROPERTY
Conf_Id
SciTegic.value.IntegerValue
4

@<SCITEGIC>MOL_PROPERTY
Delta U+W
SciTegic.value.DoubleValue
3.753

@<SCITEGIC>MOL_PROPERTY
U+W
SciTegic.value.DoubleValue
-51.138

@<SCITEGIC>MOL_PROPERTY
Grad RMS
SciTegic.value.DoubleValue
0.000000

@<SCITEGIC>MOL_PROPERTY
U
SciTegic.value.DoubleValue
12.334

@<SCITEGIC>MOL_PROPERTY
W
SciTegic.value.DoubleValue
-63.472

@<SCITEGIC>MOL_PROPERTY
W(PB)
SciTegic.value.DoubleValue
-65.500

@<SCITEGIC>MOL_PROPERTY
W(SA)
SciTegic.value.DoubleValue
2.028

@<SCITEGIC>MOL_PROPERTY
Valence
SciTegic.value.DoubleValue
9.984

@<SCITEGIC>MOL_PROPERTY
Coulomb
SciTegic.value.DoubleValue
1.767

@<SCITEGIC>MOL_PROPERTY
VdW
SciTegic.value.DoubleValue
0.583

@<SCITEGIC>MOL_PROPERTY
VdW6
SciTegic.value.DoubleValue
-7.767

@<SCITEGIC>MOL_PROPERTY
VdW12
SciTegic.value.DoubleValue
8.349

@<SCITEGIC>MOL_PROPERTY
Bond
SciTegic.value.DoubleValue
0.203

@<SCITEGIC>MOL_PROPERTY
Angle
SciTegic.value.DoubleValue
3.191

@<SCITEGIC>MOL_PROPERTY
Pdih
SciTegic.value.DoubleValue
6.589

@<SCITEGIC>MOL_PROPERTY
Idih
SciTegic.value.DoubleValue
0.001

@<SCITEGIC>MOL_PROPERTY
Tether
SciTegic.value.DoubleValue
0.000

@<TRIPOS>MOLECULE
guest-7_confgen4.mol2 : confsearch ligand conformer 983
          19          18           1
SMALL
USER_CHARGES
 
@<TRIPOS>ATOM
       1    C1      19.582508   18.954864   24.999892 C.2        1 MOL1         0.6115
       2    O1      18.760961   18.402963   25.705257 O.co2      1 MOL1        -0.6776
       3    O2      20.760100   19.044517   25.286130 O.co2      1 MOL1        -0.6776
       4    C2      19.101089   19.593795   23.699802 C.3        1 MOL1        -0.2013
       5    H1      19.866851   20.296463   23.356152 H          1 MOL1         0.0727
       6    H2      18.213716   20.190318   23.941639 H          1 MOL1         0.0727
       7    C3      18.743429   18.569300   22.587406 C.3        1 MOL1        -0.1910
       8    H3      18.025865   17.850082   23.006169 H          1 MOL1         0.0729
       9    H4      18.217496   19.077982   21.768339 H          1 MOL1         0.0729
      10    C4      19.960681   17.790233   22.024534 C.3        1 MOL1        -0.1909
      11    H5      19.630110   16.771119   21.781813 H          1 MOL1         0.0729
      12    H6      20.734718   17.675973   22.795648 H          1 MOL1         0.0729
      13    C5      20.578382   18.397194   20.740810 C.3        1 MOL1        -0.1884
      14    H7      21.372410   17.725856   20.385877 H          1 MOL1         0.0729
      15    H8      19.821554   18.425687   19.944820 H          1 MOL1         0.0729
      16    C6      21.173733   19.807272   20.932627 C.3        1 MOL1        -0.2899
      17    H9      21.880236   19.825163   21.772877 H          1 MOL1         0.0741
      18    H10     21.712124   20.122831   20.029667 H          1 MOL1         0.0741
      19    H11     20.385964   20.546606   21.122788 H          1 MOL1         0.0741
@<TRIPOS>BOND
    1     1     2    1
    2     1     3    2
    3     1     4    1
    4     4     5    1
    5     4     6    1
    6     4     7    1
    7     7     8    1
    8     7     9    1
    9     7    10    1
   10    10    11    1
   11    10    12    1
   12    10    13    1
   13    13    14    1
   14    13    15    1
   15    13    16    1
   16    16    17    1
   17    16    18    1
   18    16    19    1
@<TRIPOS>SUBSTRUCTURE
       1 MOL1            1 RESIDUE      1      MOL     
@<SCITEGIC>MOL_PROPERTY
VConf Rank
SciTegic.value.IntegerValue
983

@<SCITEGIC>MOL_PROPERTY
Conf_Id
SciTegic.value.IntegerValue
73

@<SCITEGIC>MOL_PROPERTY
Delta U+W
SciTegic.value.DoubleValue
3.707

@<SCITEGIC>MOL_PROPERTY
U+W
SciTegic.value.DoubleValue
-51.184

@<SCITEGIC>MOL_PROPERTY
Grad RMS
SciTegic.value.DoubleValue
0.000000

@<SCITEGIC>MOL_PROPERTY
U
SciTegic.value.DoubleValue
12.334

@<SCITEGIC>MOL_PROPERTY
W
SciTegic.value.DoubleValue
-63.519

@<SCITEGIC>MOL_PROPERTY
W(PB)
SciTegic.value.DoubleValue
-65.541

@<SCITEGIC>MOL_PROPERTY
W(SA)
SciTegic.value.DoubleValue
2.022

@<SCITEGIC>MOL_PROPERTY
Valence
SciTegic.value.DoubleValue
9.984

@<SCITEGIC>MOL_PROPERTY
Coulomb
SciTegic.value.DoubleValue
1.768

@<SCITEGIC>MOL_PROPERTY
VdW
SciTegic.value.DoubleValue
0.583

@<SCITEGIC>MOL_PROPERTY
VdW6
SciTegic.value.DoubleValue
-7.767

@<SCITEGIC>MOL_PROPERTY
VdW12
SciTegic.value.DoubleValue
8.350

@<SCITEGIC>MOL_PROPERTY
Bond
SciTegic.value.DoubleValue
0.203

@<SCITEGIC>MOL_PROPERTY
Angle
SciTegic.value.DoubleValue
3.192

@<SCITEGIC>MOL_PROPERTY
Pdih
SciTegic.value.DoubleValue
6.589

@<SCITEGIC>MOL_PROPERTY
Idih
SciTegic.value.DoubleValue
0.001

@<SCITEGIC>MOL_PROPERTY
Tether
SciTegic.value.DoubleValue
0.000

@<TRIPOS>MOLECULE
guest-7_confgen4.mol2 : confsearch ligand conformer 984
          19          18           1
SMALL
USER_CHARGES
 
@<TRIPOS>ATOM
       1    C1      19.106517   16.809116   23.512149 C.2        1 MOL1         0.6115
       2    O1      17.917582   17.057936   23.547311 O.co2      1 MOL1        -0.6776
       3    O2      19.553504   15.690823   23.348497 O.co2      1 MOL1        -0.6776
       4    C2      20.093396   17.955308   23.716205 C.3        1 MOL1        -0.2013
       5    H1      20.803034   17.641112   24.490391 H          1 MOL1         0.0727
       6    H2      19.552227   18.817359   24.122776 H          1 MOL1         0.0727
       7    C3      20.874939   18.356052   22.435243 C.3        1 MOL1        -0.1910
       8    H3      21.610062   19.131095   22.687766 H          1 MOL1         0.0729
       9    H4      21.456566   17.489194   22.092638 H          1 MOL1         0.0729
      10    C4      19.981343   18.846314   21.266816 C.3        1 MOL1        -0.1909
      11    H5      19.332419   18.021542   20.941652 H          1 MOL1         0.0729
      12    H6      20.623250   19.081960   20.407154 H          1 MOL1         0.0729
      13    C5      19.097661   20.077412   21.584184 C.3        1 MOL1        -0.1884
      14    H7      18.502066   20.318970   20.693222 H          1 MOL1         0.0729
      15    H8      18.374760   19.829576   22.373130 H          1 MOL1         0.0729
      16    C6      19.910044   21.325329   21.992119 C.3        1 MOL1        -0.2899
      17    H9      20.434066   21.166708   22.942988 H          1 MOL1         0.0741
      18    H10     20.654262   21.577336   21.225540 H          1 MOL1         0.0741
      19    H11     19.246932   22.190906   22.118039 H          1 MOL1         0.0741
@<TRIPOS>BOND
    1     1     2    1
    2     1     3    2
    3     1     4    1
    4     4     5    1
    5     4     6    1
    6     4     7    1
    7     7     8    1
    8     7     9    1
    9     7    10    1
   10    10    11    1
   11    10    12    1
   12    10    13    1
   13    13    14    1
   14    13    15    1
   15    13    16    1
   16    16    17    1
   17    16    18    1
   18    16    19    1
@<TRIPOS>SUBSTRUCTURE
       1 MOL1            1 RESIDUE      1      MOL     
@<SCITEGIC>MOL_PROPERTY
VConf Rank
SciTegic.value.IntegerValue
984

@<SCITEGIC>MOL_PROPERTY
Conf_Id
SciTegic.value.IntegerValue
56

@<SCITEGIC>MOL_PROPERTY
Delta U+W
SciTegic.value.DoubleValue
1.735

@<SCITEGIC>MOL_PROPERTY
U+W
SciTegic.value.DoubleValue
-53.156

@<SCITEGIC>MOL_PROPERTY
Grad RMS
SciTegic.value.DoubleValue
0.000000

@<SCITEGIC>MOL_PROPERTY
U
SciTegic.value.DoubleValue
10.214

@<SCITEGIC>MOL_PROPERTY
W
SciTegic.value.DoubleValue
-63.370

@<SCITEGIC>MOL_PROPERTY
W(PB)
SciTegic.value.DoubleValue
-65.388

@<SCITEGIC>MOL_PROPERTY
W(SA)
SciTegic.value.DoubleValue
2.018

@<SCITEGIC>MOL_PROPERTY
Valence
SciTegic.value.DoubleValue
7.868

@<SCITEGIC>MOL_PROPERTY
Coulomb
SciTegic.value.DoubleValue
1.968

@<SCITEGIC>MOL_PROPERTY
VdW
SciTegic.value.DoubleValue
0.378

@<SCITEGIC>MOL_PROPERTY
VdW6
SciTegic.value.DoubleValue
-8.067

@<SCITEGIC>MOL_PROPERTY
VdW12
SciTegic.value.DoubleValue
8.445

@<SCITEGIC>MOL_PROPERTY
Bond
SciTegic.value.DoubleValue
0.191

@<SCITEGIC>MOL_PROPERTY
Angle
SciTegic.value.DoubleValue
3.117

@<SCITEGIC>MOL_PROPERTY
Pdih
SciTegic.value.DoubleValue
4.559

@<SCITEGIC>MOL_PROPERTY
Idih
SciTegic.value.DoubleValue
0.001

@<SCITEGIC>MOL_PROPERTY
Tether
SciTegic.value.DoubleValue
0.000

@<TRIPOS>MOLECULE
guest-7_confgen4.mol2 : confsearch ligand conformer 985
          19          18           1
SMALL
USER_CHARGES
 
@<TRIPOS>ATOM
       1    C1      20.826181   19.540163   25.023557 C.2        1 MOL1         0.6115
       2    O1      21.066915   20.666430   25.410769 O.co2      1 MOL1        -0.6776
       3    O2      21.108810   18.538952   25.651309 O.co2      1 MOL1        -0.6776
       4    C2      20.152153   19.373789   23.666264 C.3        1 MOL1        -0.2013
       5    H1      19.501596   20.240591   23.499504 H          1 MOL1         0.0727
       6    H2      19.512346   18.485985   23.720664 H          1 MOL1         0.0727
       7    C3      21.167660   19.234289   22.504257 C.3        1 MOL1        -0.1910
       8    H3      21.884060   20.065461   22.561918 H          1 MOL1         0.0729
       9    H4      21.752307   18.314508   22.643489 H          1 MOL1         0.0729
      10    C4      20.528001   19.235211   21.093113 C.3        1 MOL1        -0.1909
      11    H5      21.345032   19.185714   20.360322 H          1 MOL1         0.0729
      12    H6      20.020226   20.192011   20.909539 H          1 MOL1         0.0729
      13    C5      19.563215   18.054829   20.819266 C.3        1 MOL1        -0.1884
      14    H7      19.668921   17.752346   19.768233 H          1 MOL1         0.0729
      15    H8      19.850810   17.180240   21.419008 H          1 MOL1         0.0729
      16    C6      18.079911   18.409525   21.065699 C.3        1 MOL1        -0.2899
      17    H9      17.437395   17.548258   20.841492 H          1 MOL1         0.0741
      18    H10     17.896369   18.701415   22.105762 H          1 MOL1         0.0741
      19    H11     17.764914   19.239783   20.420269 H          1 MOL1         0.0741
@<TRIPOS>BOND
    1     1     2    1
    2     1     3    2
    3     1     4    1
    4     4     5    1
    5     4     6    1
    6     4     7    1
    7     7     8    1
    8     7     9    1
    9     7    10    1
   10    10    11    1
   11    10    12    1
   12    10    13    1
   13    13    14    1
   14    13    15    1
   15    13    16    1
   16    16    17    1
   17    16    18    1
   18    16    19    1
@<TRIPOS>SUBSTRUCTURE
       1 MOL1            1 RESIDUE      1      MOL     
@<SCITEGIC>MOL_PROPERTY
VConf Rank
SciTegic.value.IntegerValue
985

@<SCITEGIC>MOL_PROPERTY
Conf_Id
SciTegic.value.IntegerValue
53

@<SCITEGIC>MOL_PROPERTY
Delta U+W
SciTegic.value.DoubleValue
2.279

@<SCITEGIC>MOL_PROPERTY
U+W
SciTegic.value.DoubleValue
-52.612

@<SCITEGIC>MOL_PROPERTY
Grad RMS
SciTegic.value.DoubleValue
0.000000

@<SCITEGIC>MOL_PROPERTY
U
SciTegic.value.DoubleValue
10.231

@<SCITEGIC>MOL_PROPERTY
W
SciTegic.value.DoubleValue
-62.843

@<SCITEGIC>MOL_PROPERTY
W(PB)
SciTegic.value.DoubleValue
-64.893

@<SCITEGIC>MOL_PROPERTY
W(SA)
SciTegic.value.DoubleValue
2.050

@<SCITEGIC>MOL_PROPERTY
Valence
SciTegic.value.DoubleValue
9.644

@<SCITEGIC>MOL_PROPERTY
Coulomb
SciTegic.value.DoubleValue
-0.164

@<SCITEGIC>MOL_PROPERTY
VdW
SciTegic.value.DoubleValue
0.751

@<SCITEGIC>MOL_PROPERTY
VdW6
SciTegic.value.DoubleValue
-6.881

@<SCITEGIC>MOL_PROPERTY
VdW12
SciTegic.value.DoubleValue
7.631

@<SCITEGIC>MOL_PROPERTY
Bond
SciTegic.value.DoubleValue
0.163

@<SCITEGIC>MOL_PROPERTY
Angle
SciTegic.value.DoubleValue
2.998

@<SCITEGIC>MOL_PROPERTY
Pdih
SciTegic.value.DoubleValue
6.482

@<SCITEGIC>MOL_PROPERTY
Idih
SciTegic.value.DoubleValue
0.001

@<SCITEGIC>MOL_PROPERTY
Tether
SciTegic.value.DoubleValue
0.000

@<TRIPOS>MOLECULE
guest-7_confgen4.mol2 : confsearch ligand conformer 986
          19          18           1
SMALL
USER_CHARGES
 
@<TRIPOS>ATOM
       1    C1      21.236773   20.877844   21.594807 C.2        1 MOL1         0.6115
       2    O1      22.419356   20.602559   21.645487 O.co2      1 MOL1        -0.6776
       3    O2      20.753997   21.857817   22.127562 O.co2      1 MOL1        -0.6776
       4    C2      20.323922   19.982425   20.759098 C.3        1 MOL1        -0.2013
       5    H1      20.924341   19.183833   20.306693 H          1 MOL1         0.0727
       6    H2      19.954898   20.602718   19.934063 H          1 MOL1         0.0727
       7    C3      19.109725   19.378051   21.519086 C.3        1 MOL1        -0.1910
       8    H3      18.633207   20.150553   22.138532 H          1 MOL1         0.0729
       9    H4      18.358026   19.081454   20.775180 H          1 MOL1         0.0729
      10    C4      19.436781   18.133302   22.380661 C.3        1 MOL1        -0.1909
      11    H5      19.906085   17.362648   21.754018 H          1 MOL1         0.0729
      12    H6      18.489696   17.705993   22.737660 H          1 MOL1         0.0729
      13    C5      20.337142   18.430072   23.600026 C.3        1 MOL1        -0.1884
      14    H7      21.337231   18.733320   23.264961 H          1 MOL1         0.0729
      15    H8      19.921811   19.269916   24.174099 H          1 MOL1         0.0729
      16    C6      20.472121   17.197416   24.516637 C.3        1 MOL1        -0.2899
      17    H9      20.909694   16.350184   23.972500 H          1 MOL1         0.0741
      18    H10     21.121272   17.422102   25.372888 H          1 MOL1         0.0741
      19    H11     19.493521   16.887151   24.905734 H          1 MOL1         0.0741
@<TRIPOS>BOND
    1     1     2    1
    2     1     3    2
    3     1     4    1
    4     4     5    1
    5     4     6    1
    6     4     7    1
    7     7     8    1
    8     7     9    1
    9     7    10    1
   10    10    11    1
   11    10    12    1
   12    10    13    1
   13    13    14    1
   14    13    15    1
   15    13    16    1
   16    16    17    1
   17    16    18    1
   18    16    19    1
@<TRIPOS>SUBSTRUCTURE
       1 MOL1            1 RESIDUE      1      MOL     
@<SCITEGIC>MOL_PROPERTY
VConf Rank
SciTegic.value.IntegerValue
986

@<SCITEGIC>MOL_PROPERTY
Conf_Id
SciTegic.value.IntegerValue
25

@<SCITEGIC>MOL_PROPERTY
Delta U+W
SciTegic.value.DoubleValue
2.065

@<SCITEGIC>MOL_PROPERTY
U+W
SciTegic.value.DoubleValue
-52.826

@<SCITEGIC>MOL_PROPERTY
Grad RMS
SciTegic.value.DoubleValue
0.000000

@<SCITEGIC>MOL_PROPERTY
U
SciTegic.value.DoubleValue
10.967

@<SCITEGIC>MOL_PROPERTY
W
SciTegic.value.DoubleValue
-63.794

@<SCITEGIC>MOL_PROPERTY
W(PB)
SciTegic.value.DoubleValue
-65.830

@<SCITEGIC>MOL_PROPERTY
W(SA)
SciTegic.value.DoubleValue
2.036

@<SCITEGIC>MOL_PROPERTY
Valence
SciTegic.value.DoubleValue
8.609

@<SCITEGIC>MOL_PROPERTY
Coulomb
SciTegic.value.DoubleValue
1.892

@<SCITEGIC>MOL_PROPERTY
VdW
SciTegic.value.DoubleValue
0.467

@<SCITEGIC>MOL_PROPERTY
VdW6
SciTegic.value.DoubleValue
-7.569

@<SCITEGIC>MOL_PROPERTY
VdW12
SciTegic.value.DoubleValue
8.036

@<SCITEGIC>MOL_PROPERTY
Bond
SciTegic.value.DoubleValue
0.170

@<SCITEGIC>MOL_PROPERTY
Angle
SciTegic.value.DoubleValue
3.195

@<SCITEGIC>MOL_PROPERTY
Pdih
SciTegic.value.DoubleValue
5.237

@<SCITEGIC>MOL_PROPERTY
Idih
SciTegic.value.DoubleValue
0.007

@<SCITEGIC>MOL_PROPERTY
Tether
SciTegic.value.DoubleValue
0.000

@<TRIPOS>MOLECULE
guest-7_confgen4.mol2 : confsearch ligand conformer 987
          19          18           1
SMALL
USER_CHARGES
 
@<TRIPOS>ATOM
       1    C1      21.033350   16.611292   22.421023 C.2        1 MOL1         0.6115
       2    O1      22.005014   16.566209   23.149779 O.co2      1 MOL1        -0.6776
       3    O2      21.077470   16.370238   21.230730 O.co2      1 MOL1        -0.6776
       4    C2      19.672713   16.918027   23.043971 C.3        1 MOL1        -0.2013
       5    H1      19.464477   16.102768   23.746548 H          1 MOL1         0.0727
       6    H2      18.903102   16.864332   22.264395 H          1 MOL1         0.0727
       7    C3      19.578919   18.273123   23.800309 C.3        1 MOL1        -0.1910
       8    H3      18.725744   18.217824   24.489839 H          1 MOL1         0.0729
       9    H4      20.468142   18.412689   24.430663 H          1 MOL1         0.0729
      10    C4      19.371721   19.510755   22.892557 C.3        1 MOL1        -0.1909
      11    H5      19.164388   20.376386   23.536535 H          1 MOL1         0.0729
      12    H6      18.477509   19.367766   22.270643 H          1 MOL1         0.0729
      13    C5      20.582516   19.841638   21.992520 C.3        1 MOL1        -0.1884
      14    H7      21.497163   19.885471   22.599888 H          1 MOL1         0.0729
      15    H8      20.727960   19.047097   21.249582 H          1 MOL1         0.0729
      16    C6      20.389734   21.182438   21.255684 C.3        1 MOL1        -0.2899
      17    H9      21.254145   21.398487   20.614465 H          1 MOL1         0.0741
      18    H10     19.494645   21.155645   20.620503 H          1 MOL1         0.0741
      19    H11     20.280831   22.010866   21.967839 H          1 MOL1         0.0741
@<TRIPOS>BOND
    1     1     2    1
    2     1     3    2
    3     1     4    1
    4     4     5    1
    5     4     6    1
    6     4     7    1
    7     7     8    1
    8     7     9    1
    9     7    10    1
   10    10    11    1
   11    10    12    1
   12    10    13    1
   13    13    14    1
   14    13    15    1
   15    13    16    1
   16    16    17    1
   17    16    18    1
   18    16    19    1
@<TRIPOS>SUBSTRUCTURE
       1 MOL1            1 RESIDUE      1      MOL     
@<SCITEGIC>MOL_PROPERTY
VConf Rank
SciTegic.value.IntegerValue
987

@<SCITEGIC>MOL_PROPERTY
Conf_Id
SciTegic.value.IntegerValue
52

@<SCITEGIC>MOL_PROPERTY
Delta U+W
SciTegic.value.DoubleValue
2.070

@<SCITEGIC>MOL_PROPERTY
U+W
SciTegic.value.DoubleValue
-52.822

@<SCITEGIC>MOL_PROPERTY
Grad RMS
SciTegic.value.DoubleValue
0.000000

@<SCITEGIC>MOL_PROPERTY
U
SciTegic.value.DoubleValue
10.967

@<SCITEGIC>MOL_PROPERTY
W
SciTegic.value.DoubleValue
-63.789

@<SCITEGIC>MOL_PROPERTY
W(PB)
SciTegic.value.DoubleValue
-65.837

@<SCITEGIC>MOL_PROPERTY
W(SA)
SciTegic.value.DoubleValue
2.048

@<SCITEGIC>MOL_PROPERTY
Valence
SciTegic.value.DoubleValue
8.609

@<SCITEGIC>MOL_PROPERTY
Coulomb
SciTegic.value.DoubleValue
1.892

@<SCITEGIC>MOL_PROPERTY
VdW
SciTegic.value.DoubleValue
0.467

@<SCITEGIC>MOL_PROPERTY
VdW6
SciTegic.value.DoubleValue
-7.569

@<SCITEGIC>MOL_PROPERTY
VdW12
SciTegic.value.DoubleValue
8.035

@<SCITEGIC>MOL_PROPERTY
Bond
SciTegic.value.DoubleValue
0.170

@<SCITEGIC>MOL_PROPERTY
Angle
SciTegic.value.DoubleValue
3.196

@<SCITEGIC>MOL_PROPERTY
Pdih
SciTegic.value.DoubleValue
5.237

@<SCITEGIC>MOL_PROPERTY
Idih
SciTegic.value.DoubleValue
0.007

@<SCITEGIC>MOL_PROPERTY
Tether
SciTegic.value.DoubleValue
0.000

@<TRIPOS>MOLECULE
guest-7_confgen4.mol2 : confsearch ligand conformer 988
          19          18           1
SMALL
USER_CHARGES
 
@<TRIPOS>ATOM
       1    C1      17.945619   18.151594   23.298924 C.2        1 MOL1         0.6115
       2    O1      17.868553   18.383791   24.489832 O.co2      1 MOL1        -0.6776
       3    O2      17.085793   18.471410   22.501982 O.co2      1 MOL1        -0.6776
       4    C2      19.114796   17.307197   22.789610 C.3        1 MOL1        -0.2013
       5    H1      19.115897   17.322666   21.693117 H          1 MOL1         0.0727
       6    H2      18.894991   16.275423   23.086934 H          1 MOL1         0.0727
       7    C3      20.518507   17.698157   23.333775 C.3        1 MOL1        -0.1910
       8    H3      20.452391   17.940973   24.403331 H          1 MOL1         0.0729
       9    H4      21.163785   16.811663   23.269731 H          1 MOL1         0.0729
      10    C4      21.229633   18.847480   22.574477 C.3        1 MOL1        -0.1909
      11    H5      21.386536   18.563135   21.524922 H          1 MOL1         0.0729
      12    H6      22.234656   18.954390   23.005133 H          1 MOL1         0.0729
      13    C5      20.524072   20.222604   22.659383 C.3        1 MOL1        -0.1884
      14    H7      19.870068   20.265080   23.541330 H          1 MOL1         0.0729
      15    H8      21.283837   21.002505   22.806553 H          1 MOL1         0.0729
      16    C6      19.726394   20.564598   21.382719 C.3        1 MOL1        -0.2899
      17    H9      20.390117   20.622628   20.510342 H          1 MOL1         0.0741
      18    H10     18.958703   19.810284   21.174415 H          1 MOL1         0.0741
      19    H11     19.224386   21.534648   21.490471 H          1 MOL1         0.0741
@<TRIPOS>BOND
    1     1     2    1
    2     1     3    2
    3     1     4    1
    4     4     5    1
    5     4     6    1
    6     4     7    1
    7     7     8    1
    8     7     9    1
    9     7    10    1
   10    10    11    1
   11    10    12    1
   12    10    13    1
   13    13    14    1
   14    13    15    1
   15    13    16    1
   16    16    17    1
   17    16    18    1
   18    16    19    1
@<TRIPOS>SUBSTRUCTURE
       1 MOL1            1 RESIDUE      1      MOL     
@<SCITEGIC>MOL_PROPERTY
VConf Rank
SciTegic.value.IntegerValue
988

@<SCITEGIC>MOL_PROPERTY
Conf_Id
SciTegic.value.IntegerValue
66

@<SCITEGIC>MOL_PROPERTY
Delta U+W
SciTegic.value.DoubleValue
5.819

@<SCITEGIC>MOL_PROPERTY
U+W
SciTegic.value.DoubleValue
-49.072

@<SCITEGIC>MOL_PROPERTY
Grad RMS
SciTegic.value.DoubleValue
0.000000

@<SCITEGIC>MOL_PROPERTY
U
SciTegic.value.DoubleValue
15.324

@<SCITEGIC>MOL_PROPERTY
W
SciTegic.value.DoubleValue
-64.396

@<SCITEGIC>MOL_PROPERTY
W(PB)
SciTegic.value.DoubleValue
-66.382

@<SCITEGIC>MOL_PROPERTY
W(SA)
SciTegic.value.DoubleValue
1.986

@<SCITEGIC>MOL_PROPERTY
Valence
SciTegic.value.DoubleValue
11.748

@<SCITEGIC>MOL_PROPERTY
Coulomb
SciTegic.value.DoubleValue
3.201

@<SCITEGIC>MOL_PROPERTY
VdW
SciTegic.value.DoubleValue
0.375

@<SCITEGIC>MOL_PROPERTY
VdW6
SciTegic.value.DoubleValue
-8.854

@<SCITEGIC>MOL_PROPERTY
VdW12
SciTegic.value.DoubleValue
9.229

@<SCITEGIC>MOL_PROPERTY
Bond
SciTegic.value.DoubleValue
0.216

@<SCITEGIC>MOL_PROPERTY
Angle
SciTegic.value.DoubleValue
3.812

@<SCITEGIC>MOL_PROPERTY
Pdih
SciTegic.value.DoubleValue
7.699

@<SCITEGIC>MOL_PROPERTY
Idih
SciTegic.value.DoubleValue
0.022

@<SCITEGIC>MOL_PROPERTY
Tether
SciTegic.value.DoubleValue
0.000

