VeraChem MOL file


 19 18  0  0  0  0  0  0  0  0999 V2000     
   20.0079   19.2238   25.5349 C   0  0  0  0  0  0  0  0  0  0  0  0
   19.9462   18.5592   26.5499 O   0  5  0  0  0  0  0  0  0  0  0  0
   20.1200   20.4344   25.5403 O   0  0  0  0  0  0  0  0  0  0  0  0
   19.9382   18.4735   24.2038 C   0  0  0  0  0  0  0  0  0  0  0  0
   19.0002   17.9058   24.1970 H   0  0  0  0  0  0  0  0  0  0  0  0
   20.7555   17.7427   24.1970 H   0  0  0  0  0  0  0  0  0  0  0  0
   20.0210   19.3640   22.9356 C   0  0  0  0  0  0  0  0  0  0  0  0
   19.2030   20.0976   22.9514 H   0  0  0  0  0  0  0  0  0  0  0  0
   20.9601   19.9344   22.9515 H   0  0  0  0  0  0  0  0  0  0  0  0
   19.9433   18.5272   21.6403 C   0  0  0  0  0  0  0  0  0  0  0  0
   19.0038   17.9577   21.6265 H   0  0  0  0  0  0  0  0  0  0  0  0
   20.7618   17.7944   21.6266 H   0  0  0  0  0  0  0  0  0  0  0  0
   20.0257   19.4144   20.3807 C   0  0  0  0  0  0  0  0  0  0  0  0
   19.2073   20.1476   20.3897 H   0  0  0  0  0  0  0  0  0  0  0  0
   20.9652   19.9843   20.3897 H   0  0  0  0  0  0  0  0  0  0  0  0
   19.9478   18.5756   19.0895 C   0  0  0  0  0  0  0  0  0  0  0  0
   19.0028   18.0188   19.0392 H   0  0  0  0  0  0  0  0  0  0  0  0
   20.0078   19.2219   18.2042 H   0  0  0  0  0  0  0  0  0  0  0  0
   20.7739   17.8542   19.0392 H   0  0  0  0  0  0  0  0  0  0  0  0
  1  2  1  0  0  0  0
  1  3  2  0  0  0  0
  1  4  1  0  0  0  0
  4  5  1  0  0  0  0
  4  6  1  0  0  0  0
  4  7  1  0  0  0  0
  7  8  1  0  0  0  0
  7  9  1  0  0  0  0
  7 10  1  0  0  0  0
 10 11  1  0  0  0  0
 10 12  1  0  0  0  0
 10 13  1  0  0  0  0
 13 14  1  0  0  0  0
 13 15  1  0  0  0  0
 13 16  1  0  0  0  0
 16 17  1  0  0  0  0
 16 18  1  0  0  0  0
 16 19  1  0  0  0  0
M  END
> <VConfSearch Rank>
1

> <Conf_Id>
0

> <Delta U+W>
0.000

> <U+W>
-54.891

> <U>
6.966

> <W>
-61.857

> <W(PB)>
-63.965

> <W(SA)>
2.108

> <Valence>
7.175

> <Coulomb>
-1.360

> <VdW>
1.151

> <VdW6>
-5.641

> <VdW12>
6.792

> <Bond>
0.119

> <Angle>
2.715

> <Pdih>
4.340

> <Idih>
0.000

> <Tether>
0.000

$$$$
VeraChem MOL file


 19 18  0  0  0  0  0  0  0  0999 V2000     
   19.9553   19.2780   25.5144 C   0  0  0  0  0  0  0  0  0  0  0  0
   20.6387   18.4668   26.1070 O   0  5  0  0  0  0  0  0  0  0  0  0
   19.7502   20.4061   25.9162 O   0  0  0  0  0  0  0  0  0  0  0  0
   19.3380   18.8642   24.1833 C   0  0  0  0  0  0  0  0  0  0  0  0
   18.3818   19.3899   24.0728 H   0  0  0  0  0  0  0  0  0  0  0  0
   19.1145   17.7915   24.2299 H   0  0  0  0  0  0  0  0  0  0  0  0
   20.2565   19.1664   22.9737 C   0  0  0  0  0  0  0  0  0  0  0  0
   20.4811   20.2418   22.9484 H   0  0  0  0  0  0  0  0  0  0  0  0
   21.2139   18.6434   23.1056 H   0  0  0  0  0  0  0  0  0  0  0  0
   19.6089   18.7382   21.6392 C   0  0  0  0  0  0  0  0  0  0  0  0
   18.6514   19.2617   21.5109 H   0  0  0  0  0  0  0  0  0  0  0  0
   19.3844   17.6631   21.6681 H   0  0  0  0  0  0  0  0  0  0  0  0
   20.5261   19.0405   20.4360 C   0  0  0  0  0  0  0  0  0  0  0  0
   20.7514   20.1155   20.4025 H   0  0  0  0  0  0  0  0  0  0  0  0
   21.4843   18.5170   20.5596 H   0  0  0  0  0  0  0  0  0  0  0  0
   19.8763   18.6118   19.1052 C   0  0  0  0  0  0  0  0  0  0  0  0
   20.5416   18.8339   18.2607 H   0  0  0  0  0  0  0  0  0  0  0  0
   19.6688   17.5337   19.0988 H   0  0  0  0  0  0  0  0  0  0  0  0
   18.9303   19.1442   18.9405 H   0  0  0  0  0  0  0  0  0  0  0  0
  1  2  1  0  0  0  0
  1  3  2  0  0  0  0
  1  4  1  0  0  0  0
  4  5  1  0  0  0  0
  4  6  1  0  0  0  0
  4  7  1  0  0  0  0
  7  8  1  0  0  0  0
  7  9  1  0  0  0  0
  7 10  1  0  0  0  0
 10 11  1  0  0  0  0
 10 12  1  0  0  0  0
 10 13  1  0  0  0  0
 13 14  1  0  0  0  0
 13 15  1  0  0  0  0
 13 16  1  0  0  0  0
 16 17  1  0  0  0  0
 16 18  1  0  0  0  0
 16 19  1  0  0  0  0
M  END
> <VConfSearch Rank>
2

> <Conf_Id>
18

> <Delta U+W>
-1.199

> <U+W>
-56.090

> <U>
5.975

> <W>
-62.066

> <W(PB)>
-64.219

> <W(SA)>
2.153

> <Valence>
6.673

> <Coulomb>
-1.307

> <VdW>
0.610

> <VdW6>
-5.351

> <VdW12>
5.961

> <Bond>
0.086

> <Angle>
2.253

> <Pdih>
4.333

> <Idih>
0.001

> <Tether>
0.000

$$$$
VeraChem MOL file


 19 18  0  0  0  0  0  0  0  0999 V2000     
   19.8366   19.3611   25.3642 C   0  0  0  0  0  0  0  0  0  0  0  0
   19.9725   18.4660   26.1746 O   0  5  0  0  0  0  0  0  0  0  0  0
   19.9488   20.5393   25.6388 O   0  0  0  0  0  0  0  0  0  0  0  0
   19.5296   18.9840   23.9193 C   0  0  0  0  0  0  0  0  0  0  0  0
   18.8998   19.7741   23.4952 H   0  0  0  0  0  0  0  0  0  0  0  0
   18.9351   18.0625   23.9270 H   0  0  0  0  0  0  0  0  0  0  0  0
   20.8092   18.7875   23.0654 C   0  0  0  0  0  0  0  0  0  0  0  0
   21.3738   19.7294   23.0283 H   0  0  0  0  0  0  0  0  0  0  0  0
   21.4585   18.0563   23.5666 H   0  0  0  0  0  0  0  0  0  0  0  0
   20.5227   18.2925   21.6279 C   0  0  0  0  0  0  0  0  0  0  0  0
   19.9656   17.3465   21.6685 H   0  0  0  0  0  0  0  0  0  0  0  0
   21.4807   18.0683   21.1390 H   0  0  0  0  0  0  0  0  0  0  0  0
   19.7481   19.3166   20.7683 C   0  0  0  0  0  0  0  0  0  0  0  0
   18.7548   19.4982   21.1991 H   0  0  0  0  0  0  0  0  0  0  0  0
   20.2793   20.2785   20.7693 H   0  0  0  0  0  0  0  0  0  0  0  0
   19.5824   18.8249   19.3164 C   0  0  0  0  0  0  0  0  0  0  0  0
   19.0282   19.5611   18.7198 H   0  0  0  0  0  0  0  0  0  0  0  0
   20.5592   18.6691   18.8400 H   0  0  0  0  0  0  0  0  0  0  0  0
   19.0297   17.8769   19.2838 H   0  0  0  0  0  0  0  0  0  0  0  0
  1  2  1  0  0  0  0
  1  3  2  0  0  0  0
  1  4  1  0  0  0  0
  4  5  1  0  0  0  0
  4  6  1  0  0  0  0
  4  7  1  0  0  0  0
  7  8  1  0  0  0  0
  7  9  1  0  0  0  0
  7 10  1  0  0  0  0
 10 11  1  0  0  0  0
 10 12  1  0  0  0  0
 10 13  1  0  0  0  0
 13 14  1  0  0  0  0
 13 15  1  0  0  0  0
 13 16  1  0  0  0  0
 16 17  1  0  0  0  0
 16 18  1  0  0  0  0
 16 19  1  0  0  0  0
M  END
> <VConfSearch Rank>
3

> <Conf_Id>
34

> <Delta U+W>
-0.563

> <U+W>
-55.455

> <U>
6.914

> <W>
-62.369

> <W(PB)>
-64.446

> <W(SA)>
2.077

> <Valence>
7.196

> <Coulomb>
-1.020

> <VdW>
0.738

> <VdW6>
-6.010

> <VdW12>
6.748

> <Bond>
0.126

> <Angle>
2.499

> <Pdih>
4.570

> <Idih>
0.001

> <Tether>
0.000

$$$$
VeraChem MOL file


 19 18  0  0  0  0  0  0  0  0999 V2000     
   20.2015   19.3272   25.3643 C   0  0  0  0  0  0  0  0  0  0  0  0
   19.9033   18.4724   26.1746 O   0  5  0  0  0  0  0  0  0  0  0  0
   20.3074   20.5060   25.6388 O   0  0  0  0  0  0  0  0  0  0  0  0
   20.4339   18.9001   23.9193 C   0  0  0  0  0  0  0  0  0  0  0  0
   20.8486   17.8849   23.9270 H   0  0  0  0  0  0  0  0  0  0  0  0
   21.1985   19.5607   23.4953 H   0  0  0  0  0  0  0  0  0  0  0  0
   19.1400   18.9426   23.0653 C   0  0  0  0  0  0  0  0  0  0  0  0
   18.3671   18.3436   23.5665 H   0  0  0  0  0  0  0  0  0  0  0  0
   18.7586   19.9724   23.0281 H   0  0  0  0  0  0  0  0  0  0  0  0
   19.3305   18.4033   21.6278 C   0  0  0  0  0  0  0  0  0  0  0  0
   18.3476   18.3593   21.1389 H   0  0  0  0  0  0  0  0  0  0  0  0
   19.7037   17.3708   21.6685 H   0  0  0  0  0  0  0  0  0  0  0  0
   20.2805   19.2671   20.7684 C   0  0  0  0  0  0  0  0  0  0  0  0
   19.9358   20.3104   20.7693 H   0  0  0  0  0  0  0  0  0  0  0  0
   21.2904   19.2625   21.1992 H   0  0  0  0  0  0  0  0  0  0  0  0
   20.3529   18.7533   19.3164 C   0  0  0  0  0  0  0  0  0  0  0  0
   20.7214   17.7197   19.2838 H   0  0  0  0  0  0  0  0  0  0  0  0
   19.3641   18.7802   18.8400 H   0  0  0  0  0  0  0  0  0  0  0  0
   21.0332   19.3748   18.7198 H   0  0  0  0  0  0  0  0  0  0  0  0
  1  2  1  0  0  0  0
  1  3  2  0  0  0  0
  1  4  1  0  0  0  0
  4  5  1  0  0  0  0
  4  6  1  0  0  0  0
  4  7  1  0  0  0  0
  7  8  1  0  0  0  0
  7  9  1  0  0  0  0
  7 10  1  0  0  0  0
 10 11  1  0  0  0  0
 10 12  1  0  0  0  0
 10 13  1  0  0  0  0
 13 14  1  0  0  0  0
 13 15  1  0  0  0  0
 13 16  1  0  0  0  0
 16 17  1  0  0  0  0
 16 18  1  0  0  0  0
 16 19  1  0  0  0  0
M  END
> <VConfSearch Rank>
4

> <Conf_Id>
33

> <Delta U+W>
-0.526

> <U+W>
-55.418

> <U>
6.914

> <W>
-62.332

> <W(PB)>
-64.421

> <W(SA)>
2.090

> <Valence>
7.196

> <Coulomb>
-1.020

> <VdW>
0.738

> <VdW6>
-6.010

> <VdW12>
6.748

> <Bond>
0.126

> <Angle>
2.499

> <Pdih>
4.570

> <Idih>
0.001

> <Tether>
0.000

$$$$
VeraChem MOL file


 19 18  0  0  0  0  0  0  0  0999 V2000     
   20.0922   19.2255   25.3882 C   0  0  0  0  0  0  0  0  0  0  0  0
   20.7093   18.2843   25.8458 O   0  5  0  0  0  0  0  0  0  0  0  0
   20.1420   20.3494   25.8471 O   0  0  0  0  0  0  0  0  0  0  0  0
   19.2209   18.9870   24.1599 C   0  0  0  0  0  0  0  0  0  0  0  0
   18.3592   19.6630   24.2172 H   0  0  0  0  0  0  0  0  0  0  0  0
   18.8332   17.9624   24.2105 H   0  0  0  0  0  0  0  0  0  0  0  0
   19.9833   19.2039   22.8295 C   0  0  0  0  0  0  0  0  0  0  0  0
   20.3732   20.2306   22.7980 H   0  0  0  0  0  0  0  0  0  0  0  0
   20.8505   18.5309   22.8031 H   0  0  0  0  0  0  0  0  0  0  0  0
   19.0774   18.9521   21.6020 C   0  0  0  0  0  0  0  0  0  0  0  0
   18.1814   19.5826   21.6835 H   0  0  0  0  0  0  0  0  0  0  0  0
   18.7271   17.9109   21.6074 H   0  0  0  0  0  0  0  0  0  0  0  0
   19.7712   19.2571   20.2543 C   0  0  0  0  0  0  0  0  0  0  0  0
   19.0299   19.1680   19.4481 H   0  0  0  0  0  0  0  0  0  0  0  0
   20.1181   20.2996   20.2428 H   0  0  0  0  0  0  0  0  0  0  0  0
   20.9537   18.3127   19.9484 C   0  0  0  0  0  0  0  0  0  0  0  0
   20.6368   17.2622   19.9832 H   0  0  0  0  0  0  0  0  0  0  0  0
   21.3543   18.5118   18.9460 H   0  0  0  0  0  0  0  0  0  0  0  0
   21.7721   18.4498   20.6661 H   0  0  0  0  0  0  0  0  0  0  0  0
  1  2  1  0  0  0  0
  1  3  2  0  0  0  0
  1  4  1  0  0  0  0
  4  5  1  0  0  0  0
  4  6  1  0  0  0  0
  4  7  1  0  0  0  0
  7  8  1  0  0  0  0
  7  9  1  0  0  0  0
  7 10  1  0  0  0  0
 10 11  1  0  0  0  0
 10 12  1  0  0  0  0
 10 13  1  0  0  0  0
 13 14  1  0  0  0  0
 13 15  1  0  0  0  0
 13 16  1  0  0  0  0
 16 17  1  0  0  0  0
 16 18  1  0  0  0  0
 16 19  1  0  0  0  0
M  END
> <VConfSearch Rank>
5

> <Conf_Id>
42

> <Delta U+W>
-0.344

> <U+W>
-55.236

> <U>
7.244

> <W>
-62.479

> <W(PB)>
-64.610

> <W(SA)>
2.130

> <Valence>
7.174

> <Coulomb>
-0.669

> <VdW>
0.739

> <VdW6>
-5.969

> <VdW12>
6.708

> <Bond>
0.116

> <Angle>
2.481

> <Pdih>
4.576

> <Idih>
0.000

> <Tether>
0.000

$$$$
VeraChem MOL file


 19 18  0  0  0  0  0  0  0  0999 V2000     
   19.9253   19.2410   25.3882 C   0  0  0  0  0  0  0  0  0  0  0  0
   19.1455   18.4294   25.8459 O   0  5  0  0  0  0  0  0  0  0  0  0
   20.0827   20.3551   25.8467 O   0  0  0  0  0  0  0  0  0  0  0  0
   20.7379   18.8461   24.1600 C   0  0  0  0  0  0  0  0  0  0  0  0
   20.9303   17.7677   24.2107 H   0  0  0  0  0  0  0  0  0  0  0  0
   21.7093   19.3519   24.2174 H   0  0  0  0  0  0  0  0  0  0  0  0
   20.0285   19.1996   22.8295 C   0  0  0  0  0  0  0  0  0  0  0  0
   19.0522   18.6979   22.8031 H   0  0  0  0  0  0  0  0  0  0  0  0
   19.8344   20.2806   22.7980 H   0  0  0  0  0  0  0  0  0  0  0  0
   20.8725   18.7853   21.6021 C   0  0  0  0  0  0  0  0  0  0  0  0
   21.0250   17.6973   21.6075 H   0  0  0  0  0  0  0  0  0  0  0  0
   21.8694   19.2398   21.6837 H   0  0  0  0  0  0  0  0  0  0  0  0
   20.2470   19.2129   20.2543 C   0  0  0  0  0  0  0  0  0  0  0  0
   20.0981   20.3015   20.2429 H   0  0  0  0  0  0  0  0  0  0  0  0
   20.9592   18.9886   19.4482 H   0  0  0  0  0  0  0  0  0  0  0  0
   18.9107   18.5027   19.9484 C   0  0  0  0  0  0  0  0  0  0  0  0
   18.1315   18.7883   20.6660 H   0  0  0  0  0  0  0  0  0  0  0  0
   18.5537   18.7722   18.9459 H   0  0  0  0  0  0  0  0  0  0  0  0
   19.0285   17.4118   19.9832 H   0  0  0  0  0  0  0  0  0  0  0  0
  1  2  1  0  0  0  0
  1  3  2  0  0  0  0
  1  4  1  0  0  0  0
  4  5  1  0  0  0  0
  4  6  1  0  0  0  0
  4  7  1  0  0  0  0
  7  8  1  0  0  0  0
  7  9  1  0  0  0  0
  7 10  1  0  0  0  0
 10 11  1  0  0  0  0
 10 12  1  0  0  0  0
 10 13  1  0  0  0  0
 13 14  1  0  0  0  0
 13 15  1  0  0  0  0
 13 16  1  0  0  0  0
 16 17  1  0  0  0  0
 16 18  1  0  0  0  0
 16 19  1  0  0  0  0
M  END
> <VConfSearch Rank>
6

> <Conf_Id>
41

> <Delta U+W>
-0.361

> <U+W>
-55.252

> <U>
7.244

> <W>
-62.496

> <W(PB)>
-64.596

> <W(SA)>
2.099

> <Valence>
7.174

> <Coulomb>
-0.669

> <VdW>
0.739

> <VdW6>
-5.969

> <VdW12>
6.708

> <Bond>
0.116

> <Angle>
2.481

> <Pdih>
4.576

> <Idih>
0.000

> <Tether>
0.000

$$$$
VeraChem MOL file


 19 18  0  0  0  0  0  0  0  0999 V2000     
   20.1676   19.1868   25.1797 C   0  0  0  0  0  0  0  0  0  0  0  0
   20.8153   18.1795   25.3856 O   0  5  0  0  0  0  0  0  0  0  0  0
   20.4940   20.2881   25.5761 O   0  0  0  0  0  0  0  0  0  0  0  0
   18.8616   19.0608   24.4000 C   0  0  0  0  0  0  0  0  0  0  0  0
   18.0990   19.6310   24.9435 H   0  0  0  0  0  0  0  0  0  0  0  0
   18.5441   18.0111   24.4155 H   0  0  0  0  0  0  0  0  0  0  0  0
   18.9468   19.5726   22.9386 C   0  0  0  0  0  0  0  0  0  0  0  0
   17.9388   19.5740   22.5022 H   0  0  0  0  0  0  0  0  0  0  0  0
   19.2933   20.6155   22.9378 H   0  0  0  0  0  0  0  0  0  0  0  0
   19.8807   18.7102   22.0603 C   0  0  0  0  0  0  0  0  0  0  0  0
   19.5379   17.6665   22.0748 H   0  0  0  0  0  0  0  0  0  0  0  0
   20.8958   18.7176   22.4810 H   0  0  0  0  0  0  0  0  0  0  0  0
   19.9257   19.2183   20.6042 C   0  0  0  0  0  0  0  0  0  0  0  0
   18.9135   19.2092   20.1767 H   0  0  0  0  0  0  0  0  0  0  0  0
   20.2707   20.2615   20.5866 H   0  0  0  0  0  0  0  0  0  0  0  0
   20.8582   18.3557   19.7305 C   0  0  0  0  0  0  0  0  0  0  0  0
   20.5181   17.3121   19.7049 H   0  0  0  0  0  0  0  0  0  0  0  0
   20.8787   18.7310   18.6991 H   0  0  0  0  0  0  0  0  0  0  0  0
   21.8854   18.3722   20.1178 H   0  0  0  0  0  0  0  0  0  0  0  0
  1  2  1  0  0  0  0
  1  3  2  0  0  0  0
  1  4  1  0  0  0  0
  4  5  1  0  0  0  0
  4  6  1  0  0  0  0
  4  7  1  0  0  0  0
  7  8  1  0  0  0  0
  7  9  1  0  0  0  0
  7 10  1  0  0  0  0
 10 11  1  0  0  0  0
 10 12  1  0  0  0  0
 10 13  1  0  0  0  0
 13 14  1  0  0  0  0
 13 15  1  0  0  0  0
 13 16  1  0  0  0  0
 16 17  1  0  0  0  0
 16 18  1  0  0  0  0
 16 19  1  0  0  0  0
M  END
> <VConfSearch Rank>
7

> <Conf_Id>
36

> <Delta U+W>
-0.079

> <U+W>
-54.971

> <U>
8.266

> <W>
-63.237

> <W(PB)>
-65.340

> <W(SA)>
2.103

> <Valence>
6.935

> <Coulomb>
0.874

> <VdW>
0.457

> <VdW6>
-6.205

> <VdW12>
6.662

> <Bond>
0.107

> <Angle>
2.420

> <Pdih>
4.407

> <Idih>
0.001

> <Tether>
0.000

$$$$
VeraChem MOL file


 19 18  0  0  0  0  0  0  0  0999 V2000     
   19.8440   19.2167   25.1797 C   0  0  0  0  0  0  0  0  0  0  0  0
   19.0220   18.3458   25.3856 O   0  5  0  0  0  0  0  0  0  0  0  0
   19.7255   20.3595   25.5757 O   0  0  0  0  0  0  0  0  0  0  0  0
   21.1046   18.8527   24.4001 C   0  0  0  0  0  0  0  0  0  0  0  0
   21.2236   17.7625   24.4156 H   0  0  0  0  0  0  0  0  0  0  0  0
   21.9590   19.2728   24.9437 H   0  0  0  0  0  0  0  0  0  0  0  0
   21.1151   19.3714   22.9387 C   0  0  0  0  0  0  0  0  0  0  0  0
   20.9664   20.4603   22.9379 H   0  0  0  0  0  0  0  0  0  0  0  0
   22.1062   19.1873   22.5024 H   0  0  0  0  0  0  0  0  0  0  0  0
   20.0385   18.6955   22.0604 C   0  0  0  0  0  0  0  0  0  0  0  0
   19.0421   18.8896   22.4810 H   0  0  0  0  0  0  0  0  0  0  0  0
   20.1834   17.6066   22.0749 H   0  0  0  0  0  0  0  0  0  0  0  0
   20.0879   19.2033   20.6042 C   0  0  0  0  0  0  0  0  0  0  0  0
   19.9408   20.2921   20.5866 H   0  0  0  0  0  0  0  0  0  0  0  0
   21.0811   19.0080   20.1768 H   0  0  0  0  0  0  0  0  0  0  0  0
   19.0125   18.5270   19.7305 C   0  0  0  0  0  0  0  0  0  0  0  0
   18.0059   18.7323   20.1179 H   0  0  0  0  0  0  0  0  0  0  0  0
   19.0614   18.8997   18.6991 H   0  0  0  0  0  0  0  0  0  0  0  0
   19.1547   17.4387   19.7049 H   0  0  0  0  0  0  0  0  0  0  0  0
  1  2  1  0  0  0  0
  1  3  2  0  0  0  0
  1  4  1  0  0  0  0
  4  5  1  0  0  0  0
  4  6  1  0  0  0  0
  4  7  1  0  0  0  0
  7  8  1  0  0  0  0
  7  9  1  0  0  0  0
  7 10  1  0  0  0  0
 10 11  1  0  0  0  0
 10 12  1  0  0  0  0
 10 13  1  0  0  0  0
 13 14  1  0  0  0  0
 13 15  1  0  0  0  0
 13 16  1  0  0  0  0
 16 17  1  0  0  0  0
 16 18  1  0  0  0  0
 16 19  1  0  0  0  0
M  END
> <VConfSearch Rank>
8

> <Conf_Id>
35

> <Delta U+W>
-0.030

> <U+W>
-54.921

> <U>
8.267

> <W>
-63.188

> <W(PB)>
-65.294

> <W(SA)>
2.106

> <Valence>
6.935

> <Coulomb>
0.875

> <VdW>
0.457

> <VdW6>
-6.205

> <VdW12>
6.662

> <Bond>
0.107

> <Angle>
2.420

> <Pdih>
4.407

> <Idih>
0.001

> <Tether>
0.000

$$$$
VeraChem MOL file


 19 18  0  0  0  0  0  0  0  0999 V2000     
   20.0324   19.2746   25.2079 C   0  0  0  0  0  0  0  0  0  0  0  0
   19.0848   18.7400   25.7492 O   0  5  0  0  0  0  0  0  0  0  0  0
   20.3668   20.4234   25.4204 O   0  0  0  0  0  0  0  0  0  0  0  0
   20.8588   18.4501   24.2248 C   0  0  0  0  0  0  0  0  0  0  0  0
   21.0463   17.4759   24.6915 H   0  0  0  0  0  0  0  0  0  0  0  0
   21.8351   18.9331   24.0957 H   0  0  0  0  0  0  0  0  0  0  0  0
   20.1793   18.2407   22.8463 C   0  0  0  0  0  0  0  0  0  0  0  0
   20.7718   17.5167   22.2725 H   0  0  0  0  0  0  0  0  0  0  0  0
   19.1869   17.7928   22.9941 H   0  0  0  0  0  0  0  0  0  0  0  0
   20.0466   19.5569   22.0435 C   0  0  0  0  0  0  0  0  0  0  0  0
   21.0430   19.9831   21.8637 H   0  0  0  0  0  0  0  0  0  0  0  0
   19.4989   20.2940   22.6467 H   0  0  0  0  0  0  0  0  0  0  0  0
   19.3070   19.3830   20.6968 C   0  0  0  0  0  0  0  0  0  0  0  0
   18.3090   18.9588   20.8737 H   0  0  0  0  0  0  0  0  0  0  0  0
   19.1479   20.3751   20.2520 H   0  0  0  0  0  0  0  0  0  0  0  0
   20.0742   18.5033   19.6861 C   0  0  0  0  0  0  0  0  0  0  0  0
   20.1553   17.4670   20.0369 H   0  0  0  0  0  0  0  0  0  0  0  0
   19.5538   18.4867   18.7197 H   0  0  0  0  0  0  0  0  0  0  0  0
   21.0874   18.8909   19.5176 H   0  0  0  0  0  0  0  0  0  0  0  0
  1  2  1  0  0  0  0
  1  3  2  0  0  0  0
  1  4  1  0  0  0  0
  4  5  1  0  0  0  0
  4  6  1  0  0  0  0
  4  7  1  0  0  0  0
  7  8  1  0  0  0  0
  7  9  1  0  0  0  0
  7 10  1  0  0  0  0
 10 11  1  0  0  0  0
 10 12  1  0  0  0  0
 10 13  1  0  0  0  0
 13 14  1  0  0  0  0
 13 15  1  0  0  0  0
 13 16  1  0  0  0  0
 16 17  1  0  0  0  0
 16 18  1  0  0  0  0
 16 19  1  0  0  0  0
M  END
> <VConfSearch Rank>
9

> <Conf_Id>
74

> <Delta U+W>
0.797

> <U+W>
-54.095

> <U>
8.869

> <W>
-62.964

> <W(PB)>
-65.046

> <W(SA)>
2.082

> <Valence>
7.469

> <Coulomb>
0.762

> <VdW>
0.639

> <VdW6>
-6.782

> <VdW12>
7.421

> <Bond>
0.141

> <Angle>
2.667

> <Pdih>
4.660

> <Idih>
0.001

> <Tether>
0.000

$$$$
VeraChem MOL file


 19 18  0  0  0  0  0  0  0  0999 V2000     
   19.8965   19.4511   25.1826 C   0  0  0  0  0  0  0  0  0  0  0  0
   20.0221   18.6752   26.1092 O   0  5  0  0  0  0  0  0  0  0  0  0
   20.1023   20.6451   25.2733 O   0  0  0  0  0  0  0  0  0  0  0  0
   19.4759   18.8926   23.8278 C   0  0  0  0  0  0  0  0  0  0  0  0
   18.8793   19.6598   23.3213 H   0  0  0  0  0  0  0  0  0  0  0  0
   18.8198   18.0316   24.0026 H   0  0  0  0  0  0  0  0  0  0  0  0
   20.6834   18.4753   22.9490 C   0  0  0  0  0  0  0  0  0  0  0  0
   21.3126   19.3527   22.7489 H   0  0  0  0  0  0  0  0  0  0  0  0
   21.3100   17.7763   23.5201 H   0  0  0  0  0  0  0  0  0  0  0  0
   20.2751   17.7962   21.6176 C   0  0  0  0  0  0  0  0  0  0  0  0
   19.7348   16.8667   21.8434 H   0  0  0  0  0  0  0  0  0  0  0  0
   21.1855   17.4950   21.0818 H   0  0  0  0  0  0  0  0  0  0  0  0
   19.4034   18.6623   20.6752 C   0  0  0  0  0  0  0  0  0  0  0  0
   19.1669   18.0733   19.7784 H   0  0  0  0  0  0  0  0  0  0  0  0
   18.4404   18.8893   21.1513 H   0  0  0  0  0  0  0  0  0  0  0  0
   20.0912   19.9742   20.2402 C   0  0  0  0  0  0  0  0  0  0  0  0
   21.0679   19.7724   19.7814 H   0  0  0  0  0  0  0  0  0  0  0  0
   19.4744   20.5055   19.5039 H   0  0  0  0  0  0  0  0  0  0  0  0
   20.2432   20.6468   21.0938 H   0  0  0  0  0  0  0  0  0  0  0  0
  1  2  1  0  0  0  0
  1  3  2  0  0  0  0
  1  4  1  0  0  0  0
  4  5  1  0  0  0  0
  4  6  1  0  0  0  0
  4  7  1  0  0  0  0
  7  8  1  0  0  0  0
  7  9  1  0  0  0  0
  7 10  1  0  0  0  0
 10 11  1  0  0  0  0
 10 12  1  0  0  0  0
 10 13  1  0  0  0  0
 13 14  1  0  0  0  0
 13 15  1  0  0  0  0
 13 16  1  0  0  0  0
 16 17  1  0  0  0  0
 16 18  1  0  0  0  0
 16 19  1  0  0  0  0
M  END
> <VConfSearch Rank>
10

> <Conf_Id>
67

> <Delta U+W>
0.308

> <U+W>
-54.583

> <U>
8.219

> <W>
-62.802

> <W(PB)>
-64.859

> <W(SA)>
2.057

> <Valence>
7.609

> <Coulomb>
-0.089

> <VdW>
0.699

> <VdW6>
-6.924

> <VdW12>
7.623

> <Bond>
0.163

> <Angle>
2.870

> <Pdih>
4.576

> <Idih>
0.001

> <Tether>
0.000

$$$$
VeraChem MOL file


 19 18  0  0  0  0  0  0  0  0999 V2000     
   20.1591   19.4267   25.1826 C   0  0  0  0  0  0  0  0  0  0  0  0
   19.8930   18.6871   26.1092 O   0  5  0  0  0  0  0  0  0  0  0  0
   20.1759   20.6383   25.2732 O   0  0  0  0  0  0  0  0  0  0  0  0
   20.4699   18.8004   23.8279 C   0  0  0  0  0  0  0  0  0  0  0  0
   20.9565   17.8335   24.0026 H   0  0  0  0  0  0  0  0  0  0  0  0
   21.1975   19.4448   23.3213 H   0  0  0  0  0  0  0  0  0  0  0  0
   19.2063   18.6123   22.9490 C   0  0  0  0  0  0  0  0  0  0  0  0
   18.4618   18.0405   23.5200 H   0  0  0  0  0  0  0  0  0  0  0  0
   18.7492   19.5904   22.7489 H   0  0  0  0  0  0  0  0  0  0  0  0
   19.4828   17.8696   21.6176 C   0  0  0  0  0  0  0  0  0  0  0  0
   18.5325   17.7410   21.0818 H   0  0  0  0  0  0  0  0  0  0  0  0
   19.8430   16.8567   21.8434 H   0  0  0  0  0  0  0  0  0  0  0  0
   20.4989   18.5607   20.6753 C   0  0  0  0  0  0  0  0  0  0  0  0
   21.4872   18.6067   21.1513 H   0  0  0  0  0  0  0  0  0  0  0  0
   20.6230   17.9384   19.7784 H   0  0  0  0  0  0  0  0  0  0  0  0
   20.0641   19.9768   20.2403 C   0  0  0  0  0  0  0  0  0  0  0  0
   20.0385   20.6658   21.0940 H   0  0  0  0  0  0  0  0  0  0  0  0
   20.7681   20.3856   19.5040 H   0  0  0  0  0  0  0  0  0  0  0  0
   19.0670   19.9581   19.7816 H   0  0  0  0  0  0  0  0  0  0  0  0
  1  2  1  0  0  0  0
  1  3  2  0  0  0  0
  1  4  1  0  0  0  0
  4  5  1  0  0  0  0
  4  6  1  0  0  0  0
  4  7  1  0  0  0  0
  7  8  1  0  0  0  0
  7  9  1  0  0  0  0
  7 10  1  0  0  0  0
 10 11  1  0  0  0  0
 10 12  1  0  0  0  0
 10 13  1  0  0  0  0
 13 14  1  0  0  0  0
 13 15  1  0  0  0  0
 13 16  1  0  0  0  0
 16 17  1  0  0  0  0
 16 18  1  0  0  0  0
 16 19  1  0  0  0  0
M  END
> <VConfSearch Rank>
11

> <Conf_Id>
21

> <Delta U+W>
0.319

> <U+W>
-54.572

> <U>
8.220

> <W>
-62.792

> <W(PB)>
-64.830

> <W(SA)>
2.038

> <Valence>
7.609

> <Coulomb>
-0.088

> <VdW>
0.699

> <VdW6>
-6.924

> <VdW12>
7.623

> <Bond>
0.163

> <Angle>
2.870

> <Pdih>
4.576

> <Idih>
0.000

> <Tether>
0.000

$$$$
VeraChem MOL file


 19 18  0  0  0  0  0  0  0  0999 V2000     
   19.7860   19.3965   25.1689 C   0  0  0  0  0  0  0  0  0  0  0  0
   20.1022   18.6952   26.1095 O   0  5  0  0  0  0  0  0  0  0  0  0
   19.6736   20.6043   25.2389 O   0  0  0  0  0  0  0  0  0  0  0  0
   19.5347   18.7257   23.8232 C   0  0  0  0  0  0  0  0  0  0  0  0
   18.7687   19.3043   23.2975 H   0  0  0  0  0  0  0  0  0  0  0  0
   19.1097   17.7331   24.0143 H   0  0  0  0  0  0  0  0  0  0  0  0
   20.8221   18.5963   22.9668 C   0  0  0  0  0  0  0  0  0  0  0  0
   21.2819   19.5838   22.8232 H   0  0  0  0  0  0  0  0  0  0  0  0
   21.5485   18.0008   23.5371 H   0  0  0  0  0  0  0  0  0  0  0  0
   20.5855   17.9104   21.5973 C   0  0  0  0  0  0  0  0  0  0  0  0
   19.7516   17.1986   21.6667 H   0  0  0  0  0  0  0  0  0  0  0  0
   21.4730   17.3081   21.3594 H   0  0  0  0  0  0  0  0  0  0  0  0
   20.3556   18.8859   20.4169 C   0  0  0  0  0  0  0  0  0  0  0  0
   21.2342   19.5351   20.2992 H   0  0  0  0  0  0  0  0  0  0  0  0
   20.2806   18.3000   19.4905 H   0  0  0  0  0  0  0  0  0  0  0  0
   19.0903   19.7577   20.5534 C   0  0  0  0  0  0  0  0  0  0  0  0
   18.9154   20.3267   19.6312 H   0  0  0  0  0  0  0  0  0  0  0  0
   18.2036   19.1391   20.7432 H   0  0  0  0  0  0  0  0  0  0  0  0
   19.1947   20.4806   21.3721 H   0  0  0  0  0  0  0  0  0  0  0  0
  1  2  1  0  0  0  0
  1  3  2  0  0  0  0
  1  4  1  0  0  0  0
  4  5  1  0  0  0  0
  4  6  1  0  0  0  0
  4  7  1  0  0  0  0
  7  8  1  0  0  0  0
  7  9  1  0  0  0  0
  7 10  1  0  0  0  0
 10 11  1  0  0  0  0
 10 12  1  0  0  0  0
 10 13  1  0  0  0  0
 13 14  1  0  0  0  0
 13 15  1  0  0  0  0
 13 16  1  0  0  0  0
 16 17  1  0  0  0  0
 16 18  1  0  0  0  0
 16 19  1  0  0  0  0
M  END
> <VConfSearch Rank>
12

> <Conf_Id>
24

> <Delta U+W>
2.477

> <U+W>
-52.414

> <U>
10.422

> <W>
-62.836

> <W(PB)>
-64.906

> <W(SA)>
2.070

> <Valence>
9.628

> <Coulomb>
0.101

> <VdW>
0.693

> <VdW6>
-6.927

> <VdW12>
7.620

> <Bond>
0.173

> <Angle>
2.989

> <Pdih>
6.465

> <Idih>
0.001

> <Tether>
0.000

$$$$
VeraChem MOL file


 19 18  0  0  0  0  0  0  0  0999 V2000     
   19.9630   19.0244   25.0093 C   0  0  0  0  0  0  0  0  0  0  0  0
   20.5434   17.9621   25.1148 O   0  5  0  0  0  0  0  0  0  0  0  0
   20.0802   19.9348   25.8059 O   0  0  0  0  0  0  0  0  0  0  0  0
   19.0129   19.2182   23.8303 C   0  0  0  0  0  0  0  0  0  0  0  0
   18.0730   19.6128   24.2336 H   0  0  0  0  0  0  0  0  0  0  0  0
   18.7838   18.2354   23.4063 H   0  0  0  0  0  0  0  0  0  0  0  0
   19.5498   20.1858   22.7392 C   0  0  0  0  0  0  0  0  0  0  0  0
   18.7446   20.4368   22.0358 H   0  0  0  0  0  0  0  0  0  0  0  0
   19.8276   21.1294   23.2291 H   0  0  0  0  0  0  0  0  0  0  0  0
   20.7777   19.6474   21.9596 C   0  0  0  0  0  0  0  0  0  0  0  0
   21.3761   18.9813   22.5961 H   0  0  0  0  0  0  0  0  0  0  0  0
   21.4309   20.4984   21.7231 H   0  0  0  0  0  0  0  0  0  0  0  0
   20.4358   18.9385   20.6260 C   0  0  0  0  0  0  0  0  0  0  0  0
   19.9157   19.6390   19.9583 H   0  0  0  0  0  0  0  0  0  0  0  0
   21.3755   18.6738   20.1219 H   0  0  0  0  0  0  0  0  0  0  0  0
   19.5871   17.6608   20.7899 C   0  0  0  0  0  0  0  0  0  0  0  0
   18.5735   17.9008   21.1338 H   0  0  0  0  0  0  0  0  0  0  0  0
   19.4950   17.1354   19.8306 H   0  0  0  0  0  0  0  0  0  0  0  0
   20.0472   16.9726   21.5111 H   0  0  0  0  0  0  0  0  0  0  0  0
  1  2  1  0  0  0  0
  1  3  2  0  0  0  0
  1  4  1  0  0  0  0
  4  5  1  0  0  0  0
  4  6  1  0  0  0  0
  4  7  1  0  0  0  0
  7  8  1  0  0  0  0
  7  9  1  0  0  0  0
  7 10  1  0  0  0  0
 10 11  1  0  0  0  0
 10 12  1  0  0  0  0
 10 13  1  0  0  0  0
 13 14  1  0  0  0  0
 13 15  1  0  0  0  0
 13 16  1  0  0  0  0
 16 17  1  0  0  0  0
 16 18  1  0  0  0  0
 16 19  1  0  0  0  0
M  END
> <VConfSearch Rank>
13

> <Conf_Id>
4

> <Delta U+W>
3.753

> <U+W>
-51.138

> <U>
12.334

> <W>
-63.472

> <W(PB)>
-65.500

> <W(SA)>
2.028

> <Valence>
9.984

> <Coulomb>
1.767

> <VdW>
0.583

> <VdW6>
-7.767

> <VdW12>
8.349

> <Bond>
0.203

> <Angle>
3.191

> <Pdih>
6.589

> <Idih>
0.001

> <Tether>
0.000

$$$$
VeraChem MOL file


 19 18  0  0  0  0  0  0  0  0999 V2000     
   19.8406   19.4020   24.9723 C   0  0  0  0  0  0  0  0  0  0  0  0
   20.3230   18.8057   25.9151 O   0  5  0  0  0  0  0  0  0  0  0  0
   19.8496   20.6128   24.8690 O   0  0  0  0  0  0  0  0  0  0  0  0
   19.1623   18.5852   23.8755 C   0  0  0  0  0  0  0  0  0  0  0  0
   18.5254   19.2556   23.2896 H   0  0  0  0  0  0  0  0  0  0  0  0
   18.4942   17.8707   24.3704 H   0  0  0  0  0  0  0  0  0  0  0  0
   20.1522   17.8130   22.9596 C   0  0  0  0  0  0  0  0  0  0  0  0
   20.8096   17.2108   23.6019 H   0  0  0  0  0  0  0  0  0  0  0  0
   19.6005   17.0965   22.3364 H   0  0  0  0  0  0  0  0  0  0  0  0
   21.0292   18.7230   22.0606 C   0  0  0  0  0  0  0  0  0  0  0  0
   22.0170   18.2527   21.9608 H   0  0  0  0  0  0  0  0  0  0  0  0
   21.2084   19.6900   22.5499 H   0  0  0  0  0  0  0  0  0  0  0  0
   20.4743   18.9475   20.6325 C   0  0  0  0  0  0  0  0  0  0  0  0
   21.2090   19.5320   20.0617 H   0  0  0  0  0  0  0  0  0  0  0  0
   20.3820   17.9820   20.1163 H   0  0  0  0  0  0  0  0  0  0  0  0
   19.1189   19.6828   20.5904 C   0  0  0  0  0  0  0  0  0  0  0  0
   19.1608   20.6185   21.1633 H   0  0  0  0  0  0  0  0  0  0  0  0
   18.8482   19.9301   19.5558 H   0  0  0  0  0  0  0  0  0  0  0  0
   18.3168   19.0573   21.0011 H   0  0  0  0  0  0  0  0  0  0  0  0
  1  2  1  0  0  0  0
  1  3  2  0  0  0  0
  1  4  1  0  0  0  0
  4  5  1  0  0  0  0
  4  6  1  0  0  0  0
  4  7  1  0  0  0  0
  7  8  1  0  0  0  0
  7  9  1  0  0  0  0
  7 10  1  0  0  0  0
 10 11  1  0  0  0  0
 10 12  1  0  0  0  0
 10 13  1  0  0  0  0
 13 14  1  0  0  0  0
 13 15  1  0  0  0  0
 13 16  1  0  0  0  0
 16 17  1  0  0  0  0
 16 18  1  0  0  0  0
 16 19  1  0  0  0  0
M  END
> <VConfSearch Rank>
14

> <Conf_Id>
73

> <Delta U+W>
3.707

> <U+W>
-51.184

> <U>
12.334

> <W>
-63.519

> <W(PB)>
-65.541

> <W(SA)>
2.022

> <Valence>
9.984

> <Coulomb>
1.768

> <VdW>
0.583

> <VdW6>
-7.767

> <VdW12>
8.350

> <Bond>
0.203

> <Angle>
3.192

> <Pdih>
6.589

> <Idih>
0.001

> <Tether>
0.000

$$$$
VeraChem MOL file


 19 18  0  0  0  0  0  0  0  0999 V2000     
   20.0090   19.0729   24.9753 C   0  0  0  0  0  0  0  0  0  0  0  0
   20.7487   18.1160   25.0929 O   0  5  0  0  0  0  0  0  0  0  0  0
   20.0391   20.0388   25.7125 O   0  0  0  0  0  0  0  0  0  0  0  0
   18.9640   19.0492   23.8633 C   0  0  0  0  0  0  0  0  0  0  0  0
   17.9971   19.2927   24.3188 H   0  0  0  0  0  0  0  0  0  0  0  0
   18.8785   18.0249   23.4826 H   0  0  0  0  0  0  0  0  0  0  0  0
   19.2492   20.0409   22.7025 C   0  0  0  0  0  0  0  0  0  0  0  0
   18.4157   20.0116   21.9888 H   0  0  0  0  0  0  0  0  0  0  0  0
   19.2630   21.0620   23.1079 H   0  0  0  0  0  0  0  0  0  0  0  0
   20.5839   19.7861   21.9558 C   0  0  0  0  0  0  0  0  0  0  0  0
   21.4192   19.9376   22.6532 H   0  0  0  0  0  0  0  0  0  0  0  0
   20.7016   20.5489   21.1741 H   0  0  0  0  0  0  0  0  0  0  0  0
   20.7225   18.3846   21.3126 C   0  0  0  0  0  0  0  0  0  0  0  0
   21.7077   18.3169   20.8312 H   0  0  0  0  0  0  0  0  0  0  0  0
   20.7123   17.6096   22.0909 H   0  0  0  0  0  0  0  0  0  0  0  0
   19.6336   18.0835   20.2602 C   0  0  0  0  0  0  0  0  0  0  0  0
   18.6389   18.0286   20.7201 H   0  0  0  0  0  0  0  0  0  0  0  0
   19.6127   18.8593   19.4838 H   0  0  0  0  0  0  0  0  0  0  0  0
   19.8279   17.1201   19.7714 H   0  0  0  0  0  0  0  0  0  0  0  0
  1  2  1  0  0  0  0
  1  3  2  0  0  0  0
  1  4  1  0  0  0  0
  4  5  1  0  0  0  0
  4  6  1  0  0  0  0
  4  7  1  0  0  0  0
  7  8  1  0  0  0  0
  7  9  1  0  0  0  0
  7 10  1  0  0  0  0
 10 11  1  0  0  0  0
 10 12  1  0  0  0  0
 10 13  1  0  0  0  0
 13 14  1  0  0  0  0
 13 15  1  0  0  0  0
 13 16  1  0  0  0  0
 16 17  1  0  0  0  0
 16 18  1  0  0  0  0
 16 19  1  0  0  0  0
M  END
> <VConfSearch Rank>
15

> <Conf_Id>
56

> <Delta U+W>
1.735

> <U+W>
-53.156

> <U>
10.214

> <W>
-63.370

> <W(PB)>
-65.388

> <W(SA)>
2.018

> <Valence>
7.868

> <Coulomb>
1.968

> <VdW>
0.378

> <VdW6>
-8.067

> <VdW12>
8.445

> <Bond>
0.191

> <Angle>
3.117

> <Pdih>
4.559

> <Idih>
0.001

> <Tether>
0.000

$$$$
VeraChem MOL file


 19 18  0  0  0  0  0  0  0  0999 V2000     
   20.3020   19.2541   25.1831 C   0  0  0  0  0  0  0  0  0  0  0  0
   20.0330   18.3764   25.9790 O   0  5  0  0  0  0  0  0  0  0  0  0
   20.5466   20.4003   25.5039 O   0  0  0  0  0  0  0  0  0  0  0  0
   20.3121   18.9029   23.6996 C   0  0  0  0  0  0  0  0  0  0  0  0
   20.6223   17.8560   23.5986 H   0  0  0  0  0  0  0  0  0  0  0  0
   21.0768   19.5222   23.2177 H   0  0  0  0  0  0  0  0  0  0  0  0
   18.9365   19.1223   23.0209 C   0  0  0  0  0  0  0  0  0  0  0  0
   18.1674   18.6037   23.6099 H   0  0  0  0  0  0  0  0  0  0  0  0
   18.6822   20.1906   23.0561 H   0  0  0  0  0  0  0  0  0  0  0  0
   18.8578   18.6170   21.5584 C   0  0  0  0  0  0  0  0  0  0  0  0
   17.8288   18.7779   21.2085 H   0  0  0  0  0  0  0  0  0  0  0  0
   19.0177   17.5306   21.5253 H   0  0  0  0  0  0  0  0  0  0  0  0
   19.8181   19.3306   20.5747 C   0  0  0  0  0  0  0  0  0  0  0  0
   19.3167   19.4247   19.6015 H   0  0  0  0  0  0  0  0  0  0  0  0
   20.0195   20.3559   20.9146 H   0  0  0  0  0  0  0  0  0  0  0  0
   21.1439   18.5684   20.3555 C   0  0  0  0  0  0  0  0  0  0  0  0
   21.7802   19.1042   19.6393 H   0  0  0  0  0  0  0  0  0  0  0  0
   21.7102   18.4563   21.2868 H   0  0  0  0  0  0  0  0  0  0  0  0
   20.9550   17.5655   19.9511 H   0  0  0  0  0  0  0  0  0  0  0  0
  1  2  1  0  0  0  0
  1  3  2  0  0  0  0
  1  4  1  0  0  0  0
  4  5  1  0  0  0  0
  4  6  1  0  0  0  0
  4  7  1  0  0  0  0
  7  8  1  0  0  0  0
  7  9  1  0  0  0  0
  7 10  1  0  0  0  0
 10 11  1  0  0  0  0
 10 12  1  0  0  0  0
 10 13  1  0  0  0  0
 13 14  1  0  0  0  0
 13 15  1  0  0  0  0
 13 16  1  0  0  0  0
 16 17  1  0  0  0  0
 16 18  1  0  0  0  0
 16 19  1  0  0  0  0
M  END
> <VConfSearch Rank>
16

> <Conf_Id>
53

> <Delta U+W>
2.279

> <U+W>
-52.612

> <U>
10.231

> <W>
-62.843

> <W(PB)>
-64.893

> <W(SA)>
2.050

> <Valence>
9.644

> <Coulomb>
-0.164

> <VdW>
0.751

> <VdW6>
-6.881

> <VdW12>
7.631

> <Bond>
0.163

> <Angle>
2.998

> <Pdih>
6.482

> <Idih>
0.001

> <Tether>
0.000

$$$$
VeraChem MOL file


 19 18  0  0  0  0  0  0  0  0999 V2000     
   19.7329   19.2696   24.8517 C   0  0  0  0  0  0  0  0  0  0  0  0
   18.6986   18.6614   25.0441 O   0  5  0  0  0  0  0  0  0  0  0  0
   19.8676   20.4538   25.0901 O   0  0  0  0  0  0  0  0  0  0  0  0
   20.9457   18.4878   24.3503 C   0  0  0  0  0  0  0  0  0  0  0  0
   20.6693   17.4321   24.2407 H   0  0  0  0  0  0  0  0  0  0  0  0
   21.6944   18.5343   25.1496 H   0  0  0  0  0  0  0  0  0  0  0  0
   21.5792   19.0177   23.0331 C   0  0  0  0  0  0  0  0  0  0  0  0
   21.6625   20.1128   23.0715 H   0  0  0  0  0  0  0  0  0  0  0  0
   22.6085   18.6385   22.9758 H   0  0  0  0  0  0  0  0  0  0  0  0
   20.8452   18.5858   21.7396 C   0  0  0  0  0  0  0  0  0  0  0  0
   20.7718   17.4903   21.7041 H   0  0  0  0  0  0  0  0  0  0  0  0
   21.4631   18.8816   20.8807 H   0  0  0  0  0  0  0  0  0  0  0  0
   19.4401   19.2058   21.5757 C   0  0  0  0  0  0  0  0  0  0  0  0
   18.7651   18.8191   22.3499 H   0  0  0  0  0  0  0  0  0  0  0  0
   19.4952   20.2948   21.7116 H   0  0  0  0  0  0  0  0  0  0  0  0
   18.8407   18.8901   20.1904 C   0  0  0  0  0  0  0  0  0  0  0  0
   18.7509   17.8063   20.0398 H   0  0  0  0  0  0  0  0  0  0  0  0
   17.8397   19.3300   20.0934 H   0  0  0  0  0  0  0  0  0  0  0  0
   19.4690   19.2976   19.3876 H   0  0  0  0  0  0  0  0  0  0  0  0
  1  2  1  0  0  0  0
  1  3  2  0  0  0  0
  1  4  1  0  0  0  0
  4  5  1  0  0  0  0
  4  6  1  0  0  0  0
  4  7  1  0  0  0  0
  7  8  1  0  0  0  0
  7  9  1  0  0  0  0
  7 10  1  0  0  0  0
 10 11  1  0  0  0  0
 10 12  1  0  0  0  0
 10 13  1  0  0  0  0
 13 14  1  0  0  0  0
 13 15  1  0  0  0  0
 13 16  1  0  0  0  0
 16 17  1  0  0  0  0
 16 18  1  0  0  0  0
 16 19  1  0  0  0  0
M  END
> <VConfSearch Rank>
17

> <Conf_Id>
25

> <Delta U+W>
2.065

> <U+W>
-52.826

> <U>
10.967

> <W>
-63.794

> <W(PB)>
-65.830

> <W(SA)>
2.036

> <Valence>
8.609

> <Coulomb>
1.892

> <VdW>
0.467

> <VdW6>
-7.569

> <VdW12>
8.036

> <Bond>
0.170

> <Angle>
3.195

> <Pdih>
5.237

> <Idih>
0.007

> <Tether>
0.000

$$$$
VeraChem MOL file


 19 18  0  0  0  0  0  0  0  0999 V2000     
   19.9217   19.5008   24.8261 C   0  0  0  0  0  0  0  0  0  0  0  0
   18.8736   19.0674   25.2630 O   0  5  0  0  0  0  0  0  0  0  0  0
   20.2020   20.6832   24.8092 O   0  0  0  0  0  0  0  0  0  0  0  0
   20.9712   18.5045   24.3368 C   0  0  0  0  0  0  0  0  0  0  0  0
   21.2531   17.9013   25.2076 H   0  0  0  0  0  0  0  0  0  0  0  0
   21.8700   19.0541   24.0318 H   0  0  0  0  0  0  0  0  0  0  0  0
   20.5063   17.5573   23.1950 C   0  0  0  0  0  0  0  0  0  0  0  0
   21.1729   16.6844   23.1866 H   0  0  0  0  0  0  0  0  0  0  0  0
   19.5025   17.1686   23.4161 H   0  0  0  0  0  0  0  0  0  0  0  0
   20.5331   18.1845   21.7792 C   0  0  0  0  0  0  0  0  0  0  0  0
   20.3397   17.3873   21.0483 H   0  0  0  0  0  0  0  0  0  0  0  0
   21.5408   18.5643   21.5620 H   0  0  0  0  0  0  0  0  0  0  0  0
   19.4974   19.3109   21.5694 C   0  0  0  0  0  0  0  0  0  0  0  0
   18.5025   18.9650   21.8823 H   0  0  0  0  0  0  0  0  0  0  0  0
   19.7489   20.1755   22.1967 H   0  0  0  0  0  0  0  0  0  0  0  0
   19.4448   19.7635   20.0963 C   0  0  0  0  0  0  0  0  0  0  0  0
   18.7109   20.5694   19.9658 H   0  0  0  0  0  0  0  0  0  0  0  0
   20.4224   20.1385   19.7661 H   0  0  0  0  0  0  0  0  0  0  0  0
   19.1559   18.9327   19.4393 H   0  0  0  0  0  0  0  0  0  0  0  0
  1  2  1  0  0  0  0
  1  3  2  0  0  0  0
  1  4  1  0  0  0  0
  4  5  1  0  0  0  0
  4  6  1  0  0  0  0
  4  7  1  0  0  0  0
  7  8  1  0  0  0  0
  7  9  1  0  0  0  0
  7 10  1  0  0  0  0
 10 11  1  0  0  0  0
 10 12  1  0  0  0  0
 10 13  1  0  0  0  0
 13 14  1  0  0  0  0
 13 15  1  0  0  0  0
 13 16  1  0  0  0  0
 16 17  1  0  0  0  0
 16 18  1  0  0  0  0
 16 19  1  0  0  0  0
M  END
> <VConfSearch Rank>
18

> <Conf_Id>
52

> <Delta U+W>
2.070

> <U+W>
-52.822

> <U>
10.967

> <W>
-63.789

> <W(PB)>
-65.837

> <W(SA)>
2.048

> <Valence>
8.609

> <Coulomb>
1.892

> <VdW>
0.467

> <VdW6>
-7.569

> <VdW12>
8.035

> <Bond>
0.170

> <Angle>
3.196

> <Pdih>
5.237

> <Idih>
0.007

> <Tether>
0.000

$$$$
VeraChem MOL file


 19 18  0  0  0  0  0  0  0  0999 V2000     
   20.0904   19.5390   24.6349 C   0  0  0  0  0  0  0  0  0  0  0  0
   21.0591   18.9671   25.0962 O   0  5  0  0  0  0  0  0  0  0  0  0
   19.9469   20.7449   24.6785 O   0  0  0  0  0  0  0  0  0  0  0  0
   18.9352   18.7004   24.0857 C   0  0  0  0  0  0  0  0  0  0  0  0
   18.2231   19.3619   23.5780 H   0  0  0  0  0  0  0  0  0  0  0  0
   18.4144   18.2934   24.9600 H   0  0  0  0  0  0  0  0  0  0  0  0
   19.3383   17.5254   23.1496 C   0  0  0  0  0  0  0  0  0  0  0  0
   20.2328   17.0224   23.5422 H   0  0  0  0  0  0  0  0  0  0  0  0
   18.5363   16.7758   23.1851 H   0  0  0  0  0  0  0  0  0  0  0  0
   19.5558   17.9046   21.6623 C   0  0  0  0  0  0  0  0  0  0  0  0
   18.6284   18.3158   21.2404 H   0  0  0  0  0  0  0  0  0  0  0  0
   19.7449   16.9742   21.1095 H   0  0  0  0  0  0  0  0  0  0  0  0
   20.7394   18.8666   21.3987 C   0  0  0  0  0  0  0  0  0  0  0  0
   21.4649   18.8179   22.2225 H   0  0  0  0  0  0  0  0  0  0  0  0
   21.2761   18.5308   20.5008 H   0  0  0  0  0  0  0  0  0  0  0  0
   20.2850   20.3240   21.1691 C   0  0  0  0  0  0  0  0  0  0  0  0
   19.6376   20.3975   20.2857 H   0  0  0  0  0  0  0  0  0  0  0  0
   19.7280   20.7116   22.0301 H   0  0  0  0  0  0  0  0  0  0  0  0
   21.1522   20.9770   21.0079 H   0  0  0  0  0  0  0  0  0  0  0  0
  1  2  1  0  0  0  0
  1  3  2  0  0  0  0
  1  4  1  0  0  0  0
  4  5  1  0  0  0  0
  4  6  1  0  0  0  0
  4  7  1  0  0  0  0
  7  8  1  0  0  0  0
  7  9  1  0  0  0  0
  7 10  1  0  0  0  0
 10 11  1  0  0  0  0
 10 12  1  0  0  0  0
 10 13  1  0  0  0  0
 13 14  1  0  0  0  0
 13 15  1  0  0  0  0
 13 16  1  0  0  0  0
 16 17  1  0  0  0  0
 16 18  1  0  0  0  0
 16 19  1  0  0  0  0
M  END
> <VConfSearch Rank>
19

> <Conf_Id>
66

> <Delta U+W>
5.819

> <U+W>
-49.072

> <U>
15.324

> <W>
-64.396

> <W(PB)>
-66.382

> <W(SA)>
1.986

> <Valence>
11.748

> <Coulomb>
3.201

> <VdW>
0.375

> <VdW6>
-8.854

> <VdW12>
9.229

> <Bond>
0.216

> <Angle>
3.812

> <Pdih>
7.699

> <Idih>
0.022

> <Tether>
0.000

$$$$
VeraChem MOL file


 19 18  0  0  0  0  0  0  0  0999 V2000     
   20.2940   18.2184   25.4648 C   0  0  0  0  0  0  0  0  0  0  0  0
   20.6625   18.7228   26.5067 O   0  5  0  0  0  0  0  0  0  0  0  0
   19.8573   17.0860   25.3939 O   0  0  0  0  0  0  0  0  0  0  0  0
   20.3971   19.0733   24.2006 C   0  0  0  0  0  0  0  0  0  0  0  0
   21.4458   19.3753   24.0945 H   0  0  0  0  0  0  0  0  0  0  0  0
   19.8163   19.9866   24.3750 H   0  0  0  0  0  0  0  0  0  0  0  0
   19.9149   18.3869   22.8949 C   0  0  0  0  0  0  0  0  0  0  0  0
   20.4967   17.4696   22.7291 H   0  0  0  0  0  0  0  0  0  0  0  0
   18.8656   18.0815   23.0099 H   0  0  0  0  0  0  0  0  0  0  0  0
   20.0538   19.3185   21.6714 C   0  0  0  0  0  0  0  0  0  0  0  0
   21.1035   19.6227   21.5585 H   0  0  0  0  0  0  0  0  0  0  0  0
   19.4714   20.2349   21.8394 H   0  0  0  0  0  0  0  0  0  0  0  0
   19.5739   18.6342   20.3745 C   0  0  0  0  0  0  0  0  0  0  0  0
   20.1553   17.7179   20.2020 H   0  0  0  0  0  0  0  0  0  0  0  0
   18.5234   18.3302   20.4828 H   0  0  0  0  0  0  0  0  0  0  0  0
   19.7141   19.5671   19.1551 C   0  0  0  0  0  0  0  0  0  0  0  0
   20.7609   19.8619   19.0043 H   0  0  0  0  0  0  0  0  0  0  0  0
   19.3685   19.0649   18.2422 H   0  0  0  0  0  0  0  0  0  0  0  0
   19.1167   20.4788   19.2873 H   0  0  0  0  0  0  0  0  0  0  0  0
  1  2  1  0  0  0  0
  1  3  2  0  0  0  0
  1  4  1  0  0  0  0
  4  5  1  0  0  0  0
  4  6  1  0  0  0  0
  4  7  1  0  0  0  0
  7  8  1  0  0  0  0
  7  9  1  0  0  0  0
  7 10  1  0  0  0  0
 10 11  1  0  0  0  0
 10 12  1  0  0  0  0
 10 13  1  0  0  0  0
 13 14  1  0  0  0  0
 13 15  1  0  0  0  0
 13 16  1  0  0  0  0
 16 17  1  0  0  0  0
 16 18  1  0  0  0  0
 16 19  1  0  0  0  0
M  END
> <VConfSearch Rank>
20

> <Conf_Id>
0

> <Delta U+W>
0.000

> <U+W>
-54.891

> <U>
6.966

> <W>
-61.857

> <W(PB)>
-63.965

> <W(SA)>
2.108

> <Valence>
7.175

> <Coulomb>
-1.360

> <VdW>
1.151

> <VdW6>
-5.641

> <VdW12>
6.792

> <Bond>
0.119

> <Angle>
2.715

> <Pdih>
4.340

> <Idih>
0.000

> <Tether>
0.000

$$$$
VeraChem MOL file


 19 18  0  0  0  0  0  0  0  0999 V2000     
   20.8348   15.8366   23.1856 C   0  0  0  0  0  0  0  0  0  0  0  0
   21.2529   15.7821   24.3251 O   0  5  0  0  0  0  0  0  0  0  0  0
   20.2575   14.9194   22.6364 O   0  0  0  0  0  0  0  0  0  0  0  0
   21.0271   17.1345   22.4091 C   0  0  0  0  0  0  0  0  0  0  0  0
   21.1460   16.8827   21.3484 H   0  0  0  0  0  0  0  0  0  0  0  0
   21.9661   17.5940   22.7404 H   0  0  0  0  0  0  0  0  0  0  0  0
   19.8525   18.1266   22.5942 C   0  0  0  0  0  0  0  0  0  0  0  0
   18.9183   17.6473   22.2701 H   0  0  0  0  0  0  0  0  0  0  0  0
   19.7383   18.3585   23.6623 H   0  0  0  0  0  0  0  0  0  0  0  0
   20.0715   19.4314   21.7986 C   0  0  0  0  0  0  0  0  0  0  0  0
   20.1867   19.1961   20.7316 H   0  0  0  0  0  0  0  0  0  0  0  0
   21.0068   19.9075   22.1240 H   0  0  0  0  0  0  0  0  0  0  0  0
   18.8999   20.4178   21.9848 C   0  0  0  0  0  0  0  0  0  0  0  0
   17.9627   19.9458   21.6585 H   0  0  0  0  0  0  0  0  0  0  0  0
   18.7827   20.6572   23.0508 H   0  0  0  0  0  0  0  0  0  0  0  0
   19.1219   21.7194   21.1890 C   0  0  0  0  0  0  0  0  0  0  0  0
   18.2798   22.4090   21.3326 H   0  0  0  0  0  0  0  0  0  0  0  0
   20.0372   22.2292   21.5172 H   0  0  0  0  0  0  0  0  0  0  0  0
   19.2110   21.5125   20.1144 H   0  0  0  0  0  0  0  0  0  0  0  0
  1  2  1  0  0  0  0
  1  3  2  0  0  0  0
  1  4  1  0  0  0  0
  4  5  1  0  0  0  0
  4  6  1  0  0  0  0
  4  7  1  0  0  0  0
  7  8  1  0  0  0  0
  7  9  1  0  0  0  0
  7 10  1  0  0  0  0
 10 11  1  0  0  0  0
 10 12  1  0  0  0  0
 10 13  1  0  0  0  0
 13 14  1  0  0  0  0
 13 15  1  0  0  0  0
 13 16  1  0  0  0  0
 16 17  1  0  0  0  0
 16 18  1  0  0  0  0
 16 19  1  0  0  0  0
M  END
> <VConfSearch Rank>
21

> <Conf_Id>
18

> <Delta U+W>
-1.199

> <U+W>
-56.090

> <U>
5.975

> <W>
-62.066

> <W(PB)>
-64.219

> <W(SA)>
2.153

> <Valence>
6.673

> <Coulomb>
-1.307

> <VdW>
0.610

> <VdW6>
-5.351

> <VdW12>
5.961

> <Bond>
0.086

> <Angle>
2.253

> <Pdih>
4.333

> <Idih>
0.001

> <Tether>
0.000

$$$$
VeraChem MOL file


 19 18  0  0  0  0  0  0  0  0999 V2000     
   20.3534   21.6561   20.5397 C   0  0  0  0  0  0  0  0  0  0  0  0
   19.5065   22.5254   20.4812 O   0  5  0  0  0  0  0  0  0  0  0  0
   21.5238   21.8384   20.2689 O   0  0  0  0  0  0  0  0  0  0  0  0
   19.9280   20.2659   20.9987 C   0  0  0  0  0  0  0  0  0  0  0  0
   20.5565   19.5357   20.4765 H   0  0  0  0  0  0  0  0  0  0  0  0
   18.8950   20.1004   20.6702 H   0  0  0  0  0  0  0  0  0  0  0  0
   20.0367   20.0814   22.5347 C   0  0  0  0  0  0  0  0  0  0  0  0
   21.0831   20.2057   22.8460 H   0  0  0  0  0  0  0  0  0  0  0  0
   19.4694   20.8835   23.0269 H   0  0  0  0  0  0  0  0  0  0  0  0
   19.5012   18.7181   23.0327 C   0  0  0  0  0  0  0  0  0  0  0  0
   18.4525   18.6007   22.7271 H   0  0  0  0  0  0  0  0  0  0  0  0
   19.5062   18.7218   24.1313 H   0  0  0  0  0  0  0  0  0  0  0  0
   20.3279   17.5129   22.5310 C   0  0  0  0  0  0  0  0  0  0  0  0
   20.2738   17.4458   21.4365 H   0  0  0  0  0  0  0  0  0  0  0  0
   21.3857   17.6546   22.7921 H   0  0  0  0  0  0  0  0  0  0  0  0
   19.8234   16.1892   23.1398 C   0  0  0  0  0  0  0  0  0  0  0  0
   20.4181   15.3430   22.7720 H   0  0  0  0  0  0  0  0  0  0  0  0
   19.8992   16.2059   24.2349 H   0  0  0  0  0  0  0  0  0  0  0  0
   18.7743   16.0085   22.8712 H   0  0  0  0  0  0  0  0  0  0  0  0
  1  2  1  0  0  0  0
  1  3  2  0  0  0  0
  1  4  1  0  0  0  0
  4  5  1  0  0  0  0
  4  6  1  0  0  0  0
  4  7  1  0  0  0  0
  7  8  1  0  0  0  0
  7  9  1  0  0  0  0
  7 10  1  0  0  0  0
 10 11  1  0  0  0  0
 10 12  1  0  0  0  0
 10 13  1  0  0  0  0
 13 14  1  0  0  0  0
 13 15  1  0  0  0  0
 13 16  1  0  0  0  0
 16 17  1  0  0  0  0
 16 18  1  0  0  0  0
 16 19  1  0  0  0  0
M  END
> <VConfSearch Rank>
22

> <Conf_Id>
34

> <Delta U+W>
-0.563

> <U+W>
-55.455

> <U>
6.914

> <W>
-62.369

> <W(PB)>
-64.446

> <W(SA)>
2.077

> <Valence>
7.196

> <Coulomb>
-1.020

> <VdW>
0.738

> <VdW6>
-6.010

> <VdW12>
6.748

> <Bond>
0.126

> <Angle>
2.499

> <Pdih>
4.570

> <Idih>
0.001

> <Tether>
0.000

$$$$
VeraChem MOL file


 19 18  0  0  0  0  0  0  0  0999 V2000     
   17.4504   19.2279   24.1493 C   0  0  0  0  0  0  0  0  0  0  0  0
   17.1090   20.2825   24.6468 O   0  5  0  0  0  0  0  0  0  0  0  0
   17.0996   18.1424   24.5676 O   0  0  0  0  0  0  0  0  0  0  0  0
   18.3880   19.2684   22.9478 C   0  0  0  0  0  0  0  0  0  0  0  0
   18.1701   20.1788   22.3766 H   0  0  0  0  0  0  0  0  0  0  0  0
   18.1438   18.4149   22.3054 H   0  0  0  0  0  0  0  0  0  0  0  0
   19.8847   19.2370   23.3531 C   0  0  0  0  0  0  0  0  0  0  0  0
   20.0736   20.0505   24.0672 H   0  0  0  0  0  0  0  0  0  0  0  0
   20.1011   18.3005   23.8855 H   0  0  0  0  0  0  0  0  0  0  0  0
   20.8523   19.3937   22.1562 C   0  0  0  0  0  0  0  0  0  0  0  0
   21.8764   19.4798   22.5447 H   0  0  0  0  0  0  0  0  0  0  0  0
   20.6390   20.3349   21.6311 H   0  0  0  0  0  0  0  0  0  0  0  0
   20.7914   18.2153   21.1585 C   0  0  0  0  0  0  0  0  0  0  0  0
   20.9542   17.2689   21.6923 H   0  0  0  0  0  0  0  0  0  0  0  0
   19.7953   18.1581   20.7003 H   0  0  0  0  0  0  0  0  0  0  0  0
   21.8474   18.3630   20.0448 C   0  0  0  0  0  0  0  0  0  0  0  0
   21.6914   19.2892   19.4763 H   0  0  0  0  0  0  0  0  0  0  0  0
   22.8616   18.3849   20.4648 H   0  0  0  0  0  0  0  0  0  0  0  0
   21.7897   17.5207   19.3431 H   0  0  0  0  0  0  0  0  0  0  0  0
  1  2  1  0  0  0  0
  1  3  2  0  0  0  0
  1  4  1  0  0  0  0
  4  5  1  0  0  0  0
  4  6  1  0  0  0  0
  4  7  1  0  0  0  0
  7  8  1  0  0  0  0
  7  9  1  0  0  0  0
  7 10  1  0  0  0  0
 10 11  1  0  0  0  0
 10 12  1  0  0  0  0
 10 13  1  0  0  0  0
 13 14  1  0  0  0  0
 13 15  1  0  0  0  0
 13 16  1  0  0  0  0
 16 17  1  0  0  0  0
 16 18  1  0  0  0  0
 16 19  1  0  0  0  0
M  END
> <VConfSearch Rank>
23

> <Conf_Id>
33

> <Delta U+W>
-0.526

> <U+W>
-55.418

> <U>
6.914

> <W>
-62.332

> <W(PB)>
-64.421

> <W(SA)>
2.090

> <Valence>
7.196

> <Coulomb>
-1.020

> <VdW>
0.738

> <VdW6>
-6.010

> <VdW12>
6.748

> <Bond>
0.126

> <Angle>
2.499

> <Pdih>
4.570

> <Idih>
0.001

> <Tether>
0.000

$$$$
VeraChem MOL file


 19 18  0  0  0  0  0  0  0  0999 V2000     
   21.5312   20.6972   20.1469 C   0  0  0  0  0  0  0  0  0  0  0  0
   22.4758   20.0593   19.7263 O   0  5  0  0  0  0  0  0  0  0  0  0
   20.9012   21.4888   19.4740 O   0  0  0  0  0  0  0  0  0  0  0  0
   21.1017   20.4796   21.5935 C   0  0  0  0  0  0  0  0  0  0  0  0
   20.7032   21.4268   21.9766 H   0  0  0  0  0  0  0  0  0  0  0  0
   21.9957   20.2420   22.1826 H   0  0  0  0  0  0  0  0  0  0  0  0
   20.0478   19.3552   21.7461 C   0  0  0  0  0  0  0  0  0  0  0  0
   19.1632   19.6029   21.1433 H   0  0  0  0  0  0  0  0  0  0  0  0
   20.4615   18.4228   21.3397 H   0  0  0  0  0  0  0  0  0  0  0  0
   19.6335   19.1541   23.2221 C   0  0  0  0  0  0  0  0  0  0  0  0
   19.2899   20.1142   23.6310 H   0  0  0  0  0  0  0  0  0  0  0  0
   20.5094   18.8585   23.8158 H   0  0  0  0  0  0  0  0  0  0  0  0
   18.5077   18.1107   23.4071 C   0  0  0  0  0  0  0  0  0  0  0  0
   18.1930   18.1144   24.4598 H   0  0  0  0  0  0  0  0  0  0  0  0
   17.6276   18.4059   22.8191 H   0  0  0  0  0  0  0  0  0  0  0  0
   18.9334   16.6776   23.0210 C   0  0  0  0  0  0  0  0  0  0  0  0
   19.8299   16.3712   23.5756 H   0  0  0  0  0  0  0  0  0  0  0  0
   18.1323   15.9639   23.2528 H   0  0  0  0  0  0  0  0  0  0  0  0
   19.1481   16.5987   21.9480 H   0  0  0  0  0  0  0  0  0  0  0  0
  1  2  1  0  0  0  0
  1  3  2  0  0  0  0
  1  4  1  0  0  0  0
  4  5  1  0  0  0  0
  4  6  1  0  0  0  0
  4  7  1  0  0  0  0
  7  8  1  0  0  0  0
  7  9  1  0  0  0  0
  7 10  1  0  0  0  0
 10 11  1  0  0  0  0
 10 12  1  0  0  0  0
 10 13  1  0  0  0  0
 13 14  1  0  0  0  0
 13 15  1  0  0  0  0
 13 16  1  0  0  0  0
 16 17  1  0  0  0  0
 16 18  1  0  0  0  0
 16 19  1  0  0  0  0
M  END
> <VConfSearch Rank>
24

> <Conf_Id>
42

> <Delta U+W>
-0.344

> <U+W>
-55.236

> <U>
7.244

> <W>
-62.479

> <W(PB)>
-64.610

> <W(SA)>
2.130

> <Valence>
7.174

> <Coulomb>
-0.669

> <VdW>
0.739

> <VdW6>
-5.969

> <VdW12>
6.708

> <Bond>
0.116

> <Angle>
2.481

> <Pdih>
4.576

> <Idih>
0.000

> <Tether>
0.000

$$$$
VeraChem MOL file


 19 18  0  0  0  0  0  0  0  0999 V2000     
   22.6427   18.8914   20.3993 C   0  0  0  0  0  0  0  0  0  0  0  0
   23.5226   18.2543   20.9436 O   0  5  0  0  0  0  0  0  0  0  0  0
   22.8497   19.8679   19.7066 O   0  0  0  0  0  0  0  0  0  0  0  0
   21.1983   18.4523   20.6120 C   0  0  0  0  0  0  0  0  0  0  0  0
   21.1870   17.3619   20.7289 H   0  0  0  0  0  0  0  0  0  0  0  0
   20.6335   18.6867   19.7017 H   0  0  0  0  0  0  0  0  0  0  0  0
   20.5382   19.1274   21.8397 C   0  0  0  0  0  0  0  0  0  0  0  0
   21.1305   18.8945   22.7344 H   0  0  0  0  0  0  0  0  0  0  0  0
   20.5657   20.2183   21.7121 H   0  0  0  0  0  0  0  0  0  0  0  0
   19.0767   18.6615   22.0334 C   0  0  0  0  0  0  0  0  0  0  0  0
   19.0537   17.5774   22.2099 H   0  0  0  0  0  0  0  0  0  0  0  0
   18.5191   18.8374   21.1032 H   0  0  0  0  0  0  0  0  0  0  0  0
   18.3484   19.3887   23.1872 C   0  0  0  0  0  0  0  0  0  0  0  0
   18.3644   20.4732   23.0113 H   0  0  0  0  0  0  0  0  0  0  0  0
   17.2914   19.0890   23.1813 H   0  0  0  0  0  0  0  0  0  0  0  0
   18.9448   19.0791   24.5773 C   0  0  0  0  0  0  0  0  0  0  0  0
   19.9676   19.4651   24.6697 H   0  0  0  0  0  0  0  0  0  0  0  0
   18.3412   19.5461   25.3664 H   0  0  0  0  0  0  0  0  0  0  0  0
   18.9661   17.9975   24.7637 H   0  0  0  0  0  0  0  0  0  0  0  0
  1  2  1  0  0  0  0
  1  3  2  0  0  0  0
  1  4  1  0  0  0  0
  4  5  1  0  0  0  0
  4  6  1  0  0  0  0
  4  7  1  0  0  0  0
  7  8  1  0  0  0  0
  7  9  1  0  0  0  0
  7 10  1  0  0  0  0
 10 11  1  0  0  0  0
 10 12  1  0  0  0  0
 10 13  1  0  0  0  0
 13 14  1  0  0  0  0
 13 15  1  0  0  0  0
 13 16  1  0  0  0  0
 16 17  1  0  0  0  0
 16 18  1  0  0  0  0
 16 19  1  0  0  0  0
M  END
> <VConfSearch Rank>
25

> <Conf_Id>
41

> <Delta U+W>
-0.361

> <U+W>
-55.252

> <U>
7.244

> <W>
-62.496

> <W(PB)>
-64.596

> <W(SA)>
2.099

> <Valence>
7.174

> <Coulomb>
-0.669

> <VdW>
0.739

> <VdW6>
-5.969

> <VdW12>
6.708

> <Bond>
0.116

> <Angle>
2.481

> <Pdih>
4.576

> <Idih>
0.000

> <Tether>
0.000

$$$$
VeraChem MOL file


 19 18  0  0  0  0  0  0  0  0999 V2000     
   19.1588   16.8658   20.5331 C   0  0  0  0  0  0  0  0  0  0  0  0
   19.8055   15.9607   21.0219 O   0  5  0  0  0  0  0  0  0  0  0  0
   17.9766   16.7785   20.2654 O   0  0  0  0  0  0  0  0  0  0  0  0
   19.8728   18.1771   20.2169 C   0  0  0  0  0  0  0  0  0  0  0  0
   19.5772   18.4756   19.2042 H   0  0  0  0  0  0  0  0  0  0  0  0
   20.9533   17.9901   20.1900 H   0  0  0  0  0  0  0  0  0  0  0  0
   19.5530   19.3254   21.2090 C   0  0  0  0  0  0  0  0  0  0  0  0
   19.9935   20.2573   20.8293 H   0  0  0  0  0  0  0  0  0  0  0  0
   18.4659   19.4817   21.2465 H   0  0  0  0  0  0  0  0  0  0  0  0
   20.0917   19.0498   22.6307 C   0  0  0  0  0  0  0  0  0  0  0  0
   21.1764   18.8814   22.5861 H   0  0  0  0  0  0  0  0  0  0  0  0
   19.6424   18.1276   23.0245 H   0  0  0  0  0  0  0  0  0  0  0  0
   19.7900   20.2181   23.5923 C   0  0  0  0  0  0  0  0  0  0  0  0
   20.2407   21.1426   23.2055 H   0  0  0  0  0  0  0  0  0  0  0  0
   18.7053   20.3871   23.6406 H   0  0  0  0  0  0  0  0  0  0  0  0
   20.3287   19.9401   25.0098 C   0  0  0  0  0  0  0  0  0  0  0  0
   21.4173   19.7979   24.9954 H   0  0  0  0  0  0  0  0  0  0  0  0
   20.1054   20.7801   25.6803 H   0  0  0  0  0  0  0  0  0  0  0  0
   19.8706   19.0368   25.4338 H   0  0  0  0  0  0  0  0  0  0  0  0
  1  2  1  0  0  0  0
  1  3  2  0  0  0  0
  1  4  1  0  0  0  0
  4  5  1  0  0  0  0
  4  6  1  0  0  0  0
  4  7  1  0  0  0  0
  7  8  1  0  0  0  0
  7  9  1  0  0  0  0
  7 10  1  0  0  0  0
 10 11  1  0  0  0  0
 10 12  1  0  0  0  0
 10 13  1  0  0  0  0
 13 14  1  0  0  0  0
 13 15  1  0  0  0  0
 13 16  1  0  0  0  0
 16 17  1  0  0  0  0
 16 18  1  0  0  0  0
 16 19  1  0  0  0  0
M  END
> <VConfSearch Rank>
26

> <Conf_Id>
36

> <Delta U+W>
-0.079

> <U+W>
-54.971

> <U>
8.266

> <W>
-63.237

> <W(PB)>
-65.340

> <W(SA)>
2.103

> <Valence>
6.935

> <Coulomb>
0.874

> <VdW>
0.457

> <VdW6>
-6.205

> <VdW12>
6.662

> <Bond>
0.107

> <Angle>
2.420

> <Pdih>
4.407

> <Idih>
0.001

> <Tether>
0.000

$$$$
VeraChem MOL file


 19 18  0  0  0  0  0  0  0  0999 V2000     
   17.7691   19.8028   23.7064 C   0  0  0  0  0  0  0  0  0  0  0  0
   17.8693   19.1500   24.7264 O   0  5  0  0  0  0  0  0  0  0  0  0
   16.7671   19.8258   23.0192 O   0  0  0  0  0  0  0  0  0  0  0  0
   18.9574   20.6576   23.2744 C   0  0  0  0  0  0  0  0  0  0  0  0
   19.6204   20.7974   24.1369 H   0  0  0  0  0  0  0  0  0  0  0  0
   18.5694   21.6481   23.0088 H   0  0  0  0  0  0  0  0  0  0  0  0
   19.7523   20.0750   22.0771 C   0  0  0  0  0  0  0  0  0  0  0  0
   19.0698   19.9139   21.2310 H   0  0  0  0  0  0  0  0  0  0  0  0
   20.4945   20.8150   21.7483 H   0  0  0  0  0  0  0  0  0  0  0  0
   20.4718   18.7535   22.4281 C   0  0  0  0  0  0  0  0  0  0  0  0
   19.7340   18.0021   22.7419 H   0  0  0  0  0  0  0  0  0  0  0  0
   21.1430   18.9166   23.2825 H   0  0  0  0  0  0  0  0  0  0  0  0
   21.2813   18.2088   21.2329 C   0  0  0  0  0  0  0  0  0  0  0  0
   20.6119   18.0425   20.3774 H   0  0  0  0  0  0  0  0  0  0  0  0
   22.0241   18.9545   20.9172 H   0  0  0  0  0  0  0  0  0  0  0  0
   21.9980   16.8903   21.5863 C   0  0  0  0  0  0  0  0  0  0  0  0
   21.2753   16.1161   21.8760 H   0  0  0  0  0  0  0  0  0  0  0  0
   22.5680   16.5170   20.7256 H   0  0  0  0  0  0  0  0  0  0  0  0
   22.6979   17.0349   22.4197 H   0  0  0  0  0  0  0  0  0  0  0  0
  1  2  1  0  0  0  0
  1  3  2  0  0  0  0
  1  4  1  0  0  0  0
  4  5  1  0  0  0  0
  4  6  1  0  0  0  0
  4  7  1  0  0  0  0
  7  8  1  0  0  0  0
  7  9  1  0  0  0  0
  7 10  1  0  0  0  0
 10 11  1  0  0  0  0
 10 12  1  0  0  0  0
 10 13  1  0  0  0  0
 13 14  1  0  0  0  0
 13 15  1  0  0  0  0
 13 16  1  0  0  0  0
 16 17  1  0  0  0  0
 16 18  1  0  0  0  0
 16 19  1  0  0  0  0
M  END
> <VConfSearch Rank>
27

> <Conf_Id>
35

> <Delta U+W>
-0.030

> <U+W>
-54.921

> <U>
8.267

> <W>
-63.188

> <W(PB)>
-65.294

> <W(SA)>
2.106

> <Valence>
6.935

> <Coulomb>
0.875

> <VdW>
0.457

> <VdW6>
-6.205

> <VdW12>
6.662

> <Bond>
0.107

> <Angle>
2.420

> <Pdih>
4.407

> <Idih>
0.001

> <Tether>
0.000

$$$$
VeraChem MOL file


 19 18  0  0  0  0  0  0  0  0999 V2000     
   19.5224   19.3739   25.1381 C   0  0  0  0  0  0  0  0  0  0  0  0
   19.1004   20.4922   25.3573 O   0  5  0  0  0  0  0  0  0  0  0  0
   20.4175   18.8567   25.7768 O   0  0  0  0  0  0  0  0  0  0  0  0
   18.8770   18.5690   24.0134 C   0  0  0  0  0  0  0  0  0  0  0  0
   17.7905   18.6710   24.1199 H   0  0  0  0  0  0  0  0  0  0  0  0
   19.1120   17.5080   24.1618 H   0  0  0  0  0  0  0  0  0  0  0  0
   19.3012   19.0167   22.5903 C   0  0  0  0  0  0  0  0  0  0  0  0
   18.6753   18.4903   21.8586 H   0  0  0  0  0  0  0  0  0  0  0  0
   19.0963   20.0895   22.4702 H   0  0  0  0  0  0  0  0  0  0  0  0
   20.7940   18.7318   22.2984 C   0  0  0  0  0  0  0  0  0  0  0  0
   20.9884   17.6537   22.3814 H   0  0  0  0  0  0  0  0  0  0  0  0
   21.4112   19.2177   23.0665 H   0  0  0  0  0  0  0  0  0  0  0  0
   21.2557   19.2359   20.9114 C   0  0  0  0  0  0  0  0  0  0  0  0
   21.0644   20.3145   20.8262 H   0  0  0  0  0  0  0  0  0  0  0  0
   22.3441   19.1069   20.8346 H   0  0  0  0  0  0  0  0  0  0  0  0
   20.5838   18.4941   19.7357 C   0  0  0  0  0  0  0  0  0  0  0  0
   19.5049   18.6903   19.7017 H   0  0  0  0  0  0  0  0  0  0  0  0
   21.0112   18.8239   18.7799 H   0  0  0  0  0  0  0  0  0  0  0  0
   20.7351   17.4099   19.8172 H   0  0  0  0  0  0  0  0  0  0  0  0
  1  2  1  0  0  0  0
  1  3  2  0  0  0  0
  1  4  1  0  0  0  0
  4  5  1  0  0  0  0
  4  6  1  0  0  0  0
  4  7  1  0  0  0  0
  7  8  1  0  0  0  0
  7  9  1  0  0  0  0
  7 10  1  0  0  0  0
 10 11  1  0  0  0  0
 10 12  1  0  0  0  0
 10 13  1  0  0  0  0
 13 14  1  0  0  0  0
 13 15  1  0  0  0  0
 13 16  1  0  0  0  0
 16 17  1  0  0  0  0
 16 18  1  0  0  0  0
 16 19  1  0  0  0  0
M  END
> <VConfSearch Rank>
28

> <Conf_Id>
74

> <Delta U+W>
0.797

> <U+W>
-54.095

> <U>
8.869

> <W>
-62.964

> <W(PB)>
-65.046

> <W(SA)>
2.082

> <Valence>
7.469

> <Coulomb>
0.762

> <VdW>
0.639

> <VdW6>
-6.782

> <VdW12>
7.421

> <Bond>
0.141

> <Angle>
2.667

> <Pdih>
4.660

> <Idih>
0.001

> <Tether>
0.000

$$$$
VeraChem MOL file


 19 18  0  0  0  0  0  0  0  0999 V2000     
   21.4189   21.1672   23.5252 C   0  0  0  0  0  0  0  0  0  0  0  0
   20.9862   22.2194   23.9521 O   0  5  0  0  0  0  0  0  0  0  0  0
   22.4751   20.6819   23.8790 O   0  0  0  0  0  0  0  0  0  0  0  0
   20.5813   20.4057   22.5041 C   0  0  0  0  0  0  0  0  0  0  0  0
   21.2700   19.8772   21.8351 H   0  0  0  0  0  0  0  0  0  0  0  0
   20.0345   21.1374   21.8976 H   0  0  0  0  0  0  0  0  0  0  0  0
   19.5915   19.4097   23.1620 C   0  0  0  0  0  0  0  0  0  0  0  0
   20.1520   18.6594   23.7352 H   0  0  0  0  0  0  0  0  0  0  0  0
   18.9777   19.9539   23.8930 H   0  0  0  0  0  0  0  0  0  0  0  0
   18.6490   18.7129   22.1487 C   0  0  0  0  0  0  0  0  0  0  0  0
   18.0258   19.4745   21.6605 H   0  0  0  0  0  0  0  0  0  0  0  0
   17.9564   18.0630   22.7008 H   0  0  0  0  0  0  0  0  0  0  0  0
   19.3581   17.8748   21.0565 C   0  0  0  0  0  0  0  0  0  0  0  0
   18.5938   17.4456   20.3941 H   0  0  0  0  0  0  0  0  0  0  0  0
   19.9779   18.5234   20.4235 H   0  0  0  0  0  0  0  0  0  0  0  0
   20.2195   16.7285   21.6284 C   0  0  0  0  0  0  0  0  0  0  0  0
   19.6245   16.0793   22.2839 H   0  0  0  0  0  0  0  0  0  0  0  0
   20.6245   16.1105   20.8167 H   0  0  0  0  0  0  0  0  0  0  0  0
   21.0680   17.1171   22.2056 H   0  0  0  0  0  0  0  0  0  0  0  0
  1  2  1  0  0  0  0
  1  3  2  0  0  0  0
  1  4  1  0  0  0  0
  4  5  1  0  0  0  0
  4  6  1  0  0  0  0
  4  7  1  0  0  0  0
  7  8  1  0  0  0  0
  7  9  1  0  0  0  0
  7 10  1  0  0  0  0
 10 11  1  0  0  0  0
 10 12  1  0  0  0  0
 10 13  1  0  0  0  0
 13 14  1  0  0  0  0
 13 15  1  0  0  0  0
 13 16  1  0  0  0  0
 16 17  1  0  0  0  0
 16 18  1  0  0  0  0
 16 19  1  0  0  0  0
M  END
> <VConfSearch Rank>
29

> <Conf_Id>
67

> <Delta U+W>
0.308

> <U+W>
-54.583

> <U>
8.219

> <W>
-62.802

> <W(PB)>
-64.859

> <W(SA)>
2.057

> <Valence>
7.609

> <Coulomb>
-0.089

> <VdW>
0.699

> <VdW6>
-6.924

> <VdW12>
7.623

> <Bond>
0.163

> <Angle>
2.870

> <Pdih>
4.576

> <Idih>
0.001

> <Tether>
0.000

$$$$
VeraChem MOL file


 19 18  0  0  0  0  0  0  0  0999 V2000     
   17.6343   20.6722   22.4763 C   0  0  0  0  0  0  0  0  0  0  0  0
   16.9143   21.0852   21.5890 O   0  5  0  0  0  0  0  0  0  0  0  0
   17.7503   21.2170   23.5561 O   0  0  0  0  0  0  0  0  0  0  0  0
   18.4514   19.4124   22.2127 C   0  0  0  0  0  0  0  0  0  0  0  0
   17.8766   18.7682   21.5367 H   0  0  0  0  0  0  0  0  0  0  0  0
   18.5555   18.8771   23.1634 H   0  0  0  0  0  0  0  0  0  0  0  0
   19.8453   19.7167   21.6051 C   0  0  0  0  0  0  0  0  0  0  0  0
   19.7105   20.3312   20.7043 H   0  0  0  0  0  0  0  0  0  0  0  0
   20.4258   20.3302   22.3068 H   0  0  0  0  0  0  0  0  0  0  0  0
   20.6438   18.4459   21.2199 C   0  0  0  0  0  0  0  0  0  0  0  0
   21.5930   18.7522   20.7594 H   0  0  0  0  0  0  0  0  0  0  0  0
   20.0915   17.9009   20.4422 H   0  0  0  0  0  0  0  0  0  0  0  0
   20.9448   17.4761   22.3890 C   0  0  0  0  0  0  0  0  0  0  0  0
   20.0089   17.0743   22.7991 H   0  0  0  0  0  0  0  0  0  0  0  0
   21.4978   16.6130   21.9935 H   0  0  0  0  0  0  0  0  0  0  0  0
   21.7744   18.1209   23.5201 C   0  0  0  0  0  0  0  0  0  0  0  0
   21.2116   18.9177   24.0228 H   0  0  0  0  0  0  0  0  0  0  0  0
   22.0389   17.3718   24.2775 H   0  0  0  0  0  0  0  0  0  0  0  0
   22.7057   18.5503   23.1286 H   0  0  0  0  0  0  0  0  0  0  0  0
  1  2  1  0  0  0  0
  1  3  2  0  0  0  0
  1  4  1  0  0  0  0
  4  5  1  0  0  0  0
  4  6  1  0  0  0  0
  4  7  1  0  0  0  0
  7  8  1  0  0  0  0
  7  9  1  0  0  0  0
  7 10  1  0  0  0  0
 10 11  1  0  0  0  0
 10 12  1  0  0  0  0
 10 13  1  0  0  0  0
 13 14  1  0  0  0  0
 13 15  1  0  0  0  0
 13 16  1  0  0  0  0
 16 17  1  0  0  0  0
 16 18  1  0  0  0  0
 16 19  1  0  0  0  0
M  END
> <VConfSearch Rank>
30

> <Conf_Id>
21

> <Delta U+W>
0.319

> <U+W>
-54.572

> <U>
8.220

> <W>
-62.792

> <W(PB)>
-64.830

> <W(SA)>
2.038

> <Valence>
7.609

> <Coulomb>
-0.088

> <VdW>
0.699

> <VdW6>
-6.924

> <VdW12>
7.623

> <Bond>
0.163

> <Angle>
2.870

> <Pdih>
4.576

> <Idih>
0.000

> <Tether>
0.000

$$$$
VeraChem MOL file


 19 18  0  0  0  0  0  0  0  0999 V2000     
   17.0927   18.8431   22.3827 C   0  0  0  0  0  0  0  0  0  0  0  0
   16.2917   18.6028   21.5012 O   0  5  0  0  0  0  0  0  0  0  0  0
   16.8453   18.7244   23.5663 O   0  0  0  0  0  0  0  0  0  0  0  0
   18.4901   19.3008   21.9805 C   0  0  0  0  0  0  0  0  0  0  0  0
   18.8581   19.9782   22.7573 H   0  0  0  0  0  0  0  0  0  0  0  0
   18.4011   19.8896   21.0597 H   0  0  0  0  0  0  0  0  0  0  0  0
   19.4700   18.1178   21.7617 C   0  0  0  0  0  0  0  0  0  0  0  0
   19.5160   17.4927   22.6642 H   0  0  0  0  0  0  0  0  0  0  0  0
   19.0568   17.4795   20.9685 H   0  0  0  0  0  0  0  0  0  0  0  0
   20.8943   18.5654   21.3459 C   0  0  0  0  0  0  0  0  0  0  0  0
   20.8489   19.5108   20.7882 H   0  0  0  0  0  0  0  0  0  0  0  0
   21.2936   17.8225   20.6419 H   0  0  0  0  0  0  0  0  0  0  0  0
   21.9015   18.6856   22.5159 C   0  0  0  0  0  0  0  0  0  0  0  0
   22.0073   17.7112   23.0124 H   0  0  0  0  0  0  0  0  0  0  0  0
   22.8897   18.9278   22.1012 H   0  0  0  0  0  0  0  0  0  0  0  0
   21.5302   19.7555   23.5634 C   0  0  0  0  0  0  0  0  0  0  0  0
   22.3443   19.8807   24.2888 H   0  0  0  0  0  0  0  0  0  0  0  0
   21.3483   20.7276   23.0870 H   0  0  0  0  0  0  0  0  0  0  0  0
   20.6318   19.4661   24.1228 H   0  0  0  0  0  0  0  0  0  0  0  0
  1  2  1  0  0  0  0
  1  3  2  0  0  0  0
  1  4  1  0  0  0  0
  4  5  1  0  0  0  0
  4  6  1  0  0  0  0
  4  7  1  0  0  0  0
  7  8  1  0  0  0  0
  7  9  1  0  0  0  0
  7 10  1  0  0  0  0
 10 11  1  0  0  0  0
 10 12  1  0  0  0  0
 10 13  1  0  0  0  0
 13 14  1  0  0  0  0
 13 15  1  0  0  0  0
 13 16  1  0  0  0  0
 16 17  1  0  0  0  0
 16 18  1  0  0  0  0
 16 19  1  0  0  0  0
M  END
> <VConfSearch Rank>
31

> <Conf_Id>
24

> <Delta U+W>
2.477

> <U+W>
-52.414

> <U>
10.422

> <W>
-62.836

> <W(PB)>
-64.906

> <W(SA)>
2.070

> <Valence>
9.628

> <Coulomb>
0.101

> <VdW>
0.693

> <VdW6>
-6.927

> <VdW12>
7.620

> <Bond>
0.173

> <Angle>
2.989

> <Pdih>
6.465

> <Idih>
0.001

> <Tether>
0.000

$$$$
VeraChem MOL file


 19 18  0  0  0  0  0  0  0  0999 V2000     
   19.2914   16.6204   21.6271 C   0  0  0  0  0  0  0  0  0  0  0  0
   18.1421   16.8556   21.3103 O   0  5  0  0  0  0  0  0  0  0  0  0
   19.9759   15.7732   21.0878 O   0  0  0  0  0  0  0  0  0  0  0  0
   19.9014   17.4094   22.7829 C   0  0  0  0  0  0  0  0  0  0  0  0
   20.3691   16.6838   23.4587 H   0  0  0  0  0  0  0  0  0  0  0  0
   19.0896   17.8825   23.3444 H   0  0  0  0  0  0  0  0  0  0  0  0
   20.9608   18.4575   22.3422 C   0  0  0  0  0  0  0  0  0  0  0  0
   21.4988   18.8352   23.2221 H   0  0  0  0  0  0  0  0  0  0  0  0
   21.7120   17.9430   21.7270 H   0  0  0  0  0  0  0  0  0  0  0  0
   20.3811   19.6464   21.5323 C   0  0  0  0  0  0  0  0  0  0  0  0
   19.4970   19.3294   20.9625 H   0  0  0  0  0  0  0  0  0  0  0  0
   21.1271   19.9437   20.7827 H   0  0  0  0  0  0  0  0  0  0  0  0
   20.0447   20.9000   22.3767 C   0  0  0  0  0  0  0  0  0  0  0  0
   20.9540   21.2653   22.8737 H   0  0  0  0  0  0  0  0  0  0  0  0
   19.7230   21.7012   21.6971 H   0  0  0  0  0  0  0  0  0  0  0  0
   18.9406   20.6739   23.4301 C   0  0  0  0  0  0  0  0  0  0  0  0
   19.2860   20.0044   24.2275 H   0  0  0  0  0  0  0  0  0  0  0  0
   18.6553   21.6251   23.8976 H   0  0  0  0  0  0  0  0  0  0  0  0
   18.0430   20.2380   22.9719 H   0  0  0  0  0  0  0  0  0  0  0  0
  1  2  1  0  0  0  0
  1  3  2  0  0  0  0
  1  4  1  0  0  0  0
  4  5  1  0  0  0  0
  4  6  1  0  0  0  0
  4  7  1  0  0  0  0
  7  8  1  0  0  0  0
  7  9  1  0  0  0  0
  7 10  1  0  0  0  0
 10 11  1  0  0  0  0
 10 12  1  0  0  0  0
 10 13  1  0  0  0  0
 13 14  1  0  0  0  0
 13 15  1  0  0  0  0
 13 16  1  0  0  0  0
 16 17  1  0  0  0  0
 16 18  1  0  0  0  0
 16 19  1  0  0  0  0
M  END
> <VConfSearch Rank>
32

> <Conf_Id>
4

> <Delta U+W>
3.753

> <U+W>
-51.138

> <U>
12.334

> <W>
-63.472

> <W(PB)>
-65.500

> <W(SA)>
2.028

> <Valence>
9.984

> <Coulomb>
1.767

> <VdW>
0.583

> <VdW6>
-7.767

> <VdW12>
8.349

> <Bond>
0.203

> <Angle>
3.191

> <Pdih>
6.589

> <Idih>
0.001

> <Tether>
0.000

$$$$
VeraChem MOL file


 19 18  0  0  0  0  0  0  0  0999 V2000     
   18.4827   17.4797   20.7667 C   0  0  0  0  0  0  0  0  0  0  0  0
   18.6824   16.3851   20.2777 O   0  5  0  0  0  0  0  0  0  0  0  0
   17.4025   17.8364   21.1939 O   0  0  0  0  0  0  0  0  0  0  0  0
   19.6457   18.4671   20.8190 C   0  0  0  0  0  0  0  0  0  0  0  0
   19.2397   19.4704   20.9828 H   0  0  0  0  0  0  0  0  0  0  0  0
   20.1090   18.4744   19.8255 H   0  0  0  0  0  0  0  0  0  0  0  0
   20.7219   18.1192   21.8847 C   0  0  0  0  0  0  0  0  0  0  0  0
   21.0438   17.0821   21.7162 H   0  0  0  0  0  0  0  0  0  0  0  0
   21.6139   18.7409   21.7294 H   0  0  0  0  0  0  0  0  0  0  0  0
   20.2345   18.2590   23.3505 C   0  0  0  0  0  0  0  0  0  0  0  0
   20.7211   17.4756   23.9473 H   0  0  0  0  0  0  0  0  0  0  0  0
   19.1566   18.0583   23.4187 H   0  0  0  0  0  0  0  0  0  0  0  0
   20.5622   19.6197   24.0130 C   0  0  0  0  0  0  0  0  0  0  0  0
   20.2490   19.5787   25.0653 H   0  0  0  0  0  0  0  0  0  0  0  0
   21.6501   19.7734   24.0221 H   0  0  0  0  0  0  0  0  0  0  0  0
   19.8793   20.8292   23.3419 C   0  0  0  0  0  0  0  0  0  0  0  0
   18.7968   20.6698   23.2517 H   0  0  0  0  0  0  0  0  0  0  0  0
   20.0403   21.7388   23.9348 H   0  0  0  0  0  0  0  0  0  0  0  0
   20.2904   21.0103   22.3411 H   0  0  0  0  0  0  0  0  0  0  0  0
  1  2  1  0  0  0  0
  1  3  2  0  0  0  0
  1  4  1  0  0  0  0
  4  5  1  0  0  0  0
  4  6  1  0  0  0  0
  4  7  1  0  0  0  0
  7  8  1  0  0  0  0
  7  9  1  0  0  0  0
  7 10  1  0  0  0  0
 10 11  1  0  0  0  0
 10 12  1  0  0  0  0
 10 13  1  0  0  0  0
 13 14  1  0  0  0  0
 13 15  1  0  0  0  0
 13 16  1  0  0  0  0
 16 17  1  0  0  0  0
 16 18  1  0  0  0  0
 16 19  1  0  0  0  0
M  END
> <VConfSearch Rank>
33

> <Conf_Id>
73

> <Delta U+W>
3.707

> <U+W>
-51.184

> <U>
12.334

> <W>
-63.519

> <W(PB)>
-65.541

> <W(SA)>
2.022

> <Valence>
9.984

> <Coulomb>
1.768

> <VdW>
0.583

> <VdW6>
-7.767

> <VdW12>
8.350

> <Bond>
0.203

> <Angle>
3.192

> <Pdih>
6.589

> <Idih>
0.001

> <Tether>
0.000

$$$$
VeraChem MOL file


 19 18  0  0  0  0  0  0  0  0999 V2000     
   20.7732   19.2249   24.8013 C   0  0  0  0  0  0  0  0  0  0  0  0
   21.8026   19.8018   24.5112 O   0  5  0  0  0  0  0  0  0  0  0  0
   20.1616   19.4215   25.8331 O   0  0  0  0  0  0  0  0  0  0  0  0
   20.2343   18.1735   23.8351 C   0  0  0  0  0  0  0  0  0  0  0  0
   20.0381   17.2655   24.4170 H   0  0  0  0  0  0  0  0  0  0  0  0
   21.0225   17.9180   23.1177 H   0  0  0  0  0  0  0  0  0  0  0  0
   18.9376   18.5982   23.0931 C   0  0  0  0  0  0  0  0  0  0  0  0
   18.5811   17.7605   22.4797 H   0  0  0  0  0  0  0  0  0  0  0  0
   18.1509   18.7828   23.8375 H   0  0  0  0  0  0  0  0  0  0  0  0
   19.0903   19.8631   22.2094 C   0  0  0  0  0  0  0  0  0  0  0  0
   19.3289   20.7220   22.8516 H   0  0  0  0  0  0  0  0  0  0  0  0
   18.1192   20.0909   21.7495 H   0  0  0  0  0  0  0  0  0  0  0  0
   20.1610   19.7638   21.0954 C   0  0  0  0  0  0  0  0  0  0  0  0
   20.1888   20.7180   20.5516 H   0  0  0  0  0  0  0  0  0  0  0  0
   21.1577   19.6400   21.5400 H   0  0  0  0  0  0  0  0  0  0  0  0
   19.8924   18.6253   20.0878 C   0  0  0  0  0  0  0  0  0  0  0  0
   19.9679   17.6417   20.5681 H   0  0  0  0  0  0  0  0  0  0  0  0
   18.8911   18.7186   19.6475 H   0  0  0  0  0  0  0  0  0  0  0  0
   20.6255   18.6541   19.2714 H   0  0  0  0  0  0  0  0  0  0  0  0
  1  2  1  0  0  0  0
  1  3  2  0  0  0  0
  1  4  1  0  0  0  0
  4  5  1  0  0  0  0
  4  6  1  0  0  0  0
  4  7  1  0  0  0  0
  7  8  1  0  0  0  0
  7  9  1  0  0  0  0
  7 10  1  0  0  0  0
 10 11  1  0  0  0  0
 10 12  1  0  0  0  0
 10 13  1  0  0  0  0
 13 14  1  0  0  0  0
 13 15  1  0  0  0  0
 13 16  1  0  0  0  0
 16 17  1  0  0  0  0
 16 18  1  0  0  0  0
 16 19  1  0  0  0  0
M  END
> <VConfSearch Rank>
34

> <Conf_Id>
56

> <Delta U+W>
1.735

> <U+W>
-53.156

> <U>
10.214

> <W>
-63.370

> <W(PB)>
-65.388

> <W(SA)>
2.018

> <Valence>
7.868

> <Coulomb>
1.968

> <VdW>
0.378

> <VdW6>
-8.067

> <VdW12>
8.445

> <Bond>
0.191

> <Angle>
3.117

> <Pdih>
4.559

> <Idih>
0.001

> <Tether>
0.000

$$$$
VeraChem MOL file


 19 18  0  0  0  0  0  0  0  0999 V2000     
   20.6352   17.3809   19.9047 C   0  0  0  0  0  0  0  0  0  0  0  0
   20.0648   16.3510   19.6043 O   0  5  0  0  0  0  0  0  0  0  0  0
   21.6611   17.7600   19.3754 O   0  0  0  0  0  0  0  0  0  0  0  0
   20.0428   18.2329   21.0216 C   0  0  0  0  0  0  0  0  0  0  0  0
   18.9536   18.1077   21.0056 H   0  0  0  0  0  0  0  0  0  0  0  0
   20.2584   19.2815   20.7883 H   0  0  0  0  0  0  0  0  0  0  0  0
   20.6039   17.8665   22.4187 C   0  0  0  0  0  0  0  0  0  0  0  0
   20.5017   16.7823   22.5653 H   0  0  0  0  0  0  0  0  0  0  0  0
   21.6816   18.0795   22.4428 H   0  0  0  0  0  0  0  0  0  0  0  0
   19.9047   18.5889   23.5976 C   0  0  0  0  0  0  0  0  0  0  0  0
   20.3497   18.2097   24.5277 H   0  0  0  0  0  0  0  0  0  0  0  0
   18.8438   18.3061   23.6376 H   0  0  0  0  0  0  0  0  0  0  0  0
   20.0488   20.1310   23.5885 C   0  0  0  0  0  0  0  0  0  0  0  0
   20.1361   20.4811   24.6264 H   0  0  0  0  0  0  0  0  0  0  0  0
   20.9820   20.4239   23.0880 H   0  0  0  0  0  0  0  0  0  0  0  0
   18.8449   20.8524   22.9426 C   0  0  0  0  0  0  0  0  0  0  0  0
   18.9867   21.9403   22.9764 H   0  0  0  0  0  0  0  0  0  0  0  0
   18.7107   20.5654   21.8937 H   0  0  0  0  0  0  0  0  0  0  0  0
   17.9162   20.6185   23.4792 H   0  0  0  0  0  0  0  0  0  0  0  0
  1  2  1  0  0  0  0
  1  3  2  0  0  0  0
  1  4  1  0  0  0  0
  4  5  1  0  0  0  0
  4  6  1  0  0  0  0
  4  7  1  0  0  0  0
  7  8  1  0  0  0  0
  7  9  1  0  0  0  0
  7 10  1  0  0  0  0
 10 11  1  0  0  0  0
 10 12  1  0  0  0  0
 10 13  1  0  0  0  0
 13 14  1  0  0  0  0
 13 15  1  0  0  0  0
 13 16  1  0  0  0  0
 16 17  1  0  0  0  0
 16 18  1  0  0  0  0
 16 19  1  0  0  0  0
M  END
> <VConfSearch Rank>
35

> <Conf_Id>
53

> <Delta U+W>
2.279

> <U+W>
-52.612

> <U>
10.231

> <W>
-62.843

> <W(PB)>
-64.893

> <W(SA)>
2.050

> <Valence>
9.644

> <Coulomb>
-0.164

> <VdW>
0.751

> <VdW6>
-6.881

> <VdW12>
7.631

> <Bond>
0.163

> <Angle>
2.998

> <Pdih>
6.482

> <Idih>
0.001

> <Tether>
0.000

$$$$
VeraChem MOL file


 19 18  0  0  0  0  0  0  0  0999 V2000     
   20.0957   21.1491   21.5948 C   0  0  0  0  0  0  0  0  0  0  0  0
   18.9061   21.3892   21.5316 O   0  5  0  0  0  0  0  0  0  0  0  0
   20.8414   21.2021   20.6365 O   0  0  0  0  0  0  0  0  0  0  0  0
   20.6950   20.8331   22.9639 C   0  0  0  0  0  0  0  0  0  0  0  0
   19.9019   20.8803   23.7201 H   0  0  0  0  0  0  0  0  0  0  0  0
   21.3928   21.6475   23.1904 H   0  0  0  0  0  0  0  0  0  0  0  0
   21.4512   19.4781   23.0612 C   0  0  0  0  0  0  0  0  0  0  0  0
   22.0972   19.3457   22.1822 H   0  0  0  0  0  0  0  0  0  0  0  0
   22.1255   19.5279   23.9267 H   0  0  0  0  0  0  0  0  0  0  0  0
   20.5414   18.2381   23.2433 C   0  0  0  0  0  0  0  0  0  0  0  0
   19.9036   18.3738   24.1274 H   0  0  0  0  0  0  0  0  0  0  0  0
   21.1826   17.3716   23.4556 H   0  0  0  0  0  0  0  0  0  0  0  0
   19.6632   17.9151   22.0144 C   0  0  0  0  0  0  0  0  0  0  0  0
   18.9220   18.7099   21.8617 H   0  0  0  0  0  0  0  0  0  0  0  0
   20.2867   17.8786   21.1103 H   0  0  0  0  0  0  0  0  0  0  0  0
   18.9247   16.5721   22.1844 C   0  0  0  0  0  0  0  0  0  0  0  0
   18.2738   16.5917   23.0683 H   0  0  0  0  0  0  0  0  0  0  0  0
   18.2991   16.3617   21.3072 H   0  0  0  0  0  0  0  0  0  0  0  0
   19.6358   15.7437   22.2998 H   0  0  0  0  0  0  0  0  0  0  0  0
  1  2  1  0  0  0  0
  1  3  2  0  0  0  0
  1  4  1  0  0  0  0
  4  5  1  0  0  0  0
  4  6  1  0  0  0  0
  4  7  1  0  0  0  0
  7  8  1  0  0  0  0
  7  9  1  0  0  0  0
  7 10  1  0  0  0  0
 10 11  1  0  0  0  0
 10 12  1  0  0  0  0
 10 13  1  0  0  0  0
 13 14  1  0  0  0  0
 13 15  1  0  0  0  0
 13 16  1  0  0  0  0
 16 17  1  0  0  0  0
 16 18  1  0  0  0  0
 16 19  1  0  0  0  0
M  END
> <VConfSearch Rank>
36

> <Conf_Id>
25

> <Delta U+W>
2.065

> <U+W>
-52.826

> <U>
10.967

> <W>
-63.794

> <W(PB)>
-65.830

> <W(SA)>
2.036

> <Valence>
8.609

> <Coulomb>
1.892

> <VdW>
0.467

> <VdW6>
-7.569

> <VdW12>
8.036

> <Bond>
0.170

> <Angle>
3.195

> <Pdih>
5.237

> <Idih>
0.007

> <Tether>
0.000

$$$$
VeraChem MOL file


 19 18  0  0  0  0  0  0  0  0999 V2000     
   20.4977   19.5042   20.2068 C   0  0  0  0  0  0  0  0  0  0  0  0
   20.3291   20.7044   20.1152 O   0  5  0  0  0  0  0  0  0  0  0  0
   19.8594   18.6880   19.5718 O   0  0  0  0  0  0  0  0  0  0  0  0
   21.6166   18.9959   21.1141 C   0  0  0  0  0  0  0  0  0  0  0  0
   22.5527   19.3841   20.6961 H   0  0  0  0  0  0  0  0  0  0  0  0
   21.6689   17.9030   21.0381 H   0  0  0  0  0  0  0  0  0  0  0  0
   21.5112   19.4273   22.6040 C   0  0  0  0  0  0  0  0  0  0  0  0
   22.5079   19.3318   23.0556 H   0  0  0  0  0  0  0  0  0  0  0  0
   21.2515   20.4931   22.6679 H   0  0  0  0  0  0  0  0  0  0  0  0
   20.5260   18.5885   23.4551 C   0  0  0  0  0  0  0  0  0  0  0  0
   20.6517   18.8772   24.5076 H   0  0  0  0  0  0  0  0  0  0  0  0
   20.7957   17.5253   23.3925 H   0  0  0  0  0  0  0  0  0  0  0  0
   19.0428   18.7716   23.0649 C   0  0  0  0  0  0  0  0  0  0  0  0
   18.7968   19.8419   23.0282 H   0  0  0  0  0  0  0  0  0  0  0  0
   18.8646   18.3663   22.0607 H   0  0  0  0  0  0  0  0  0  0  0  0
   18.1042   18.0620   24.0616 C   0  0  0  0  0  0  0  0  0  0  0  0
   17.0554   18.1944   23.7656 H   0  0  0  0  0  0  0  0  0  0  0  0
   18.3129   16.9847   24.0978 H   0  0  0  0  0  0  0  0  0  0  0  0
   18.2244   18.4694   25.0739 H   0  0  0  0  0  0  0  0  0  0  0  0
  1  2  1  0  0  0  0
  1  3  2  0  0  0  0
  1  4  1  0  0  0  0
  4  5  1  0  0  0  0
  4  6  1  0  0  0  0
  4  7  1  0  0  0  0
  7  8  1  0  0  0  0
  7  9  1  0  0  0  0
  7 10  1  0  0  0  0
 10 11  1  0  0  0  0
 10 12  1  0  0  0  0
 10 13  1  0  0  0  0
 13 14  1  0  0  0  0
 13 15  1  0  0  0  0
 13 16  1  0  0  0  0
 16 17  1  0  0  0  0
 16 18  1  0  0  0  0
 16 19  1  0  0  0  0
M  END
> <VConfSearch Rank>
37

> <Conf_Id>
52

> <Delta U+W>
2.070

> <U+W>
-52.822

> <U>
10.967

> <W>
-63.789

> <W(PB)>
-65.837

> <W(SA)>
2.048

> <Valence>
8.609

> <Coulomb>
1.892

> <VdW>
0.467

> <VdW6>
-7.569

> <VdW12>
8.035

> <Bond>
0.170

> <Angle>
3.196

> <Pdih>
5.237

> <Idih>
0.007

> <Tether>
0.000

$$$$
VeraChem MOL file


 19 18  0  0  0  0  0  0  0  0999 V2000     
   19.6442   17.4725   21.0006 C   0  0  0  0  0  0  0  0  0  0  0  0
   18.5889   17.6931   20.4385 O   0  5  0  0  0  0  0  0  0  0  0  0
   20.7057   17.3920   20.4146 O   0  0  0  0  0  0  0  0  0  0  0  0
   19.6269   17.1548   22.4966 C   0  0  0  0  0  0  0  0  0  0  0  0
   20.6580   17.1332   22.8693 H   0  0  0  0  0  0  0  0  0  0  0  0
   19.2418   16.1324   22.5844 H   0  0  0  0  0  0  0  0  0  0  0  0
   18.7569   18.0962   23.3776 C   0  0  0  0  0  0  0  0  0  0  0  0
   17.8139   18.3270   22.8629 H   0  0  0  0  0  0  0  0  0  0  0  0
   18.4733   17.5435   24.2834 H   0  0  0  0  0  0  0  0  0  0  0  0
   19.4464   19.4089   23.8299 C   0  0  0  0  0  0  0  0  0  0  0  0
   20.3361   19.1775   24.4314 H   0  0  0  0  0  0  0  0  0  0  0  0
   18.7560   19.9261   24.5102 H   0  0  0  0  0  0  0  0  0  0  0  0
   19.8103   20.3849   22.6849 C   0  0  0  0  0  0  0  0  0  0  0  0
   19.1879   20.1892   21.8008 H   0  0  0  0  0  0  0  0  0  0  0  0
   19.5728   21.4093   23.0031 H   0  0  0  0  0  0  0  0  0  0  0  0
   21.3069   20.3339   22.3095 C   0  0  0  0  0  0  0  0  0  0  0  0
   21.9343   20.6257   23.1617 H   0  0  0  0  0  0  0  0  0  0  0  0
   21.6085   19.3277   21.9960 H   0  0  0  0  0  0  0  0  0  0  0  0
   21.5200   21.0222   21.4816 H   0  0  0  0  0  0  0  0  0  0  0  0
  1  2  1  0  0  0  0
  1  3  2  0  0  0  0
  1  4  1  0  0  0  0
  4  5  1  0  0  0  0
  4  6  1  0  0  0  0
  4  7  1  0  0  0  0
  7  8  1  0  0  0  0
  7  9  1  0  0  0  0
  7 10  1  0  0  0  0
 10 11  1  0  0  0  0
 10 12  1  0  0  0  0
 10 13  1  0  0  0  0
 13 14  1  0  0  0  0
 13 15  1  0  0  0  0
 13 16  1  0  0  0  0
 16 17  1  0  0  0  0
 16 18  1  0  0  0  0
 16 19  1  0  0  0  0
M  END
> <VConfSearch Rank>
38

> <Conf_Id>
66

> <Delta U+W>
5.819

> <U+W>
-49.072

> <U>
15.324

> <W>
-64.396

> <W(PB)>
-66.382

> <W(SA)>
1.986

> <Valence>
11.748

> <Coulomb>
3.201

> <VdW>
0.375

> <VdW6>
-8.854

> <VdW12>
9.229

> <Bond>
0.216

> <Angle>
3.812

> <Pdih>
7.699

> <Idih>
0.022

> <Tether>
0.000

$$$$
VeraChem MOL file


 19 18  0  0  0  0  0  0  0  0999 V2000     
   20.8207   21.9912   23.3420 C   0  0  0  0  0  0  0  0  0  0  0  0
   21.7545   22.7662   23.3963 O   0  5  0  0  0  0  0  0  0  0  0  0
   19.7338   22.2264   23.8333 O   0  0  0  0  0  0  0  0  0  0  0  0
   21.0548   20.6658   22.6152 C   0  0  0  0  0  0  0  0  0  0  0  0
   21.8984   20.1674   23.1073 H   0  0  0  0  0  0  0  0  0  0  0  0
   21.3746   20.9046   21.5941 H   0  0  0  0  0  0  0  0  0  0  0  0
   19.8338   19.7088   22.5717 C   0  0  0  0  0  0  0  0  0  0  0  0
   19.5148   19.4781   23.5976 H   0  0  0  0  0  0  0  0  0  0  0  0
   18.9905   20.2161   22.0829 H   0  0  0  0  0  0  0  0  0  0  0  0
   20.1576   18.3988   21.8212 C   0  0  0  0  0  0  0  0  0  0  0  0
   21.0010   17.8933   22.3115 H   0  0  0  0  0  0  0  0  0  0  0  0
   20.4763   18.6318   20.7959 H   0  0  0  0  0  0  0  0  0  0  0  0
   18.9425   17.4489   21.7791 C   0  0  0  0  0  0  0  0  0  0  0  0
   18.6217   17.2119   22.8030 H   0  0  0  0  0  0  0  0  0  0  0  0
   18.0972   17.9502   21.2876 H   0  0  0  0  0  0  0  0  0  0  0  0
   19.2694   16.1420   21.0293 C   0  0  0  0  0  0  0  0  0  0  0  0
   20.0918   15.6037   21.5185 H   0  0  0  0  0  0  0  0  0  0  0  0
   18.3949   15.4787   21.0089 H   0  0  0  0  0  0  0  0  0  0  0  0
   19.5632   16.3475   19.9916 H   0  0  0  0  0  0  0  0  0  0  0  0
  1  2  1  0  0  0  0
  1  3  2  0  0  0  0
  1  4  1  0  0  0  0
  4  5  1  0  0  0  0
  4  6  1  0  0  0  0
  4  7  1  0  0  0  0
  7  8  1  0  0  0  0
  7  9  1  0  0  0  0
  7 10  1  0  0  0  0
 10 11  1  0  0  0  0
 10 12  1  0  0  0  0
 10 13  1  0  0  0  0
 13 14  1  0  0  0  0
 13 15  1  0  0  0  0
 13 16  1  0  0  0  0
 16 17  1  0  0  0  0
 16 18  1  0  0  0  0
 16 19  1  0  0  0  0
M  END
> <VConfSearch Rank>
39

> <Conf_Id>
0

> <Delta U+W>
0.000

> <U+W>
-54.891

> <U>
6.966

> <W>
-61.857

> <W(PB)>
-63.965

> <W(SA)>
2.108

> <Valence>
7.175

> <Coulomb>
-1.360

> <VdW>
1.151

> <VdW6>
-5.641

> <VdW12>
6.792

> <Bond>
0.119

> <Angle>
2.715

> <Pdih>
4.340

> <Idih>
0.000

> <Tether>
0.000

$$$$
VeraChem MOL file


 19 18  0  0  0  0  0  0  0  0999 V2000     
   21.7873   18.2374   19.3933 C   0  0  0  0  0  0  0  0  0  0  0  0
   22.7294   18.9825   19.2105 O   0  5  0  0  0  0  0  0  0  0  0  0
   21.7726   17.0736   19.0444 O   0  0  0  0  0  0  0  0  0  0  0  0
   20.5642   18.7873   20.1185 C   0  0  0  0  0  0  0  0  0  0  0  0
   19.6768   18.2761   19.7262 H   0  0  0  0  0  0  0  0  0  0  0  0
   20.4656   19.8494   19.8635 H   0  0  0  0  0  0  0  0  0  0  0  0
   20.6459   18.6123   21.6550 C   0  0  0  0  0  0  0  0  0  0  0  0
   20.7571   17.5453   21.8932 H   0  0  0  0  0  0  0  0  0  0  0  0
   21.5461   19.1185   22.0305 H   0  0  0  0  0  0  0  0  0  0  0  0
   19.3966   19.1768   22.3650 C   0  0  0  0  0  0  0  0  0  0  0  0
   18.4984   18.6697   21.9866 H   0  0  0  0  0  0  0  0  0  0  0  0
   19.2876   20.2432   22.1239 H   0  0  0  0  0  0  0  0  0  0  0  0
   19.4808   19.0010   23.8955 C   0  0  0  0  0  0  0  0  0  0  0  0
   19.5880   17.9353   24.1408 H   0  0  0  0  0  0  0  0  0  0  0  0
   20.3771   19.5087   24.2782 H   0  0  0  0  0  0  0  0  0  0  0  0
   18.2318   19.5657   24.6012 C   0  0  0  0  0  0  0  0  0  0  0  0
   18.3082   19.4325   25.6882 H   0  0  0  0  0  0  0  0  0  0  0  0
   18.1175   20.6387   24.3984 H   0  0  0  0  0  0  0  0  0  0  0  0
   17.3226   19.0535   24.2600 H   0  0  0  0  0  0  0  0  0  0  0  0
  1  2  1  0  0  0  0
  1  3  2  0  0  0  0
  1  4  1  0  0  0  0
  4  5  1  0  0  0  0
  4  6  1  0  0  0  0
  4  7  1  0  0  0  0
  7  8  1  0  0  0  0
  7  9  1  0  0  0  0
  7 10  1  0  0  0  0
 10 11  1  0  0  0  0
 10 12  1  0  0  0  0
 10 13  1  0  0  0  0
 13 14  1  0  0  0  0
 13 15  1  0  0  0  0
 13 16  1  0  0  0  0
 16 17  1  0  0  0  0
 16 18  1  0  0  0  0
 16 19  1  0  0  0  0
M  END
> <VConfSearch Rank>
40

> <Conf_Id>
18

> <Delta U+W>
-1.199

> <U+W>
-56.090

> <U>
5.975

> <W>
-62.066

> <W(PB)>
-64.219

> <W(SA)>
2.153

> <Valence>
6.673

> <Coulomb>
-1.307

> <VdW>
0.610

> <VdW6>
-5.351

> <VdW12>
5.961

> <Bond>
0.086

> <Angle>
2.253

> <Pdih>
4.333

> <Idih>
0.001

> <Tether>
0.000

$$$$
VeraChem MOL file


 19 18  0  0  0  0  0  0  0  0999 V2000     
   22.7368   20.5251   21.7632 C   0  0  0  0  0  0  0  0  0  0  0  0
   22.8948   21.6862   22.0844 O   0  5  0  0  0  0  0  0  0  0  0  0
   23.6529   19.7555   21.5516 O   0  0  0  0  0  0  0  0  0  0  0  0
   21.3110   19.9996   21.6396 C   0  0  0  0  0  0  0  0  0  0  0  0
   21.3028   19.2407   20.8491 H   0  0  0  0  0  0  0  0  0  0  0  0
   20.6718   20.8254   21.3048 H   0  0  0  0  0  0  0  0  0  0  0  0
   20.7711   19.4105   22.9687 C   0  0  0  0  0  0  0  0  0  0  0  0
   21.3929   18.5564   23.2708 H   0  0  0  0  0  0  0  0  0  0  0  0
   20.8783   20.1668   23.7586 H   0  0  0  0  0  0  0  0  0  0  0  0
   19.2877   18.9774   22.8951 C   0  0  0  0  0  0  0  0  0  0  0  0
   18.6679   19.8356   22.6012 H   0  0  0  0  0  0  0  0  0  0  0  0
   18.9589   18.6872   23.9024 H   0  0  0  0  0  0  0  0  0  0  0  0
   19.0389   17.7992   21.9269 C   0  0  0  0  0  0  0  0  0  0  0  0
   19.2901   18.0937   20.8996 H   0  0  0  0  0  0  0  0  0  0  0  0
   19.6957   16.9585   22.1896 H   0  0  0  0  0  0  0  0  0  0  0  0
   17.5697   17.3335   21.9697 C   0  0  0  0  0  0  0  0  0  0  0  0
   17.4082   16.4989   21.2751 H   0  0  0  0  0  0  0  0  0  0  0  0
   17.2938   16.9943   22.9768 H   0  0  0  0  0  0  0  0  0  0  0  0
   16.8913   18.1483   21.6842 H   0  0  0  0  0  0  0  0  0  0  0  0
  1  2  1  0  0  0  0
  1  3  2  0  0  0  0
  1  4  1  0  0  0  0
  4  5  1  0  0  0  0
  4  6  1  0  0  0  0
  4  7  1  0  0  0  0
  7  8  1  0  0  0  0
  7  9  1  0  0  0  0
  7 10  1  0  0  0  0
 10 11  1  0  0  0  0
 10 12  1  0  0  0  0
 10 13  1  0  0  0  0
 13 14  1  0  0  0  0
 13 15  1  0  0  0  0
 13 16  1  0  0  0  0
 16 17  1  0  0  0  0
 16 18  1  0  0  0  0
 16 19  1  0  0  0  0
M  END
> <VConfSearch Rank>
41

> <Conf_Id>
34

> <Delta U+W>
-0.563

> <U+W>
-55.455

> <U>
6.914

> <W>
-62.369

> <W(PB)>
-64.446

> <W(SA)>
2.077

> <Valence>
7.196

> <Coulomb>
-1.020

> <VdW>
0.738

> <VdW6>
-6.010

> <VdW12>
6.748

> <Bond>
0.126

> <Angle>
2.499

> <Pdih>
4.570

> <Idih>
0.001

> <Tether>
0.000

$$$$
VeraChem MOL file


 19 18  0  0  0  0  0  0  0  0999 V2000     
   17.7215   21.2119   22.1317 C   0  0  0  0  0  0  0  0  0  0  0  0
   17.8695   22.3130   22.6237 O   0  5  0  0  0  0  0  0  0  0  0  0
   16.6367   20.7387   21.8569 O   0  0  0  0  0  0  0  0  0  0  0  0
   18.9638   20.3693   21.8651 C   0  0  0  0  0  0  0  0  0  0  0  0
   19.7899   21.0484   21.6220 H   0  0  0  0  0  0  0  0  0  0  0  0
   18.7694   19.7615   20.9742 H   0  0  0  0  0  0  0  0  0  0  0  0
   19.3480   19.4690   23.0680 C   0  0  0  0  0  0  0  0  0  0  0  0
   19.4460   20.0993   23.9627 H   0  0  0  0  0  0  0  0  0  0  0  0
   18.5313   18.7633   23.2738 H   0  0  0  0  0  0  0  0  0  0  0  0
   20.6703   18.6929   22.8614 C   0  0  0  0  0  0  0  0  0  0  0  0
   20.9238   18.1801   23.7994 H   0  0  0  0  0  0  0  0  0  0  0  0
   21.4863   19.4016   22.6643 H   0  0  0  0  0  0  0  0  0  0  0  0
   20.5994   17.6506   21.7229 C   0  0  0  0  0  0  0  0  0  0  0  0
   19.7518   16.9726   21.8932 H   0  0  0  0  0  0  0  0  0  0  0  0
   20.4219   18.1509   20.7619 H   0  0  0  0  0  0  0  0  0  0  0  0
   21.9007   16.8291   21.6273 C   0  0  0  0  0  0  0  0  0  0  0  0
   22.7622   17.4803   21.4296 H   0  0  0  0  0  0  0  0  0  0  0  0
   22.0904   16.2829   22.5606 H   0  0  0  0  0  0  0  0  0  0  0  0
   21.8361   16.0958   20.8129 H   0  0  0  0  0  0  0  0  0  0  0  0
  1  2  1  0  0  0  0
  1  3  2  0  0  0  0
  1  4  1  0  0  0  0
  4  5  1  0  0  0  0
  4  6  1  0  0  0  0
  4  7  1  0  0  0  0
  7  8  1  0  0  0  0
  7  9  1  0  0  0  0
  7 10  1  0  0  0  0
 10 11  1  0  0  0  0
 10 12  1  0  0  0  0
 10 13  1  0  0  0  0
 13 14  1  0  0  0  0
 13 15  1  0  0  0  0
 13 16  1  0  0  0  0
 16 17  1  0  0  0  0
 16 18  1  0  0  0  0
 16 19  1  0  0  0  0
M  END
> <VConfSearch Rank>
42

> <Conf_Id>
33

> <Delta U+W>
-0.526

> <U+W>
-55.418

> <U>
6.914

> <W>
-62.332

> <W(PB)>
-64.421

> <W(SA)>
2.090

> <Valence>
7.196

> <Coulomb>
-1.020

> <VdW>
0.738

> <VdW6>
-6.010

> <VdW12>
6.748

> <Bond>
0.126

> <Angle>
2.499

> <Pdih>
4.570

> <Idih>
0.001

> <Tether>
0.000

$$$$
VeraChem MOL file


 19 18  0  0  0  0  0  0  0  0999 V2000     
   20.8390   20.8261   19.8545 C   0  0  0  0  0  0  0  0  0  0  0  0
   20.8895   20.1854   18.8234 O   0  5  0  0  0  0  0  0  0  0  0  0
   20.5102   21.9947   19.9046 O   0  0  0  0  0  0  0  0  0  0  0  0
   21.1905   20.1202   21.1593 C   0  0  0  0  0  0  0  0  0  0  0  0
   21.6478   20.8558   21.8320 H   0  0  0  0  0  0  0  0  0  0  0  0
   21.9523   19.3617   20.9422 H   0  0  0  0  0  0  0  0  0  0  0  0
   19.9631   19.4643   21.8388 C   0  0  0  0  0  0  0  0  0  0  0  0
   19.2059   20.2344   22.0410 H   0  0  0  0  0  0  0  0  0  0  0  0
   19.5118   18.7468   21.1409 H   0  0  0  0  0  0  0  0  0  0  0  0
   20.3490   18.7535   23.1566 C   0  0  0  0  0  0  0  0  0  0  0  0
   20.8627   19.4701   23.8121 H   0  0  0  0  0  0  0  0  0  0  0  0
   21.0695   17.9509   22.9474 H   0  0  0  0  0  0  0  0  0  0  0  0
   19.1356   18.1732   23.9191 C   0  0  0  0  0  0  0  0  0  0  0  0
   19.4789   17.7941   24.8916 H   0  0  0  0  0  0  0  0  0  0  0  0
   18.4152   18.9742   24.1351 H   0  0  0  0  0  0  0  0  0  0  0  0
   18.4284   17.0288   23.1614 C   0  0  0  0  0  0  0  0  0  0  0  0
   19.1361   16.2286   22.9087 H   0  0  0  0  0  0  0  0  0  0  0  0
   17.6328   16.5934   23.7798 H   0  0  0  0  0  0  0  0  0  0  0  0
   17.9678   17.3877   22.2326 H   0  0  0  0  0  0  0  0  0  0  0  0
  1  2  1  0  0  0  0
  1  3  2  0  0  0  0
  1  4  1  0  0  0  0
  4  5  1  0  0  0  0
  4  6  1  0  0  0  0
  4  7  1  0  0  0  0
  7  8  1  0  0  0  0
  7  9  1  0  0  0  0
  7 10  1  0  0  0  0
 10 11  1  0  0  0  0
 10 12  1  0  0  0  0
 10 13  1  0  0  0  0
 13 14  1  0  0  0  0
 13 15  1  0  0  0  0
 13 16  1  0  0  0  0
 16 17  1  0  0  0  0
 16 18  1  0  0  0  0
 16 19  1  0  0  0  0
M  END
> <VConfSearch Rank>
43

> <Conf_Id>
42

> <Delta U+W>
-0.344

> <U+W>
-55.236

> <U>
7.244

> <W>
-62.479

> <W(PB)>
-64.610

> <W(SA)>
2.130

> <Valence>
7.174

> <Coulomb>
-0.669

> <VdW>
0.739

> <VdW6>
-5.969

> <VdW12>
6.708

> <Bond>
0.116

> <Angle>
2.481

> <Pdih>
4.576

> <Idih>
0.000

> <Tether>
0.000

$$$$
VeraChem MOL file


 19 18  0  0  0  0  0  0  0  0999 V2000     
   21.0037   18.9229   25.2615 C   0  0  0  0  0  0  0  0  0  0  0  0
   20.3994   19.7721   25.8859 O   0  5  0  0  0  0  0  0  0  0  0  0
   22.1607   18.6233   25.4803 O   0  0  0  0  0  0  0  0  0  0  0  0
   20.2759   18.2066   24.1294 C   0  0  0  0  0  0  0  0  0  0  0  0
   19.2147   18.1360   24.3971 H   0  0  0  0  0  0  0  0  0  0  0  0
   20.6640   17.1827   24.0692 H   0  0  0  0  0  0  0  0  0  0  0  0
   20.4354   18.9204   22.7643 C   0  0  0  0  0  0  0  0  0  0  0  0
   20.0581   19.9476   22.8541 H   0  0  0  0  0  0  0  0  0  0  0  0
   21.5031   18.9917   22.5149 H   0  0  0  0  0  0  0  0  0  0  0  0
   19.6850   18.1750   21.6365 C   0  0  0  0  0  0  0  0  0  0  0  0
   18.6102   18.1468   21.8623 H   0  0  0  0  0  0  0  0  0  0  0  0
   20.0252   17.1307   21.6101 H   0  0  0  0  0  0  0  0  0  0  0  0
   19.9032   18.7978   20.2382 C   0  0  0  0  0  0  0  0  0  0  0  0
   20.9770   18.8226   20.0063 H   0  0  0  0  0  0  0  0  0  0  0  0
   19.4382   18.1462   19.4856 H   0  0  0  0  0  0  0  0  0  0  0  0
   19.3095   20.2165   20.1019 C   0  0  0  0  0  0  0  0  0  0  0  0
   19.8243   20.9310   20.7562 H   0  0  0  0  0  0  0  0  0  0  0  0
   19.4117   20.5777   19.0704 H   0  0  0  0  0  0  0  0  0  0  0  0
   18.2419   20.2219   20.3575 H   0  0  0  0  0  0  0  0  0  0  0  0
  1  2  1  0  0  0  0
  1  3  2  0  0  0  0
  1  4  1  0  0  0  0
  4  5  1  0  0  0  0
  4  6  1  0  0  0  0
  4  7  1  0  0  0  0
  7  8  1  0  0  0  0
  7  9  1  0  0  0  0
  7 10  1  0  0  0  0
 10 11  1  0  0  0  0
 10 12  1  0  0  0  0
 10 13  1  0  0  0  0
 13 14  1  0  0  0  0
 13 15  1  0  0  0  0
 13 16  1  0  0  0  0
 16 17  1  0  0  0  0
 16 18  1  0  0  0  0
 16 19  1  0  0  0  0
M  END
> <VConfSearch Rank>
44

> <Conf_Id>
41

> <Delta U+W>
-0.361

> <U+W>
-55.252

> <U>
7.244

> <W>
-62.496

> <W(PB)>
-64.596

> <W(SA)>
2.099

> <Valence>
7.174

> <Coulomb>
-0.669

> <VdW>
0.739

> <VdW6>
-5.969

> <VdW12>
6.708

> <Bond>
0.116

> <Angle>
2.481

> <Pdih>
4.576

> <Idih>
0.000

> <Tether>
0.000

$$$$
VeraChem MOL file


 19 18  0  0  0  0  0  0  0  0999 V2000     
   21.9032   20.3455   23.7711 C   0  0  0  0  0  0  0  0  0  0  0  0
   21.2952   21.3344   24.1305 O   0  5  0  0  0  0  0  0  0  0  0  0
   22.5495   19.6438   24.5238 O   0  0  0  0  0  0  0  0  0  0  0  0
   21.8729   19.9754   22.2908 C   0  0  0  0  0  0  0  0  0  0  0  0
   22.9025   19.7514   21.9877 H   0  0  0  0  0  0  0  0  0  0  0  0
   21.5571   20.8546   21.7161 H   0  0  0  0  0  0  0  0  0  0  0  0
   20.9613   18.7649   21.9611 C   0  0  0  0  0  0  0  0  0  0  0  0
   21.1078   18.4847   20.9091 H   0  0  0  0  0  0  0  0  0  0  0  0
   21.2715   17.9006   22.5648 H   0  0  0  0  0  0  0  0  0  0  0  0
   19.4652   19.0638   22.2049 C   0  0  0  0  0  0  0  0  0  0  0  0
   19.1633   19.9362   21.6093 H   0  0  0  0  0  0  0  0  0  0  0  0
   19.3075   19.3285   23.2596 H   0  0  0  0  0  0  0  0  0  0  0  0
   18.5749   17.8574   21.8407 C   0  0  0  0  0  0  0  0  0  0  0  0
   18.7252   17.5906   20.7854 H   0  0  0  0  0  0  0  0  0  0  0  0
   18.8732   16.9838   22.4368 H   0  0  0  0  0  0  0  0  0  0  0  0
   17.0828   18.1588   22.0849 C   0  0  0  0  0  0  0  0  0  0  0  0
   16.7493   19.0098   21.4767 H   0  0  0  0  0  0  0  0  0  0  0  0
   16.4645   17.2908   21.8214 H   0  0  0  0  0  0  0  0  0  0  0  0
   16.8983   18.3986   23.1404 H   0  0  0  0  0  0  0  0  0  0  0  0
  1  2  1  0  0  0  0
  1  3  2  0  0  0  0
  1  4  1  0  0  0  0
  4  5  1  0  0  0  0
  4  6  1  0  0  0  0
  4  7  1  0  0  0  0
  7  8  1  0  0  0  0
  7  9  1  0  0  0  0
  7 10  1  0  0  0  0
 10 11  1  0  0  0  0
 10 12  1  0  0  0  0
 10 13  1  0  0  0  0
 13 14  1  0  0  0  0
 13 15  1  0  0  0  0
 13 16  1  0  0  0  0
 16 17  1  0  0  0  0
 16 18  1  0  0  0  0
 16 19  1  0  0  0  0
M  END
> <VConfSearch Rank>
45

> <Conf_Id>
36

> <Delta U+W>
-0.079

> <U+W>
-54.971

> <U>
8.266

> <W>
-63.237

> <W(PB)>
-65.340

> <W(SA)>
2.103

> <Valence>
6.935

> <Coulomb>
0.874

> <VdW>
0.457

> <VdW6>
-6.205

> <VdW12>
6.662

> <Bond>
0.107

> <Angle>
2.420

> <Pdih>
4.407

> <Idih>
0.001

> <Tether>
0.000

$$$$
VeraChem MOL file


 19 18  0  0  0  0  0  0  0  0999 V2000     
   21.3802   21.0992   23.7801 C   0  0  0  0  0  0  0  0  0  0  0  0
   21.4067   21.9464   22.9094 O   0  5  0  0  0  0  0  0  0  0  0  0
   22.3521   20.7788   24.4355 O   0  0  0  0  0  0  0  0  0  0  0  0
   20.0504   20.4144   24.0835 C   0  0  0  0  0  0  0  0  0  0  0  0
   19.2388   21.0280   23.6740 H   0  0  0  0  0  0  0  0  0  0  0  0
   19.9254   20.4090   25.1728 H   0  0  0  0  0  0  0  0  0  0  0  0
   19.9494   18.9640   23.5437 C   0  0  0  0  0  0  0  0  0  0  0  0
   20.7846   18.3695   23.9396 H   0  0  0  0  0  0  0  0  0  0  0  0
   19.0266   18.5057   23.9243 H   0  0  0  0  0  0  0  0  0  0  0  0
   19.9492   18.9032   21.9999 C   0  0  0  0  0  0  0  0  0  0  0  0
   20.8775   19.3447   21.6117 H   0  0  0  0  0  0  0  0  0  0  0  0
   19.1206   19.5095   21.6087 H   0  0  0  0  0  0  0  0  0  0  0  0
   19.8163   17.4547   21.4853 C   0  0  0  0  0  0  0  0  0  0  0  0
   20.6452   16.8465   21.8732 H   0  0  0  0  0  0  0  0  0  0  0  0
   18.8871   17.0092   21.8670 H   0  0  0  0  0  0  0  0  0  0  0  0
   19.8163   17.3974   19.9446 C   0  0  0  0  0  0  0  0  0  0  0  0
   20.7489   17.8086   19.5365 H   0  0  0  0  0  0  0  0  0  0  0  0
   19.7216   16.3608   19.5960 H   0  0  0  0  0  0  0  0  0  0  0  0
   18.9778   17.9724   19.5302 H   0  0  0  0  0  0  0  0  0  0  0  0
  1  2  1  0  0  0  0
  1  3  2  0  0  0  0
  1  4  1  0  0  0  0
  4  5  1  0  0  0  0
  4  6  1  0  0  0  0
  4  7  1  0  0  0  0
  7  8  1  0  0  0  0
  7  9  1  0  0  0  0
  7 10  1  0  0  0  0
 10 11  1  0  0  0  0
 10 12  1  0  0  0  0
 10 13  1  0  0  0  0
 13 14  1  0  0  0  0
 13 15  1  0  0  0  0
 13 16  1  0  0  0  0
 16 17  1  0  0  0  0
 16 18  1  0  0  0  0
 16 19  1  0  0  0  0
M  END
> <VConfSearch Rank>
46

> <Conf_Id>
35

> <Delta U+W>
-0.030

> <U+W>
-54.921

> <U>
8.267

> <W>
-63.188

> <W(PB)>
-65.294

> <W(SA)>
2.106

> <Valence>
6.935

> <Coulomb>
0.875

> <VdW>
0.457

> <VdW6>
-6.205

> <VdW12>
6.662

> <Bond>
0.107

> <Angle>
2.420

> <Pdih>
4.407

> <Idih>
0.001

> <Tether>
0.000

$$$$
VeraChem MOL file


 19 18  0  0  0  0  0  0  0  0999 V2000     
   17.7944   20.4110   23.3031 C   0  0  0  0  0  0  0  0  0  0  0  0
   17.1781   19.8383   24.1800 O   0  5  0  0  0  0  0  0  0  0  0  0
   17.2656   20.9327   22.3414 O   0  0  0  0  0  0  0  0  0  0  0  0
   19.3130   20.4972   23.4296 C   0  0  0  0  0  0  0  0  0  0  0  0
   19.5391   20.7926   24.4609 H   0  0  0  0  0  0  0  0  0  0  0  0
   19.6737   21.3054   22.7818 H   0  0  0  0  0  0  0  0  0  0  0  0
   20.0521   19.1748   23.0967 C   0  0  0  0  0  0  0  0  0  0  0  0
   21.1104   19.2909   23.3633 H   0  0  0  0  0  0  0  0  0  0  0  0
   19.6531   18.3667   23.7252 H   0  0  0  0  0  0  0  0  0  0  0  0
   19.9314   18.7866   21.6036 C   0  0  0  0  0  0  0  0  0  0  0  0
   20.3658   19.5787   20.9786 H   0  0  0  0  0  0  0  0  0  0  0  0
   18.8688   18.7252   21.3314 H   0  0  0  0  0  0  0  0  0  0  0  0
   20.6002   17.4343   21.2646 C   0  0  0  0  0  0  0  0  0  0  0  0
   20.1662   16.6395   21.8868 H   0  0  0  0  0  0  0  0  0  0  0  0
   20.3643   17.1764   20.2229 H   0  0  0  0  0  0  0  0  0  0  0  0
   22.1345   17.4499   21.4367 C   0  0  0  0  0  0  0  0  0  0  0  0
   22.4189   17.5876   22.4873 H   0  0  0  0  0  0  0  0  0  0  0  0
   22.5681   16.5003   21.0974 H   0  0  0  0  0  0  0  0  0  0  0  0
   22.5877   18.2579   20.8477 H   0  0  0  0  0  0  0  0  0  0  0  0
  1  2  1  0  0  0  0
  1  3  2  0  0  0  0
  1  4  1  0  0  0  0
  4  5  1  0  0  0  0
  4  6  1  0  0  0  0
  4  7  1  0  0  0  0
  7  8  1  0  0  0  0
  7  9  1  0  0  0  0
  7 10  1  0  0  0  0
 10 11  1  0  0  0  0
 10 12  1  0  0  0  0
 10 13  1  0  0  0  0
 13 14  1  0  0  0  0
 13 15  1  0  0  0  0
 13 16  1  0  0  0  0
 16 17  1  0  0  0  0
 16 18  1  0  0  0  0
 16 19  1  0  0  0  0
M  END
> <VConfSearch Rank>
47

> <Conf_Id>
74

> <Delta U+W>
0.797

> <U+W>
-54.095

> <U>
8.869

> <W>
-62.964

> <W(PB)>
-65.046

> <W(SA)>
2.082

> <Valence>
7.469

> <Coulomb>
0.762

> <VdW>
0.639

> <VdW6>
-6.782

> <VdW12>
7.421

> <Bond>
0.141

> <Angle>
2.667

> <Pdih>
4.660

> <Idih>
0.001

> <Tether>
0.000

$$$$
VeraChem MOL file


 19 18  0  0  0  0  0  0  0  0999 V2000     
   17.5073   17.5666   21.5073 C   0  0  0  0  0  0  0  0  0  0  0  0
   17.1583   17.1836   20.4082 O   0  5  0  0  0  0  0  0  0  0  0  0
   17.0732   17.1111   22.5467 O   0  0  0  0  0  0  0  0  0  0  0  0
   18.5611   18.6654   21.5858 C   0  0  0  0  0  0  0  0  0  0  0  0
   18.3533   19.2639   22.4801 H   0  0  0  0  0  0  0  0  0  0  0  0
   18.4344   19.3223   20.7170 H   0  0  0  0  0  0  0  0  0  0  0  0
   20.0077   18.1085   21.6288 C   0  0  0  0  0  0  0  0  0  0  0  0
   20.1341   17.4834   22.5227 H   0  0  0  0  0  0  0  0  0  0  0  0
   20.1540   17.4410   20.7685 H   0  0  0  0  0  0  0  0  0  0  0  0
   21.0968   19.2098   21.5890 C   0  0  0  0  0  0  0  0  0  0  0  0
   21.0154   19.7564   20.6395 H   0  0  0  0  0  0  0  0  0  0  0  0
   22.0843   18.7287   21.5781 H   0  0  0  0  0  0  0  0  0  0  0  0
   21.0490   20.2276   22.7551 C   0  0  0  0  0  0  0  0  0  0  0  0
   21.8533   20.9620   22.6111 H   0  0  0  0  0  0  0  0  0  0  0  0
   20.1103   20.7963   22.7239 H   0  0  0  0  0  0  0  0  0  0  0  0
   21.2161   19.5745   24.1439 C   0  0  0  0  0  0  0  0  0  0  0  0
   22.1384   18.9810   24.1906 H   0  0  0  0  0  0  0  0  0  0  0  0
   21.2678   20.3429   24.9261 H   0  0  0  0  0  0  0  0  0  0  0  0
   20.3700   18.9166   24.3796 H   0  0  0  0  0  0  0  0  0  0  0  0
  1  2  1  0  0  0  0
  1  3  2  0  0  0  0
  1  4  1  0  0  0  0
  4  5  1  0  0  0  0
  4  6  1  0  0  0  0
  4  7  1  0  0  0  0
  7  8  1  0  0  0  0
  7  9  1  0  0  0  0
  7 10  1  0  0  0  0
 10 11  1  0  0  0  0
 10 12  1  0  0  0  0
 10 13  1  0  0  0  0
 13 14  1  0  0  0  0
 13 15  1  0  0  0  0
 13 16  1  0  0  0  0
 16 17  1  0  0  0  0
 16 18  1  0  0  0  0
 16 19  1  0  0  0  0
M  END
> <VConfSearch Rank>
48

> <Conf_Id>
67

> <Delta U+W>
0.308

> <U+W>
-54.583

> <U>
8.219

> <W>
-62.802

> <W(PB)>
-64.859

> <W(SA)>
2.057

> <Valence>
7.609

> <Coulomb>
-0.089

> <VdW>
0.699

> <VdW6>
-6.924

> <VdW12>
7.623

> <Bond>
0.163

> <Angle>
2.870

> <Pdih>
4.576

> <Idih>
0.001

> <Tether>
0.000

$$$$
VeraChem MOL file


 19 18  0  0  0  0  0  0  0  0999 V2000     
   22.0591   19.6791   20.3731 C   0  0  0  0  0  0  0  0  0  0  0  0
   23.2078   19.2917   20.2894 O   0  5  0  0  0  0  0  0  0  0  0  0
   21.6717   20.7367   19.9173 O   0  0  0  0  0  0  0  0  0  0  0  0
   21.0540   18.7986   21.1071 C   0  0  0  0  0  0  0  0  0  0  0  0
   21.3405   17.7516   20.9520 H   0  0  0  0  0  0  0  0  0  0  0  0
   20.0760   18.9427   20.6339 H   0  0  0  0  0  0  0  0  0  0  0  0
   20.9754   19.1126   22.6236 C   0  0  0  0  0  0  0  0  0  0  0  0
   21.9862   19.0486   23.0496 H   0  0  0  0  0  0  0  0  0  0  0  0
   20.6510   20.1518   22.7671 H   0  0  0  0  0  0  0  0  0  0  0  0
   20.0481   18.1506   23.4080 C   0  0  0  0  0  0  0  0  0  0  0  0
   20.0858   18.4153   24.4735 H   0  0  0  0  0  0  0  0  0  0  0  0
   20.4498   17.1307   23.3347 H   0  0  0  0  0  0  0  0  0  0  0  0
   18.5696   18.1376   22.9478 C   0  0  0  0  0  0  0  0  0  0  0  0
   18.4973   17.7747   21.9140 H   0  0  0  0  0  0  0  0  0  0  0  0
   18.0185   17.4130   23.5627 H   0  0  0  0  0  0  0  0  0  0  0  0
   17.8805   19.5141   23.0657 C   0  0  0  0  0  0  0  0  0  0  0  0
   18.3276   20.2439   22.3789 H   0  0  0  0  0  0  0  0  0  0  0  0
   16.8146   19.4326   22.8166 H   0  0  0  0  0  0  0  0  0  0  0  0
   17.9606   19.9074   24.0874 H   0  0  0  0  0  0  0  0  0  0  0  0
  1  2  1  0  0  0  0
  1  3  2  0  0  0  0
  1  4  1  0  0  0  0
  4  5  1  0  0  0  0
  4  6  1  0  0  0  0
  4  7  1  0  0  0  0
  7  8  1  0  0  0  0
  7  9  1  0  0  0  0
  7 10  1  0  0  0  0
 10 11  1  0  0  0  0
 10 12  1  0  0  0  0
 10 13  1  0  0  0  0
 13 14  1  0  0  0  0
 13 15  1  0  0  0  0
 13 16  1  0  0  0  0
 16 17  1  0  0  0  0
 16 18  1  0  0  0  0
 16 19  1  0  0  0  0
M  END
> <VConfSearch Rank>
49

> <Conf_Id>
21

> <Delta U+W>
0.319

> <U+W>
-54.572

> <U>
8.220

> <W>
-62.792

> <W(PB)>
-64.830

> <W(SA)>
2.038

> <Valence>
7.609

> <Coulomb>
-0.088

> <VdW>
0.699

> <VdW6>
-6.924

> <VdW12>
7.623

> <Bond>
0.163

> <Angle>
2.870

> <Pdih>
4.576

> <Idih>
0.000

> <Tether>
0.000

$$$$
VeraChem MOL file


 19 18  0  0  0  0  0  0  0  0999 V2000     
   20.9117   16.2705   21.6182 C   0  0  0  0  0  0  0  0  0  0  0  0
   21.8748   15.6423   22.0109 O   0  5  0  0  0  0  0  0  0  0  0  0
   19.9260   15.7544   21.1302 O   0  0  0  0  0  0  0  0  0  0  0  0
   20.9344   17.7880   21.7629 C   0  0  0  0  0  0  0  0  0  0  0  0
   20.3649   18.2131   20.9306 H   0  0  0  0  0  0  0  0  0  0  0  0
   21.9715   18.1235   21.6443 H   0  0  0  0  0  0  0  0  0  0  0  0
   20.3731   18.2698   23.1269 C   0  0  0  0  0  0  0  0  0  0  0  0
   19.3542   17.8856   23.2738 H   0  0  0  0  0  0  0  0  0  0  0  0
   20.9861   17.8221   23.9213 H   0  0  0  0  0  0  0  0  0  0  0  0
   20.3947   19.8105   23.2932 C   0  0  0  0  0  0  0  0  0  0  0  0
   21.2243   20.2442   22.7183 H   0  0  0  0  0  0  0  0  0  0  0  0
   20.6108   20.0371   24.3463 H   0  0  0  0  0  0  0  0  0  0  0  0
   19.0669   20.5188   22.9282 C   0  0  0  0  0  0  0  0  0  0  0  0
   18.2595   20.1414   23.5708 H   0  0  0  0  0  0  0  0  0  0  0  0
   19.1680   21.5884   23.1585 H   0  0  0  0  0  0  0  0  0  0  0  0
   18.6555   20.3691   21.4490 C   0  0  0  0  0  0  0  0  0  0  0  0
   17.7837   20.9984   21.2279 H   0  0  0  0  0  0  0  0  0  0  0  0
   19.4710   20.6727   20.7800 H   0  0  0  0  0  0  0  0  0  0  0  0
   18.3806   19.3323   21.2181 H   0  0  0  0  0  0  0  0  0  0  0  0
  1  2  1  0  0  0  0
  1  3  2  0  0  0  0
  1  4  1  0  0  0  0
  4  5  1  0  0  0  0
  4  6  1  0  0  0  0
  4  7  1  0  0  0  0
  7  8  1  0  0  0  0
  7  9  1  0  0  0  0
  7 10  1  0  0  0  0
 10 11  1  0  0  0  0
 10 12  1  0  0  0  0
 10 13  1  0  0  0  0
 13 14  1  0  0  0  0
 13 15  1  0  0  0  0
 13 16  1  0  0  0  0
 16 17  1  0  0  0  0
 16 18  1  0  0  0  0
 16 19  1  0  0  0  0
M  END
> <VConfSearch Rank>
50

> <Conf_Id>
24

> <Delta U+W>
2.477

> <U+W>
-52.414

> <U>
10.422

> <W>
-62.836

> <W(PB)>
-64.906

> <W(SA)>
2.070

> <Valence>
9.628

> <Coulomb>
0.101

> <VdW>
0.693

> <VdW6>
-6.927

> <VdW12>
7.620

> <Bond>
0.173

> <Angle>
2.989

> <Pdih>
6.465

> <Idih>
0.001

> <Tether>
0.000

$$$$
VeraChem MOL file


 19 18  0  0  0  0  0  0  0  0999 V2000     
   18.3503   18.5216   24.4552 C   0  0  0  0  0  0  0  0  0  0  0  0
   18.9595   19.2101   25.2499 O   0  5  0  0  0  0  0  0  0  0  0  0
   17.1546   18.3155   24.5248 O   0  0  0  0  0  0  0  0  0  0  0  0
   19.1304   17.8553   23.3249 C   0  0  0  0  0  0  0  0  0  0  0  0
   18.8342   16.8000   23.3056 H   0  0  0  0  0  0  0  0  0  0  0  0
   20.1947   17.8774   23.5800 H   0  0  0  0  0  0  0  0  0  0  0  0
   18.8779   18.4849   21.9267 C   0  0  0  0  0  0  0  0  0  0  0  0
   19.3003   17.8384   21.1458 H   0  0  0  0  0  0  0  0  0  0  0  0
   17.7931   18.4999   21.7520 H   0  0  0  0  0  0  0  0  0  0  0  0
   19.4292   19.9260   21.7688 C   0  0  0  0  0  0  0  0  0  0  0  0
   19.4196   20.4498   22.7344 H   0  0  0  0  0  0  0  0  0  0  0  0
   18.7406   20.4849   21.1205 H   0  0  0  0  0  0  0  0  0  0  0  0
   20.8390   20.0121   21.1342 C   0  0  0  0  0  0  0  0  0  0  0  0
   20.8200   19.5657   20.1305 H   0  0  0  0  0  0  0  0  0  0  0  0
   21.0934   21.0718   20.9944 H   0  0  0  0  0  0  0  0  0  0  0  0
   21.9497   19.3445   21.9710 C   0  0  0  0  0  0  0  0  0  0  0  0
   21.8265   18.2547   21.9940 H   0  0  0  0  0  0  0  0  0  0  0  0
   22.9361   19.5565   21.5388 H   0  0  0  0  0  0  0  0  0  0  0  0
   21.9437   19.7188   23.0031 H   0  0  0  0  0  0  0  0  0  0  0  0
  1  2  1  0  0  0  0
  1  3  2  0  0  0  0
  1  4  1  0  0  0  0
  4  5  1  0  0  0  0
  4  6  1  0  0  0  0
  4  7  1  0  0  0  0
  7  8  1  0  0  0  0
  7  9  1  0  0  0  0
  7 10  1  0  0  0  0
 10 11  1  0  0  0  0
 10 12  1  0  0  0  0
 10 13  1  0  0  0  0
 13 14  1  0  0  0  0
 13 15  1  0  0  0  0
 13 16  1  0  0  0  0
 16 17  1  0  0  0  0
 16 18  1  0  0  0  0
 16 19  1  0  0  0  0
M  END
> <VConfSearch Rank>
51

> <Conf_Id>
4

> <Delta U+W>
3.753

> <U+W>
-51.138

> <U>
12.334

> <W>
-63.472

> <W(PB)>
-65.500

> <W(SA)>
2.028

> <Valence>
9.984

> <Coulomb>
1.767

> <VdW>
0.583

> <VdW6>
-7.767

> <VdW12>
8.349

> <Bond>
0.203

> <Angle>
3.191

> <Pdih>
6.589

> <Idih>
0.001

> <Tether>
0.000

$$$$
VeraChem MOL file


 19 18  0  0  0  0  0  0  0  0999 V2000     
   18.3494   19.2567   24.4640 C   0  0  0  0  0  0  0  0  0  0  0  0
   17.9690   20.2767   25.0044 O   0  5  0  0  0  0  0  0  0  0  0  0
   17.6271   18.3045   24.2445 O   0  0  0  0  0  0  0  0  0  0  0  0
   19.8202   19.1584   24.0674 C   0  0  0  0  0  0  0  0  0  0  0  0
   20.0620   18.1046   23.8962 H   0  0  0  0  0  0  0  0  0  0  0  0
   20.4110   19.4792   24.9334 H   0  0  0  0  0  0  0  0  0  0  0  0
   20.2015   20.0262   22.8360 C   0  0  0  0  0  0  0  0  0  0  0  0
   19.8758   21.0571   23.0331 H   0  0  0  0  0  0  0  0  0  0  0  0
   21.2943   20.0692   22.7352 H   0  0  0  0  0  0  0  0  0  0  0  0
   19.5706   19.5497   21.5017 C   0  0  0  0  0  0  0  0  0  0  0  0
   19.3463   20.4374   20.8948 H   0  0  0  0  0  0  0  0  0  0  0  0
   18.6030   19.0630   21.6855 H   0  0  0  0  0  0  0  0  0  0  0  0
   20.4762   18.6230   20.6538 C   0  0  0  0  0  0  0  0  0  0  0  0
   19.9680   18.4159   19.7020 H   0  0  0  0  0  0  0  0  0  0  0  0
   21.4060   19.1493   20.3974 H   0  0  0  0  0  0  0  0  0  0  0  0
   20.8178   17.2807   21.3329 C   0  0  0  0  0  0  0  0  0  0  0  0
   19.9074   16.7661   21.6675 H   0  0  0  0  0  0  0  0  0  0  0  0
   21.3437   16.6190   20.6327 H   0  0  0  0  0  0  0  0  0  0  0  0
   21.4725   17.4315   22.2000 H   0  0  0  0  0  0  0  0  0  0  0  0
  1  2  1  0  0  0  0
  1  3  2  0  0  0  0
  1  4  1  0  0  0  0
  4  5  1  0  0  0  0
  4  6  1  0  0  0  0
  4  7  1  0  0  0  0
  7  8  1  0  0  0  0
  7  9  1  0  0  0  0
  7 10  1  0  0  0  0
 10 11  1  0  0  0  0
 10 12  1  0  0  0  0
 10 13  1  0  0  0  0
 13 14  1  0  0  0  0
 13 15  1  0  0  0  0
 13 16  1  0  0  0  0
 16 17  1  0  0  0  0
 16 18  1  0  0  0  0
 16 19  1  0  0  0  0
M  END
> <VConfSearch Rank>
52

> <Conf_Id>
73

> <Delta U+W>
3.707

> <U+W>
-51.184

> <U>
12.334

> <W>
-63.519

> <W(PB)>
-65.541

> <W(SA)>
2.022

> <Valence>
9.984

> <Coulomb>
1.768

> <VdW>
0.583

> <VdW6>
-7.767

> <VdW12>
8.350

> <Bond>
0.203

> <Angle>
3.192

> <Pdih>
6.589

> <Idih>
0.001

> <Tether>
0.000

$$$$
VeraChem MOL file


 19 18  0  0  0  0  0  0  0  0999 V2000     
   20.4144   16.4972   22.3385 C   0  0  0  0  0  0  0  0  0  0  0  0
   21.2556   16.5191   23.2152 O   0  5  0  0  0  0  0  0  0  0  0  0
   19.6670   15.5578   22.1490 O   0  0  0  0  0  0  0  0  0  0  0  0
   20.3102   17.6991   21.4036 C   0  0  0  0  0  0  0  0  0  0  0  0
   20.3269   17.3161   20.3766 H   0  0  0  0  0  0  0  0  0  0  0  0
   21.2097   18.3144   21.5200 H   0  0  0  0  0  0  0  0  0  0  0  0
   19.0318   18.5563   21.6114 C   0  0  0  0  0  0  0  0  0  0  0  0
   19.0015   19.3500   20.8537 H   0  0  0  0  0  0  0  0  0  0  0  0
   18.1516   17.9263   21.4231 H   0  0  0  0  0  0  0  0  0  0  0  0
   18.9016   19.1800   23.0249 C   0  0  0  0  0  0  0  0  0  0  0  0
   18.8105   18.3734   23.7654 H   0  0  0  0  0  0  0  0  0  0  0  0
   17.9603   19.7439   23.0759 H   0  0  0  0  0  0  0  0  0  0  0  0
   20.0659   20.1101   23.4451 C   0  0  0  0  0  0  0  0  0  0  0  0
   19.8716   20.4751   24.4629 H   0  0  0  0  0  0  0  0  0  0  0  0
   21.0027   19.5396   23.5020 H   0  0  0  0  0  0  0  0  0  0  0  0
   20.2484   21.3238   22.5084 C   0  0  0  0  0  0  0  0  0  0  0  0
   20.5562   21.0092   21.5033 H   0  0  0  0  0  0  0  0  0  0  0  0
   19.3156   21.8959   22.4206 H   0  0  0  0  0  0  0  0  0  0  0  0
   21.0231   21.9966   22.8982 H   0  0  0  0  0  0  0  0  0  0  0  0
  1  2  1  0  0  0  0
  1  3  2  0  0  0  0
  1  4  1  0  0  0  0
  4  5  1  0  0  0  0
  4  6  1  0  0  0  0
  4  7  1  0  0  0  0
  7  8  1  0  0  0  0
  7  9  1  0  0  0  0
  7 10  1  0  0  0  0
 10 11  1  0  0  0  0
 10 12  1  0  0  0  0
 10 13  1  0  0  0  0
 13 14  1  0  0  0  0
 13 15  1  0  0  0  0
 13 16  1  0  0  0  0
 16 17  1  0  0  0  0
 16 18  1  0  0  0  0
 16 19  1  0  0  0  0
M  END
> <VConfSearch Rank>
53

> <Conf_Id>
56

> <Delta U+W>
1.735

> <U+W>
-53.156

> <U>
10.214

> <W>
-63.370

> <W(PB)>
-65.388

> <W(SA)>
2.018

> <Valence>
7.868

> <Coulomb>
1.968

> <VdW>
0.378

> <VdW6>
-8.067

> <VdW12>
8.445

> <Bond>
0.191

> <Angle>
3.117

> <Pdih>
4.559

> <Idih>
0.001

> <Tether>
0.000

$$$$
VeraChem MOL file


 19 18  0  0  0  0  0  0  0  0999 V2000     
   22.1089   17.9528   24.0108 C   0  0  0  0  0  0  0  0  0  0  0  0
   22.9319   18.6823   24.5274 O   0  5  0  0  0  0  0  0  0  0  0  0
   22.2059   16.7419   23.9858 O   0  0  0  0  0  0  0  0  0  0  0  0
   20.8996   18.5932   23.3388 C   0  0  0  0  0  0  0  0  0  0  0  0
   20.6595   19.5178   23.8771 H   0  0  0  0  0  0  0  0  0  0  0  0
   20.0519   17.9098   23.4613 H   0  0  0  0  0  0  0  0  0  0  0  0
   21.1357   18.8932   21.8370 C   0  0  0  0  0  0  0  0  0  0  0  0
   22.0712   19.4604   21.7348 H   0  0  0  0  0  0  0  0  0  0  0  0
   21.2893   17.9475   21.2992 H   0  0  0  0  0  0  0  0  0  0  0  0
   19.9979   19.6977   21.1596 C   0  0  0  0  0  0  0  0  0  0  0  0
   20.3034   19.8918   20.1223 H   0  0  0  0  0  0  0  0  0  0  0  0
   19.9009   20.6849   21.6318 H   0  0  0  0  0  0  0  0  0  0  0  0
   18.6259   18.9795   21.1313 C   0  0  0  0  0  0  0  0  0  0  0  0
   18.1193   19.2285   20.1886 H   0  0  0  0  0  0  0  0  0  0  0  0
   18.7659   17.8897   21.1240 H   0  0  0  0  0  0  0  0  0  0  0  0
   17.6969   19.3928   22.2945 C   0  0  0  0  0  0  0  0  0  0  0  0
   16.7339   18.8713   22.2199 H   0  0  0  0  0  0  0  0  0  0  0  0
   18.1322   19.1525   23.2709 H   0  0  0  0  0  0  0  0  0  0  0  0
   17.4966   20.4718   22.2693 H   0  0  0  0  0  0  0  0  0  0  0  0
  1  2  1  0  0  0  0
  1  3  2  0  0  0  0
  1  4  1  0  0  0  0
  4  5  1  0  0  0  0
  4  6  1  0  0  0  0
  4  7  1  0  0  0  0
  7  8  1  0  0  0  0
  7  9  1  0  0  0  0
  7 10  1  0  0  0  0
 10 11  1  0  0  0  0
 10 12  1  0  0  0  0
 10 13  1  0  0  0  0
 13 14  1  0  0  0  0
 13 15  1  0  0  0  0
 13 16  1  0  0  0  0
 16 17  1  0  0  0  0
 16 18  1  0  0  0  0
 16 19  1  0  0  0  0
M  END
> <VConfSearch Rank>
54

> <Conf_Id>
53

> <Delta U+W>
2.279

> <U+W>
-52.612

> <U>
10.231

> <W>
-62.843

> <W(PB)>
-64.893

> <W(SA)>
2.050

> <Valence>
9.644

> <Coulomb>
-0.164

> <VdW>
0.751

> <VdW6>
-6.881

> <VdW12>
7.631

> <Bond>
0.163

> <Angle>
2.998

> <Pdih>
6.482

> <Idih>
0.001

> <Tether>
0.000

$$$$
VeraChem MOL file


 19 18  0  0  0  0  0  0  0  0999 V2000     
   20.3842   20.7394   24.0625 C   0  0  0  0  0  0  0  0  0  0  0  0
   20.7931   21.6507   23.3703 O   0  5  0  0  0  0  0  0  0  0  0  0
   20.9655   20.3363   25.0508 O   0  0  0  0  0  0  0  0  0  0  0  0
   19.0346   20.1167   23.7100 C   0  0  0  0  0  0  0  0  0  0  0  0
   18.6234   20.6295   22.8319 H   0  0  0  0  0  0  0  0  0  0  0  0
   18.3634   20.3415   24.5470 H   0  0  0  0  0  0  0  0  0  0  0  0
   19.0532   18.5799   23.4758 C   0  0  0  0  0  0  0  0  0  0  0  0
   19.6492   18.0889   24.2576 H   0  0  0  0  0  0  0  0  0  0  0  0
   18.0277   18.2061   23.5987 H   0  0  0  0  0  0  0  0  0  0  0  0
   19.5497   18.1420   22.0757 C   0  0  0  0  0  0  0  0  0  0  0  0
   18.9452   18.6306   21.2994 H   0  0  0  0  0  0  0  0  0  0  0  0
   19.3717   17.0629   21.9717 H   0  0  0  0  0  0  0  0  0  0  0  0
   21.0469   18.4238   21.8217 C   0  0  0  0  0  0  0  0  0  0  0  0
   21.2263   19.5060   21.7891 H   0  0  0  0  0  0  0  0  0  0  0  0
   21.6472   18.0231   22.6503 H   0  0  0  0  0  0  0  0  0  0  0  0
   21.5224   17.8005   20.4939 C   0  0  0  0  0  0  0  0  0  0  0  0
   20.9545   18.2045   19.6455 H   0  0  0  0  0  0  0  0  0  0  0  0
   22.5851   18.0170   20.3243 H   0  0  0  0  0  0  0  0  0  0  0  0
   21.3962   16.7099   20.5035 H   0  0  0  0  0  0  0  0  0  0  0  0
  1  2  1  0  0  0  0
  1  3  2  0  0  0  0
  1  4  1  0  0  0  0
  4  5  1  0  0  0  0
  4  6  1  0  0  0  0
  4  7  1  0  0  0  0
  7  8  1  0  0  0  0
  7  9  1  0  0  0  0
  7 10  1  0  0  0  0
 10 11  1  0  0  0  0
 10 12  1  0  0  0  0
 10 13  1  0  0  0  0
 13 14  1  0  0  0  0
 13 15  1  0  0  0  0
 13 16  1  0  0  0  0
 16 17  1  0  0  0  0
 16 18  1  0  0  0  0
 16 19  1  0  0  0  0
M  END
> <VConfSearch Rank>
55

> <Conf_Id>
25

> <Delta U+W>
2.065

> <U+W>
-52.826

> <U>
10.967

> <W>
-63.794

> <W(PB)>
-65.830

> <W(SA)>
2.036

> <Valence>
8.609

> <Coulomb>
1.892

> <VdW>
0.467

> <VdW6>
-7.569

> <VdW12>
8.036

> <Bond>
0.170

> <Angle>
3.195

> <Pdih>
5.237

> <Idih>
0.007

> <Tether>
0.000

$$$$
VeraChem MOL file


 19 18  0  0  0  0  0  0  0  0999 V2000     
   18.6760   17.1429   21.5666 C   0  0  0  0  0  0  0  0  0  0  0  0
   17.7364   16.9744   22.3189 O   0  5  0  0  0  0  0  0  0  0  0  0
   19.4521   16.2606   21.2568 O   0  0  0  0  0  0  0  0  0  0  0  0
   18.8513   18.5162   20.9209 C   0  0  0  0  0  0  0  0  0  0  0  0
   17.9598   18.6835   20.3054 H   0  0  0  0  0  0  0  0  0  0  0  0
   19.7050   18.4807   20.2332 H   0  0  0  0  0  0  0  0  0  0  0  0
   19.0094   19.7017   21.9142 C   0  0  0  0  0  0  0  0  0  0  0  0
   18.7596   20.6277   21.3789 H   0  0  0  0  0  0  0  0  0  0  0  0
   18.2721   19.6128   22.7241 H   0  0  0  0  0  0  0  0  0  0  0  0
   20.4309   19.8684   22.5059 C   0  0  0  0  0  0  0  0  0  0  0  0
   20.4616   20.8162   23.0606 H   0  0  0  0  0  0  0  0  0  0  0  0
   21.1618   19.9639   21.6913 H   0  0  0  0  0  0  0  0  0  0  0  0
   20.8567   18.7256   23.4538 C   0  0  0  0  0  0  0  0  0  0  0  0
   20.0778   18.5602   24.2111 H   0  0  0  0  0  0  0  0  0  0  0  0
   20.9620   17.7892   22.8914 H   0  0  0  0  0  0  0  0  0  0  0  0
   22.1950   19.0395   24.1525 C   0  0  0  0  0  0  0  0  0  0  0  0
   22.4874   18.2147   24.8153 H   0  0  0  0  0  0  0  0  0  0  0  0
   22.9970   19.1839   23.4168 H   0  0  0  0  0  0  0  0  0  0  0  0
   22.1178   19.9509   24.7598 H   0  0  0  0  0  0  0  0  0  0  0  0
  1  2  1  0  0  0  0
  1  3  2  0  0  0  0
  1  4  1  0  0  0  0
  4  5  1  0  0  0  0
  4  6  1  0  0  0  0
  4  7  1  0  0  0  0
  7  8  1  0  0  0  0
  7  9  1  0  0  0  0
  7 10  1  0  0  0  0
 10 11  1  0  0  0  0
 10 12  1  0  0  0  0
 10 13  1  0  0  0  0
 13 14  1  0  0  0  0
 13 15  1  0  0  0  0
 13 16  1  0  0  0  0
 16 17  1  0  0  0  0
 16 18  1  0  0  0  0
 16 19  1  0  0  0  0
M  END
> <VConfSearch Rank>
56

> <Conf_Id>
52

> <Delta U+W>
2.070

> <U+W>
-52.822

> <U>
10.967

> <W>
-63.789

> <W(PB)>
-65.837

> <W(SA)>
2.048

> <Valence>
8.609

> <Coulomb>
1.892

> <VdW>
0.467

> <VdW6>
-7.569

> <VdW12>
8.035

> <Bond>
0.170

> <Angle>
3.196

> <Pdih>
5.237

> <Idih>
0.007

> <Tether>
0.000

$$$$
VeraChem MOL file


 19 18  0  0  0  0  0  0  0  0999 V2000     
   21.5955   19.9361   21.9613 C   0  0  0  0  0  0  0  0  0  0  0  0
   22.5389   19.5210   22.6062 O   0  5  0  0  0  0  0  0  0  0  0  0
   21.5945   19.9962   20.7476 O   0  0  0  0  0  0  0  0  0  0  0  0
   20.4002   20.5302   22.7081 C   0  0  0  0  0  0  0  0  0  0  0  0
   19.5877   20.7126   21.9945 H   0  0  0  0  0  0  0  0  0  0  0  0
   20.7261   21.5129   23.0678 H   0  0  0  0  0  0  0  0  0  0  0  0
   19.8781   19.7012   23.9162 C   0  0  0  0  0  0  0  0  0  0  0  0
   20.7246   19.2950   24.4869 H   0  0  0  0  0  0  0  0  0  0  0  0
   19.3621   20.3893   24.5994 H   0  0  0  0  0  0  0  0  0  0  0  0
   18.8852   18.5642   23.5632 C   0  0  0  0  0  0  0  0  0  0  0  0
   17.9910   18.9830   23.0816 H   0  0  0  0  0  0  0  0  0  0  0  0
   18.5348   18.1276   24.5085 H   0  0  0  0  0  0  0  0  0  0  0  0
   19.4768   17.4237   22.6998 C   0  0  0  0  0  0  0  0  0  0  0  0
   20.5704   17.3922   22.8019 H   0  0  0  0  0  0  0  0  0  0  0  0
   19.1080   16.4619   23.0819 H   0  0  0  0  0  0  0  0  0  0  0  0
   19.0796   17.5332   21.2121 C   0  0  0  0  0  0  0  0  0  0  0  0
   17.9906   17.4650   21.0918 H   0  0  0  0  0  0  0  0  0  0  0  0
   19.4094   18.4837   20.7770 H   0  0  0  0  0  0  0  0  0  0  0  0
   19.5352   16.7211   20.6310 H   0  0  0  0  0  0  0  0  0  0  0  0
  1  2  1  0  0  0  0
  1  3  2  0  0  0  0
  1  4  1  0  0  0  0
  4  5  1  0  0  0  0
  4  6  1  0  0  0  0
  4  7  1  0  0  0  0
  7  8  1  0  0  0  0
  7  9  1  0  0  0  0
  7 10  1  0  0  0  0
 10 11  1  0  0  0  0
 10 12  1  0  0  0  0
 10 13  1  0  0  0  0
 13 14  1  0  0  0  0
 13 15  1  0  0  0  0
 13 16  1  0  0  0  0
 16 17  1  0  0  0  0
 16 18  1  0  0  0  0
 16 19  1  0  0  0  0
M  END
> <VConfSearch Rank>
57

> <Conf_Id>
66

> <Delta U+W>
5.819

> <U+W>
-49.072

> <U>
15.324

> <W>
-64.396

> <W(PB)>
-66.382

> <W(SA)>
1.986

> <Valence>
11.748

> <Coulomb>
3.201

> <VdW>
0.375

> <VdW6>
-8.854

> <VdW12>
9.229

> <Bond>
0.216

> <Angle>
3.812

> <Pdih>
7.699

> <Idih>
0.022

> <Tether>
0.000

$$$$
VeraChem MOL file


 19 18  0  0  0  0  0  0  0  0999 V2000     
   19.0892   17.8704   18.9967 C   0  0  0  0  0  0  0  0  0  0  0  0
   18.5719   16.9360   18.4179 O   0  5  0  0  0  0  0  0  0  0  0  0
   19.4898   18.8655   18.4246 O   0  0  0  0  0  0  0  0  0  0  0  0
   19.2290   17.7596   20.5158 C   0  0  0  0  0  0  0  0  0  0  0  0
   19.8064   16.8516   20.7259 H   0  0  0  0  0  0  0  0  0  0  0  0
   18.2244   17.6031   20.9262 H   0  0  0  0  0  0  0  0  0  0  0  0
   19.8952   18.9768   21.2109 C   0  0  0  0  0  0  0  0  0  0  0  0
   20.8988   19.1318   20.7912 H   0  0  0  0  0  0  0  0  0  0  0  0
   19.3152   19.8840   20.9917 H   0  0  0  0  0  0  0  0  0  0  0  0
   19.9957   18.7811   22.7392 C   0  0  0  0  0  0  0  0  0  0  0  0
   20.5758   17.8735   22.9560 H   0  0  0  0  0  0  0  0  0  0  0  0
   18.9913   18.6262   23.1567 H   0  0  0  0  0  0  0  0  0  0  0  0
   20.6583   19.9922   23.4282 C   0  0  0  0  0  0  0  0  0  0  0  0
   21.6641   20.1493   23.0146 H   0  0  0  0  0  0  0  0  0  0  0  0
   20.0798   20.9019   23.2153 H   0  0  0  0  0  0  0  0  0  0  0  0
   20.7571   19.7933   24.9539 C   0  0  0  0  0  0  0  0  0  0  0  0
   21.3578   18.9069   25.1963 H   0  0  0  0  0  0  0  0  0  0  0  0
   21.2303   20.6633   25.4275 H   0  0  0  0  0  0  0  0  0  0  0  0
   19.7615   19.6651   25.3986 H   0  0  0  0  0  0  0  0  0  0  0  0
  1  2  1  0  0  0  0
  1  3  2  0  0  0  0
  1  4  1  0  0  0  0
  4  5  1  0  0  0  0
  4  6  1  0  0  0  0
  4  7  1  0  0  0  0
  7  8  1  0  0  0  0
  7  9  1  0  0  0  0
  7 10  1  0  0  0  0
 10 11  1  0  0  0  0
 10 12  1  0  0  0  0
 10 13  1  0  0  0  0
 13 14  1  0  0  0  0
 13 15  1  0  0  0  0
 13 16  1  0  0  0  0
 16 17  1  0  0  0  0
 16 18  1  0  0  0  0
 16 19  1  0  0  0  0
M  END
> <VConfSearch Rank>
58

> <Conf_Id>
0

> <Delta U+W>
0.000

> <U+W>
-54.891

> <U>
6.966

> <W>
-61.857

> <W(PB)>
-63.965

> <W(SA)>
2.108

> <Valence>
7.175

> <Coulomb>
-1.360

> <VdW>
1.151

> <VdW6>
-5.641

> <VdW12>
6.792

> <Bond>
0.119

> <Angle>
2.715

> <Pdih>
4.340

> <Idih>
0.000

> <Tether>
0.000

$$$$
VeraChem MOL file


 19 18  0  0  0  0  0  0  0  0999 V2000     
   22.7075   20.3279   20.7968 C   0  0  0  0  0  0  0  0  0  0  0  0
   22.5263   20.9411   19.7637 O   0  5  0  0  0  0  0  0  0  0  0  0
   23.5819   20.5993   21.5956 O   0  0  0  0  0  0  0  0  0  0  0  0
   21.7732   19.1669   21.1185 C   0  0  0  0  0  0  0  0  0  0  0  0
   22.3419   18.4180   21.6828 H   0  0  0  0  0  0  0  0  0  0  0  0
   21.4716   18.7000   20.1731 H   0  0  0  0  0  0  0  0  0  0  0  0
   20.5231   19.6044   21.9209 C   0  0  0  0  0  0  0  0  0  0  0  0
   20.8421   20.0811   22.8582 H   0  0  0  0  0  0  0  0  0  0  0  0
   19.9718   20.3633   21.3484 H   0  0  0  0  0  0  0  0  0  0  0  0
   19.5942   18.4114   22.2334 C   0  0  0  0  0  0  0  0  0  0  0  0
   20.1486   17.6540   22.8045 H   0  0  0  0  0  0  0  0  0  0  0  0
   19.2781   17.9363   21.2945 H   0  0  0  0  0  0  0  0  0  0  0  0
   18.3498   18.8502   23.0329 C   0  0  0  0  0  0  0  0  0  0  0  0
   18.6619   19.3243   23.9738 H   0  0  0  0  0  0  0  0  0  0  0  0
   17.7914   19.6065   22.4639 H   0  0  0  0  0  0  0  0  0  0  0  0
   17.4246   17.6566   23.3431 C   0  0  0  0  0  0  0  0  0  0  0  0
   16.5453   17.9863   23.9117 H   0  0  0  0  0  0  0  0  0  0  0  0
   17.0717   17.1823   22.4180 H   0  0  0  0  0  0  0  0  0  0  0  0
   17.9487   16.8979   23.9391 H   0  0  0  0  0  0  0  0  0  0  0  0
  1  2  1  0  0  0  0
  1  3  2  0  0  0  0
  1  4  1  0  0  0  0
  4  5  1  0  0  0  0
  4  6  1  0  0  0  0
  4  7  1  0  0  0  0
  7  8  1  0  0  0  0
  7  9  1  0  0  0  0
  7 10  1  0  0  0  0
 10 11  1  0  0  0  0
 10 12  1  0  0  0  0
 10 13  1  0  0  0  0
 13 14  1  0  0  0  0
 13 15  1  0  0  0  0
 13 16  1  0  0  0  0
 16 17  1  0  0  0  0
 16 18  1  0  0  0  0
 16 19  1  0  0  0  0
M  END
> <VConfSearch Rank>
59

> <Conf_Id>
18

> <Delta U+W>
-1.199

> <U+W>
-56.090

> <U>
5.975

> <W>
-62.066

> <W(PB)>
-64.219

> <W(SA)>
2.153

> <Valence>
6.673

> <Coulomb>
-1.307

> <VdW>
0.610

> <VdW6>
-5.351

> <VdW12>
5.961

> <Bond>
0.086

> <Angle>
2.253

> <Pdih>
4.333

> <Idih>
0.001

> <Tether>
0.000

$$$$
VeraChem MOL file


 19 18  0  0  0  0  0  0  0  0999 V2000     
   20.7715   15.8097   22.0169 C   0  0  0  0  0  0  0  0  0  0  0  0
   19.9895   14.9053   22.2333 O   0  5  0  0  0  0  0  0  0  0  0  0
   21.8178   15.6646   21.4165 O   0  0  0  0  0  0  0  0  0  0  0  0
   20.4098   17.2073   22.5070 C   0  0  0  0  0  0  0  0  0  0  0  0
   21.3420   17.7204   22.7687 H   0  0  0  0  0  0  0  0  0  0  0  0
   19.8251   17.1039   23.4290 H   0  0  0  0  0  0  0  0  0  0  0  0
   19.6125   18.0240   21.4570 C   0  0  0  0  0  0  0  0  0  0  0  0
   20.2251   18.1591   20.5549 H   0  0  0  0  0  0  0  0  0  0  0  0
   18.7333   17.4406   21.1503 H   0  0  0  0  0  0  0  0  0  0  0  0
   19.1365   19.4012   21.9770 C   0  0  0  0  0  0  0  0  0  0  0  0
   18.5174   19.2621   22.8739 H   0  0  0  0  0  0  0  0  0  0  0  0
   18.4853   19.8547   21.2172 H   0  0  0  0  0  0  0  0  0  0  0  0
   20.2956   20.3738   22.2899 C   0  0  0  0  0  0  0  0  0  0  0  0
   20.9170   19.9738   23.1018 H   0  0  0  0  0  0  0  0  0  0  0  0
   20.9441   20.4736   21.4086 H   0  0  0  0  0  0  0  0  0  0  0  0
   19.7710   21.7647   22.6993 C   0  0  0  0  0  0  0  0  0  0  0  0
   20.6053   22.4428   22.9210 H   0  0  0  0  0  0  0  0  0  0  0  0
   19.1751   22.2131   21.8935 H   0  0  0  0  0  0  0  0  0  0  0  0
   19.1407   21.6981   23.5958 H   0  0  0  0  0  0  0  0  0  0  0  0
  1  2  1  0  0  0  0
  1  3  2  0  0  0  0
  1  4  1  0  0  0  0
  4  5  1  0  0  0  0
  4  6  1  0  0  0  0
  4  7  1  0  0  0  0
  7  8  1  0  0  0  0
  7  9  1  0  0  0  0
  7 10  1  0  0  0  0
 10 11  1  0  0  0  0
 10 12  1  0  0  0  0
 10 13  1  0  0  0  0
 13 14  1  0  0  0  0
 13 15  1  0  0  0  0
 13 16  1  0  0  0  0
 16 17  1  0  0  0  0
 16 18  1  0  0  0  0
 16 19  1  0  0  0  0
M  END
> <VConfSearch Rank>
60

> <Conf_Id>
34

> <Delta U+W>
-0.563

> <U+W>
-55.455

> <U>
6.914

> <W>
-62.369

> <W(PB)>
-64.446

> <W(SA)>
2.077

> <Valence>
7.196

> <Coulomb>
-1.020

> <VdW>
0.738

> <VdW6>
-6.010

> <VdW12>
6.748

> <Bond>
0.126

> <Angle>
2.499

> <Pdih>
4.570

> <Idih>
0.001

> <Tether>
0.000

$$$$
VeraChem MOL file


 19 18  0  0  0  0  0  0  0  0999 V2000     
   16.8104   18.9394   21.6266 C   0  0  0  0  0  0  0  0  0  0  0  0
   16.2384   18.0931   20.9686 O   0  5  0  0  0  0  0  0  0  0  0  0
   16.3383   20.0313   21.8740 O   0  0  0  0  0  0  0  0  0  0  0  0
   18.2058   18.6217   22.1521 C   0  0  0  0  0  0  0  0  0  0  0  0
   18.2571   17.5448   22.3522 H   0  0  0  0  0  0  0  0  0  0  0  0
   18.3260   19.1371   23.1116 H   0  0  0  0  0  0  0  0  0  0  0  0
   19.3277   19.0361   21.1647 C   0  0  0  0  0  0  0  0  0  0  0  0
   19.1260   18.5744   20.1882 H   0  0  0  0  0  0  0  0  0  0  0  0
   19.2944   20.1229   21.0066 H   0  0  0  0  0  0  0  0  0  0  0  0
   20.7435   18.6181   21.6275 C   0  0  0  0  0  0  0  0  0  0  0  0
   21.4545   18.8426   20.8205 H   0  0  0  0  0  0  0  0  0  0  0  0
   20.7759   17.5301   21.7764 H   0  0  0  0  0  0  0  0  0  0  0  0
   21.2049   19.3342   22.9166 C   0  0  0  0  0  0  0  0  0  0  0  0
   21.1242   20.4222   22.7855 H   0  0  0  0  0  0  0  0  0  0  0  0
   20.5508   19.0628   23.7555 H   0  0  0  0  0  0  0  0  0  0  0  0
   22.6590   18.9686   23.2763 C   0  0  0  0  0  0  0  0  0  0  0  0
   22.7628   17.8880   23.4402 H   0  0  0  0  0  0  0  0  0  0  0  0
   23.3483   19.2617   22.4737 H   0  0  0  0  0  0  0  0  0  0  0  0
   22.9709   19.4823   24.1950 H   0  0  0  0  0  0  0  0  0  0  0  0
  1  2  1  0  0  0  0
  1  3  2  0  0  0  0
  1  4  1  0  0  0  0
  4  5  1  0  0  0  0
  4  6  1  0  0  0  0
  4  7  1  0  0  0  0
  7  8  1  0  0  0  0
  7  9  1  0  0  0  0
  7 10  1  0  0  0  0
 10 11  1  0  0  0  0
 10 12  1  0  0  0  0
 10 13  1  0  0  0  0
 13 14  1  0  0  0  0
 13 15  1  0  0  0  0
 13 16  1  0  0  0  0
 16 17  1  0  0  0  0
 16 18  1  0  0  0  0
 16 19  1  0  0  0  0
M  END
> <VConfSearch Rank>
61

> <Conf_Id>
33

> <Delta U+W>
-0.526

> <U+W>
-55.418

> <U>
6.914

> <W>
-62.332

> <W(PB)>
-64.421

> <W(SA)>
2.090

> <Valence>
7.196

> <Coulomb>
-1.020

> <VdW>
0.738

> <VdW6>
-6.010

> <VdW12>
6.748

> <Bond>
0.126

> <Angle>
2.499

> <Pdih>
4.570

> <Idih>
0.001

> <Tether>
0.000

$$$$
VeraChem MOL file


 19 18  0  0  0  0  0  0  0  0999 V2000     
   22.1088   16.7026   21.8993 C   0  0  0  0  0  0  0  0  0  0  0  0
   22.6676   16.8307   20.8281 O   0  5  0  0  0  0  0  0  0  0  0  0
   22.6672   16.3170   22.9072 O   0  0  0  0  0  0  0  0  0  0  0  0
   20.6299   17.0621   21.9879 C   0  0  0  0  0  0  0  0  0  0  0  0
   20.1637   16.4051   22.7320 H   0  0  0  0  0  0  0  0  0  0  0  0
   20.1655   16.8368   21.0203 H   0  0  0  0  0  0  0  0  0  0  0  0
   20.3922   18.5462   22.3611 C   0  0  0  0  0  0  0  0  0  0  0  0
   20.8708   18.7585   23.3271 H   0  0  0  0  0  0  0  0  0  0  0  0
   20.8828   19.1835   21.6136 H   0  0  0  0  0  0  0  0  0  0  0  0
   18.8853   18.8832   22.4404 C   0  0  0  0  0  0  0  0  0  0  0  0
   18.3998   18.1885   23.1394 H   0  0  0  0  0  0  0  0  0  0  0  0
   18.4165   18.7176   21.4607 H   0  0  0  0  0  0  0  0  0  0  0  0
   18.6035   20.3290   22.9104 C   0  0  0  0  0  0  0  0  0  0  0  0
   17.5206   20.4487   23.0529 H   0  0  0  0  0  0  0  0  0  0  0  0
   19.0662   20.4969   23.8928 H   0  0  0  0  0  0  0  0  0  0  0  0
   19.0950   21.4018   21.9146 C   0  0  0  0  0  0  0  0  0  0  0  0
   18.6679   21.2368   20.9169 H   0  0  0  0  0  0  0  0  0  0  0  0
   18.7941   22.4029   22.2497 H   0  0  0  0  0  0  0  0  0  0  0  0
   20.1886   21.3961   21.8268 H   0  0  0  0  0  0  0  0  0  0  0  0
  1  2  1  0  0  0  0
  1  3  2  0  0  0  0
  1  4  1  0  0  0  0
  4  5  1  0  0  0  0
  4  6  1  0  0  0  0
  4  7  1  0  0  0  0
  7  8  1  0  0  0  0
  7  9  1  0  0  0  0
  7 10  1  0  0  0  0
 10 11  1  0  0  0  0
 10 12  1  0  0  0  0
 10 13  1  0  0  0  0
 13 14  1  0  0  0  0
 13 15  1  0  0  0  0
 13 16  1  0  0  0  0
 16 17  1  0  0  0  0
 16 18  1  0  0  0  0
 16 19  1  0  0  0  0
M  END
> <VConfSearch Rank>
62

> <Conf_Id>
42

> <Delta U+W>
-0.344

> <U+W>
-55.236

> <U>
7.244

> <W>
-62.479

> <W(PB)>
-64.610

> <W(SA)>
2.130

> <Valence>
7.174

> <Coulomb>
-0.669

> <VdW>
0.739

> <VdW6>
-5.969

> <VdW12>
6.708

> <Bond>
0.116

> <Angle>
2.481

> <Pdih>
4.576

> <Idih>
0.000

> <Tether>
0.000

$$$$
VeraChem MOL file


 19 18  0  0  0  0  0  0  0  0999 V2000     
   17.3463   19.7121   23.6800 C   0  0  0  0  0  0  0  0  0  0  0  0
   17.1626   18.9775   24.6302 O   0  5  0  0  0  0  0  0  0  0  0  0
   16.4510   20.1469   22.9832 O   0  0  0  0  0  0  0  0  0  0  0  0
   18.7805   20.0947   23.3319 C   0  0  0  0  0  0  0  0  0  0  0  0
   19.3581   20.1361   24.2633 H   0  0  0  0  0  0  0  0  0  0  0  0
   18.7703   21.1074   22.9114 H   0  0  0  0  0  0  0  0  0  0  0  0
   19.4422   19.1091   22.3373 C   0  0  0  0  0  0  0  0  0  0  0  0
   19.4240   18.1006   22.7712 H   0  0  0  0  0  0  0  0  0  0  0  0
   18.8475   19.0716   21.4141 H   0  0  0  0  0  0  0  0  0  0  0  0
   20.8956   19.5190   22.0052 C   0  0  0  0  0  0  0  0  0  0  0  0
   21.5019   19.5088   22.9213 H   0  0  0  0  0  0  0  0  0  0  0  0
   20.9003   20.5552   21.6402 H   0  0  0  0  0  0  0  0  0  0  0  0
   21.5582   18.6192   20.9366 C   0  0  0  0  0  0  0  0  0  0  0  0
   20.9575   18.6313   20.0167 H   0  0  0  0  0  0  0  0  0  0  0  0
   22.5363   19.0455   20.6741 H   0  0  0  0  0  0  0  0  0  0  0  0
   21.7610   17.1622   21.4054 C   0  0  0  0  0  0  0  0  0  0  0  0
   20.8012   16.6569   21.5703 H   0  0  0  0  0  0  0  0  0  0  0  0
   22.3122   16.5889   20.6487 H   0  0  0  0  0  0  0  0  0  0  0  0
   22.3348   17.1265   22.3406 H   0  0  0  0  0  0  0  0  0  0  0  0
  1  2  1  0  0  0  0
  1  3  2  0  0  0  0
  1  4  1  0  0  0  0
  4  5  1  0  0  0  0
  4  6  1  0  0  0  0
  4  7  1  0  0  0  0
  7  8  1  0  0  0  0
  7  9  1  0  0  0  0
  7 10  1  0  0  0  0
 10 11  1  0  0  0  0
 10 12  1  0  0  0  0
 10 13  1  0  0  0  0
 13 14  1  0  0  0  0
 13 15  1  0  0  0  0
 13 16  1  0  0  0  0
 16 17  1  0  0  0  0
 16 18  1  0  0  0  0
 16 19  1  0  0  0  0
M  END
> <VConfSearch Rank>
63

> <Conf_Id>
41

> <Delta U+W>
-0.361

> <U+W>
-55.252

> <U>
7.244

> <W>
-62.496

> <W(PB)>
-64.596

> <W(SA)>
2.099

> <Valence>
7.174

> <Coulomb>
-0.669

> <VdW>
0.739

> <VdW6>
-5.969

> <VdW12>
6.708

> <Bond>
0.116

> <Angle>
2.481

> <Pdih>
4.576

> <Idih>
0.000

> <Tether>
0.000

$$$$
VeraChem MOL file


 19 18  0  0  0  0  0  0  0  0999 V2000     
   20.7480   17.0917   20.3983 C   0  0  0  0  0  0  0  0  0  0  0  0
   21.4584   16.3992   21.1000 O   0  5  0  0  0  0  0  0  0  0  0  0
   19.8824   16.6459   19.6713 O   0  0  0  0  0  0  0  0  0  0  0  0
   20.9679   18.6020   20.4127 C   0  0  0  0  0  0  0  0  0  0  0  0
   20.9821   18.9412   19.3702 H   0  0  0  0  0  0  0  0  0  0  0  0
   21.9626   18.8073   20.8267 H   0  0  0  0  0  0  0  0  0  0  0  0
   19.8879   19.3899   21.1987 C   0  0  0  0  0  0  0  0  0  0  0  0
   20.0455   20.4653   21.0401 H   0  0  0  0  0  0  0  0  0  0  0  0
   18.8954   19.1521   20.7913 H   0  0  0  0  0  0  0  0  0  0  0  0
   19.9177   19.0889   22.7139 C   0  0  0  0  0  0  0  0  0  0  0  0
   20.9155   19.3158   23.1138 H   0  0  0  0  0  0  0  0  0  0  0  0
   19.7437   18.0170   22.8820 H   0  0  0  0  0  0  0  0  0  0  0  0
   18.8568   19.9066   23.4797 C   0  0  0  0  0  0  0  0  0  0  0  0
   19.0284   20.9799   23.3186 H   0  0  0  0  0  0  0  0  0  0  0  0
   17.8574   19.6797   23.0833 H   0  0  0  0  0  0  0  0  0  0  0  0
   18.8891   19.6041   24.9911 C   0  0  0  0  0  0  0  0  0  0  0  0
   19.8688   19.8517   25.4203 H   0  0  0  0  0  0  0  0  0  0  0  0
   18.1286   20.1933   25.5199 H   0  0  0  0  0  0  0  0  0  0  0  0
   18.6891   18.5418   25.1832 H   0  0  0  0  0  0  0  0  0  0  0  0
  1  2  1  0  0  0  0
  1  3  2  0  0  0  0
  1  4  1  0  0  0  0
  4  5  1  0  0  0  0
  4  6  1  0  0  0  0
  4  7  1  0  0  0  0
  7  8  1  0  0  0  0
  7  9  1  0  0  0  0
  7 10  1  0  0  0  0
 10 11  1  0  0  0  0
 10 12  1  0  0  0  0
 10 13  1  0  0  0  0
 13 14  1  0  0  0  0
 13 15  1  0  0  0  0
 13 16  1  0  0  0  0
 16 17  1  0  0  0  0
 16 18  1  0  0  0  0
 16 19  1  0  0  0  0
M  END
> <VConfSearch Rank>
64

> <Conf_Id>
36

> <Delta U+W>
-0.079

> <U+W>
-54.971

> <U>
8.266

> <W>
-63.237

> <W(PB)>
-65.340

> <W(SA)>
2.103

> <Valence>
6.935

> <Coulomb>
0.874

> <VdW>
0.457

> <VdW6>
-6.205

> <VdW12>
6.662

> <Bond>
0.107

> <Angle>
2.420

> <Pdih>
4.407

> <Idih>
0.001

> <Tether>
0.000

$$$$
VeraChem MOL file


 19 18  0  0  0  0  0  0  0  0999 V2000     
   21.6078   18.4431   19.9364 C   0  0  0  0  0  0  0  0  0  0  0  0
   22.6397   18.0087   20.4087 O   0  5  0  0  0  0  0  0  0  0  0  0
   21.5692   19.3391   19.1164 O   0  0  0  0  0  0  0  0  0  0  0  0
   20.2887   17.8162   20.3795 C   0  0  0  0  0  0  0  0  0  0  0  0
   20.4992   16.8390   20.8307 H   0  0  0  0  0  0  0  0  0  0  0  0
   19.6957   17.6277   19.4767 H   0  0  0  0  0  0  0  0  0  0  0  0
   19.4708   18.6943   21.3619 C   0  0  0  0  0  0  0  0  0  0  0  0
   19.2925   19.6790   20.9078 H   0  0  0  0  0  0  0  0  0  0  0  0
   18.4855   18.2338   21.5156 H   0  0  0  0  0  0  0  0  0  0  0  0
   20.1709   18.8671   22.7284 C   0  0  0  0  0  0  0  0  0  0  0  0
   21.1509   19.3431   22.5848 H   0  0  0  0  0  0  0  0  0  0  0  0
   20.3587   17.8798   23.1722 H   0  0  0  0  0  0  0  0  0  0  0  0
   19.3257   19.7171   23.6998 C   0  0  0  0  0  0  0  0  0  0  0  0
   19.1384   20.7062   23.2594 H   0  0  0  0  0  0  0  0  0  0  0  0
   18.3457   19.2436   23.8506 H   0  0  0  0  0  0  0  0  0  0  0  0
   20.0269   19.8876   25.0623 C   0  0  0  0  0  0  0  0  0  0  0  0
   20.9972   20.3877   24.9445 H   0  0  0  0  0  0  0  0  0  0  0  0
   19.4128   20.4946   25.7402 H   0  0  0  0  0  0  0  0  0  0  0  0
   20.1986   18.9142   25.5401 H   0  0  0  0  0  0  0  0  0  0  0  0
  1  2  1  0  0  0  0
  1  3  2  0  0  0  0
  1  4  1  0  0  0  0
  4  5  1  0  0  0  0
  4  6  1  0  0  0  0
  4  7  1  0  0  0  0
  7  8  1  0  0  0  0
  7  9  1  0  0  0  0
  7 10  1  0  0  0  0
 10 11  1  0  0  0  0
 10 12  1  0  0  0  0
 10 13  1  0  0  0  0
 13 14  1  0  0  0  0
 13 15  1  0  0  0  0
 13 16  1  0  0  0  0
 16 17  1  0  0  0  0
 16 18  1  0  0  0  0
 16 19  1  0  0  0  0
M  END
> <VConfSearch Rank>
65

> <Conf_Id>
35

> <Delta U+W>
-0.030

> <U+W>
-54.921

> <U>
8.267

> <W>
-63.188

> <W(PB)>
-65.294

> <W(SA)>
2.106

> <Valence>
6.935

> <Coulomb>
0.875

> <VdW>
0.457

> <VdW6>
-6.205

> <VdW12>
6.662

> <Bond>
0.107

> <Angle>
2.420

> <Pdih>
4.407

> <Idih>
0.001

> <Tether>
0.000

$$$$
VeraChem MOL file


 19 18  0  0  0  0  0  0  0  0999 V2000     
   20.8502   16.2187   23.2522 C   0  0  0  0  0  0  0  0  0  0  0  0
   20.8725   16.1262   24.4637 O   0  5  0  0  0  0  0  0  0  0  0  0
   21.7472   15.8268   22.5321 O   0  0  0  0  0  0  0  0  0  0  0  0
   19.6185   16.8413   22.6006 C   0  0  0  0  0  0  0  0  0  0  0  0
   18.7366   16.3946   23.0746 H   0  0  0  0  0  0  0  0  0  0  0  0
   19.5941   16.5474   21.5442 H   0  0  0  0  0  0  0  0  0  0  0  0
   19.5473   18.3855   22.7279 C   0  0  0  0  0  0  0  0  0  0  0  0
   18.5646   18.7193   22.3711 H   0  0  0  0  0  0  0  0  0  0  0  0
   19.6126   18.6666   23.7881 H   0  0  0  0  0  0  0  0  0  0  0  0
   20.6617   19.0996   21.9262 C   0  0  0  0  0  0  0  0  0  0  0  0
   20.5711   18.8475   20.8608 H   0  0  0  0  0  0  0  0  0  0  0  0
   21.6401   18.7205   22.2518 H   0  0  0  0  0  0  0  0  0  0  0  0
   20.6530   20.6363   22.0972 C   0  0  0  0  0  0  0  0  0  0  0  0
   20.7457   20.8916   23.1619 H   0  0  0  0  0  0  0  0  0  0  0  0
   21.5411   21.0507   21.6005 H   0  0  0  0  0  0  0  0  0  0  0  0
   19.3951   21.3107   21.5084 C   0  0  0  0  0  0  0  0  0  0  0  0
   18.4896   21.0158   22.0532 H   0  0  0  0  0  0  0  0  0  0  0  0
   19.4800   22.4032   21.5729 H   0  0  0  0  0  0  0  0  0  0  0  0
   19.2644   21.0438   20.4516 H   0  0  0  0  0  0  0  0  0  0  0  0
  1  2  1  0  0  0  0
  1  3  2  0  0  0  0
  1  4  1  0  0  0  0
  4  5  1  0  0  0  0
  4  6  1  0  0  0  0
  4  7  1  0  0  0  0
  7  8  1  0  0  0  0
  7  9  1  0  0  0  0
  7 10  1  0  0  0  0
 10 11  1  0  0  0  0
 10 12  1  0  0  0  0
 10 13  1  0  0  0  0
 13 14  1  0  0  0  0
 13 15  1  0  0  0  0
 13 16  1  0  0  0  0
 16 17  1  0  0  0  0
 16 18  1  0  0  0  0
 16 19  1  0  0  0  0
M  END
> <VConfSearch Rank>
66

> <Conf_Id>
74

> <Delta U+W>
0.797

> <U+W>
-54.095

> <U>
8.869

> <W>
-62.964

> <W(PB)>
-65.046

> <W(SA)>
2.082

> <Valence>
7.469

> <Coulomb>
0.762

> <VdW>
0.639

> <VdW6>
-6.782

> <VdW12>
7.421

> <Bond>
0.141

> <Angle>
2.667

> <Pdih>
4.660

> <Idih>
0.001

> <Tether>
0.000

$$$$
VeraChem MOL file


 19 18  0  0  0  0  0  0  0  0999 V2000     
   19.4369   19.3482   25.1496 C   0  0  0  0  0  0  0  0  0  0  0  0
   20.1515   19.1329   26.1085 O   0  5  0  0  0  0  0  0  0  0  0  0
   18.5149   20.1394   25.1628 O   0  0  0  0  0  0  0  0  0  0  0  0
   19.7252   18.5983   23.8539 C   0  0  0  0  0  0  0  0  0  0  0  0
   18.7698   18.4379   23.3414 H   0  0  0  0  0  0  0  0  0  0  0  0
   20.1261   17.6111   24.1132 H   0  0  0  0  0  0  0  0  0  0  0  0
   20.7169   19.3529   22.9311 C   0  0  0  0  0  0  0  0  0  0  0  0
   20.2886   20.3233   22.6472 H   0  0  0  0  0  0  0  0  0  0  0  0
   21.6279   19.5786   23.5024 H   0  0  0  0  0  0  0  0  0  0  0  0
   21.1147   18.5538   21.6646 C   0  0  0  0  0  0  0  0  0  0  0  0
   21.6329   17.6351   21.9718 H   0  0  0  0  0  0  0  0  0  0  0  0
   21.8487   19.1394   21.0944 H   0  0  0  0  0  0  0  0  0  0  0  0
   19.9413   18.1742   20.7282 C   0  0  0  0  0  0  0  0  0  0  0  0
   20.3420   17.6021   19.8801 H   0  0  0  0  0  0  0  0  0  0  0  0
   19.2453   17.5011   21.2459 H   0  0  0  0  0  0  0  0  0  0  0  0
   19.1738   19.3978   20.1829 C   0  0  0  0  0  0  0  0  0  0  0  0
   19.8548   20.0967   19.6803 H   0  0  0  0  0  0  0  0  0  0  0  0
   18.4148   19.0822   19.4555 H   0  0  0  0  0  0  0  0  0  0  0  0
   18.6588   19.9367   20.9883 H   0  0  0  0  0  0  0  0  0  0  0  0
  1  2  1  0  0  0  0
  1  3  2  0  0  0  0
  1  4  1  0  0  0  0
  4  5  1  0  0  0  0
  4  6  1  0  0  0  0
  4  7  1  0  0  0  0
  7  8  1  0  0  0  0
  7  9  1  0  0  0  0
  7 10  1  0  0  0  0
 10 11  1  0  0  0  0
 10 12  1  0  0  0  0
 10 13  1  0  0  0  0
 13 14  1  0  0  0  0
 13 15  1  0  0  0  0
 13 16  1  0  0  0  0
 16 17  1  0  0  0  0
 16 18  1  0  0  0  0
 16 19  1  0  0  0  0
M  END
> <VConfSearch Rank>
67

> <Conf_Id>
67

> <Delta U+W>
0.308

> <U+W>
-54.583

> <U>
8.219

> <W>
-62.802

> <W(PB)>
-64.859

> <W(SA)>
2.057

> <Valence>
7.609

> <Coulomb>
-0.089

> <VdW>
0.699

> <VdW6>
-6.924

> <VdW12>
7.623

> <Bond>
0.163

> <Angle>
2.870

> <Pdih>
4.576

> <Idih>
0.001

> <Tether>
0.000

$$$$
VeraChem MOL file


 19 18  0  0  0  0  0  0  0  0999 V2000     
   19.2348   16.9146   20.3064 C   0  0  0  0  0  0  0  0  0  0  0  0
   19.6889   16.7262   19.1952 O   0  5  0  0  0  0  0  0  0  0  0  0
   18.1251   16.5570   20.6485 O   0  0  0  0  0  0  0  0  0  0  0  0
   20.0975   17.6576   21.3202 C   0  0  0  0  0  0  0  0  0  0  0  0
   21.1475   17.4147   21.1177 H   0  0  0  0  0  0  0  0  0  0  0  0
   19.8578   17.2639   22.3146 H   0  0  0  0  0  0  0  0  0  0  0  0
   19.8860   19.1932   21.2782 C   0  0  0  0  0  0  0  0  0  0  0  0
   20.0449   19.5428   20.2488 H   0  0  0  0  0  0  0  0  0  0  0  0
   18.8405   19.4266   21.5199 H   0  0  0  0  0  0  0  0  0  0  0  0
   20.8385   19.9755   22.2170 C   0  0  0  0  0  0  0  0  0  0  0  0
   20.6520   21.0508   22.0920 H   0  0  0  0  0  0  0  0  0  0  0  0
   21.8746   19.8079   21.8925 H   0  0  0  0  0  0  0  0  0  0  0  0
   20.7236   19.6193   23.7196 C   0  0  0  0  0  0  0  0  0  0  0  0
   21.0079   18.5715   23.8839 H   0  0  0  0  0  0  0  0  0  0  0  0
   21.4523   20.2223   24.2785 H   0  0  0  0  0  0  0  0  0  0  0  0
   19.3171   19.8746   24.3027 C   0  0  0  0  0  0  0  0  0  0  0  0
   18.5714   19.2076   23.8517 H   0  0  0  0  0  0  0  0  0  0  0  0
   19.3118   19.6955   25.3856 H   0  0  0  0  0  0  0  0  0  0  0  0
   19.0022   20.9118   24.1293 H   0  0  0  0  0  0  0  0  0  0  0  0
  1  2  1  0  0  0  0
  1  3  2  0  0  0  0
  1  4  1  0  0  0  0
  4  5  1  0  0  0  0
  4  6  1  0  0  0  0
  4  7  1  0  0  0  0
  7  8  1  0  0  0  0
  7  9  1  0  0  0  0
  7 10  1  0  0  0  0
 10 11  1  0  0  0  0
 10 12  1  0  0  0  0
 10 13  1  0  0  0  0
 13 14  1  0  0  0  0
 13 15  1  0  0  0  0
 13 16  1  0  0  0  0
 16 17  1  0  0  0  0
 16 18  1  0  0  0  0
 16 19  1  0  0  0  0
M  END
> <VConfSearch Rank>
68

> <Conf_Id>
21

> <Delta U+W>
0.319

> <U+W>
-54.572

> <U>
8.220

> <W>
-62.792

> <W(PB)>
-64.830

> <W(SA)>
2.038

> <Valence>
7.609

> <Coulomb>
-0.088

> <VdW>
0.699

> <VdW6>
-6.924

> <VdW12>
7.623

> <Bond>
0.163

> <Angle>
2.870

> <Pdih>
4.576

> <Idih>
0.000

> <Tether>
0.000

$$$$
VeraChem MOL file


 19 18  0  0  0  0  0  0  0  0999 V2000     
   18.6536   20.8915   23.9695 C   0  0  0  0  0  0  0  0  0  0  0  0
   18.8473   22.0858   24.0814 O   0  5  0  0  0  0  0  0  0  0  0  0
   17.6011   20.3522   24.2481 O   0  0  0  0  0  0  0  0  0  0  0  0
   19.7877   20.0256   23.4327 C   0  0  0  0  0  0  0  0  0  0  0  0
   19.7060   19.0386   23.8986 H   0  0  0  0  0  0  0  0  0  0  0  0
   20.7352   20.4610   23.7717 H   0  0  0  0  0  0  0  0  0  0  0  0
   19.7779   19.9145   21.8850 C   0  0  0  0  0  0  0  0  0  0  0  0
   18.8072   19.5331   21.5392 H   0  0  0  0  0  0  0  0  0  0  0  0
   19.8720   20.9289   21.4732 H   0  0  0  0  0  0  0  0  0  0  0  0
   20.9286   19.0424   21.3219 C   0  0  0  0  0  0  0  0  0  0  0  0
   21.8028   19.0903   21.9855 H   0  0  0  0  0  0  0  0  0  0  0  0
   21.2534   19.4804   20.3681 H   0  0  0  0  0  0  0  0  0  0  0  0
   20.5474   17.5664   21.0498 C   0  0  0  0  0  0  0  0  0  0  0  0
   19.7304   17.5263   20.3162 H   0  0  0  0  0  0  0  0  0  0  0  0
   21.4058   17.0658   20.5810 H   0  0  0  0  0  0  0  0  0  0  0  0
   20.1421   16.7746   22.3102 C   0  0  0  0  0  0  0  0  0  0  0  0
   20.0131   15.7114   22.0701 H   0  0  0  0  0  0  0  0  0  0  0  0
   20.9101   16.8550   23.0904 H   0  0  0  0  0  0  0  0  0  0  0  0
   19.1903   17.1387   22.7168 H   0  0  0  0  0  0  0  0  0  0  0  0
  1  2  1  0  0  0  0
  1  3  2  0  0  0  0
  1  4  1  0  0  0  0
  4  5  1  0  0  0  0
  4  6  1  0  0  0  0
  4  7  1  0  0  0  0
  7  8  1  0  0  0  0
  7  9  1  0  0  0  0
  7 10  1  0  0  0  0
 10 11  1  0  0  0  0
 10 12  1  0  0  0  0
 10 13  1  0  0  0  0
 13 14  1  0  0  0  0
 13 15  1  0  0  0  0
 13 16  1  0  0  0  0
 16 17  1  0  0  0  0
 16 18  1  0  0  0  0
 16 19  1  0  0  0  0
M  END
> <VConfSearch Rank>
69

> <Conf_Id>
24

> <Delta U+W>
2.477

> <U+W>
-52.414

> <U>
10.422

> <W>
-62.836

> <W(PB)>
-64.906

> <W(SA)>
2.070

> <Valence>
9.628

> <Coulomb>
0.101

> <VdW>
0.693

> <VdW6>
-6.927

> <VdW12>
7.620

> <Bond>
0.173

> <Angle>
2.989

> <Pdih>
6.465

> <Idih>
0.001

> <Tether>
0.000

$$$$
VeraChem MOL file


 19 18  0  0  0  0  0  0  0  0999 V2000     
   21.8440   19.4149   24.0699 C   0  0  0  0  0  0  0  0  0  0  0  0
   21.9908   20.5987   23.8383 O   0  5  0  0  0  0  0  0  0  0  0  0
   22.0772   18.9088   25.1499 O   0  0  0  0  0  0  0  0  0  0  0  0
   21.3692   18.5075   22.9379 C   0  0  0  0  0  0  0  0  0  0  0  0
   22.0401   17.6408   22.9149 H   0  0  0  0  0  0  0  0  0  0  0  0
   21.5083   19.0366   21.9898 H   0  0  0  0  0  0  0  0  0  0  0  0
   19.9027   18.0175   23.0942 C   0  0  0  0  0  0  0  0  0  0  0  0
   19.6982   17.2183   22.3692 H   0  0  0  0  0  0  0  0  0  0  0  0
   19.8025   17.5573   24.0871 H   0  0  0  0  0  0  0  0  0  0  0  0
   18.8392   19.1375   22.9533 C   0  0  0  0  0  0  0  0  0  0  0  0
   19.2472   20.1005   23.2893 H   0  0  0  0  0  0  0  0  0  0  0  0
   18.0117   18.9097   23.6390 H   0  0  0  0  0  0  0  0  0  0  0  0
   18.2396   19.2837   21.5330 C   0  0  0  0  0  0  0  0  0  0  0  0
   17.7539   18.3431   21.2388 H   0  0  0  0  0  0  0  0  0  0  0  0
   17.4454   20.0421   21.5671 H   0  0  0  0  0  0  0  0  0  0  0  0
   19.2643   19.6906   20.4542 C   0  0  0  0  0  0  0  0  0  0  0  0
   19.9827   18.8831   20.2665 H   0  0  0  0  0  0  0  0  0  0  0  0
   18.7570   19.9087   19.5056 H   0  0  0  0  0  0  0  0  0  0  0  0
   19.8189   20.5885   20.7569 H   0  0  0  0  0  0  0  0  0  0  0  0
  1  2  1  0  0  0  0
  1  3  2  0  0  0  0
  1  4  1  0  0  0  0
  4  5  1  0  0  0  0
  4  6  1  0  0  0  0
  4  7  1  0  0  0  0
  7  8  1  0  0  0  0
  7  9  1  0  0  0  0
  7 10  1  0  0  0  0
 10 11  1  0  0  0  0
 10 12  1  0  0  0  0
 10 13  1  0  0  0  0
 13 14  1  0  0  0  0
 13 15  1  0  0  0  0
 13 16  1  0  0  0  0
 16 17  1  0  0  0  0
 16 18  1  0  0  0  0
 16 19  1  0  0  0  0
M  END
> <VConfSearch Rank>
70

> <Conf_Id>
4

> <Delta U+W>
3.753

> <U+W>
-51.138

> <U>
12.334

> <W>
-63.472

> <W(PB)>
-65.500

> <W(SA)>
2.028

> <Valence>
9.984

> <Coulomb>
1.767

> <VdW>
0.583

> <VdW6>
-7.767

> <VdW12>
8.349

> <Bond>
0.203

> <Angle>
3.191

> <Pdih>
6.589

> <Idih>
0.001

> <Tether>
0.000

$$$$
VeraChem MOL file


 19 18  0  0  0  0  0  0  0  0999 V2000     
   19.9108   18.5053   24.9929 C   0  0  0  0  0  0  0  0  0  0  0  0
   19.2142   17.7882   25.6840 O   0  5  0  0  0  0  0  0  0  0  0  0
   21.1092   18.6300   25.1510 O   0  0  0  0  0  0  0  0  0  0  0  0
   19.2369   19.3133   23.8870 C   0  0  0  0  0  0  0  0  0  0  0  0
   19.9166   20.1154   23.5822 H   0  0  0  0  0  0  0  0  0  0  0  0
   18.3585   19.7976   24.3294 H   0  0  0  0  0  0  0  0  0  0  0  0
   18.7929   18.4627   22.6646 C   0  0  0  0  0  0  0  0  0  0  0  0
   18.1713   17.6354   23.0344 H   0  0  0  0  0  0  0  0  0  0  0  0
   18.1424   19.0604   22.0120 H   0  0  0  0  0  0  0  0  0  0  0  0
   19.9664   17.8749   21.8383 C   0  0  0  0  0  0  0  0  0  0  0  0
   19.6593   16.8887   21.4644 H   0  0  0  0  0  0  0  0  0  0  0  0
   20.8368   17.6908   22.4828 H   0  0  0  0  0  0  0  0  0  0  0  0
   20.3850   18.7267   20.6147 C   0  0  0  0  0  0  0  0  0  0  0  0
   21.1603   18.1808   20.0597 H   0  0  0  0  0  0  0  0  0  0  0  0
   19.5328   18.8318   19.9292 H   0  0  0  0  0  0  0  0  0  0  0  0
   20.9283   20.1248   20.9750 C   0  0  0  0  0  0  0  0  0  0  0  0
   21.7339   20.0545   21.7177 H   0  0  0  0  0  0  0  0  0  0  0  0
   21.3313   20.6217   20.0832 H   0  0  0  0  0  0  0  0  0  0  0  0
   20.1349   20.7651   21.3798 H   0  0  0  0  0  0  0  0  0  0  0  0
  1  2  1  0  0  0  0
  1  3  2  0  0  0  0
  1  4  1  0  0  0  0
  4  5  1  0  0  0  0
  4  6  1  0  0  0  0
  4  7  1  0  0  0  0
  7  8  1  0  0  0  0
  7  9  1  0  0  0  0
  7 10  1  0  0  0  0
 10 11  1  0  0  0  0
 10 12  1  0  0  0  0
 10 13  1  0  0  0  0
 13 14  1  0  0  0  0
 13 15  1  0  0  0  0
 13 16  1  0  0  0  0
 16 17  1  0  0  0  0
 16 18  1  0  0  0  0
 16 19  1  0  0  0  0
M  END
> <VConfSearch Rank>
71

> <Conf_Id>
73

> <Delta U+W>
3.707

> <U+W>
-51.184

> <U>
12.334

> <W>
-63.519

> <W(PB)>
-65.541

> <W(SA)>
2.022

> <Valence>
9.984

> <Coulomb>
1.768

> <VdW>
0.583

> <VdW6>
-7.767

> <VdW12>
8.350

> <Bond>
0.203

> <Angle>
3.192

> <Pdih>
6.589

> <Idih>
0.001

> <Tether>
0.000

$$$$
VeraChem MOL file


 19 18  0  0  0  0  0  0  0  0999 V2000     
   17.8923   17.9427   21.0907 C   0  0  0  0  0  0  0  0  0  0  0  0
   17.0520   18.0730   21.9588 O   0  5  0  0  0  0  0  0  0  0  0  0
   17.6458   18.0110   19.9025 O   0  0  0  0  0  0  0  0  0  0  0  0
   19.3290   17.6455   21.5111 C   0  0  0  0  0  0  0  0  0  0  0  0
   19.6641   16.7748   20.9355 H   0  0  0  0  0  0  0  0  0  0  0  0
   19.3317   17.3411   22.5640 H   0  0  0  0  0  0  0  0  0  0  0  0
   20.3147   18.8235   21.2810 C   0  0  0  0  0  0  0  0  0  0  0  0
   21.3314   18.5001   21.5392 H   0  0  0  0  0  0  0  0  0  0  0  0
   20.3367   19.0591   20.2081 H   0  0  0  0  0  0  0  0  0  0  0  0
   19.9639   20.1146   22.0647 C   0  0  0  0  0  0  0  0  0  0  0  0
   18.9968   20.4971   21.7104 H   0  0  0  0  0  0  0  0  0  0  0  0
   20.7031   20.8886   21.8177 H   0  0  0  0  0  0  0  0  0  0  0  0
   19.9008   19.9553   23.6035 C   0  0  0  0  0  0  0  0  0  0  0  0
   19.6294   20.9244   24.0442 H   0  0  0  0  0  0  0  0  0  0  0  0
   19.0947   19.2617   23.8782 H   0  0  0  0  0  0  0  0  0  0  0  0
   21.2326   19.4823   24.2251 C   0  0  0  0  0  0  0  0  0  0  0  0
   21.4863   18.4660   23.8986 H   0  0  0  0  0  0  0  0  0  0  0  0
   22.0565   20.1511   23.9442 H   0  0  0  0  0  0  0  0  0  0  0  0
   21.1629   19.4722   25.3204 H   0  0  0  0  0  0  0  0  0  0  0  0
  1  2  1  0  0  0  0
  1  3  2  0  0  0  0
  1  4  1  0  0  0  0
  4  5  1  0  0  0  0
  4  6  1  0  0  0  0
  4  7  1  0  0  0  0
  7  8  1  0  0  0  0
  7  9  1  0  0  0  0
  7 10  1  0  0  0  0
 10 11  1  0  0  0  0
 10 12  1  0  0  0  0
 10 13  1  0  0  0  0
 13 14  1  0  0  0  0
 13 15  1  0  0  0  0
 13 16  1  0  0  0  0
 16 17  1  0  0  0  0
 16 18  1  0  0  0  0
 16 19  1  0  0  0  0
M  END
> <VConfSearch Rank>
72

> <Conf_Id>
56

> <Delta U+W>
1.735

> <U+W>
-53.156

> <U>
10.214

> <W>
-63.370

> <W(PB)>
-65.388

> <W(SA)>
2.018

> <Valence>
7.868

> <Coulomb>
1.968

> <VdW>
0.378

> <VdW6>
-8.067

> <VdW12>
8.445

> <Bond>
0.191

> <Angle>
3.117

> <Pdih>
4.559

> <Idih>
0.001

> <Tether>
0.000

$$$$
VeraChem MOL file


 19 18  0  0  0  0  0  0  0  0999 V2000     
   20.7952   16.2512   23.0817 C   0  0  0  0  0  0  0  0  0  0  0  0
   21.9594   15.9051   23.1160 O   0  5  0  0  0  0  0  0  0  0  0  0
   19.8615   15.4790   23.1732 O   0  0  0  0  0  0  0  0  0  0  0  0
   20.4895   17.7326   22.8917 C   0  0  0  0  0  0  0  0  0  0  0  0
   21.2960   18.3104   23.3587 H   0  0  0  0  0  0  0  0  0  0  0  0
   19.5658   17.9531   23.4382 H   0  0  0  0  0  0  0  0  0  0  0  0
   20.3398   18.1289   21.4012 C   0  0  0  0  0  0  0  0  0  0  0  0
   21.2202   17.7679   20.8515 H   0  0  0  0  0  0  0  0  0  0  0  0
   19.4741   17.6050   20.9730 H   0  0  0  0  0  0  0  0  0  0  0  0
   20.1993   19.6522   21.1560 C   0  0  0  0  0  0  0  0  0  0  0  0
   20.1553   19.8090   20.0695 H   0  0  0  0  0  0  0  0  0  0  0  0
   21.1040   20.1743   21.4964 H   0  0  0  0  0  0  0  0  0  0  0  0
   18.9394   20.2956   21.7869 C   0  0  0  0  0  0  0  0  0  0  0  0
   18.5729   21.0824   21.1131 H   0  0  0  0  0  0  0  0  0  0  0  0
   18.1302   19.5560   21.8613 H   0  0  0  0  0  0  0  0  0  0  0  0
   19.2078   20.9371   23.1664 C   0  0  0  0  0  0  0  0  0  0  0  0
   18.2911   21.3932   23.5620 H   0  0  0  0  0  0  0  0  0  0  0  0
   19.5577   20.2011   23.8988 H   0  0  0  0  0  0  0  0  0  0  0  0
   19.9678   21.7254   23.0888 H   0  0  0  0  0  0  0  0  0  0  0  0
  1  2  1  0  0  0  0
  1  3  2  0  0  0  0
  1  4  1  0  0  0  0
  4  5  1  0  0  0  0
  4  6  1  0  0  0  0
  4  7  1  0  0  0  0
  7  8  1  0  0  0  0
  7  9  1  0  0  0  0
  7 10  1  0  0  0  0
 10 11  1  0  0  0  0
 10 12  1  0  0  0  0
 10 13  1  0  0  0  0
 13 14  1  0  0  0  0
 13 15  1  0  0  0  0
 13 16  1  0  0  0  0
 16 17  1  0  0  0  0
 16 18  1  0  0  0  0
 16 19  1  0  0  0  0
M  END
> <VConfSearch Rank>
73

> <Conf_Id>
53

> <Delta U+W>
2.279

> <U+W>
-52.612

> <U>
10.231

> <W>
-62.843

> <W(PB)>
-64.893

> <W(SA)>
2.050

> <Valence>
9.644

> <Coulomb>
-0.164

> <VdW>
0.751

> <VdW6>
-6.881

> <VdW12>
7.631

> <Bond>
0.163

> <Angle>
2.998

> <Pdih>
6.482

> <Idih>
0.001

> <Tether>
0.000

$$$$
VeraChem MOL file


 19 18  0  0  0  0  0  0  0  0999 V2000     
   22.4733   19.6172   22.3521 C   0  0  0  0  0  0  0  0  0  0  0  0
   22.4265   20.7886   22.6723 O   0  5  0  0  0  0  0  0  0  0  0  0
   22.9299   19.2299   21.2944 O   0  0  0  0  0  0  0  0  0  0  0  0
   21.9973   18.5748   23.3623 C   0  0  0  0  0  0  0  0  0  0  0  0
   21.6714   19.0863   24.2761 H   0  0  0  0  0  0  0  0  0  0  0  0
   22.8791   17.9822   23.6324 H   0  0  0  0  0  0  0  0  0  0  0  0
   20.8820   17.6184   22.8540 C   0  0  0  0  0  0  0  0  0  0  0  0
   21.1213   17.2693   21.8399 H   0  0  0  0  0  0  0  0  0  0  0  0
   20.8874   16.7232   23.4905 H   0  0  0  0  0  0  0  0  0  0  0  0
   19.4520   18.2120   22.8878 C   0  0  0  0  0  0  0  0  0  0  0  0
   19.2167   18.5522   23.9055 H   0  0  0  0  0  0  0  0  0  0  0  0
   18.7414   17.4056   22.6602 H   0  0  0  0  0  0  0  0  0  0  0  0
   19.2260   19.3680   21.8887 C   0  0  0  0  0  0  0  0  0  0  0  0
   19.8308   20.2376   22.1757 H   0  0  0  0  0  0  0  0  0  0  0  0
   19.5560   19.0634   20.8859 H   0  0  0  0  0  0  0  0  0  0  0  0
   17.7433   19.7886   21.8366 C   0  0  0  0  0  0  0  0  0  0  0  0
   17.3956   20.1225   22.8230 H   0  0  0  0  0  0  0  0  0  0  0  0
   17.6013   20.6159   21.1292 H   0  0  0  0  0  0  0  0  0  0  0  0
   17.1084   18.9535   21.5131 H   0  0  0  0  0  0  0  0  0  0  0  0
  1  2  1  0  0  0  0
  1  3  2  0  0  0  0
  1  4  1  0  0  0  0
  4  5  1  0  0  0  0
  4  6  1  0  0  0  0
  4  7  1  0  0  0  0
  7  8  1  0  0  0  0
  7  9  1  0  0  0  0
  7 10  1  0  0  0  0
 10 11  1  0  0  0  0
 10 12  1  0  0  0  0
 10 13  1  0  0  0  0
 13 14  1  0  0  0  0
 13 15  1  0  0  0  0
 13 16  1  0  0  0  0
 16 17  1  0  0  0  0
 16 18  1  0  0  0  0
 16 19  1  0  0  0  0
M  END
> <VConfSearch Rank>
74

> <Conf_Id>
25

> <Delta U+W>
2.065

> <U+W>
-52.826

> <U>
10.967

> <W>
-63.794

> <W(PB)>
-65.830

> <W(SA)>
2.036

> <Valence>
8.609

> <Coulomb>
1.892

> <VdW>
0.467

> <VdW6>
-7.569

> <VdW12>
8.036

> <Bond>
0.170

> <Angle>
3.195

> <Pdih>
5.237

> <Idih>
0.007

> <Tether>
0.000

$$$$
VeraChem MOL file


 19 18  0  0  0  0  0  0  0  0999 V2000     
   19.9004   20.0796   24.5759 C   0  0  0  0  0  0  0  0  0  0  0  0
   18.8890   20.7514   24.5227 O   0  5  0  0  0  0  0  0  0  0  0  0
   21.0090   20.5503   24.7380 O   0  0  0  0  0  0  0  0  0  0  0  0
   19.7663   18.5595   24.5059 C   0  0  0  0  0  0  0  0  0  0  0  0
   19.1795   18.2611   25.3823 H   0  0  0  0  0  0  0  0  0  0  0  0
   20.7588   18.1079   24.6245 H   0  0  0  0  0  0  0  0  0  0  0  0
   19.0756   18.0121   23.2251 C   0  0  0  0  0  0  0  0  0  0  0  0
   18.7116   16.9991   23.4433 H   0  0  0  0  0  0  0  0  0  0  0  0
   18.1832   18.6109   22.9957 H   0  0  0  0  0  0  0  0  0  0  0  0
   19.9919   17.9255   21.9794 C   0  0  0  0  0  0  0  0  0  0  0  0
   19.4484   17.3855   21.1920 H   0  0  0  0  0  0  0  0  0  0  0  0
   20.8780   17.3198   22.2134 H   0  0  0  0  0  0  0  0  0  0  0  0
   20.4328   19.2980   21.4251 C   0  0  0  0  0  0  0  0  0  0  0  0
   19.5542   19.9429   21.2852 H   0  0  0  0  0  0  0  0  0  0  0  0
   21.0897   19.8019   22.1455 H   0  0  0  0  0  0  0  0  0  0  0  0
   21.1824   19.1525   20.0854 C   0  0  0  0  0  0  0  0  0  0  0  0
   21.4961   20.1351   19.7097 H   0  0  0  0  0  0  0  0  0  0  0  0
   22.0806   18.5323   20.2040 H   0  0  0  0  0  0  0  0  0  0  0  0
   20.5420   18.6875   19.3245 H   0  0  0  0  0  0  0  0  0  0  0  0
  1  2  1  0  0  0  0
  1  3  2  0  0  0  0
  1  4  1  0  0  0  0
  4  5  1  0  0  0  0
  4  6  1  0  0  0  0
  4  7  1  0  0  0  0
  7  8  1  0  0  0  0
  7  9  1  0  0  0  0
  7 10  1  0  0  0  0
 10 11  1  0  0  0  0
 10 12  1  0  0  0  0
 10 13  1  0  0  0  0
 13 14  1  0  0  0  0
 13 15  1  0  0  0  0
 13 16  1  0  0  0  0
 16 17  1  0  0  0  0
 16 18  1  0  0  0  0
 16 19  1  0  0  0  0
M  END
> <VConfSearch Rank>
75

> <Conf_Id>
52

> <Delta U+W>
2.070

> <U+W>
-52.822

> <U>
10.967

> <W>
-63.789

> <W(PB)>
-65.837

> <W(SA)>
2.048

> <Valence>
8.609

> <Coulomb>
1.892

> <VdW>
0.467

> <VdW6>
-7.569

> <VdW12>
8.035

> <Bond>
0.170

> <Angle>
3.196

> <Pdih>
5.237

> <Idih>
0.007

> <Tether>
0.000

$$$$
VeraChem MOL file


 19 18  0  0  0  0  0  0  0  0999 V2000     
   20.4922   20.6474   21.5756 C   0  0  0  0  0  0  0  0  0  0  0  0
   19.7534   21.5589   21.8939 O   0  5  0  0  0  0  0  0  0  0  0  0
   21.7035   20.7188   21.6424 O   0  0  0  0  0  0  0  0  0  0  0  0
   19.8832   19.3958   20.9417 C   0  0  0  0  0  0  0  0  0  0  0  0
   20.6580   18.6243   20.8581 H   0  0  0  0  0  0  0  0  0  0  0  0
   19.6110   19.6769   19.9179 H   0  0  0  0  0  0  0  0  0  0  0  0
   18.6266   18.8200   21.6549 C   0  0  0  0  0  0  0  0  0  0  0  0
   17.9679   19.6392   21.9749 H   0  0  0  0  0  0  0  0  0  0  0  0
   18.0511   18.2480   20.9146 H   0  0  0  0  0  0  0  0  0  0  0  0
   18.9145   17.8763   22.8507 C   0  0  0  0  0  0  0  0  0  0  0  0
   19.4888   17.0038   22.5103 H   0  0  0  0  0  0  0  0  0  0  0  0
   17.9503   17.4790   23.1963 H   0  0  0  0  0  0  0  0  0  0  0  0
   19.6166   18.5449   24.0574 C   0  0  0  0  0  0  0  0  0  0  0  0
   19.4484   19.6307   24.0466 H   0  0  0  0  0  0  0  0  0  0  0  0
   19.1571   18.1753   24.9844 H   0  0  0  0  0  0  0  0  0  0  0  0
   21.1282   18.2365   24.1150 C   0  0  0  0  0  0  0  0  0  0  0  0
   21.3037   17.1587   24.2267 H   0  0  0  0  0  0  0  0  0  0  0  0
   21.6414   18.5707   23.2059 H   0  0  0  0  0  0  0  0  0  0  0  0
   21.5927   18.7449   24.9697 H   0  0  0  0  0  0  0  0  0  0  0  0
  1  2  1  0  0  0  0
  1  3  2  0  0  0  0
  1  4  1  0  0  0  0
  4  5  1  0  0  0  0
  4  6  1  0  0  0  0
  4  7  1  0  0  0  0
  7  8  1  0  0  0  0
  7  9  1  0  0  0  0
  7 10  1  0  0  0  0
 10 11  1  0  0  0  0
 10 12  1  0  0  0  0
 10 13  1  0  0  0  0
 13 14  1  0  0  0  0
 13 15  1  0  0  0  0
 13 16  1  0  0  0  0
 16 17  1  0  0  0  0
 16 18  1  0  0  0  0
 16 19  1  0  0  0  0
M  END
> <VConfSearch Rank>
76

> <Conf_Id>
66

> <Delta U+W>
5.819

> <U+W>
-49.072

> <U>
15.324

> <W>
-64.396

> <W(PB)>
-66.382

> <W(SA)>
1.986

> <Valence>
11.748

> <Coulomb>
3.201

> <VdW>
0.375

> <VdW6>
-8.854

> <VdW12>
9.229

> <Bond>
0.216

> <Angle>
3.812

> <Pdih>
7.699

> <Idih>
0.022

> <Tether>
0.000

$$$$
VeraChem MOL file


 19 18  0  0  0  0  0  0  0  0999 V2000     
   18.3182   15.9190   22.0656 C   0  0  0  0  0  0  0  0  0  0  0  0
   18.5081   14.7255   22.1888 O   0  5  0  0  0  0  0  0  0  0  0  0
   17.2236   16.3966   21.8379 O   0  0  0  0  0  0  0  0  0  0  0  0
   19.5328   16.8377   22.2088 C   0  0  0  0  0  0  0  0  0  0  0  0
   20.2728   16.5199   21.4648 H   0  0  0  0  0  0  0  0  0  0  0  0
   19.9700   16.6503   23.1966 H   0  0  0  0  0  0  0  0  0  0  0  0
   19.2411   18.3530   22.0437 C   0  0  0  0  0  0  0  0  0  0  0  0
   18.7979   18.5331   21.0545 H   0  0  0  0  0  0  0  0  0  0  0  0
   18.4947   18.6636   22.7880 H   0  0  0  0  0  0  0  0  0  0  0  0
   20.5193   19.2044   22.2031 C   0  0  0  0  0  0  0  0  0  0  0  0
   21.2641   18.8921   21.4582 H   0  0  0  0  0  0  0  0  0  0  0  0
   20.9608   19.0227   23.1926 H   0  0  0  0  0  0  0  0  0  0  0  0
   20.2272   20.7104   22.0386 C   0  0  0  0  0  0  0  0  0  0  0  0
   19.7871   20.8966   21.0491 H   0  0  0  0  0  0  0  0  0  0  0  0
   19.4839   21.0272   22.7834 H   0  0  0  0  0  0  0  0  0  0  0  0
   21.5055   21.5574   22.1982 C   0  0  0  0  0  0  0  0  0  0  0  0
   22.2552   21.2828   21.4446 H   0  0  0  0  0  0  0  0  0  0  0  0
   21.2796   22.6249   22.0783 H   0  0  0  0  0  0  0  0  0  0  0  0
   21.9498   21.4144   23.1920 H   0  0  0  0  0  0  0  0  0  0  0  0
  1  2  1  0  0  0  0
  1  3  2  0  0  0  0
  1  4  1  0  0  0  0
  4  5  1  0  0  0  0
  4  6  1  0  0  0  0
  4  7  1  0  0  0  0
  7  8  1  0  0  0  0
  7  9  1  0  0  0  0
  7 10  1  0  0  0  0
 10 11  1  0  0  0  0
 10 12  1  0  0  0  0
 10 13  1  0  0  0  0
 13 14  1  0  0  0  0
 13 15  1  0  0  0  0
 13 16  1  0  0  0  0
 16 17  1  0  0  0  0
 16 18  1  0  0  0  0
 16 19  1  0  0  0  0
M  END
> <VConfSearch Rank>
77

> <Conf_Id>
0

> <Delta U+W>
0.000

> <U+W>
-54.891

> <U>
6.966

> <W>
-61.857

> <W(PB)>
-63.965

> <W(SA)>
2.108

> <Valence>
7.175

> <Coulomb>
-1.360

> <VdW>
1.151

> <VdW6>
-5.641

> <VdW12>
6.792

> <Bond>
0.119

> <Angle>
2.715

> <Pdih>
4.340

> <Idih>
0.000

> <Tether>
0.000

$$$$
VeraChem MOL file


 19 18  0  0  0  0  0  0  0  0999 V2000     
   17.4957   21.2723   21.7806 C   0  0  0  0  0  0  0  0  0  0  0  0
   17.1595   21.4905   20.6337 O   0  5  0  0  0  0  0  0  0  0  0  0
   16.7513   21.3899   22.7337 O   0  0  0  0  0  0  0  0  0  0  0  0
   18.9244   20.8055   22.0359 C   0  0  0  0  0  0  0  0  0  0  0  0
   19.2379   21.1871   23.0151 H   0  0  0  0  0  0  0  0  0  0  0  0
   19.5742   21.2697   21.2841 H   0  0  0  0  0  0  0  0  0  0  0  0
   19.0716   19.2646   21.9910 C   0  0  0  0  0  0  0  0  0  0  0  0
   18.4057   18.8146   22.7404 H   0  0  0  0  0  0  0  0  0  0  0  0
   18.7418   18.8971   21.0093 H   0  0  0  0  0  0  0  0  0  0  0  0
   20.5263   18.8183   22.2522 C   0  0  0  0  0  0  0  0  0  0  0  0
   20.8535   19.1884   23.2336 H   0  0  0  0  0  0  0  0  0  0  0  0
   21.1896   19.2708   21.5022 H   0  0  0  0  0  0  0  0  0  0  0  0
   20.6699   17.2829   22.2070 C   0  0  0  0  0  0  0  0  0  0  0  0
   20.0092   16.8266   22.9572 H   0  0  0  0  0  0  0  0  0  0  0  0
   20.3454   16.9090   21.2259 H   0  0  0  0  0  0  0  0  0  0  0  0
   22.1236   16.8408   22.4682 C   0  0  0  0  0  0  0  0  0  0  0  0
   22.2076   15.7469   22.4325 H   0  0  0  0  0  0  0  0  0  0  0  0
   22.8027   17.2578   21.7130 H   0  0  0  0  0  0  0  0  0  0  0  0
   22.4640   17.1748   23.4572 H   0  0  0  0  0  0  0  0  0  0  0  0
  1  2  1  0  0  0  0
  1  3  2  0  0  0  0
  1  4  1  0  0  0  0
  4  5  1  0  0  0  0
  4  6  1  0  0  0  0
  4  7  1  0  0  0  0
  7  8  1  0  0  0  0
  7  9  1  0  0  0  0
  7 10  1  0  0  0  0
 10 11  1  0  0  0  0
 10 12  1  0  0  0  0
 10 13  1  0  0  0  0
 13 14  1  0  0  0  0
 13 15  1  0  0  0  0
 13 16  1  0  0  0  0
 16 17  1  0  0  0  0
 16 18  1  0  0  0  0
 16 19  1  0  0  0  0
M  END
> <VConfSearch Rank>
78

> <Conf_Id>
18

> <Delta U+W>
-1.199

> <U+W>
-56.090

> <U>
5.975

> <W>
-62.066

> <W(PB)>
-64.219

> <W(SA)>
2.153

> <Valence>
6.673

> <Coulomb>
-1.307

> <VdW>
0.610

> <VdW6>
-5.351

> <VdW12>
5.961

> <Bond>
0.086

> <Angle>
2.253

> <Pdih>
4.333

> <Idih>
0.001

> <Tether>
0.000

$$$$
VeraChem MOL file


 19 18  0  0  0  0  0  0  0  0999 V2000     
   17.0529   17.8827   22.9911 C   0  0  0  0  0  0  0  0  0  0  0  0
   16.7520   17.5194   24.1108 O   0  5  0  0  0  0  0  0  0  0  0  0
   16.2396   18.1982   22.1454 O   0  0  0  0  0  0  0  0  0  0  0  0
   18.5328   17.9675   22.6348 C   0  0  0  0  0  0  0  0  0  0  0  0
   18.6334   17.7298   21.5698 H   0  0  0  0  0  0  0  0  0  0  0  0
   19.0628   17.1872   23.1941 H   0  0  0  0  0  0  0  0  0  0  0  0
   19.1461   19.3578   22.9449 C   0  0  0  0  0  0  0  0  0  0  0  0
   18.6370   20.1253   22.3458 H   0  0  0  0  0  0  0  0  0  0  0  0
   18.9477   19.6037   23.9973 H   0  0  0  0  0  0  0  0  0  0  0  0
   20.6718   19.4289   22.6986 C   0  0  0  0  0  0  0  0  0  0  0  0
   21.1786   18.6660   23.3053 H   0  0  0  0  0  0  0  0  0  0  0  0
   21.0374   20.4020   23.0541 H   0  0  0  0  0  0  0  0  0  0  0  0
   21.0631   19.2578   21.2136 C   0  0  0  0  0  0  0  0  0  0  0  0
   20.7739   18.2601   20.8583 H   0  0  0  0  0  0  0  0  0  0  0  0
   20.5173   19.9878   20.5999 H   0  0  0  0  0  0  0  0  0  0  0  0
   22.5791   19.4446   21.0037 C   0  0  0  0  0  0  0  0  0  0  0  0
   22.8416   19.3172   19.9454 H   0  0  0  0  0  0  0  0  0  0  0  0
   22.8983   20.4484   21.3134 H   0  0  0  0  0  0  0  0  0  0  0  0
   23.1494   18.7085   21.5854 H   0  0  0  0  0  0  0  0  0  0  0  0
  1  2  1  0  0  0  0
  1  3  2  0  0  0  0
  1  4  1  0  0  0  0
  4  5  1  0  0  0  0
  4  6  1  0  0  0  0
  4  7  1  0  0  0  0
  7  8  1  0  0  0  0
  7  9  1  0  0  0  0
  7 10  1  0  0  0  0
 10 11  1  0  0  0  0
 10 12  1  0  0  0  0
 10 13  1  0  0  0  0
 13 14  1  0  0  0  0
 13 15  1  0  0  0  0
 13 16  1  0  0  0  0
 16 17  1  0  0  0  0
 16 18  1  0  0  0  0
 16 19  1  0  0  0  0
M  END
> <VConfSearch Rank>
79

> <Conf_Id>
34

> <Delta U+W>
-0.563

> <U+W>
-55.455

> <U>
6.914

> <W>
-62.369

> <W(PB)>
-64.446

> <W(SA)>
2.077

> <Valence>
7.196

> <Coulomb>
-1.020

> <VdW>
0.738

> <VdW6>
-6.010

> <VdW12>
6.748

> <Bond>
0.126

> <Angle>
2.499

> <Pdih>
4.570

> <Idih>
0.001

> <Tether>
0.000

$$$$
VeraChem MOL file


 19 18  0  0  0  0  0  0  0  0999 V2000     
   18.8528   17.3327   24.7424 C   0  0  0  0  0  0  0  0  0  0  0  0
   17.6730   17.2550   25.0220 O   0  5  0  0  0  0  0  0  0  0  0  0
   19.7474   17.1097   25.5339 O   0  0  0  0  0  0  0  0  0  0  0  0
   19.2314   17.7544   23.3271 C   0  0  0  0  0  0  0  0  0  0  0  0
   18.4578   17.3847   22.6434 H   0  0  0  0  0  0  0  0  0  0  0  0
   20.1662   17.2455   23.0664 H   0  0  0  0  0  0  0  0  0  0  0  0
   19.3856   19.2905   23.1795 C   0  0  0  0  0  0  0  0  0  0  0  0
   18.4644   19.7729   23.5346 H   0  0  0  0  0  0  0  0  0  0  0  0
   20.1932   19.6429   23.8359 H   0  0  0  0  0  0  0  0  0  0  0  0
   19.6558   19.7475   21.7263 C   0  0  0  0  0  0  0  0  0  0  0  0
   19.6319   20.8455   21.6961 H   0  0  0  0  0  0  0  0  0  0  0  0
   18.8425   19.4009   21.0742 H   0  0  0  0  0  0  0  0  0  0  0  0
   21.0126   19.2594   21.1710 C   0  0  0  0  0  0  0  0  0  0  0  0
   21.8216   19.5623   21.8500 H   0  0  0  0  0  0  0  0  0  0  0  0
   21.0291   18.1628   21.1213 H   0  0  0  0  0  0  0  0  0  0  0  0
   21.2850   19.8290   19.7643 C   0  0  0  0  0  0  0  0  0  0  0  0
   20.5046   19.5184   19.0573 H   0  0  0  0  0  0  0  0  0  0  0  0
   21.3140   20.9263   19.7832 H   0  0  0  0  0  0  0  0  0  0  0  0
   22.2501   19.4713   19.3826 H   0  0  0  0  0  0  0  0  0  0  0  0
  1  2  1  0  0  0  0
  1  3  2  0  0  0  0
  1  4  1  0  0  0  0
  4  5  1  0  0  0  0
  4  6  1  0  0  0  0
  4  7  1  0  0  0  0
  7  8  1  0  0  0  0
  7  9  1  0  0  0  0
  7 10  1  0  0  0  0
 10 11  1  0  0  0  0
 10 12  1  0  0  0  0
 10 13  1  0  0  0  0
 13 14  1  0  0  0  0
 13 15  1  0  0  0  0
 13 16  1  0  0  0  0
 16 17  1  0  0  0  0
 16 18  1  0  0  0  0
 16 19  1  0  0  0  0
M  END
> <VConfSearch Rank>
80

> <Conf_Id>
33

> <Delta U+W>
-0.526

> <U+W>
-55.418

> <U>
6.914

> <W>
-62.332

> <W(PB)>
-64.421

> <W(SA)>
2.090

> <Valence>
7.196

> <Coulomb>
-1.020

> <VdW>
0.738

> <VdW6>
-6.010

> <VdW12>
6.748

> <Bond>
0.126

> <Angle>
2.499

> <Pdih>
4.570

> <Idih>
0.001

> <Tether>
0.000

$$$$
VeraChem MOL file


 19 18  0  0  0  0  0  0  0  0999 V2000     
   19.5688   15.8033   22.2470 C   0  0  0  0  0  0  0  0  0  0  0  0
   18.9033   15.4572   21.2913 O   0  5  0  0  0  0  0  0  0  0  0  0
   20.4868   15.1487   22.6998 O   0  0  0  0  0  0  0  0  0  0  0  0
   19.2456   17.1409   22.9035 C   0  0  0  0  0  0  0  0  0  0  0  0
   19.4671   17.0571   23.9743 H   0  0  0  0  0  0  0  0  0  0  0  0
   18.1672   17.3159   22.8082 H   0  0  0  0  0  0  0  0  0  0  0  0
   20.0344   18.3215   22.2849 C   0  0  0  0  0  0  0  0  0  0  0  0
   21.1117   18.1272   22.3795 H   0  0  0  0  0  0  0  0  0  0  0  0
   19.8115   18.3739   21.2110 H   0  0  0  0  0  0  0  0  0  0  0  0
   19.6848   19.6644   22.9667 C   0  0  0  0  0  0  0  0  0  0  0  0
   19.8466   19.5687   24.0491 H   0  0  0  0  0  0  0  0  0  0  0  0
   18.6168   19.8826   22.8296 H   0  0  0  0  0  0  0  0  0  0  0  0
   20.5259   20.8535   22.4480 C   0  0  0  0  0  0  0  0  0  0  0  0
   20.3019   21.7377   23.0606 H   0  0  0  0  0  0  0  0  0  0  0  0
   21.5949   20.6414   22.5885 H   0  0  0  0  0  0  0  0  0  0  0  0
   20.2543   21.1938   20.9667 C   0  0  0  0  0  0  0  0  0  0  0  0
   19.1862   21.3812   20.7960 H   0  0  0  0  0  0  0  0  0  0  0  0
   20.8068   22.0956   20.6726 H   0  0  0  0  0  0  0  0  0  0  0  0
   20.5716   20.3793   20.3036 H   0  0  0  0  0  0  0  0  0  0  0  0
  1  2  1  0  0  0  0
  1  3  2  0  0  0  0
  1  4  1  0  0  0  0
  4  5  1  0  0  0  0
  4  6  1  0  0  0  0
  4  7  1  0  0  0  0
  7  8  1  0  0  0  0
  7  9  1  0  0  0  0
  7 10  1  0  0  0  0
 10 11  1  0  0  0  0
 10 12  1  0  0  0  0
 10 13  1  0  0  0  0
 13 14  1  0  0  0  0
 13 15  1  0  0  0  0
 13 16  1  0  0  0  0
 16 17  1  0  0  0  0
 16 18  1  0  0  0  0
 16 19  1  0  0  0  0
M  END
> <VConfSearch Rank>
81

> <Conf_Id>
42

> <Delta U+W>
-0.344

> <U+W>
-55.236

> <U>
7.244

> <W>
-62.479

> <W(PB)>
-64.610

> <W(SA)>
2.130

> <Valence>
7.174

> <Coulomb>
-0.669

> <VdW>
0.739

> <VdW6>
-5.969

> <VdW12>
6.708

> <Bond>
0.116

> <Angle>
2.481

> <Pdih>
4.576

> <Idih>
0.000

> <Tether>
0.000

$$$$
VeraChem MOL file


 19 18  0  0  0  0  0  0  0  0999 V2000     
   22.6959   19.7155   20.6555 C   0  0  0  0  0  0  0  0  0  0  0  0
   22.7004   19.1695   19.5702 O   0  5  0  0  0  0  0  0  0  0  0  0
   23.6985   19.9145   21.3124 O   0  0  0  0  0  0  0  0  0  0  0  0
   21.3565   20.1591   21.2333 C   0  0  0  0  0  0  0  0  0  0  0  0
   20.7018   20.4403   20.3997 H   0  0  0  0  0  0  0  0  0  0  0  0
   21.5260   21.0625   21.8314 H   0  0  0  0  0  0  0  0  0  0  0  0
   20.6811   19.0650   22.0966 C   0  0  0  0  0  0  0  0  0  0  0  0
   20.5388   18.1656   21.4830 H   0  0  0  0  0  0  0  0  0  0  0  0
   21.3524   18.7876   22.9210 H   0  0  0  0  0  0  0  0  0  0  0  0
   19.3244   19.5402   22.6661 C   0  0  0  0  0  0  0  0  0  0  0  0
   18.6366   19.7707   21.8410 H   0  0  0  0  0  0  0  0  0  0  0  0
   19.4766   20.4790   23.2161 H   0  0  0  0  0  0  0  0  0  0  0  0
   18.6652   18.5152   23.6175 C   0  0  0  0  0  0  0  0  0  0  0  0
   19.3480   18.2863   24.4474 H   0  0  0  0  0  0  0  0  0  0  0  0
   17.7736   18.9740   24.0669 H   0  0  0  0  0  0  0  0  0  0  0  0
   18.2483   17.2067   22.9119 C   0  0  0  0  0  0  0  0  0  0  0  0
   19.1217   16.6534   22.5450 H   0  0  0  0  0  0  0  0  0  0  0  0
   17.7080   16.5512   23.6071 H   0  0  0  0  0  0  0  0  0  0  0  0
   17.5878   17.4131   22.0596 H   0  0  0  0  0  0  0  0  0  0  0  0
  1  2  1  0  0  0  0
  1  3  2  0  0  0  0
  1  4  1  0  0  0  0
  4  5  1  0  0  0  0
  4  6  1  0  0  0  0
  4  7  1  0  0  0  0
  7  8  1  0  0  0  0
  7  9  1  0  0  0  0
  7 10  1  0  0  0  0
 10 11  1  0  0  0  0
 10 12  1  0  0  0  0
 10 13  1  0  0  0  0
 13 14  1  0  0  0  0
 13 15  1  0  0  0  0
 13 16  1  0  0  0  0
 16 17  1  0  0  0  0
 16 18  1  0  0  0  0
 16 19  1  0  0  0  0
M  END
> <VConfSearch Rank>
82

> <Conf_Id>
41

> <Delta U+W>
-0.361

> <U+W>
-55.252

> <U>
7.244

> <W>
-62.496

> <W(PB)>
-64.596

> <W(SA)>
2.099

> <Valence>
7.174

> <Coulomb>
-0.669

> <VdW>
0.739

> <VdW6>
-5.969

> <VdW12>
6.708

> <Bond>
0.116

> <Angle>
2.481

> <Pdih>
4.576

> <Idih>
0.000

> <Tether>
0.000

$$$$
VeraChem MOL file


 19 18  0  0  0  0  0  0  0  0999 V2000     
   20.4510   19.6556   19.6293 C   0  0  0  0  0  0  0  0  0  0  0  0
   21.6625   19.5681   19.6653 O   0  5  0  0  0  0  0  0  0  0  0  0
   19.7619   19.1017   18.7956 O   0  0  0  0  0  0  0  0  0  0  0  0
   19.7568   20.5255   20.6737 C   0  0  0  0  0  0  0  0  0  0  0  0
   19.0282   21.1525   20.1463 H   0  0  0  0  0  0  0  0  0  0  0  0
   20.4983   21.2029   21.1144 H   0  0  0  0  0  0  0  0  0  0  0  0
   19.0373   19.7216   21.7878 C   0  0  0  0  0  0  0  0  0  0  0  0
   18.4548   20.4159   22.4084 H   0  0  0  0  0  0  0  0  0  0  0  0
   18.3188   19.0277   21.3297 H   0  0  0  0  0  0  0  0  0  0  0  0
   20.0214   18.9389   22.6857 C   0  0  0  0  0  0  0  0  0  0  0  0
   20.7454   19.6350   23.1309 H   0  0  0  0  0  0  0  0  0  0  0  0
   20.5964   18.2296   22.0745 H   0  0  0  0  0  0  0  0  0  0  0  0
   19.2869   18.1725   23.8055 C   0  0  0  0  0  0  0  0  0  0  0  0
   18.7132   18.8775   24.4229 H   0  0  0  0  0  0  0  0  0  0  0  0
   18.5637   17.4735   23.3628 H   0  0  0  0  0  0  0  0  0  0  0  0
   20.2714   17.3926   24.6997 C   0  0  0  0  0  0  0  0  0  0  0  0
   20.9877   18.0718   25.1804 H   0  0  0  0  0  0  0  0  0  0  0  0
   19.7326   16.8535   25.4897 H   0  0  0  0  0  0  0  0  0  0  0  0
   20.8371   16.6573   24.1125 H   0  0  0  0  0  0  0  0  0  0  0  0
  1  2  1  0  0  0  0
  1  3  2  0  0  0  0
  1  4  1  0  0  0  0
  4  5  1  0  0  0  0
  4  6  1  0  0  0  0
  4  7  1  0  0  0  0
  7  8  1  0  0  0  0
  7  9  1  0  0  0  0
  7 10  1  0  0  0  0
 10 11  1  0  0  0  0
 10 12  1  0  0  0  0
 10 13  1  0  0  0  0
 13 14  1  0  0  0  0
 13 15  1  0  0  0  0
 13 16  1  0  0  0  0
 16 17  1  0  0  0  0
 16 18  1  0  0  0  0
 16 19  1  0  0  0  0
M  END
> <VConfSearch Rank>
83

> <Conf_Id>
36

> <Delta U+W>
-0.079

> <U+W>
-54.971

> <U>
8.266

> <W>
-63.237

> <W(PB)>
-65.340

> <W(SA)>
2.103

> <Valence>
6.935

> <Coulomb>
0.874

> <VdW>
0.457

> <VdW6>
-6.205

> <VdW12>
6.662

> <Bond>
0.107

> <Angle>
2.420

> <Pdih>
4.407

> <Idih>
0.001

> <Tether>
0.000

$$$$
VeraChem MOL file


 19 18  0  0  0  0  0  0  0  0999 V2000     
   20.1589   16.2334   23.2394 C   0  0  0  0  0  0  0  0  0  0  0  0
   21.1776   16.2383   23.9018 O   0  5  0  0  0  0  0  0  0  0  0  0
   19.9227   15.4111   22.3764 O   0  0  0  0  0  0  0  0  0  0  0  0
   19.1082   17.3043   23.5195 C   0  0  0  0  0  0  0  0  0  0  0  0
   19.3013   17.7342   24.5099 H   0  0  0  0  0  0  0  0  0  0  0  0
   18.1352   16.8022   23.5759 H   0  0  0  0  0  0  0  0  0  0  0  0
   19.0502   18.4268   22.4510 C   0  0  0  0  0  0  0  0  0  0  0  0
   18.8849   17.9788   21.4612 H   0  0  0  0  0  0  0  0  0  0  0  0
   18.1834   19.0695   22.6560 H   0  0  0  0  0  0  0  0  0  0  0  0
   20.3307   19.2912   22.4270 C   0  0  0  0  0  0  0  0  0  0  0  0
   21.2009   18.6579   22.2055 H   0  0  0  0  0  0  0  0  0  0  0  0
   20.4987   19.7261   23.4218 H   0  0  0  0  0  0  0  0  0  0  0  0
   20.2383   20.4201   21.3793 C   0  0  0  0  0  0  0  0  0  0  0  0
   20.0726   19.9876   20.3828 H   0  0  0  0  0  0  0  0  0  0  0  0
   19.3719   21.0595   21.5983 H   0  0  0  0  0  0  0  0  0  0  0  0
   21.5173   21.2807   21.3579 C   0  0  0  0  0  0  0  0  0  0  0  0
   22.3964   20.6713   21.1101 H   0  0  0  0  0  0  0  0  0  0  0  0
   21.4349   22.0777   20.6075 H   0  0  0  0  0  0  0  0  0  0  0  0
   21.6905   21.7511   22.3347 H   0  0  0  0  0  0  0  0  0  0  0  0
  1  2  1  0  0  0  0
  1  3  2  0  0  0  0
  1  4  1  0  0  0  0
  4  5  1  0  0  0  0
  4  6  1  0  0  0  0
  4  7  1  0  0  0  0
  7  8  1  0  0  0  0
  7  9  1  0  0  0  0
  7 10  1  0  0  0  0
 10 11  1  0  0  0  0
 10 12  1  0  0  0  0
 10 13  1  0  0  0  0
 13 14  1  0  0  0  0
 13 15  1  0  0  0  0
 13 16  1  0  0  0  0
 16 17  1  0  0  0  0
 16 18  1  0  0  0  0
 16 19  1  0  0  0  0
M  END
> <VConfSearch Rank>
84

> <Conf_Id>
35

> <Delta U+W>
-0.030

> <U+W>
-54.921

> <U>
8.267

> <W>
-63.188

> <W(PB)>
-65.294

> <W(SA)>
2.106

> <Valence>
6.935

> <Coulomb>
0.875

> <VdW>
0.457

> <VdW6>
-6.205

> <VdW12>
6.662

> <Bond>
0.107

> <Angle>
2.420

> <Pdih>
4.407

> <Idih>
0.001

> <Tether>
0.000

$$$$
VeraChem MOL file


 19 18  0  0  0  0  0  0  0  0999 V2000     
   22.0442   17.5305   24.0106 C   0  0  0  0  0  0  0  0  0  0  0  0
   21.7511   17.5495   25.1898 O   0  5  0  0  0  0  0  0  0  0  0  0
   23.1463   17.8191   23.5878 O   0  0  0  0  0  0  0  0  0  0  0  0
   20.9751   17.0996   23.0103 C   0  0  0  0  0  0  0  0  0  0  0  0
   20.4963   16.1984   23.4111 H   0  0  0  0  0  0  0  0  0  0  0  0
   21.4674   16.8078   22.0746 H   0  0  0  0  0  0  0  0  0  0  0  0
   19.8959   18.1786   22.7329 C   0  0  0  0  0  0  0  0  0  0  0  0
   19.0979   17.7260   22.1306 H   0  0  0  0  0  0  0  0  0  0  0  0
   19.4395   18.4893   23.6829 H   0  0  0  0  0  0  0  0  0  0  0  0
   20.4668   19.4139   21.9962 C   0  0  0  0  0  0  0  0  0  0  0  0
   20.8883   19.1066   21.0294 H   0  0  0  0  0  0  0  0  0  0  0  0
   21.3002   19.8288   22.5795 H   0  0  0  0  0  0  0  0  0  0  0  0
   19.4231   20.5329   21.7738 C   0  0  0  0  0  0  0  0  0  0  0  0
   19.0011   20.8439   22.7395 H   0  0  0  0  0  0  0  0  0  0  0  0
   19.9339   21.4135   21.3605 H   0  0  0  0  0  0  0  0  0  0  0  0
   18.2832   20.1252   20.8154 C   0  0  0  0  0  0  0  0  0  0  0  0
   17.6689   19.3223   21.2414 H   0  0  0  0  0  0  0  0  0  0  0  0
   17.6228   20.9799   20.6196 H   0  0  0  0  0  0  0  0  0  0  0  0
   18.6834   19.7801   19.8532 H   0  0  0  0  0  0  0  0  0  0  0  0
  1  2  1  0  0  0  0
  1  3  2  0  0  0  0
  1  4  1  0  0  0  0
  4  5  1  0  0  0  0
  4  6  1  0  0  0  0
  4  7  1  0  0  0  0
  7  8  1  0  0  0  0
  7  9  1  0  0  0  0
  7 10  1  0  0  0  0
 10 11  1  0  0  0  0
 10 12  1  0  0  0  0
 10 13  1  0  0  0  0
 13 14  1  0  0  0  0
 13 15  1  0  0  0  0
 13 16  1  0  0  0  0
 16 17  1  0  0  0  0
 16 18  1  0  0  0  0
 16 19  1  0  0  0  0
M  END
> <VConfSearch Rank>
85

> <Conf_Id>
74

> <Delta U+W>
0.797

> <U+W>
-54.095

> <U>
8.869

> <W>
-62.964

> <W(PB)>
-65.046

> <W(SA)>
2.082

> <Valence>
7.469

> <Coulomb>
0.762

> <VdW>
0.639

> <VdW6>
-6.782

> <VdW12>
7.421

> <Bond>
0.141

> <Angle>
2.667

> <Pdih>
4.660

> <Idih>
0.001

> <Tether>
0.000

$$$$
VeraChem MOL file


 19 18  0  0  0  0  0  0  0  0999 V2000     
   22.4980   18.5886   20.8428 C   0  0  0  0  0  0  0  0  0  0  0  0
   22.9553   17.5925   20.3185 O   0  5  0  0  0  0  0  0  0  0  0  0
   22.8127   19.7190   20.5273 O   0  0  0  0  0  0  0  0  0  0  0  0
   21.4586   18.4101   21.9438 C   0  0  0  0  0  0  0  0  0  0  0  0
   21.5798   19.2358   22.6542 H   0  0  0  0  0  0  0  0  0  0  0  0
   21.6865   17.4816   22.4807 H   0  0  0  0  0  0  0  0  0  0  0  0
   20.0073   18.3706   21.3991 C   0  0  0  0  0  0  0  0  0  0  0  0
   19.7775   19.3198   20.8969 H   0  0  0  0  0  0  0  0  0  0  0  0
   19.9426   17.5940   20.6246 H   0  0  0  0  0  0  0  0  0  0  0  0
   18.9454   18.0714   22.4870 C   0  0  0  0  0  0  0  0  0  0  0  0
   19.1350   17.0729   22.9040 H   0  0  0  0  0  0  0  0  0  0  0  0
   17.9573   18.0179   22.0098 H   0  0  0  0  0  0  0  0  0  0  0  0
   18.8851   19.0931   23.6490 C   0  0  0  0  0  0  0  0  0  0  0  0
   18.1118   18.7695   24.3591 H   0  0  0  0  0  0  0  0  0  0  0  0
   19.8304   19.0885   24.2076 H   0  0  0  0  0  0  0  0  0  0  0  0
   18.5621   20.5294   23.1841 C   0  0  0  0  0  0  0  0  0  0  0  0
   17.6311   20.5543   22.6030 H   0  0  0  0  0  0  0  0  0  0  0  0
   18.4397   21.1946   24.0486 H   0  0  0  0  0  0  0  0  0  0  0  0
   19.3684   20.9379   22.5618 H   0  0  0  0  0  0  0  0  0  0  0  0
  1  2  1  0  0  0  0
  1  3  2  0  0  0  0
  1  4  1  0  0  0  0
  4  5  1  0  0  0  0
  4  6  1  0  0  0  0
  4  7  1  0  0  0  0
  7  8  1  0  0  0  0
  7  9  1  0  0  0  0
  7 10  1  0  0  0  0
 10 11  1  0  0  0  0
 10 12  1  0  0  0  0
 10 13  1  0  0  0  0
 13 14  1  0  0  0  0
 13 15  1  0  0  0  0
 13 16  1  0  0  0  0
 16 17  1  0  0  0  0
 16 18  1  0  0  0  0
 16 19  1  0  0  0  0
M  END
> <VConfSearch Rank>
86

> <Conf_Id>
67

> <Delta U+W>
0.308

> <U+W>
-54.583

> <U>
8.219

> <W>
-62.802

> <W(PB)>
-64.859

> <W(SA)>
2.057

> <Valence>
7.609

> <Coulomb>
-0.089

> <VdW>
0.699

> <VdW6>
-6.924

> <VdW12>
7.623

> <Bond>
0.163

> <Angle>
2.870

> <Pdih>
4.576

> <Idih>
0.001

> <Tether>
0.000

$$$$
VeraChem MOL file


 19 18  0  0  0  0  0  0  0  0999 V2000     
   22.1275   19.9535   24.0141 C   0  0  0  0  0  0  0  0  0  0  0  0
   23.0267   19.3503   24.5655 O   0  5  0  0  0  0  0  0  0  0  0  0
   21.7191   21.0364   24.3837 O   0  0  0  0  0  0  0  0  0  0  0  0
   21.4628   19.3066   22.8041 C   0  0  0  0  0  0  0  0  0  0  0  0
   22.2184   18.7118   22.2772 H   0  0  0  0  0  0  0  0  0  0  0  0
   21.1491   20.1092   22.1269 H   0  0  0  0  0  0  0  0  0  0  0  0
   20.2530   18.4158   23.1881 C   0  0  0  0  0  0  0  0  0  0  0  0
   20.5802   17.6805   23.9360 H   0  0  0  0  0  0  0  0  0  0  0  0
   19.4869   19.0293   23.6807 H   0  0  0  0  0  0  0  0  0  0  0  0
   19.6373   17.6559   21.9864 C   0  0  0  0  0  0  0  0  0  0  0  0
   18.8204   17.0194   22.3529 H   0  0  0  0  0  0  0  0  0  0  0  0
   20.3918   16.9728   21.5731 H   0  0  0  0  0  0  0  0  0  0  0  0
   19.0987   18.5526   20.8445 C   0  0  0  0  0  0  0  0  0  0  0  0
   19.9198   19.1236   20.3912 H   0  0  0  0  0  0  0  0  0  0  0  0
   18.7038   17.9059   20.0490 H   0  0  0  0  0  0  0  0  0  0  0  0
   17.9828   19.5176   21.2994 C   0  0  0  0  0  0  0  0  0  0  0  0
   18.3635   20.2595   22.0128 H   0  0  0  0  0  0  0  0  0  0  0  0
   17.5724   20.0629   20.4397 H   0  0  0  0  0  0  0  0  0  0  0  0
   17.1602   18.9697   21.7771 H   0  0  0  0  0  0  0  0  0  0  0  0
  1  2  1  0  0  0  0
  1  3  2  0  0  0  0
  1  4  1  0  0  0  0
  4  5  1  0  0  0  0
  4  6  1  0  0  0  0
  4  7  1  0  0  0  0
  7  8  1  0  0  0  0
  7  9  1  0  0  0  0
  7 10  1  0  0  0  0
 10 11  1  0  0  0  0
 10 12  1  0  0  0  0
 10 13  1  0  0  0  0
 13 14  1  0  0  0  0
 13 15  1  0  0  0  0
 13 16  1  0  0  0  0
 16 17  1  0  0  0  0
 16 18  1  0  0  0  0
 16 19  1  0  0  0  0
M  END
> <VConfSearch Rank>
87

> <Conf_Id>
21

> <Delta U+W>
0.319

> <U+W>
-54.572

> <U>
8.220

> <W>
-62.792

> <W(PB)>
-64.830

> <W(SA)>
2.038

> <Valence>
7.609

> <Coulomb>
-0.088

> <VdW>
0.699

> <VdW6>
-6.924

> <VdW12>
7.623

> <Bond>
0.163

> <Angle>
2.870

> <Pdih>
4.576

> <Idih>
0.000

> <Tether>
0.000

$$$$
VeraChem MOL file


 19 18  0  0  0  0  0  0  0  0999 V2000     
   20.5576   21.4647   21.0681 C   0  0  0  0  0  0  0  0  0  0  0  0
   19.8969   22.4830   21.0134 O   0  5  0  0  0  0  0  0  0  0  0  0
   21.7644   21.4383   20.9301 O   0  0  0  0  0  0  0  0  0  0  0  0
   19.8343   20.1512   21.3431 C   0  0  0  0  0  0  0  0  0  0  0  0
   20.3777   19.3541   20.8261 H   0  0  0  0  0  0  0  0  0  0  0  0
   18.8404   20.2097   20.8837 H   0  0  0  0  0  0  0  0  0  0  0  0
   19.7017   19.8442   22.8583 C   0  0  0  0  0  0  0  0  0  0  0  0
   20.6930   19.8429   23.3323 H   0  0  0  0  0  0  0  0  0  0  0  0
   19.1423   20.6685   23.3220 H   0  0  0  0  0  0  0  0  0  0  0  0
   18.9629   18.5148   23.1560 C   0  0  0  0  0  0  0  0  0  0  0  0
   18.2367   18.2963   22.3612 H   0  0  0  0  0  0  0  0  0  0  0  0
   18.3714   18.6508   24.0718 H   0  0  0  0  0  0  0  0  0  0  0  0
   19.8910   17.2953   23.3788 C   0  0  0  0  0  0  0  0  0  0  0  0
   20.5539   17.4884   24.2334 H   0  0  0  0  0  0  0  0  0  0  0  0
   19.2711   16.4328   23.6597 H   0  0  0  0  0  0  0  0  0  0  0  0
   20.7402   16.9132   22.1489 C   0  0  0  0  0  0  0  0  0  0  0  0
   21.2724   15.9702   22.3285 H   0  0  0  0  0  0  0  0  0  0  0  0
   20.1101   16.7827   21.2596 H   0  0  0  0  0  0  0  0  0  0  0  0
   21.4937   17.6814   21.9347 H   0  0  0  0  0  0  0  0  0  0  0  0
  1  2  1  0  0  0  0
  1  3  2  0  0  0  0
  1  4  1  0  0  0  0
  4  5  1  0  0  0  0
  4  6  1  0  0  0  0
  4  7  1  0  0  0  0
  7  8  1  0  0  0  0
  7  9  1  0  0  0  0
  7 10  1  0  0  0  0
 10 11  1  0  0  0  0
 10 12  1  0  0  0  0
 10 13  1  0  0  0  0
 13 14  1  0  0  0  0
 13 15  1  0  0  0  0
 13 16  1  0  0  0  0
 16 17  1  0  0  0  0
 16 18  1  0  0  0  0
 16 19  1  0  0  0  0
M  END
> <VConfSearch Rank>
88

> <Conf_Id>
24

> <Delta U+W>
2.477

> <U+W>
-52.414

> <U>
10.422

> <W>
-62.836

> <W(PB)>
-64.906

> <W(SA)>
2.070

> <Valence>
9.628

> <Coulomb>
0.101

> <VdW>
0.693

> <VdW6>
-6.927

> <VdW12>
7.620

> <Bond>
0.173

> <Angle>
2.989

> <Pdih>
6.465

> <Idih>
0.001

> <Tether>
0.000

$$$$
VeraChem MOL file


 19 18  0  0  0  0  0  0  0  0999 V2000     
   18.4418   20.7631   21.0655 C   0  0  0  0  0  0  0  0  0  0  0  0
   18.9942   20.5926   19.9966 O   0  5  0  0  0  0  0  0  0  0  0  0
   17.2730   21.0784   21.1737 O   0  0  0  0  0  0  0  0  0  0  0  0
   19.2644   20.6017   22.3412 C   0  0  0  0  0  0  0  0  0  0  0  0
   19.0719   21.4831   22.9640 H   0  0  0  0  0  0  0  0  0  0  0  0
   20.3255   20.6325   22.0741 H   0  0  0  0  0  0  0  0  0  0  0  0
   18.9290   19.3182   23.1506 C   0  0  0  0  0  0  0  0  0  0  0  0
   19.3995   19.3698   24.1417 H   0  0  0  0  0  0  0  0  0  0  0  0
   17.8452   19.3042   23.3313 H   0  0  0  0  0  0  0  0  0  0  0  0
   19.3350   17.9974   22.4461 C   0  0  0  0  0  0  0  0  0  0  0  0
   19.2904   18.1138   21.3546 H   0  0  0  0  0  0  0  0  0  0  0  0
   18.5849   17.2343   22.6947 H   0  0  0  0  0  0  0  0  0  0  0  0
   20.7193   17.4424   22.8627 C   0  0  0  0  0  0  0  0  0  0  0  0
   20.7273   17.2435   23.9433 H   0  0  0  0  0  0  0  0  0  0  0  0
   20.8671   16.4713   22.3705 H   0  0  0  0  0  0  0  0  0  0  0  0
   21.9031   18.3634   22.5024 C   0  0  0  0  0  0  0  0  0  0  0  0
   21.8868   19.2815   23.1026 H   0  0  0  0  0  0  0  0  0  0  0  0
   22.8570   17.8571   22.6987 H   0  0  0  0  0  0  0  0  0  0  0  0
   21.8776   18.6396   21.4401 H   0  0  0  0  0  0  0  0  0  0  0  0
  1  2  1  0  0  0  0
  1  3  2  0  0  0  0
  1  4  1  0  0  0  0
  4  5  1  0  0  0  0
  4  6  1  0  0  0  0
  4  7  1  0  0  0  0
  7  8  1  0  0  0  0
  7  9  1  0  0  0  0
  7 10  1  0  0  0  0
 10 11  1  0  0  0  0
 10 12  1  0  0  0  0
 10 13  1  0  0  0  0
 13 14  1  0  0  0  0
 13 15  1  0  0  0  0
 13 16  1  0  0  0  0
 16 17  1  0  0  0  0
 16 18  1  0  0  0  0
 16 19  1  0  0  0  0
M  END
> <VConfSearch Rank>
89

> <Conf_Id>
4

> <Delta U+W>
3.753

> <U+W>
-51.138

> <U>
12.334

> <W>
-63.472

> <W(PB)>
-65.500

> <W(SA)>
2.028

> <Valence>
9.984

> <Coulomb>
1.767

> <VdW>
0.583

> <VdW6>
-7.767

> <VdW12>
8.349

> <Bond>
0.203

> <Angle>
3.191

> <Pdih>
6.589

> <Idih>
0.001

> <Tether>
0.000

$$$$
VeraChem MOL file


 19 18  0  0  0  0  0  0  0  0999 V2000     
   20.2091   21.2770   21.3850 C   0  0  0  0  0  0  0  0  0  0  0  0
   20.2827   21.6374   20.2266 O   0  5  0  0  0  0  0  0  0  0  0  0
   19.5653   21.8659   22.2309 O   0  0  0  0  0  0  0  0  0  0  0  0
   20.9914   20.0347   21.8029 C   0  0  0  0  0  0  0  0  0  0  0  0
   21.0761   20.0308   22.8943 H   0  0  0  0  0  0  0  0  0  0  0  0
   22.0087   20.1454   21.4097 H   0  0  0  0  0  0  0  0  0  0  0  0
   20.3832   18.7016   21.2851 C   0  0  0  0  0  0  0  0  0  0  0  0
   20.2571   18.7861   20.1968 H   0  0  0  0  0  0  0  0  0  0  0  0
   21.0961   17.8813   21.4433 H   0  0  0  0  0  0  0  0  0  0  0  0
   19.0158   18.3372   21.9197 C   0  0  0  0  0  0  0  0  0  0  0  0
   18.4070   17.8381   21.1535 H   0  0  0  0  0  0  0  0  0  0  0  0
   18.4633   19.2467   22.1924 H   0  0  0  0  0  0  0  0  0  0  0  0
   19.1023   17.3854   23.1381 C   0  0  0  0  0  0  0  0  0  0  0  0
   18.0812   17.1298   23.4530 H   0  0  0  0  0  0  0  0  0  0  0  0
   19.5760   16.4412   22.8359 H   0  0  0  0  0  0  0  0  0  0  0  0
   19.8585   17.9745   24.3467 C   0  0  0  0  0  0  0  0  0  0  0  0
   19.4528   18.9562   24.6242 H   0  0  0  0  0  0  0  0  0  0  0  0
   19.7678   17.3114   25.2167 H   0  0  0  0  0  0  0  0  0  0  0  0
   20.9274   18.0874   24.1275 H   0  0  0  0  0  0  0  0  0  0  0  0
  1  2  1  0  0  0  0
  1  3  2  0  0  0  0
  1  4  1  0  0  0  0
  4  5  1  0  0  0  0
  4  6  1  0  0  0  0
  4  7  1  0  0  0  0
  7  8  1  0  0  0  0
  7  9  1  0  0  0  0
  7 10  1  0  0  0  0
 10 11  1  0  0  0  0
 10 12  1  0  0  0  0
 10 13  1  0  0  0  0
 13 14  1  0  0  0  0
 13 15  1  0  0  0  0
 13 16  1  0  0  0  0
 16 17  1  0  0  0  0
 16 18  1  0  0  0  0
 16 19  1  0  0  0  0
M  END
> <VConfSearch Rank>
90

> <Conf_Id>
73

> <Delta U+W>
3.707

> <U+W>
-51.184

> <U>
12.334

> <W>
-63.519

> <W(PB)>
-65.541

> <W(SA)>
2.022

> <Valence>
9.984

> <Coulomb>
1.768

> <VdW>
0.583

> <VdW6>
-7.767

> <VdW12>
8.350

> <Bond>
0.203

> <Angle>
3.192

> <Pdih>
6.589

> <Idih>
0.001

> <Tether>
0.000

$$$$
VeraChem MOL file


 19 18  0  0  0  0  0  0  0  0999 V2000     
   17.6719   18.0091   23.3578 C   0  0  0  0  0  0  0  0  0  0  0  0
   18.2014   17.1685   24.0577 O   0  5  0  0  0  0  0  0  0  0  0  0
   16.6402   18.5780   23.6564 O   0  0  0  0  0  0  0  0  0  0  0  0
   18.3174   18.3472   22.0168 C   0  0  0  0  0  0  0  0  0  0  0  0
   17.5347   18.2818   21.2521 H   0  0  0  0  0  0  0  0  0  0  0  0
   19.0531   17.5715   21.7750 H   0  0  0  0  0  0  0  0  0  0  0  0
   18.9710   19.7551   21.9637 C   0  0  0  0  0  0  0  0  0  0  0  0
   19.3425   19.9432   20.9480 H   0  0  0  0  0  0  0  0  0  0  0  0
   18.1941   20.5104   22.1452 H   0  0  0  0  0  0  0  0  0  0  0  0
   20.1175   19.9680   22.9856 C   0  0  0  0  0  0  0  0  0  0  0  0
   19.7084   19.8972   24.0028 H   0  0  0  0  0  0  0  0  0  0  0  0
   20.4949   20.9945   22.8831 H   0  0  0  0  0  0  0  0  0  0  0  0
   21.3053   18.9829   22.8588 C   0  0  0  0  0  0  0  0  0  0  0  0
   22.0406   19.2198   23.6399 H   0  0  0  0  0  0  0  0  0  0  0  0
   20.9682   17.9574   23.0617 H   0  0  0  0  0  0  0  0  0  0  0  0
   22.0048   19.0412   21.4837 C   0  0  0  0  0  0  0  0  0  0  0  0
   21.3373   18.7015   20.6819 H   0  0  0  0  0  0  0  0  0  0  0  0
   22.3306   20.0635   21.2518 H   0  0  0  0  0  0  0  0  0  0  0  0
   22.8908   18.3933   21.4758 H   0  0  0  0  0  0  0  0  0  0  0  0
  1  2  1  0  0  0  0
  1  3  2  0  0  0  0
  1  4  1  0  0  0  0
  4  5  1  0  0  0  0
  4  6  1  0  0  0  0
  4  7  1  0  0  0  0
  7  8  1  0  0  0  0
  7  9  1  0  0  0  0
  7 10  1  0  0  0  0
 10 11  1  0  0  0  0
 10 12  1  0  0  0  0
 10 13  1  0  0  0  0
 13 14  1  0  0  0  0
 13 15  1  0  0  0  0
 13 16  1  0  0  0  0
 16 17  1  0  0  0  0
 16 18  1  0  0  0  0
 16 19  1  0  0  0  0
M  END
> <VConfSearch Rank>
91

> <Conf_Id>
56

> <Delta U+W>
1.735

> <U+W>
-53.156

> <U>
10.214

> <W>
-63.370

> <W(PB)>
-65.388

> <W(SA)>
2.018

> <Valence>
7.868

> <Coulomb>
1.968

> <VdW>
0.378

> <VdW6>
-8.067

> <VdW12>
8.445

> <Bond>
0.191

> <Angle>
3.117

> <Pdih>
4.559

> <Idih>
0.001

> <Tether>
0.000

$$$$
VeraChem MOL file


 19 18  0  0  0  0  0  0  0  0999 V2000     
   17.1810   19.0204   23.2367 C   0  0  0  0  0  0  0  0  0  0  0  0
   16.8840   19.2245   24.3971 O   0  5  0  0  0  0  0  0  0  0  0  0
   16.3909   18.6324   22.3991 O   0  0  0  0  0  0  0  0  0  0  0  0
   18.6288   19.2427   22.8139 C   0  0  0  0  0  0  0  0  0  0  0  0
   19.0440   20.0500   23.4289 H   0  0  0  0  0  0  0  0  0  0  0  0
   18.6209   19.5895   21.7746 H   0  0  0  0  0  0  0  0  0  0  0  0
   19.4966   17.9661   22.9481 C   0  0  0  0  0  0  0  0  0  0  0  0
   19.3718   17.5612   23.9620 H   0  0  0  0  0  0  0  0  0  0  0  0
   19.1171   17.1970   22.2613 H   0  0  0  0  0  0  0  0  0  0  0  0
   21.0081   18.1912   22.6926 C   0  0  0  0  0  0  0  0  0  0  0  0
   21.5187   17.2344   22.8685 H   0  0  0  0  0  0  0  0  0  0  0  0
   21.4168   18.8886   23.4366 H   0  0  0  0  0  0  0  0  0  0  0  0
   21.3584   18.6680   21.2612 C   0  0  0  0  0  0  0  0  0  0  0  0
   22.3124   18.2115   20.9633 H   0  0  0  0  0  0  0  0  0  0  0  0
   20.6091   18.3049   20.5442 H   0  0  0  0  0  0  0  0  0  0  0  0
   21.5089   20.2015   21.1488 C   0  0  0  0  0  0  0  0  0  0  0  0
   21.7736   20.4865   20.1223 H   0  0  0  0  0  0  0  0  0  0  0  0
   20.5824   20.7239   21.4120 H   0  0  0  0  0  0  0  0  0  0  0  0
   22.3034   20.5653   21.8132 H   0  0  0  0  0  0  0  0  0  0  0  0
  1  2  1  0  0  0  0
  1  3  2  0  0  0  0
  1  4  1  0  0  0  0
  4  5  1  0  0  0  0
  4  6  1  0  0  0  0
  4  7  1  0  0  0  0
  7  8  1  0  0  0  0
  7  9  1  0  0  0  0
  7 10  1  0  0  0  0
 10 11  1  0  0  0  0
 10 12  1  0  0  0  0
 10 13  1  0  0  0  0
 13 14  1  0  0  0  0
 13 15  1  0  0  0  0
 13 16  1  0  0  0  0
 16 17  1  0  0  0  0
 16 18  1  0  0  0  0
 16 19  1  0  0  0  0
M  END
> <VConfSearch Rank>
92

> <Conf_Id>
53

> <Delta U+W>
2.279

> <U+W>
-52.612

> <U>
10.231

> <W>
-62.843

> <W(PB)>
-64.893

> <W(SA)>
2.050

> <Valence>
9.644

> <Coulomb>
-0.164

> <VdW>
0.751

> <VdW6>
-6.881

> <VdW12>
7.631

> <Bond>
0.163

> <Angle>
2.998

> <Pdih>
6.482

> <Idih>
0.001

> <Tether>
0.000

$$$$
VeraChem MOL file


 19 18  0  0  0  0  0  0  0  0999 V2000     
   18.8092   17.0223   21.8144 C   0  0  0  0  0  0  0  0  0  0  0  0
   18.4228   17.3426   20.7076 O   0  5  0  0  0  0  0  0  0  0  0  0
   18.0607   16.7337   22.7274 O   0  0  0  0  0  0  0  0  0  0  0  0
   20.3147   16.9095   22.0470 C   0  0  0  0  0  0  0  0  0  0  0  0
   20.8389   17.1488   21.1138 H   0  0  0  0  0  0  0  0  0  0  0  0
   20.5159   15.8527   22.2574 H   0  0  0  0  0  0  0  0  0  0  0  0
   20.8728   17.7720   23.2140 C   0  0  0  0  0  0  0  0  0  0  0  0
   20.2164   17.6854   24.0910 H   0  0  0  0  0  0  0  0  0  0  0  0
   21.8393   17.3472   23.5171 H   0  0  0  0  0  0  0  0  0  0  0  0
   21.1019   19.2640   22.8672 C   0  0  0  0  0  0  0  0  0  0  0  0
   21.7644   19.3434   21.9945 H   0  0  0  0  0  0  0  0  0  0  0  0
   21.6377   19.7314   23.7047 H   0  0  0  0  0  0  0  0  0  0  0  0
   19.8024   20.0569   22.6063 C   0  0  0  0  0  0  0  0  0  0  0  0
   19.3154   19.6921   21.6929 H   0  0  0  0  0  0  0  0  0  0  0  0
   19.0963   19.8972   23.4330 H   0  0  0  0  0  0  0  0  0  0  0  0
   20.0816   21.5656   22.4526 C   0  0  0  0  0  0  0  0  0  0  0  0
   20.7658   21.7544   21.6150 H   0  0  0  0  0  0  0  0  0  0  0  0
   19.1500   22.1130   22.2593 H   0  0  0  0  0  0  0  0  0  0  0  0
   20.5334   21.9772   23.3646 H   0  0  0  0  0  0  0  0  0  0  0  0
  1  2  1  0  0  0  0
  1  3  2  0  0  0  0
  1  4  1  0  0  0  0
  4  5  1  0  0  0  0
  4  6  1  0  0  0  0
  4  7  1  0  0  0  0
  7  8  1  0  0  0  0
  7  9  1  0  0  0  0
  7 10  1  0  0  0  0
 10 11  1  0  0  0  0
 10 12  1  0  0  0  0
 10 13  1  0  0  0  0
 13 14  1  0  0  0  0
 13 15  1  0  0  0  0
 13 16  1  0  0  0  0
 16 17  1  0  0  0  0
 16 18  1  0  0  0  0
 16 19  1  0  0  0  0
M  END
> <VConfSearch Rank>
93

> <Conf_Id>
25

> <Delta U+W>
2.065

> <U+W>
-52.826

> <U>
10.967

> <W>
-63.794

> <W(PB)>
-65.830

> <W(SA)>
2.036

> <Valence>
8.609

> <Coulomb>
1.892

> <VdW>
0.467

> <VdW6>
-7.569

> <VdW12>
8.036

> <Bond>
0.170

> <Angle>
3.195

> <Pdih>
5.237

> <Idih>
0.007

> <Tether>
0.000

$$$$
VeraChem MOL file


 19 18  0  0  0  0  0  0  0  0999 V2000     
   19.5202   18.2736   24.7783 C   0  0  0  0  0  0  0  0  0  0  0  0
   20.5402   18.1879   25.4335 O   0  5  0  0  0  0  0  0  0  0  0  0
   18.7344   17.3570   24.6399 O   0  0  0  0  0  0  0  0  0  0  0  0
   19.1704   19.6229   24.1534 C   0  0  0  0  0  0  0  0  0  0  0  0
   19.0337   20.3222   24.9864 H   0  0  0  0  0  0  0  0  0  0  0  0
   18.1995   19.5418   23.6496 H   0  0  0  0  0  0  0  0  0  0  0  0
   20.2358   20.1997   23.1791 C   0  0  0  0  0  0  0  0  0  0  0  0
   20.0649   21.2812   23.0920 H   0  0  0  0  0  0  0  0  0  0  0  0
   21.2395   20.0863   23.6117 H   0  0  0  0  0  0  0  0  0  0  0  0
   20.2021   19.6008   21.7511 C   0  0  0  0  0  0  0  0  0  0  0  0
   20.8822   20.1872   21.1182 H   0  0  0  0  0  0  0  0  0  0  0  0
   19.1984   19.7240   21.3220 H   0  0  0  0  0  0  0  0  0  0  0  0
   20.6179   18.1150   21.6812 C   0  0  0  0  0  0  0  0  0  0  0  0
   21.5760   17.9715   22.1996 H   0  0  0  0  0  0  0  0  0  0  0  0
   19.8767   17.4917   22.1976 H   0  0  0  0  0  0  0  0  0  0  0  0
   20.7449   17.6314   20.2225 C   0  0  0  0  0  0  0  0  0  0  0  0
   21.0323   16.5724   20.1904 H   0  0  0  0  0  0  0  0  0  0  0  0
   19.7917   17.7404   19.6888 H   0  0  0  0  0  0  0  0  0  0  0  0
   21.5086   18.2061   19.6823 H   0  0  0  0  0  0  0  0  0  0  0  0
  1  2  1  0  0  0  0
  1  3  2  0  0  0  0
  1  4  1  0  0  0  0
  4  5  1  0  0  0  0
  4  6  1  0  0  0  0
  4  7  1  0  0  0  0
  7  8  1  0  0  0  0
  7  9  1  0  0  0  0
  7 10  1  0  0  0  0
 10 11  1  0  0  0  0
 10 12  1  0  0  0  0
 10 13  1  0  0  0  0
 13 14  1  0  0  0  0
 13 15  1  0  0  0  0
 13 16  1  0  0  0  0
 16 17  1  0  0  0  0
 16 18  1  0  0  0  0
 16 19  1  0  0  0  0
M  END
> <VConfSearch Rank>
94

> <Conf_Id>
52

> <Delta U+W>
2.070

> <U+W>
-52.822

> <U>
10.967

> <W>
-63.789

> <W(PB)>
-65.837

> <W(SA)>
2.048

> <Valence>
8.609

> <Coulomb>
1.892

> <VdW>
0.467

> <VdW6>
-7.569

> <VdW12>
8.035

> <Bond>
0.170

> <Angle>
3.196

> <Pdih>
5.237

> <Idih>
0.007

> <Tether>
0.000

$$$$
VeraChem MOL file


 19 18  0  0  0  0  0  0  0  0999 V2000     
   21.9751   18.6719   22.5096 C   0  0  0  0  0  0  0  0  0  0  0  0
   22.2398   18.0045   21.5285 O   0  5  0  0  0  0  0  0  0  0  0  0
   22.4877   19.7496   22.7389 O   0  0  0  0  0  0  0  0  0  0  0  0
   21.0504   18.0786   23.5737 C   0  0  0  0  0  0  0  0  0  0  0  0
   20.7985   18.8578   24.3030 H   0  0  0  0  0  0  0  0  0  0  0  0
   21.6461   17.3306   24.1092 H   0  0  0  0  0  0  0  0  0  0  0  0
   19.7549   17.4016   23.0419 C   0  0  0  0  0  0  0  0  0  0  0  0
   19.9788   16.8217   22.1359 H   0  0  0  0  0  0  0  0  0  0  0  0
   19.4262   16.6681   23.7905 H   0  0  0  0  0  0  0  0  0  0  0  0
   18.5655   18.3594   22.7751 C   0  0  0  0  0  0  0  0  0  0  0  0
   18.2754   18.8659   23.7058 H   0  0  0  0  0  0  0  0  0  0  0  0
   17.7019   17.7415   22.4933 H   0  0  0  0  0  0  0  0  0  0  0  0
   18.7998   19.3957   21.6494 C   0  0  0  0  0  0  0  0  0  0  0  0
   19.5870   19.0490   20.9657 H   0  0  0  0  0  0  0  0  0  0  0  0
   17.8858   19.4756   21.0450 H   0  0  0  0  0  0  0  0  0  0  0  0
   19.1405   20.8003   22.1919 C   0  0  0  0  0  0  0  0  0  0  0  0
   18.3148   21.1972   22.7964 H   0  0  0  0  0  0  0  0  0  0  0  0
   20.0401   20.7818   22.8181 H   0  0  0  0  0  0  0  0  0  0  0  0
   19.3205   21.4993   21.3651 H   0  0  0  0  0  0  0  0  0  0  0  0
  1  2  1  0  0  0  0
  1  3  2  0  0  0  0
  1  4  1  0  0  0  0
  4  5  1  0  0  0  0
  4  6  1  0  0  0  0
  4  7  1  0  0  0  0
  7  8  1  0  0  0  0
  7  9  1  0  0  0  0
  7 10  1  0  0  0  0
 10 11  1  0  0  0  0
 10 12  1  0  0  0  0
 10 13  1  0  0  0  0
 13 14  1  0  0  0  0
 13 15  1  0  0  0  0
 13 16  1  0  0  0  0
 16 17  1  0  0  0  0
 16 18  1  0  0  0  0
 16 19  1  0  0  0  0
M  END
> <VConfSearch Rank>
95

> <Conf_Id>
66

> <Delta U+W>
5.819

> <U+W>
-49.072

> <U>
15.324

> <W>
-64.396

> <W(PB)>
-66.382

> <W(SA)>
1.986

> <Valence>
11.748

> <Coulomb>
3.201

> <VdW>
0.375

> <VdW6>
-8.854

> <VdW12>
9.229

> <Bond>
0.216

> <Angle>
3.812

> <Pdih>
7.699

> <Idih>
0.022

> <Tether>
0.000

$$$$
VeraChem MOL file


 19 18  0  0  0  0  0  0  0  0999 V2000     
   16.9791   20.5372   21.9452 C   0  0  0  0  0  0  0  0  0  0  0  0
   16.2262   21.0496   21.1413 O   0  5  0  0  0  0  0  0  0  0  0  0
   16.7489   20.4982   23.1384 O   0  0  0  0  0  0  0  0  0  0  0  0
   18.2688   19.9214   21.4000 C   0  0  0  0  0  0  0  0  0  0  0  0
   18.8086   20.7123   20.8659 H   0  0  0  0  0  0  0  0  0  0  0  0
   17.9828   19.1691   20.6556 H   0  0  0  0  0  0  0  0  0  0  0  0
   19.1982   19.2790   22.4640 C   0  0  0  0  0  0  0  0  0  0  0  0
   19.4763   20.0365   23.2099 H   0  0  0  0  0  0  0  0  0  0  0  0
   18.6496   18.4917   22.9994 H   0  0  0  0  0  0  0  0  0  0  0  0
   20.4731   18.6835   21.8281 C   0  0  0  0  0  0  0  0  0  0  0  0
   21.0198   19.4722   21.2933 H   0  0  0  0  0  0  0  0  0  0  0  0
   20.1928   17.9266   21.0827 H   0  0  0  0  0  0  0  0  0  0  0  0
   21.3956   18.0454   22.8875 C   0  0  0  0  0  0  0  0  0  0  0  0
   21.6798   18.7999   23.6341 H   0  0  0  0  0  0  0  0  0  0  0  0
   20.8529   17.2544   23.4234 H   0  0  0  0  0  0  0  0  0  0  0  0
   22.6674   17.4520   22.2492 C   0  0  0  0  0  0  0  0  0  0  0  0
   23.2466   18.2285   21.7325 H   0  0  0  0  0  0  0  0  0  0  0  0
   23.3116   17.0027   23.0162 H   0  0  0  0  0  0  0  0  0  0  0  0
   22.4134   16.6713   21.5202 H   0  0  0  0  0  0  0  0  0  0  0  0
  1  2  1  0  0  0  0
  1  3  2  0  0  0  0
  1  4  1  0  0  0  0
  4  5  1  0  0  0  0
  4  6  1  0  0  0  0
  4  7  1  0  0  0  0
  7  8  1  0  0  0  0
  7  9  1  0  0  0  0
  7 10  1  0  0  0  0
 10 11  1  0  0  0  0
 10 12  1  0  0  0  0
 10 13  1  0  0  0  0
 13 14  1  0  0  0  0
 13 15  1  0  0  0  0
 13 16  1  0  0  0  0
 16 17  1  0  0  0  0
 16 18  1  0  0  0  0
 16 19  1  0  0  0  0
M  END
> <VConfSearch Rank>
96

> <Conf_Id>
0

> <Delta U+W>
0.000

> <U+W>
-54.891

> <U>
6.966

> <W>
-61.857

> <W(PB)>
-63.965

> <W(SA)>
2.108

> <Valence>
7.175

> <Coulomb>
-1.360

> <VdW>
1.151

> <VdW6>
-5.641

> <VdW12>
6.792

> <Bond>
0.119

> <Angle>
2.715

> <Pdih>
4.340

> <Idih>
0.000

> <Tether>
0.000

$$$$
VeraChem MOL file


 19 18  0  0  0  0  0  0  0  0999 V2000     
   16.6610   18.1045   21.7263 C   0  0  0  0  0  0  0  0  0  0  0  0
   16.2473   18.2026   20.5882 O   0  5  0  0  0  0  0  0  0  0  0  0
   16.2281   17.3054   22.5327 O   0  0  0  0  0  0  0  0  0  0  0  0
   17.7998   19.0206   22.1603 C   0  0  0  0  0  0  0  0  0  0  0  0
   17.6777   19.2333   23.2292 H   0  0  0  0  0  0  0  0  0  0  0  0
   17.6938   19.9726   21.6263 H   0  0  0  0  0  0  0  0  0  0  0  0
   19.1981   18.4110   21.8932 C   0  0  0  0  0  0  0  0  0  0  0  0
   19.2836   17.4528   22.4242 H   0  0  0  0  0  0  0  0  0  0  0  0
   19.2996   18.1920   20.8211 H   0  0  0  0  0  0  0  0  0  0  0  0
   20.3327   19.3575   22.3409 C   0  0  0  0  0  0  0  0  0  0  0  0
   20.2276   19.5756   23.4127 H   0  0  0  0  0  0  0  0  0  0  0  0
   20.2437   20.3149   21.8093 H   0  0  0  0  0  0  0  0  0  0  0  0
   21.7244   18.7476   22.0737 C   0  0  0  0  0  0  0  0  0  0  0  0
   21.8180   17.7906   22.6055 H   0  0  0  0  0  0  0  0  0  0  0  0
   21.8342   18.5298   21.0023 H   0  0  0  0  0  0  0  0  0  0  0  0
   22.8549   19.6953   22.5221 C   0  0  0  0  0  0  0  0  0  0  0  0
   23.8370   19.2462   22.3249 H   0  0  0  0  0  0  0  0  0  0  0  0
   22.8042   20.6501   21.9824 H   0  0  0  0  0  0  0  0  0  0  0  0
   22.7880   19.9053   23.5976 H   0  0  0  0  0  0  0  0  0  0  0  0
  1  2  1  0  0  0  0
  1  3  2  0  0  0  0
  1  4  1  0  0  0  0
  4  5  1  0  0  0  0
  4  6  1  0  0  0  0
  4  7  1  0  0  0  0
  7  8  1  0  0  0  0
  7  9  1  0  0  0  0
  7 10  1  0  0  0  0
 10 11  1  0  0  0  0
 10 12  1  0  0  0  0
 10 13  1  0  0  0  0
 13 14  1  0  0  0  0
 13 15  1  0  0  0  0
 13 16  1  0  0  0  0
 16 17  1  0  0  0  0
 16 18  1  0  0  0  0
 16 19  1  0  0  0  0
M  END
> <VConfSearch Rank>
97

> <Conf_Id>
18

> <Delta U+W>
-1.199

> <U+W>
-56.090

> <U>
5.975

> <W>
-62.066

> <W(PB)>
-64.219

> <W(SA)>
2.153

> <Valence>
6.673

> <Coulomb>
-1.307

> <VdW>
0.610

> <VdW6>
-5.351

> <VdW12>
5.961

> <Bond>
0.086

> <Angle>
2.253

> <Pdih>
4.333

> <Idih>
0.001

> <Tether>
0.000

$$$$
VeraChem MOL file


 19 18  0  0  0  0  0  0  0  0999 V2000     
   20.8368   21.0032   24.4788 C   0  0  0  0  0  0  0  0  0  0  0  0
   21.7731   20.8278   25.2329 O   0  5  0  0  0  0  0  0  0  0  0  0
   20.3243   22.0876   24.2842 O   0  0  0  0  0  0  0  0  0  0  0  0
   20.2888   19.8004   23.7190 C   0  0  0  0  0  0  0  0  0  0  0  0
   19.2120   19.9534   23.5845 H   0  0  0  0  0  0  0  0  0  0  0  0
   20.4153   18.9127   24.3502 H   0  0  0  0  0  0  0  0  0  0  0  0
   20.9857   19.5869   22.3500 C   0  0  0  0  0  0  0  0  0  0  0  0
   20.8146   20.4637   21.7104 H   0  0  0  0  0  0  0  0  0  0  0  0
   22.0709   19.5285   22.5124 H   0  0  0  0  0  0  0  0  0  0  0  0
   20.5248   18.3057   21.6153 C   0  0  0  0  0  0  0  0  0  0  0  0
   20.7051   17.4301   22.2540 H   0  0  0  0  0  0  0  0  0  0  0  0
   21.1498   18.1724   20.7217 H   0  0  0  0  0  0  0  0  0  0  0  0
   19.0402   18.3424   21.1887 C   0  0  0  0  0  0  0  0  0  0  0  0
   18.3931   18.3990   22.0738 H   0  0  0  0  0  0  0  0  0  0  0  0
   18.8481   19.2450   20.5922 H   0  0  0  0  0  0  0  0  0  0  0  0
   18.6576   17.0951   20.3671 C   0  0  0  0  0  0  0  0  0  0  0  0
   17.6003   17.1343   20.0742 H   0  0  0  0  0  0  0  0  0  0  0  0
   19.2602   17.0268   19.4520 H   0  0  0  0  0  0  0  0  0  0  0  0
   18.8140   16.1780   20.9501 H   0  0  0  0  0  0  0  0  0  0  0  0
  1  2  1  0  0  0  0
  1  3  2  0  0  0  0
  1  4  1  0  0  0  0
  4  5  1  0  0  0  0
  4  6  1  0  0  0  0
  4  7  1  0  0  0  0
  7  8  1  0  0  0  0
  7  9  1  0  0  0  0
  7 10  1  0  0  0  0
 10 11  1  0  0  0  0
 10 12  1  0  0  0  0
 10 13  1  0  0  0  0
 13 14  1  0  0  0  0
 13 15  1  0  0  0  0
 13 16  1  0  0  0  0
 16 17  1  0  0  0  0
 16 18  1  0  0  0  0
 16 19  1  0  0  0  0
M  END
> <VConfSearch Rank>
98

> <Conf_Id>
34

> <Delta U+W>
-0.563

> <U+W>
-55.455

> <U>
6.914

> <W>
-62.369

> <W(PB)>
-64.446

> <W(SA)>
2.077

> <Valence>
7.196

> <Coulomb>
-1.020

> <VdW>
0.738

> <VdW6>
-6.010

> <VdW12>
6.748

> <Bond>
0.126

> <Angle>
2.499

> <Pdih>
4.570

> <Idih>
0.001

> <Tether>
0.000

$$$$
VeraChem MOL file


 19 18  0  0  0  0  0  0  0  0999 V2000     
   19.8283   16.1428   23.7915 C   0  0  0  0  0  0  0  0  0  0  0  0
   18.8251   15.4615   23.8675 O   0  5  0  0  0  0  0  0  0  0  0  0
   20.7723   16.0363   24.5490 O   0  0  0  0  0  0  0  0  0  0  0  0
   19.8969   17.2044   22.6994 C   0  0  0  0  0  0  0  0  0  0  0  0
   19.3314   16.8392   21.8338 H   0  0  0  0  0  0  0  0  0  0  0  0
   20.9439   17.2961   22.3890 H   0  0  0  0  0  0  0  0  0  0  0  0
   19.3413   18.5769   23.1607 C   0  0  0  0  0  0  0  0  0  0  0  0
   18.3238   18.4324   23.5497 H   0  0  0  0  0  0  0  0  0  0  0  0
   19.9433   18.9534   23.9992 H   0  0  0  0  0  0  0  0  0  0  0  0
   19.2953   19.6353   22.0333 C   0  0  0  0  0  0  0  0  0  0  0  0
   18.7826   20.5290   22.4148 H   0  0  0  0  0  0  0  0  0  0  0  0
   18.6857   19.2594   21.2001 H   0  0  0  0  0  0  0  0  0  0  0  0
   20.6929   20.0415   21.5144 C   0  0  0  0  0  0  0  0  0  0  0  0
   21.3196   20.3694   22.3552 H   0  0  0  0  0  0  0  0  0  0  0  0
   21.1937   19.1771   21.0589 H   0  0  0  0  0  0  0  0  0  0  0  0
   20.6013   21.1740   20.4722 C   0  0  0  0  0  0  0  0  0  0  0  0
   20.0019   20.8631   19.6064 H   0  0  0  0  0  0  0  0  0  0  0  0
   20.1390   22.0707   20.9053 H   0  0  0  0  0  0  0  0  0  0  0  0
   21.6009   21.4491   20.1112 H   0  0  0  0  0  0  0  0  0  0  0  0
  1  2  1  0  0  0  0
  1  3  2  0  0  0  0
  1  4  1  0  0  0  0
  4  5  1  0  0  0  0
  4  6  1  0  0  0  0
  4  7  1  0  0  0  0
  7  8  1  0  0  0  0
  7  9  1  0  0  0  0
  7 10  1  0  0  0  0
 10 11  1  0  0  0  0
 10 12  1  0  0  0  0
 10 13  1  0  0  0  0
 13 14  1  0  0  0  0
 13 15  1  0  0  0  0
 13 16  1  0  0  0  0
 16 17  1  0  0  0  0
 16 18  1  0  0  0  0
 16 19  1  0  0  0  0
M  END
> <VConfSearch Rank>
99

> <Conf_Id>
33

> <Delta U+W>
-0.526

> <U+W>
-55.418

> <U>
6.914

> <W>
-62.332

> <W(PB)>
-64.421

> <W(SA)>
2.090

> <Valence>
7.196

> <Coulomb>
-1.020

> <VdW>
0.738

> <VdW6>
-6.010

> <VdW12>
6.748

> <Bond>
0.126

> <Angle>
2.499

> <Pdih>
4.570

> <Idih>
0.001

> <Tether>
0.000

$$$$
VeraChem MOL file


 19 18  0  0  0  0  0  0  0  0999 V2000     
   17.8552   21.3467   22.5896 C   0  0  0  0  0  0  0  0  0  0  0  0
   17.6839   21.9028   21.5230 O   0  5  0  0  0  0  0  0  0  0  0  0
   16.9837   21.2122   23.4255 O   0  0  0  0  0  0  0  0  0  0  0  0
   19.2348   20.7705   22.8884 C   0  0  0  0  0  0  0  0  0  0  0  0
   19.4074   20.8429   23.9689 H   0  0  0  0  0  0  0  0  0  0  0  0
   19.9828   21.4045   22.3973 H   0  0  0  0  0  0  0  0  0  0  0  0
   19.3887   19.3026   22.4193 C   0  0  0  0  0  0  0  0  0  0  0  0
   18.6273   18.6825   22.9122 H   0  0  0  0  0  0  0  0  0  0  0  0
   19.1934   19.2521   21.3400 H   0  0  0  0  0  0  0  0  0  0  0  0
   20.7969   18.7456   22.7315 C   0  0  0  0  0  0  0  0  0  0  0  0
   21.0013   18.8706   23.8037 H   0  0  0  0  0  0  0  0  0  0  0  0
   21.5552   19.3360   22.1991 H   0  0  0  0  0  0  0  0  0  0  0  0
   20.9594   17.2507   22.3719 C   0  0  0  0  0  0  0  0  0  0  0  0
   21.9390   16.9061   22.7311 H   0  0  0  0  0  0  0  0  0  0  0  0
   20.2060   16.6561   22.9070 H   0  0  0  0  0  0  0  0  0  0  0  0
   20.8601   16.9726   20.8564 C   0  0  0  0  0  0  0  0  0  0  0  0
   21.5850   17.5785   20.2974 H   0  0  0  0  0  0  0  0  0  0  0  0
   21.0693   15.9158   20.6458 H   0  0  0  0  0  0  0  0  0  0  0  0
   19.8565   17.1950   20.4730 H   0  0  0  0  0  0  0  0  0  0  0  0
  1  2  1  0  0  0  0
  1  3  2  0  0  0  0
  1  4  1  0  0  0  0
  4  5  1  0  0  0  0
  4  6  1  0  0  0  0
  4  7  1  0  0  0  0
  7  8  1  0  0  0  0
  7  9  1  0  0  0  0
  7 10  1  0  0  0  0
 10 11  1  0  0  0  0
 10 12  1  0  0  0  0
 10 13  1  0  0  0  0
 13 14  1  0  0  0  0
 13 15  1  0  0  0  0
 13 16  1  0  0  0  0
 16 17  1  0  0  0  0
 16 18  1  0  0  0  0
 16 19  1  0  0  0  0
M  END
> <VConfSearch Rank>
100

> <Conf_Id>
42

> <Delta U+W>
-0.344

> <U+W>
-55.236

> <U>
7.244

> <W>
-62.479

> <W(PB)>
-64.610

> <W(SA)>
2.130

> <Valence>
7.174

> <Coulomb>
-0.669

> <VdW>
0.739

> <VdW6>
-5.969

> <VdW12>
6.708

> <Bond>
0.116

> <Angle>
2.481

> <Pdih>
4.576

> <Idih>
0.000

> <Tether>
0.000

$$$$
VeraChem MOL file


 19 18  0  0  0  0  0  0  0  0999 V2000     
   20.2343   21.7698   20.8180 C   0  0  0  0  0  0  0  0  0  0  0  0
   21.2364   22.3518   21.1829 O   0  5  0  0  0  0  0  0  0  0  0  0
   19.1858   22.3294   20.5654 O   0  0  0  0  0  0  0  0  0  0  0  0
   20.2901   20.2518   20.6872 C   0  0  0  0  0  0  0  0  0  0  0  0
   21.3078   19.9724   20.3890 H   0  0  0  0  0  0  0  0  0  0  0  0
   19.6202   19.9554   19.8711 H   0  0  0  0  0  0  0  0  0  0  0  0
   19.8973   19.5199   21.9943 C   0  0  0  0  0  0  0  0  0  0  0  0
   20.5686   19.8460   22.7997 H   0  0  0  0  0  0  0  0  0  0  0  0
   18.8802   19.8170   22.2848 H   0  0  0  0  0  0  0  0  0  0  0  0
   19.9662   17.9836   21.8341 C   0  0  0  0  0  0  0  0  0  0  0  0
   20.9945   17.6821   21.5919 H   0  0  0  0  0  0  0  0  0  0  0  0
   19.3445   17.6850   20.9789 H   0  0  0  0  0  0  0  0  0  0  0  0
   19.4829   17.2137   23.0848 C   0  0  0  0  0  0  0  0  0  0  0  0
   18.4525   17.5085   23.3270 H   0  0  0  0  0  0  0  0  0  0  0  0
   19.4513   16.1412   22.8483 H   0  0  0  0  0  0  0  0  0  0  0  0
   20.3869   17.4238   24.3187 C   0  0  0  0  0  0  0  0  0  0  0  0
   20.3594   18.4651   24.6631 H   0  0  0  0  0  0  0  0  0  0  0  0
   20.0537   16.7900   25.1508 H   0  0  0  0  0  0  0  0  0  0  0  0
   21.4288   17.1630   24.0915 H   0  0  0  0  0  0  0  0  0  0  0  0
  1  2  1  0  0  0  0
  1  3  2  0  0  0  0
  1  4  1  0  0  0  0
  4  5  1  0  0  0  0
  4  6  1  0  0  0  0
  4  7  1  0  0  0  0
  7  8  1  0  0  0  0
  7  9  1  0  0  0  0
  7 10  1  0  0  0  0
 10 11  1  0  0  0  0
 10 12  1  0  0  0  0
 10 13  1  0  0  0  0
 13 14  1  0  0  0  0
 13 15  1  0  0  0  0
 13 16  1  0  0  0  0
 16 17  1  0  0  0  0
 16 18  1  0  0  0  0
 16 19  1  0  0  0  0
M  END
> <VConfSearch Rank>
101

> <Conf_Id>
41

> <Delta U+W>
-0.361

> <U+W>
-55.252

> <U>
7.244

> <W>
-62.496

> <W(PB)>
-64.596

> <W(SA)>
2.099

> <Valence>
7.174

> <Coulomb>
-0.669

> <VdW>
0.739

> <VdW6>
-5.969

> <VdW12>
6.708

> <Bond>
0.116

> <Angle>
2.481

> <Pdih>
4.576

> <Idih>
0.000

> <Tether>
0.000

$$$$
VeraChem MOL file


 19 18  0  0  0  0  0  0  0  0999 V2000     
   20.4556   19.3663   19.5746 C   0  0  0  0  0  0  0  0  0  0  0  0
   20.1809   20.5443   19.4592 O   0  5  0  0  0  0  0  0  0  0  0  0
   21.5139   18.8854   19.2206 O   0  0  0  0  0  0  0  0  0  0  0  0
   19.4075   18.4342   20.1764 C   0  0  0  0  0  0  0  0  0  0  0  0
   19.3514   17.5465   19.5355 H   0  0  0  0  0  0  0  0  0  0  0  0
   18.4288   18.9265   20.1231 H   0  0  0  0  0  0  0  0  0  0  0  0
   19.7101   18.0015   21.6346 C   0  0  0  0  0  0  0  0  0  0  0  0
   18.9873   17.2307   21.9347 H   0  0  0  0  0  0  0  0  0  0  0  0
   20.7047   17.5362   21.6772 H   0  0  0  0  0  0  0  0  0  0  0  0
   19.6406   19.1804   22.6309 C   0  0  0  0  0  0  0  0  0  0  0  0
   18.6490   19.6501   22.5753 H   0  0  0  0  0  0  0  0  0  0  0  0
   20.3731   19.9487   22.3472 H   0  0  0  0  0  0  0  0  0  0  0  0
   19.9136   18.7216   24.0786 C   0  0  0  0  0  0  0  0  0  0  0  0
   19.1811   17.9559   24.3694 H   0  0  0  0  0  0  0  0  0  0  0  0
   20.9059   18.2534   24.1376 H   0  0  0  0  0  0  0  0  0  0  0  0
   19.8434   19.9000   25.0702 C   0  0  0  0  0  0  0  0  0  0  0  0
   18.8503   20.3678   25.0546 H   0  0  0  0  0  0  0  0  0  0  0  0
   20.0403   19.5564   26.0941 H   0  0  0  0  0  0  0  0  0  0  0  0
   20.5879   20.6676   24.8211 H   0  0  0  0  0  0  0  0  0  0  0  0
  1  2  1  0  0  0  0
  1  3  2  0  0  0  0
  1  4  1  0  0  0  0
  4  5  1  0  0  0  0
  4  6  1  0  0  0  0
  4  7  1  0  0  0  0
  7  8  1  0  0  0  0
  7  9  1  0  0  0  0
  7 10  1  0  0  0  0
 10 11  1  0  0  0  0
 10 12  1  0  0  0  0
 10 13  1  0  0  0  0
 13 14  1  0  0  0  0
 13 15  1  0  0  0  0
 13 16  1  0  0  0  0
 16 17  1  0  0  0  0
 16 18  1  0  0  0  0
 16 19  1  0  0  0  0
M  END
> <VConfSearch Rank>
102

> <Conf_Id>
36

> <Delta U+W>
-0.079

> <U+W>
-54.971

> <U>
8.266

> <W>
-63.237

> <W(PB)>
-65.340

> <W(SA)>
2.103

> <Valence>
6.935

> <Coulomb>
0.874

> <VdW>
0.457

> <VdW6>
-6.205

> <VdW12>
6.662

> <Bond>
0.107

> <Angle>
2.420

> <Pdih>
4.407

> <Idih>
0.001

> <Tether>
0.000

$$$$
VeraChem MOL file


 19 18  0  0  0  0  0  0  0  0999 V2000     
   19.4155   21.2525   23.8903 C   0  0  0  0  0  0  0  0  0  0  0  0
   19.7372   20.8692   24.9976 O   0  5  0  0  0  0  0  0  0  0  0  0
   18.3227   21.7168   23.6313 O   0  0  0  0  0  0  0  0  0  0  0  0
   20.4453   21.1670   22.7672 C   0  0  0  0  0  0  0  0  0  0  0  0
   21.4418   21.0605   23.2128 H   0  0  0  0  0  0  0  0  0  0  0  0
   20.4350   22.1278   22.2390 H   0  0  0  0  0  0  0  0  0  0  0  0
   20.1850   20.0188   21.7578 C   0  0  0  0  0  0  0  0  0  0  0  0
   19.1732   20.1226   21.3415 H   0  0  0  0  0  0  0  0  0  0  0  0
   20.8847   20.1182   20.9169 H   0  0  0  0  0  0  0  0  0  0  0  0
   20.3484   18.6201   22.3936 C   0  0  0  0  0  0  0  0  0  0  0  0
   19.6395   18.5064   23.2255 H   0  0  0  0  0  0  0  0  0  0  0  0
   21.3566   18.5260   22.8197 H   0  0  0  0  0  0  0  0  0  0  0  0
   20.1159   17.4942   21.3647 C   0  0  0  0  0  0  0  0  0  0  0  0
   19.1071   17.5845   20.9386 H   0  0  0  0  0  0  0  0  0  0  0  0
   20.8252   17.6003   20.5321 H   0  0  0  0  0  0  0  0  0  0  0  0
   20.2797   16.1000   22.0022 C   0  0  0  0  0  0  0  0  0  0  0  0
   19.5603   15.9547   22.8188 H   0  0  0  0  0  0  0  0  0  0  0  0
   20.1106   15.3116   21.2572 H   0  0  0  0  0  0  0  0  0  0  0  0
   21.2911   15.9706   22.4092 H   0  0  0  0  0  0  0  0  0  0  0  0
  1  2  1  0  0  0  0
  1  3  2  0  0  0  0
  1  4  1  0  0  0  0
  4  5  1  0  0  0  0
  4  6  1  0  0  0  0
  4  7  1  0  0  0  0
  7  8  1  0  0  0  0
  7  9  1  0  0  0  0
  7 10  1  0  0  0  0
 10 11  1  0  0  0  0
 10 12  1  0  0  0  0
 10 13  1  0  0  0  0
 13 14  1  0  0  0  0
 13 15  1  0  0  0  0
 13 16  1  0  0  0  0
 16 17  1  0  0  0  0
 16 18  1  0  0  0  0
 16 19  1  0  0  0  0
M  END
> <VConfSearch Rank>
103

> <Conf_Id>
35

> <Delta U+W>
-0.030

> <U+W>
-54.921

> <U>
8.267

> <W>
-63.188

> <W(PB)>
-65.294

> <W(SA)>
2.106

> <Valence>
6.935

> <Coulomb>
0.875

> <VdW>
0.457

> <VdW6>
-6.205

> <VdW12>
6.662

> <Bond>
0.107

> <Angle>
2.420

> <Pdih>
4.407

> <Idih>
0.001

> <Tether>
0.000

$$$$
VeraChem MOL file


 19 18  0  0  0  0  0  0  0  0999 V2000     
   20.1876   17.8912   25.0604 C   0  0  0  0  0  0  0  0  0  0  0  0
   20.7027   16.7950   25.1581 O   0  5  0  0  0  0  0  0  0  0  0  0
   19.1341   18.1878   25.5886 O   0  0  0  0  0  0  0  0  0  0  0  0
   20.9156   18.9585   24.2478 C   0  0  0  0  0  0  0  0  0  0  0  0
   21.9695   18.9370   24.5493 H   0  0  0  0  0  0  0  0  0  0  0  0
   20.5245   19.9431   24.5316 H   0  0  0  0  0  0  0  0  0  0  0  0
   20.8132   18.7646   22.7123 C   0  0  0  0  0  0  0  0  0  0  0  0
   21.4876   19.4805   22.2253 H   0  0  0  0  0  0  0  0  0  0  0  0
   21.1714   17.7602   22.4477 H   0  0  0  0  0  0  0  0  0  0  0  0
   19.3728   18.9643   22.1832 C   0  0  0  0  0  0  0  0  0  0  0  0
   19.0308   19.9822   22.4152 H   0  0  0  0  0  0  0  0  0  0  0  0
   18.6953   18.2816   22.7143 H   0  0  0  0  0  0  0  0  0  0  0  0
   19.2346   18.7049   20.6652 C   0  0  0  0  0  0  0  0  0  0  0  0
   19.5740   17.6865   20.4304 H   0  0  0  0  0  0  0  0  0  0  0  0
   18.1700   18.7466   20.3965 H   0  0  0  0  0  0  0  0  0  0  0  0
   20.0056   19.7229   19.7974 C   0  0  0  0  0  0  0  0  0  0  0  0
   21.0893   19.6367   19.9455 H   0  0  0  0  0  0  0  0  0  0  0  0
   19.8016   19.5514   18.7326 H   0  0  0  0  0  0  0  0  0  0  0  0
   19.7052   20.7511   20.0376 H   0  0  0  0  0  0  0  0  0  0  0  0
  1  2  1  0  0  0  0
  1  3  2  0  0  0  0
  1  4  1  0  0  0  0
  4  5  1  0  0  0  0
  4  6  1  0  0  0  0
  4  7  1  0  0  0  0
  7  8  1  0  0  0  0
  7  9  1  0  0  0  0
  7 10  1  0  0  0  0
 10 11  1  0  0  0  0
 10 12  1  0  0  0  0
 10 13  1  0  0  0  0
 13 14  1  0  0  0  0
 13 15  1  0  0  0  0
 13 16  1  0  0  0  0
 16 17  1  0  0  0  0
 16 18  1  0  0  0  0
 16 19  1  0  0  0  0
M  END
> <VConfSearch Rank>
104

> <Conf_Id>
74

> <Delta U+W>
0.797

> <U+W>
-54.095

> <U>
8.869

> <W>
-62.964

> <W(PB)>
-65.046

> <W(SA)>
2.082

> <Valence>
7.469

> <Coulomb>
0.762

> <VdW>
0.639

> <VdW6>
-6.782

> <VdW12>
7.421

> <Bond>
0.141

> <Angle>
2.667

> <Pdih>
4.660

> <Idih>
0.001

> <Tether>
0.000

$$$$
VeraChem MOL file


 19 18  0  0  0  0  0  0  0  0999 V2000     
   21.3870   16.3741   22.0189 C   0  0  0  0  0  0  0  0  0  0  0  0
   22.2742   16.0655   21.2482 O   0  5  0  0  0  0  0  0  0  0  0  0
   21.1864   15.8072   23.0747 O   0  0  0  0  0  0  0  0  0  0  0  0
   20.4885   17.5489   21.6491 C   0  0  0  0  0  0  0  0  0  0  0  0
   19.4925   17.3499   22.0608 H   0  0  0  0  0  0  0  0  0  0  0  0
   20.3912   17.5735   20.5571 H   0  0  0  0  0  0  0  0  0  0  0  0
   21.0299   18.9060   22.1685 C   0  0  0  0  0  0  0  0  0  0  0  0
   21.0869   18.8832   23.2649 H   0  0  0  0  0  0  0  0  0  0  0  0
   22.0619   19.0329   21.8134 H   0  0  0  0  0  0  0  0  0  0  0  0
   20.1949   20.1252   21.7025 C   0  0  0  0  0  0  0  0  0  0  0  0
   20.2367   20.1869   20.6065 H   0  0  0  0  0  0  0  0  0  0  0  0
   20.6710   21.0420   22.0760 H   0  0  0  0  0  0  0  0  0  0  0  0
   18.7108   20.1164   22.1445 C   0  0  0  0  0  0  0  0  0  0  0  0
   18.2219   21.0156   21.7452 H   0  0  0  0  0  0  0  0  0  0  0  0
   18.1866   19.2621   21.6961 H   0  0  0  0  0  0  0  0  0  0  0  0
   18.5296   20.0922   23.6774 C   0  0  0  0  0  0  0  0  0  0  0  0
   19.0653   20.9258   24.1496 H   0  0  0  0  0  0  0  0  0  0  0  0
   17.4674   20.1799   23.9401 H   0  0  0  0  0  0  0  0  0  0  0  0
   18.9022   19.1542   24.1082 H   0  0  0  0  0  0  0  0  0  0  0  0
  1  2  1  0  0  0  0
  1  3  2  0  0  0  0
  1  4  1  0  0  0  0
  4  5  1  0  0  0  0
  4  6  1  0  0  0  0
  4  7  1  0  0  0  0
  7  8  1  0  0  0  0
  7  9  1  0  0  0  0
  7 10  1  0  0  0  0
 10 11  1  0  0  0  0
 10 12  1  0  0  0  0
 10 13  1  0  0  0  0
 13 14  1  0  0  0  0
 13 15  1  0  0  0  0
 13 16  1  0  0  0  0
 16 17  1  0  0  0  0
 16 18  1  0  0  0  0
 16 19  1  0  0  0  0
M  END
> <VConfSearch Rank>
105

> <Conf_Id>
67

> <Delta U+W>
0.308

> <U+W>
-54.583

> <U>
8.219

> <W>
-62.802

> <W(PB)>
-64.859

> <W(SA)>
2.057

> <Valence>
7.609

> <Coulomb>
-0.089

> <VdW>
0.699

> <VdW6>
-6.924

> <VdW12>
7.623

> <Bond>
0.163

> <Angle>
2.870

> <Pdih>
4.576

> <Idih>
0.001

> <Tether>
0.000

$$$$
VeraChem MOL file


 19 18  0  0  0  0  0  0  0  0999 V2000     
   17.8045   18.0959   20.5251 C   0  0  0  0  0  0  0  0  0  0  0  0
   17.7829   18.0299   19.3120 O   0  5  0  0  0  0  0  0  0  0  0  0
   16.8068   18.2032   21.2101 O   0  0  0  0  0  0  0  0  0  0  0  0
   19.1590   18.0617   21.2240 C   0  0  0  0  0  0  0  0  0  0  0  0
   19.8336   17.4338   20.6299 H   0  0  0  0  0  0  0  0  0  0  0  0
   19.0223   17.5676   22.1927 H   0  0  0  0  0  0  0  0  0  0  0  0
   19.7718   19.4731   21.4157 C   0  0  0  0  0  0  0  0  0  0  0  0
   19.8107   19.9760   20.4395 H   0  0  0  0  0  0  0  0  0  0  0  0
   19.1062   20.0804   22.0434 H   0  0  0  0  0  0  0  0  0  0  0  0
   21.1999   19.4519   22.0163 C   0  0  0  0  0  0  0  0  0  0  0  0
   21.5726   20.4835   22.0759 H   0  0  0  0  0  0  0  0  0  0  0  0
   21.8701   18.9272   21.3219 H   0  0  0  0  0  0  0  0  0  0  0  0
   21.3183   18.7957   23.4139 C   0  0  0  0  0  0  0  0  0  0  0  0
   21.0497   17.7325   23.3578 H   0  0  0  0  0  0  0  0  0  0  0  0
   22.3711   18.8264   23.7264 H   0  0  0  0  0  0  0  0  0  0  0  0
   20.4604   19.4931   24.4915 C   0  0  0  0  0  0  0  0  0  0  0  0
   19.3891   19.3867   24.2787 H   0  0  0  0  0  0  0  0  0  0  0  0
   20.6490   19.0510   25.4782 H   0  0  0  0  0  0  0  0  0  0  0  0
   20.6962   20.5637   24.5493 H   0  0  0  0  0  0  0  0  0  0  0  0
  1  2  1  0  0  0  0
  1  3  2  0  0  0  0
  1  4  1  0  0  0  0
  4  5  1  0  0  0  0
  4  6  1  0  0  0  0
  4  7  1  0  0  0  0
  7  8  1  0  0  0  0
  7  9  1  0  0  0  0
  7 10  1  0  0  0  0
 10 11  1  0  0  0  0
 10 12  1  0  0  0  0
 10 13  1  0  0  0  0
 13 14  1  0  0  0  0
 13 15  1  0  0  0  0
 13 16  1  0  0  0  0
 16 17  1  0  0  0  0
 16 18  1  0  0  0  0
 16 19  1  0  0  0  0
M  END
> <VConfSearch Rank>
106

> <Conf_Id>
21

> <Delta U+W>
0.319

> <U+W>
-54.572

> <U>
8.220

> <W>
-62.792

> <W(PB)>
-64.830

> <W(SA)>
2.038

> <Valence>
7.609

> <Coulomb>
-0.088

> <VdW>
0.699

> <VdW6>
-6.924

> <VdW12>
7.623

> <Bond>
0.163

> <Angle>
2.870

> <Pdih>
4.576

> <Idih>
0.000

> <Tether>
0.000

$$$$
VeraChem MOL file


 19 18  0  0  0  0  0  0  0  0999 V2000     
   18.4216   20.4307   20.4114 C   0  0  0  0  0  0  0  0  0  0  0  0
   17.2934   20.2503   19.9978 O   0  5  0  0  0  0  0  0  0  0  0  0
   18.9817   21.5087   20.3883 O   0  0  0  0  0  0  0  0  0  0  0  0
   19.1679   19.2431   21.0086 C   0  0  0  0  0  0  0  0  0  0  0  0
   20.2342   19.3787   20.8028 H   0  0  0  0  0  0  0  0  0  0  0  0
   18.8517   18.3405   20.4722 H   0  0  0  0  0  0  0  0  0  0  0  0
   18.9101   19.0747   22.5294 C   0  0  0  0  0  0  0  0  0  0  0  0
   19.1716   19.9993   23.0622 H   0  0  0  0  0  0  0  0  0  0  0  0
   17.8302   18.9329   22.6751 H   0  0  0  0  0  0  0  0  0  0  0  0
   19.6566   17.8674   23.1517 C   0  0  0  0  0  0  0  0  0  0  0  0
   19.7913   17.0755   22.4023 H   0  0  0  0  0  0  0  0  0  0  0  0
   19.0151   17.4346   23.9315 H   0  0  0  0  0  0  0  0  0  0  0  0
   21.0153   18.2159   23.8077 C   0  0  0  0  0  0  0  0  0  0  0  0
   20.8581   18.9430   24.6163 H   0  0  0  0  0  0  0  0  0  0  0  0
   21.4150   17.3097   24.2832 H   0  0  0  0  0  0  0  0  0  0  0  0
   22.0705   18.7642   22.8251 C   0  0  0  0  0  0  0  0  0  0  0  0
   23.0430   18.8656   23.3240 H   0  0  0  0  0  0  0  0  0  0  0  0
   22.1983   18.0912   21.9674 H   0  0  0  0  0  0  0  0  0  0  0  0
   21.7862   19.7563   22.4525 H   0  0  0  0  0  0  0  0  0  0  0  0
  1  2  1  0  0  0  0
  1  3  2  0  0  0  0
  1  4  1  0  0  0  0
  4  5  1  0  0  0  0
  4  6  1  0  0  0  0
  4  7  1  0  0  0  0
  7  8  1  0  0  0  0
  7  9  1  0  0  0  0
  7 10  1  0  0  0  0
 10 11  1  0  0  0  0
 10 12  1  0  0  0  0
 10 13  1  0  0  0  0
 13 14  1  0  0  0  0
 13 15  1  0  0  0  0
 13 16  1  0  0  0  0
 16 17  1  0  0  0  0
 16 18  1  0  0  0  0
 16 19  1  0  0  0  0
M  END
> <VConfSearch Rank>
107

> <Conf_Id>
24

> <Delta U+W>
2.477

> <U+W>
-52.414

> <U>
10.422

> <W>
-62.836

> <W(PB)>
-64.906

> <W(SA)>
2.070

> <Valence>
9.628

> <Coulomb>
0.101

> <VdW>
0.693

> <VdW6>
-6.927

> <VdW12>
7.620

> <Bond>
0.173

> <Angle>
2.989

> <Pdih>
6.465

> <Idih>
0.001

> <Tether>
0.000

$$$$
VeraChem MOL file


 19 18  0  0  0  0  0  0  0  0999 V2000     
   20.7555   19.2575   24.8476 C   0  0  0  0  0  0  0  0  0  0  0  0
   19.6651   19.2411   25.3838 O   0  5  0  0  0  0  0  0  0  0  0  0
   21.7655   18.8265   25.3684 O   0  0  0  0  0  0  0  0  0  0  0  0
   20.8714   19.8781   23.4578 C   0  0  0  0  0  0  0  0  0  0  0  0
   21.7192   20.5725   23.4832 H   0  0  0  0  0  0  0  0  0  0  0  0
   19.9772   20.4819   23.2736 H   0  0  0  0  0  0  0  0  0  0  0  0
   21.0902   18.8423   22.3201 C   0  0  0  0  0  0  0  0  0  0  0  0
   21.3677   19.3613   21.3928 H   0  0  0  0  0  0  0  0  0  0  0  0
   21.9556   18.2207   22.5887 H   0  0  0  0  0  0  0  0  0  0  0  0
   19.8728   17.9176   22.0587 C   0  0  0  0  0  0  0  0  0  0  0  0
   19.3009   17.7631   22.9838 H   0  0  0  0  0  0  0  0  0  0  0  0
   20.2527   16.9266   21.7751 H   0  0  0  0  0  0  0  0  0  0  0  0
   18.9298   18.3957   20.9274 C   0  0  0  0  0  0  0  0  0  0  0  0
   19.4889   18.4619   19.9839 H   0  0  0  0  0  0  0  0  0  0  0  0
   18.1561   17.6310   20.7730 H   0  0  0  0  0  0  0  0  0  0  0  0
   18.2393   19.7460   21.2097 C   0  0  0  0  0  0  0  0  0  0  0  0
   18.9639   20.5696   21.2033 H   0  0  0  0  0  0  0  0  0  0  0  0
   17.4874   19.9612   20.4396 H   0  0  0  0  0  0  0  0  0  0  0  0
   17.7334   19.7331   22.1841 H   0  0  0  0  0  0  0  0  0  0  0  0
  1  2  1  0  0  0  0
  1  3  2  0  0  0  0
  1  4  1  0  0  0  0
  4  5  1  0  0  0  0
  4  6  1  0  0  0  0
  4  7  1  0  0  0  0
  7  8  1  0  0  0  0
  7  9  1  0  0  0  0
  7 10  1  0  0  0  0
 10 11  1  0  0  0  0
 10 12  1  0  0  0  0
 10 13  1  0  0  0  0
 13 14  1  0  0  0  0
 13 15  1  0  0  0  0
 13 16  1  0  0  0  0
 16 17  1  0  0  0  0
 16 18  1  0  0  0  0
 16 19  1  0  0  0  0
M  END
> <VConfSearch Rank>
108

> <Conf_Id>
4

> <Delta U+W>
3.753

> <U+W>
-51.138

> <U>
12.334

> <W>
-63.472

> <W(PB)>
-65.500

> <W(SA)>
2.028

> <Valence>
9.984

> <Coulomb>
1.767

> <VdW>
0.583

> <VdW6>
-7.767

> <VdW12>
8.349

> <Bond>
0.203

> <Angle>
3.191

> <Pdih>
6.589

> <Idih>
0.001

> <Tether>
0.000

$$$$
VeraChem MOL file


 19 18  0  0  0  0  0  0  0  0999 V2000     
   22.4829   18.6167   22.0091 C   0  0  0  0  0  0  0  0  0  0  0  0
   23.1423   17.6288   21.7516 O   0  5  0  0  0  0  0  0  0  0  0  0
   22.6510   19.6938   21.4724 O   0  0  0  0  0  0  0  0  0  0  0  0
   21.4064   18.5024   23.0853 C   0  0  0  0  0  0  0  0  0  0  0  0
   21.1361   19.5116   23.4119 H   0  0  0  0  0  0  0  0  0  0  0  0
   21.8635   18.0051   23.9488 H   0  0  0  0  0  0  0  0  0  0  0  0
   20.1497   17.7044   22.6392 C   0  0  0  0  0  0  0  0  0  0  0  0
   20.4842   16.7294   22.2584 H   0  0  0  0  0  0  0  0  0  0  0  0
   19.5181   17.4872   23.5111 H   0  0  0  0  0  0  0  0  0  0  0  0
   19.3063   18.4061   21.5430 C   0  0  0  0  0  0  0  0  0  0  0  0
   18.8929   17.6312   20.8832 H   0  0  0  0  0  0  0  0  0  0  0  0
   19.9469   19.0295   20.9044 H   0  0  0  0  0  0  0  0  0  0  0  0
   18.1188   19.2432   22.0788 C   0  0  0  0  0  0  0  0  0  0  0  0
   17.5463   19.6232   21.2215 H   0  0  0  0  0  0  0  0  0  0  0  0
   17.4341   18.5942   22.6420 H   0  0  0  0  0  0  0  0  0  0  0  0
   18.5359   20.4373   22.9618 C   0  0  0  0  0  0  0  0  0  0  0  0
   19.2788   21.0639   22.4510 H   0  0  0  0  0  0  0  0  0  0  0  0
   17.6659   21.0644   23.1954 H   0  0  0  0  0  0  0  0  0  0  0  0
   18.9618   20.0957   23.9133 H   0  0  0  0  0  0  0  0  0  0  0  0
  1  2  1  0  0  0  0
  1  3  2  0  0  0  0
  1  4  1  0  0  0  0
  4  5  1  0  0  0  0
  4  6  1  0  0  0  0
  4  7  1  0  0  0  0
  7  8  1  0  0  0  0
  7  9  1  0  0  0  0
  7 10  1  0  0  0  0
 10 11  1  0  0  0  0
 10 12  1  0  0  0  0
 10 13  1  0  0  0  0
 13 14  1  0  0  0  0
 13 15  1  0  0  0  0
 13 16  1  0  0  0  0
 16 17  1  0  0  0  0
 16 18  1  0  0  0  0
 16 19  1  0  0  0  0
M  END
> <VConfSearch Rank>
109

> <Conf_Id>
73

> <Delta U+W>
3.707

> <U+W>
-51.184

> <U>
12.334

> <W>
-63.519

> <W(PB)>
-65.541

> <W(SA)>
2.022

> <Valence>
9.984

> <Coulomb>
1.768

> <VdW>
0.583

> <VdW6>
-7.767

> <VdW12>
8.350

> <Bond>
0.203

> <Angle>
3.192

> <Pdih>
6.589

> <Idih>
0.001

> <Tether>
0.000

$$$$
VeraChem MOL file


 19 18  0  0  0  0  0  0  0  0999 V2000     
   19.1001   20.5729   20.4666 C   0  0  0  0  0  0  0  0  0  0  0  0
   18.5203   19.7255   19.8166 O   0  5  0  0  0  0  0  0  0  0  0  0
   18.7454   21.7340   20.5237 O   0  0  0  0  0  0  0  0  0  0  0  0
   20.3597   20.1674   21.2270 C   0  0  0  0  0  0  0  0  0  0  0  0
   21.1445   20.8867   20.9656 H   0  0  0  0  0  0  0  0  0  0  0  0
   20.6962   19.1925   20.8559 H   0  0  0  0  0  0  0  0  0  0  0  0
   20.1868   20.1341   22.7701 C   0  0  0  0  0  0  0  0  0  0  0  0
   21.1538   19.9073   23.2375 H   0  0  0  0  0  0  0  0  0  0  0  0
   19.9140   21.1408   23.1152 H   0  0  0  0  0  0  0  0  0  0  0  0
   19.1169   19.1310   23.2733 C   0  0  0  0  0  0  0  0  0  0  0  0
   18.1318   19.4390   22.8966 H   0  0  0  0  0  0  0  0  0  0  0  0
   19.0563   19.1999   24.3679 H   0  0  0  0  0  0  0  0  0  0  0  0
   19.3598   17.6540   22.8773 C   0  0  0  0  0  0  0  0  0  0  0  0
   18.5344   17.0461   23.2724 H   0  0  0  0  0  0  0  0  0  0  0  0
   19.3199   17.5448   21.7851 H   0  0  0  0  0  0  0  0  0  0  0  0
   20.6934   17.0884   23.4114 C   0  0  0  0  0  0  0  0  0  0  0  0
   21.5528   17.5939   22.9535 H   0  0  0  0  0  0  0  0  0  0  0  0
   20.7625   17.2077   24.5004 H   0  0  0  0  0  0  0  0  0  0  0  0
   20.7759   16.0182   23.1819 H   0  0  0  0  0  0  0  0  0  0  0  0
  1  2  1  0  0  0  0
  1  3  2  0  0  0  0
  1  4  1  0  0  0  0
  4  5  1  0  0  0  0
  4  6  1  0  0  0  0
  4  7  1  0  0  0  0
  7  8  1  0  0  0  0
  7  9  1  0  0  0  0
  7 10  1  0  0  0  0
 10 11  1  0  0  0  0
 10 12  1  0  0  0  0
 10 13  1  0  0  0  0
 13 14  1  0  0  0  0
 13 15  1  0  0  0  0
 13 16  1  0  0  0  0
 16 17  1  0  0  0  0
 16 18  1  0  0  0  0
 16 19  1  0  0  0  0
M  END
> <VConfSearch Rank>
110

> <Conf_Id>
56

> <Delta U+W>
1.735

> <U+W>
-53.156

> <U>
10.214

> <W>
-63.370

> <W(PB)>
-65.388

> <W(SA)>
2.018

> <Valence>
7.868

> <Coulomb>
1.968

> <VdW>
0.378

> <VdW6>
-8.067

> <VdW12>
8.445

> <Bond>
0.191

> <Angle>
3.117

> <Pdih>
4.559

> <Idih>
0.001

> <Tether>
0.000

$$$$
VeraChem MOL file


 19 18  0  0  0  0  0  0  0  0999 V2000     
   18.6269   16.5875   21.1599 C   0  0  0  0  0  0  0  0  0  0  0  0
   19.2316   15.6859   20.6143 O   0  5  0  0  0  0  0  0  0  0  0  0
   17.4184   16.7072   21.1192 O   0  0  0  0  0  0  0  0  0  0  0  0
   19.4301   17.6378   21.9189 C   0  0  0  0  0  0  0  0  0  0  0  0
   20.3254   17.1537   22.3271 H   0  0  0  0  0  0  0  0  0  0  0  0
   18.8207   17.9732   22.7653 H   0  0  0  0  0  0  0  0  0  0  0  0
   19.8300   18.8444   21.0327 C   0  0  0  0  0  0  0  0  0  0  0  0
   20.3144   18.4662   20.1218 H   0  0  0  0  0  0  0  0  0  0  0  0
   18.9219   19.3677   20.7032 H   0  0  0  0  0  0  0  0  0  0  0  0
   20.7899   19.8496   21.7174 C   0  0  0  0  0  0  0  0  0  0  0  0
   21.0400   20.6229   20.9782 H   0  0  0  0  0  0  0  0  0  0  0  0
   21.7395   19.3557   21.9652 H   0  0  0  0  0  0  0  0  0  0  0  0
   20.2071   20.5505   22.9696 C   0  0  0  0  0  0  0  0  0  0  0  0
   20.5791   21.5841   22.9977 H   0  0  0  0  0  0  0  0  0  0  0  0
   19.1133   20.6218   22.8923 H   0  0  0  0  0  0  0  0  0  0  0  0
   20.6072   19.8643   24.2946 C   0  0  0  0  0  0  0  0  0  0  0  0
   20.1853   20.4072   25.1502 H   0  0  0  0  0  0  0  0  0  0  0  0
   20.2476   18.8305   24.3448 H   0  0  0  0  0  0  0  0  0  0  0  0
   21.6986   19.8494   24.4121 H   0  0  0  0  0  0  0  0  0  0  0  0
  1  2  1  0  0  0  0
  1  3  2  0  0  0  0
  1  4  1  0  0  0  0
  4  5  1  0  0  0  0
  4  6  1  0  0  0  0
  4  7  1  0  0  0  0
  7  8  1  0  0  0  0
  7  9  1  0  0  0  0
  7 10  1  0  0  0  0
 10 11  1  0  0  0  0
 10 12  1  0  0  0  0
 10 13  1  0  0  0  0
 13 14  1  0  0  0  0
 13 15  1  0  0  0  0
 13 16  1  0  0  0  0
 16 17  1  0  0  0  0
 16 18  1  0  0  0  0
 16 19  1  0  0  0  0
M  END
> <VConfSearch Rank>
111

> <Conf_Id>
53

> <Delta U+W>
2.279

> <U+W>
-52.612

> <U>
10.231

> <W>
-62.843

> <W(PB)>
-64.893

> <W(SA)>
2.050

> <Valence>
9.644

> <Coulomb>
-0.164

> <VdW>
0.751

> <VdW6>
-6.881

> <VdW12>
7.631

> <Bond>
0.163

> <Angle>
2.998

> <Pdih>
6.482

> <Idih>
0.001

> <Tether>
0.000

$$$$
VeraChem MOL file


 19 18  0  0  0  0  0  0  0  0999 V2000     
   20.8156   17.2906   24.1792 C   0  0  0  0  0  0  0  0  0  0  0  0
   21.8426   17.7559   24.6327 O   0  5  0  0  0  0  0  0  0  0  0  0
   20.7410   16.1785   23.6946 O   0  0  0  0  0  0  0  0  0  0  0  0
   19.5384   18.1216   24.2888 C   0  0  0  0  0  0  0  0  0  0  0  0
   19.7697   19.0660   24.7962 H   0  0  0  0  0  0  0  0  0  0  0  0
   18.8653   17.5661   24.9521 H   0  0  0  0  0  0  0  0  0  0  0  0
   18.8084   18.3977   22.9442 C   0  0  0  0  0  0  0  0  0  0  0  0
   18.7645   17.4771   22.3458 H   0  0  0  0  0  0  0  0  0  0  0  0
   17.7664   18.6597   23.1721 H   0  0  0  0  0  0  0  0  0  0  0  0
   19.4108   19.5500   22.1027 C   0  0  0  0  0  0  0  0  0  0  0  0
   19.4451   20.4686   22.7043 H   0  0  0  0  0  0  0  0  0  0  0  0
   18.7292   19.7548   21.2657 H   0  0  0  0  0  0  0  0  0  0  0  0
   20.8153   19.2483   21.5354 C   0  0  0  0  0  0  0  0  0  0  0  0
   21.5432   19.1707   22.3531 H   0  0  0  0  0  0  0  0  0  0  0  0
   20.8077   18.2788   21.0183 H   0  0  0  0  0  0  0  0  0  0  0  0
   21.2791   20.3482   20.5592 C   0  0  0  0  0  0  0  0  0  0  0  0
   21.3200   21.3246   21.0595 H   0  0  0  0  0  0  0  0  0  0  0  0
   22.2814   20.1233   20.1721 H   0  0  0  0  0  0  0  0  0  0  0  0
   20.5959   20.4289   19.7037 H   0  0  0  0  0  0  0  0  0  0  0  0
  1  2  1  0  0  0  0
  1  3  2  0  0  0  0
  1  4  1  0  0  0  0
  4  5  1  0  0  0  0
  4  6  1  0  0  0  0
  4  7  1  0  0  0  0
  7  8  1  0  0  0  0
  7  9  1  0  0  0  0
  7 10  1  0  0  0  0
 10 11  1  0  0  0  0
 10 12  1  0  0  0  0
 10 13  1  0  0  0  0
 13 14  1  0  0  0  0
 13 15  1  0  0  0  0
 13 16  1  0  0  0  0
 16 17  1  0  0  0  0
 16 18  1  0  0  0  0
 16 19  1  0  0  0  0
M  END
> <VConfSearch Rank>
112

> <Conf_Id>
25

> <Delta U+W>
2.065

> <U+W>
-52.826

> <U>
10.967

> <W>
-63.794

> <W(PB)>
-65.830

> <W(SA)>
2.036

> <Valence>
8.609

> <Coulomb>
1.892

> <VdW>
0.467

> <VdW6>
-7.569

> <VdW12>
8.036

> <Bond>
0.170

> <Angle>
3.195

> <Pdih>
5.237

> <Idih>
0.007

> <Tether>
0.000

$$$$
VeraChem MOL file


 19 18  0  0  0  0  0  0  0  0999 V2000     
   19.4998   20.4386   20.7872 C   0  0  0  0  0  0  0  0  0  0  0  0
   20.5152   20.8484   20.2598 O   0  5  0  0  0  0  0  0  0  0  0  0
   18.6981   21.1601   21.3473 O   0  0  0  0  0  0  0  0  0  0  0  0
   19.1772   18.9492   20.6811 C   0  0  0  0  0  0  0  0  0  0  0  0
   19.0495   18.7368   19.6133 H   0  0  0  0  0  0  0  0  0  0  0  0
   18.2073   18.7594   21.1567 H   0  0  0  0  0  0  0  0  0  0  0  0
   20.2573   17.9929   21.2609 C   0  0  0  0  0  0  0  0  0  0  0  0
   20.1064   17.0010   20.8140 H   0  0  0  0  0  0  0  0  0  0  0  0
   21.2568   18.3192   20.9417 H   0  0  0  0  0  0  0  0  0  0  0  0
   20.2191   17.8270   22.8003 C   0  0  0  0  0  0  0  0  0  0  0  0
   20.9125   17.0202   23.0746 H   0  0  0  0  0  0  0  0  0  0  0  0
   19.2196   17.4938   23.1117 H   0  0  0  0  0  0  0  0  0  0  0  0
   20.6082   19.1015   23.5811 C   0  0  0  0  0  0  0  0  0  0  0  0
   21.5613   19.4947   23.2011 H   0  0  0  0  0  0  0  0  0  0  0  0
   19.8536   19.8832   23.4264 H   0  0  0  0  0  0  0  0  0  0  0  0
   20.7329   18.8227   25.0926 C   0  0  0  0  0  0  0  0  0  0  0  0
   21.0012   19.7395   25.6335 H   0  0  0  0  0  0  0  0  0  0  0  0
   19.7842   18.4524   25.5026 H   0  0  0  0  0  0  0  0  0  0  0  0
   21.5093   18.0724   25.2917 H   0  0  0  0  0  0  0  0  0  0  0  0
  1  2  1  0  0  0  0
  1  3  2  0  0  0  0
  1  4  1  0  0  0  0
  4  5  1  0  0  0  0
  4  6  1  0  0  0  0
  4  7  1  0  0  0  0
  7  8  1  0  0  0  0
  7  9  1  0  0  0  0
  7 10  1  0  0  0  0
 10 11  1  0  0  0  0
 10 12  1  0  0  0  0
 10 13  1  0  0  0  0
 13 14  1  0  0  0  0
 13 15  1  0  0  0  0
 13 16  1  0  0  0  0
 16 17  1  0  0  0  0
 16 18  1  0  0  0  0
 16 19  1  0  0  0  0
M  END
> <VConfSearch Rank>
113

> <Conf_Id>
52

> <Delta U+W>
2.070

> <U+W>
-52.822

> <U>
10.967

> <W>
-63.789

> <W(PB)>
-65.837

> <W(SA)>
2.048

> <Valence>
8.609

> <Coulomb>
1.892

> <VdW>
0.467

> <VdW6>
-7.569

> <VdW12>
8.035

> <Bond>
0.170

> <Angle>
3.196

> <Pdih>
5.237

> <Idih>
0.007

> <Tether>
0.000

$$$$
VeraChem MOL file


 19 18  0  0  0  0  0  0  0  0999 V2000     
   19.6859   20.9873   22.9915 C   0  0  0  0  0  0  0  0  0  0  0  0
   18.5901   21.3551   22.6147 O   0  5  0  0  0  0  0  0  0  0  0  0
   20.1188   21.2179   24.1033 O   0  0  0  0  0  0  0  0  0  0  0  0
   20.6200   20.3126   21.9857 C   0  0  0  0  0  0  0  0  0  0  0  0
   21.4909   19.9131   22.5189 H   0  0  0  0  0  0  0  0  0  0  0  0
   20.9922   21.1122   21.3350 H   0  0  0  0  0  0  0  0  0  0  0  0
   19.9764   19.2055   21.1027 C   0  0  0  0  0  0  0  0  0  0  0  0
   18.9719   19.5162   20.7837 H   0  0  0  0  0  0  0  0  0  0  0  0
   20.5684   19.1228   20.1812 H   0  0  0  0  0  0  0  0  0  0  0  0
   19.9142   17.7957   21.7443 C   0  0  0  0  0  0  0  0  0  0  0  0
   20.9291   17.4417   21.9717 H   0  0  0  0  0  0  0  0  0  0  0  0
   19.5236   17.1050   20.9844 H   0  0  0  0  0  0  0  0  0  0  0  0
   19.0131   17.6867   22.9981 C   0  0  0  0  0  0  0  0  0  0  0  0
   18.2675   18.4938   23.0068 H   0  0  0  0  0  0  0  0  0  0  0  0
   18.4443   16.7481   22.9455 H   0  0  0  0  0  0  0  0  0  0  0  0
   19.8190   17.6862   24.3148 C   0  0  0  0  0  0  0  0  0  0  0  0
   20.4971   16.8241   24.3582 H   0  0  0  0  0  0  0  0  0  0  0  0
   20.4215   18.5963   24.4175 H   0  0  0  0  0  0  0  0  0  0  0  0
   19.1449   17.6298   25.1790 H   0  0  0  0  0  0  0  0  0  0  0  0
  1  2  1  0  0  0  0
  1  3  2  0  0  0  0
  1  4  1  0  0  0  0
  4  5  1  0  0  0  0
  4  6  1  0  0  0  0
  4  7  1  0  0  0  0
  7  8  1  0  0  0  0
  7  9  1  0  0  0  0
  7 10  1  0  0  0  0
 10 11  1  0  0  0  0
 10 12  1  0  0  0  0
 10 13  1  0  0  0  0
 13 14  1  0  0  0  0
 13 15  1  0  0  0  0
 13 16  1  0  0  0  0
 16 17  1  0  0  0  0
 16 18  1  0  0  0  0
 16 19  1  0  0  0  0
M  END
> <VConfSearch Rank>
114

> <Conf_Id>
66

> <Delta U+W>
5.819

> <U+W>
-49.072

> <U>
15.324

> <W>
-64.396

> <W(PB)>
-66.382

> <W(SA)>
1.986

> <Valence>
11.748

> <Coulomb>
3.201

> <VdW>
0.375

> <VdW6>
-8.854

> <VdW12>
9.229

> <Bond>
0.216

> <Angle>
3.812

> <Pdih>
7.699

> <Idih>
0.022

> <Tether>
0.000

$$$$
VeraChem MOL file


 19 18  0  0  0  0  0  0  0  0999 V2000     
   16.6581   18.0995   22.0228 C   0  0  0  0  0  0  0  0  0  0  0  0
   15.8736   17.2575   22.4116 O   0  5  0  0  0  0  0  0  0  0  0  0
   16.3252   19.0567   21.3512 O   0  0  0  0  0  0  0  0  0  0  0  0
   18.1262   17.9190   22.4125 C   0  0  0  0  0  0  0  0  0  0  0  0
   18.4460   16.9395   22.0378 H   0  0  0  0  0  0  0  0  0  0  0  0
   18.1709   17.8740   23.5070 H   0  0  0  0  0  0  0  0  0  0  0  0
   19.0901   19.0189   21.8934 C   0  0  0  0  0  0  0  0  0  0  0  0
   19.0361   19.0627   20.7967 H   0  0  0  0  0  0  0  0  0  0  0  0
   18.7607   19.9982   22.2674 H   0  0  0  0  0  0  0  0  0  0  0  0
   20.5476   18.7587   22.3318 C   0  0  0  0  0  0  0  0  0  0  0  0
   20.8747   17.7790   21.9570 H   0  0  0  0  0  0  0  0  0  0  0  0
   20.5991   18.7151   23.4285 H   0  0  0  0  0  0  0  0  0  0  0  0
   21.5041   19.8532   21.8147 C   0  0  0  0  0  0  0  0  0  0  0  0
   21.4568   19.8986   20.7178 H   0  0  0  0  0  0  0  0  0  0  0  0
   21.1814   20.8345   22.1892 H   0  0  0  0  0  0  0  0  0  0  0  0
   22.9583   19.5901   22.2542 C   0  0  0  0  0  0  0  0  0  0  0  0
   23.3179   18.6280   21.8664 H   0  0  0  0  0  0  0  0  0  0  0  0
   23.6245   20.3775   21.8781 H   0  0  0  0  0  0  0  0  0  0  0  0
   23.0404   19.5709   23.3489 H   0  0  0  0  0  0  0  0  0  0  0  0
  1  2  1  0  0  0  0
  1  3  2  0  0  0  0
  1  4  1  0  0  0  0
  4  5  1  0  0  0  0
  4  6  1  0  0  0  0
  4  7  1  0  0  0  0
  7  8  1  0  0  0  0
  7  9  1  0  0  0  0
  7 10  1  0  0  0  0
 10 11  1  0  0  0  0
 10 12  1  0  0  0  0
 10 13  1  0  0  0  0
 13 14  1  0  0  0  0
 13 15  1  0  0  0  0
 13 16  1  0  0  0  0
 16 17  1  0  0  0  0
 16 18  1  0  0  0  0
 16 19  1  0  0  0  0
M  END
> <VConfSearch Rank>
115

> <Conf_Id>
0

> <Delta U+W>
0.000

> <U+W>
-54.891

> <U>
6.966

> <W>
-61.857

> <W(PB)>
-63.965

> <W(SA)>
2.108

> <Valence>
7.175

> <Coulomb>
-1.360

> <VdW>
1.151

> <VdW6>
-5.641

> <VdW12>
6.792

> <Bond>
0.119

> <Angle>
2.715

> <Pdih>
4.340

> <Idih>
0.000

> <Tether>
0.000

$$$$
VeraChem MOL file


 19 18  0  0  0  0  0  0  0  0999 V2000     
   22.0857   19.3898   19.5678 C   0  0  0  0  0  0  0  0  0  0  0  0
   22.6964   18.3960   19.2277 O   0  5  0  0  0  0  0  0  0  0  0  0
   21.7961   20.2937   18.8093 O   0  0  0  0  0  0  0  0  0  0  0  0
   21.6404   19.4992   21.0218 C   0  0  0  0  0  0  0  0  0  0  0  0
   21.6464   20.5596   21.3013 H   0  0  0  0  0  0  0  0  0  0  0  0
   22.3880   18.9952   21.6461 H   0  0  0  0  0  0  0  0  0  0  0  0
   20.2387   18.8893   21.2697 C   0  0  0  0  0  0  0  0  0  0  0  0
   19.5040   19.3958   20.6284 H   0  0  0  0  0  0  0  0  0  0  0  0
   20.2457   17.8313   20.9730 H   0  0  0  0  0  0  0  0  0  0  0  0
   19.8117   19.0126   22.7483 C   0  0  0  0  0  0  0  0  0  0  0  0
   19.8070   20.0713   23.0422 H   0  0  0  0  0  0  0  0  0  0  0  0
   20.5487   18.5065   23.3869 H   0  0  0  0  0  0  0  0  0  0  0  0
   18.4150   18.4043   22.9923 C   0  0  0  0  0  0  0  0  0  0  0  0
   17.6745   18.9094   22.3566 H   0  0  0  0  0  0  0  0  0  0  0  0
   18.4162   17.3447   22.7013 H   0  0  0  0  0  0  0  0  0  0  0  0
   17.9918   18.5292   24.4696 C   0  0  0  0  0  0  0  0  0  0  0  0
   16.9970   18.0920   24.6253 H   0  0  0  0  0  0  0  0  0  0  0  0
   18.6988   18.0055   25.1263 H   0  0  0  0  0  0  0  0  0  0  0  0
   17.9516   19.5819   24.7790 H   0  0  0  0  0  0  0  0  0  0  0  0
  1  2  1  0  0  0  0
  1  3  2  0  0  0  0
  1  4  1  0  0  0  0
  4  5  1  0  0  0  0
  4  6  1  0  0  0  0
  4  7  1  0  0  0  0
  7  8  1  0  0  0  0
  7  9  1  0  0  0  0
  7 10  1  0  0  0  0
 10 11  1  0  0  0  0
 10 12  1  0  0  0  0
 10 13  1  0  0  0  0
 13 14  1  0  0  0  0
 13 15  1  0  0  0  0
 13 16  1  0  0  0  0
 16 17  1  0  0  0  0
 16 18  1  0  0  0  0
 16 19  1  0  0  0  0
M  END
> <VConfSearch Rank>
116

> <Conf_Id>
18

> <Delta U+W>
-1.199

> <U+W>
-56.090

> <U>
5.975

> <W>
-62.066

> <W(PB)>
-64.219

> <W(SA)>
2.153

> <Valence>
6.673

> <Coulomb>
-1.307

> <VdW>
0.610

> <VdW6>
-5.351

> <VdW12>
5.961

> <Bond>
0.086

> <Angle>
2.253

> <Pdih>
4.333

> <Idih>
0.001

> <Tether>
0.000

$$$$
VeraChem MOL file


 19 18  0  0  0  0  0  0  0  0999 V2000     
   20.3163   18.0862   25.2700 C   0  0  0  0  0  0  0  0  0  0  0  0
   20.5161   18.8833   26.1650 O   0  5  0  0  0  0  0  0  0  0  0  0
   19.9072   16.9570   25.4543 O   0  0  0  0  0  0  0  0  0  0  0  0
   20.5728   18.5345   23.8356 C   0  0  0  0  0  0  0  0  0  0  0  0
   20.9122   17.6603   23.2687 H   0  0  0  0  0  0  0  0  0  0  0  0
   21.3987   19.2559   23.8471 H   0  0  0  0  0  0  0  0  0  0  0  0
   19.3214   19.1650   23.1710 C   0  0  0  0  0  0  0  0  0  0  0  0
   18.5155   18.4195   23.1249 H   0  0  0  0  0  0  0  0  0  0  0  0
   18.9546   19.9790   23.8114 H   0  0  0  0  0  0  0  0  0  0  0  0
   19.5919   19.7307   21.7566 C   0  0  0  0  0  0  0  0  0  0  0  0
   20.3921   20.4817   21.8074 H   0  0  0  0  0  0  0  0  0  0  0  0
   18.6914   20.2588   21.4143 H   0  0  0  0  0  0  0  0  0  0  0  0
   19.9614   18.6451   20.7210 C   0  0  0  0  0  0  0  0  0  0  0  0
   20.9020   18.1552   21.0051 H   0  0  0  0  0  0  0  0  0  0  0  0
   19.1857   17.8671   20.7066 H   0  0  0  0  0  0  0  0  0  0  0  0
   20.1142   19.2417   19.3075 C   0  0  0  0  0  0  0  0  0  0  0  0
   20.3794   18.4595   18.5843 H   0  0  0  0  0  0  0  0  0  0  0  0
   19.1779   19.7079   18.9740 H   0  0  0  0  0  0  0  0  0  0  0  0
   20.9037   20.0044   19.2867 H   0  0  0  0  0  0  0  0  0  0  0  0
  1  2  1  0  0  0  0
  1  3  2  0  0  0  0
  1  4  1  0  0  0  0
  4  5  1  0  0  0  0
  4  6  1  0  0  0  0
  4  7  1  0  0  0  0
  7  8  1  0  0  0  0
  7  9  1  0  0  0  0
  7 10  1  0  0  0  0
 10 11  1  0  0  0  0
 10 12  1  0  0  0  0
 10 13  1  0  0  0  0
 13 14  1  0  0  0  0
 13 15  1  0  0  0  0
 13 16  1  0  0  0  0
 16 17  1  0  0  0  0
 16 18  1  0  0  0  0
 16 19  1  0  0  0  0
M  END
> <VConfSearch Rank>
117

> <Conf_Id>
34

> <Delta U+W>
-0.563

> <U+W>
-55.455

> <U>
6.914

> <W>
-62.369

> <W(PB)>
-64.446

> <W(SA)>
2.077

> <Valence>
7.196

> <Coulomb>
-1.020

> <VdW>
0.738

> <VdW6>
-6.010

> <VdW12>
6.748

> <Bond>
0.126

> <Angle>
2.499

> <Pdih>
4.570

> <Idih>
0.001

> <Tether>
0.000

$$$$
VeraChem MOL file


 19 18  0  0  0  0  0  0  0  0999 V2000     
   17.1378   17.6244   21.4141 C   0  0  0  0  0  0  0  0  0  0  0  0
   16.1295   17.7693   22.0764 O   0  5  0  0  0  0  0  0  0  0  0  0
   17.2801   16.7428   20.5902 O   0  0  0  0  0  0  0  0  0  0  0  0
   18.2961   18.5884   21.6454 C   0  0  0  0  0  0  0  0  0  0  0  0
   17.8775   19.5617   21.9282 H   0  0  0  0  0  0  0  0  0  0  0  0
   18.8142   18.7224   20.6891 H   0  0  0  0  0  0  0  0  0  0  0  0
   19.2809   18.0926   22.7360 C   0  0  0  0  0  0  0  0  0  0  0  0
   18.7139   17.8817   23.6533 H   0  0  0  0  0  0  0  0  0  0  0  0
   19.7273   17.1392   22.4213 H   0  0  0  0  0  0  0  0  0  0  0  0
   20.3989   19.1094   23.0673 C   0  0  0  0  0  0  0  0  0  0  0  0
   20.9723   18.7302   23.9242 H   0  0  0  0  0  0  0  0  0  0  0  0
   19.9494   20.0587   23.3897 H   0  0  0  0  0  0  0  0  0  0  0  0
   21.3660   19.3646   21.8895 C   0  0  0  0  0  0  0  0  0  0  0  0
   21.7767   18.4097   21.5335 H   0  0  0  0  0  0  0  0  0  0  0  0
   20.8259   19.8156   21.0468 H   0  0  0  0  0  0  0  0  0  0  0  0
   22.5226   20.2978   22.3003 C   0  0  0  0  0  0  0  0  0  0  0  0
   22.1413   21.2714   22.6352 H   0  0  0  0  0  0  0  0  0  0  0  0
   23.1099   19.8597   23.1180 H   0  0  0  0  0  0  0  0  0  0  0  0
   23.1987   20.4717   21.4531 H   0  0  0  0  0  0  0  0  0  0  0  0
  1  2  1  0  0  0  0
  1  3  2  0  0  0  0
  1  4  1  0  0  0  0
  4  5  1  0  0  0  0
  4  6  1  0  0  0  0
  4  7  1  0  0  0  0
  7  8  1  0  0  0  0
  7  9  1  0  0  0  0
  7 10  1  0  0  0  0
 10 11  1  0  0  0  0
 10 12  1  0  0  0  0
 10 13  1  0  0  0  0
 13 14  1  0  0  0  0
 13 15  1  0  0  0  0
 13 16  1  0  0  0  0
 16 17  1  0  0  0  0
 16 18  1  0  0  0  0
 16 19  1  0  0  0  0
M  END
> <VConfSearch Rank>
118

> <Conf_Id>
33

> <Delta U+W>
-0.526

> <U+W>
-55.418

> <U>
6.914

> <W>
-62.332

> <W(PB)>
-64.421

> <W(SA)>
2.090

> <Valence>
7.196

> <Coulomb>
-1.020

> <VdW>
0.738

> <VdW6>
-6.010

> <VdW12>
6.748

> <Bond>
0.126

> <Angle>
2.499

> <Pdih>
4.570

> <Idih>
0.001

> <Tether>
0.000

$$$$
VeraChem MOL file


 19 18  0  0  0  0  0  0  0  0999 V2000     
   19.2245   21.9397   21.4148 C   0  0  0  0  0  0  0  0  0  0  0  0
   20.2145   22.6343   21.5321 O   0  5  0  0  0  0  0  0  0  0  0  0
   18.3892   22.1004   20.5472 O   0  0  0  0  0  0  0  0  0  0  0  0
   19.0286   20.7924   22.3996 C   0  0  0  0  0  0  0  0  0  0  0  0
   17.9514   20.6575   22.5553 H   0  0  0  0  0  0  0  0  0  0  0  0
   19.4603   21.0918   23.3622 H   0  0  0  0  0  0  0  0  0  0  0  0
   19.6693   19.4679   21.9163 C   0  0  0  0  0  0  0  0  0  0  0  0
   19.2338   19.1866   20.9476 H   0  0  0  0  0  0  0  0  0  0  0  0
   20.7421   19.6322   21.7497 H   0  0  0  0  0  0  0  0  0  0  0  0
   19.4585   18.3239   22.9349 C   0  0  0  0  0  0  0  0  0  0  0  0
   18.3843   18.2232   23.1421 H   0  0  0  0  0  0  0  0  0  0  0  0
   19.9366   18.5846   23.8891 H   0  0  0  0  0  0  0  0  0  0  0  0
   19.9939   16.9589   22.4445 C   0  0  0  0  0  0  0  0  0  0  0  0
   19.7012   16.1850   23.1674 H   0  0  0  0  0  0  0  0  0  0  0  0
   19.5138   16.6920   21.4928 H   0  0  0  0  0  0  0  0  0  0  0  0
   21.5286   16.9286   22.2784 C   0  0  0  0  0  0  0  0  0  0  0  0
   22.0305   17.2207   23.2100 H   0  0  0  0  0  0  0  0  0  0  0  0
   21.8661   15.9177   22.0154 H   0  0  0  0  0  0  0  0  0  0  0  0
   21.8590   17.6065   21.4815 H   0  0  0  0  0  0  0  0  0  0  0  0
  1  2  1  0  0  0  0
  1  3  2  0  0  0  0
  1  4  1  0  0  0  0
  4  5  1  0  0  0  0
  4  6  1  0  0  0  0
  4  7  1  0  0  0  0
  7  8  1  0  0  0  0
  7  9  1  0  0  0  0
  7 10  1  0  0  0  0
 10 11  1  0  0  0  0
 10 12  1  0  0  0  0
 10 13  1  0  0  0  0
 13 14  1  0  0  0  0
 13 15  1  0  0  0  0
 13 16  1  0  0  0  0
 16 17  1  0  0  0  0
 16 18  1  0  0  0  0
 16 19  1  0  0  0  0
M  END
> <VConfSearch Rank>
119

> <Conf_Id>
42

> <Delta U+W>
-0.344

> <U+W>
-55.236

> <U>
7.244

> <W>
-62.479

> <W(PB)>
-64.610

> <W(SA)>
2.130

> <Valence>
7.174

> <Coulomb>
-0.669

> <VdW>
0.739

> <VdW6>
-5.969

> <VdW12>
6.708

> <Bond>
0.116

> <Angle>
2.481

> <Pdih>
4.576

> <Idih>
0.000

> <Tether>
0.000

$$$$
VeraChem MOL file


 19 18  0  0  0  0  0  0  0  0999 V2000     
   19.2017   17.1806   24.7282 C   0  0  0  0  0  0  0  0  0  0  0  0
   18.0841   17.4938   25.0876 O   0  5  0  0  0  0  0  0  0  0  0  0
   20.0809   16.8332   25.4914 O   0  0  0  0  0  0  0  0  0  0  0  0
   19.5240   17.2445   23.2394 C   0  0  0  0  0  0  0  0  0  0  0  0
   18.6093   17.0095   22.6820 H   0  0  0  0  0  0  0  0  0  0  0  0
   20.2524   16.4561   23.0145 H   0  0  0  0  0  0  0  0  0  0  0  0
   20.0762   18.6236   22.8014 C   0  0  0  0  0  0  0  0  0  0  0  0
   19.3393   19.3976   23.0532 H   0  0  0  0  0  0  0  0  0  0  0  0
   20.9861   18.8487   23.3747 H   0  0  0  0  0  0  0  0  0  0  0  0
   20.3906   18.6609   21.2880 C   0  0  0  0  0  0  0  0  0  0  0  0
   19.4707   18.4845   20.7140 H   0  0  0  0  0  0  0  0  0  0  0  0
   21.0731   17.8352   21.0441 H   0  0  0  0  0  0  0  0  0  0  0  0
   21.0403   19.9866   20.8286 C   0  0  0  0  0  0  0  0  0  0  0  0
   21.9640   20.1638   21.3967 H   0  0  0  0  0  0  0  0  0  0  0  0
   21.3380   19.8870   19.7756 H   0  0  0  0  0  0  0  0  0  0  0  0
   20.1035   21.2061   20.9667 C   0  0  0  0  0  0  0  0  0  0  0  0
   19.8701   21.4151   22.0182 H   0  0  0  0  0  0  0  0  0  0  0  0
   20.5771   22.1031   20.5471 H   0  0  0  0  0  0  0  0  0  0  0  0
   19.1602   21.0397   20.4304 H   0  0  0  0  0  0  0  0  0  0  0  0
  1  2  1  0  0  0  0
  1  3  2  0  0  0  0
  1  4  1  0  0  0  0
  4  5  1  0  0  0  0
  4  6  1  0  0  0  0
  4  7  1  0  0  0  0
  7  8  1  0  0  0  0
  7  9  1  0  0  0  0
  7 10  1  0  0  0  0
 10 11  1  0  0  0  0
 10 12  1  0  0  0  0
 10 13  1  0  0  0  0
 13 14  1  0  0  0  0
 13 15  1  0  0  0  0
 13 16  1  0  0  0  0
 16 17  1  0  0  0  0
 16 18  1  0  0  0  0
 16 19  1  0  0  0  0
M  END
> <VConfSearch Rank>
120

> <Conf_Id>
41

> <Delta U+W>
-0.361

> <U+W>
-55.252

> <U>
7.244

> <W>
-62.496

> <W(PB)>
-64.596

> <W(SA)>
2.099

> <Valence>
7.174

> <Coulomb>
-0.669

> <VdW>
0.739

> <VdW6>
-5.969

> <VdW12>
6.708

> <Bond>
0.116

> <Angle>
2.481

> <Pdih>
4.576

> <Idih>
0.000

> <Tether>
0.000

$$$$
VeraChem MOL file


 19 18  0  0  0  0  0  0  0  0999 V2000     
   19.1895   16.8827   24.1833 C   0  0  0  0  0  0  0  0  0  0  0  0
   17.9985   17.0805   24.3214 O   0  5  0  0  0  0  0  0  0  0  0  0
   19.6626   15.7988   23.9039 O   0  0  0  0  0  0  0  0  0  0  0  0
   20.1467   18.0528   24.3933 C   0  0  0  0  0  0  0  0  0  0  0  0
   20.9646   17.6970   25.0309 H   0  0  0  0  0  0  0  0  0  0  0  0
   19.6241   18.8365   24.9553 H   0  0  0  0  0  0  0  0  0  0  0  0
   20.7302   18.6349   23.0797 C   0  0  0  0  0  0  0  0  0  0  0  0
   21.5063   19.3709   23.3300 H   0  0  0  0  0  0  0  0  0  0  0  0
   21.2253   17.8329   22.5146 H   0  0  0  0  0  0  0  0  0  0  0  0
   19.6544   19.3088   22.1988 C   0  0  0  0  0  0  0  0  0  0  0  0
   19.1537   20.1008   22.7723 H   0  0  0  0  0  0  0  0  0  0  0  0
   18.8827   18.5742   21.9298 H   0  0  0  0  0  0  0  0  0  0  0  0
   20.2619   19.9080   20.9133 C   0  0  0  0  0  0  0  0  0  0  0  0
   21.0318   20.6467   21.1763 H   0  0  0  0  0  0  0  0  0  0  0  0
   20.7615   19.1173   20.3365 H   0  0  0  0  0  0  0  0  0  0  0  0
   19.1861   20.5796   20.0367 C   0  0  0  0  0  0  0  0  0  0  0  0
   18.6913   21.3961   20.5789 H   0  0  0  0  0  0  0  0  0  0  0  0
   19.6350   20.9997   19.1272 H   0  0  0  0  0  0  0  0  0  0  0  0
   18.4190   19.8554   19.7328 H   0  0  0  0  0  0  0  0  0  0  0  0
  1  2  1  0  0  0  0
  1  3  2  0  0  0  0
  1  4  1  0  0  0  0
  4  5  1  0  0  0  0
  4  6  1  0  0  0  0
  4  7  1  0  0  0  0
  7  8  1  0  0  0  0
  7  9  1  0  0  0  0
  7 10  1  0  0  0  0
 10 11  1  0  0  0  0
 10 12  1  0  0  0  0
 10 13  1  0  0  0  0
 13 14  1  0  0  0  0
 13 15  1  0  0  0  0
 13 16  1  0  0  0  0
 16 17  1  0  0  0  0
 16 18  1  0  0  0  0
 16 19  1  0  0  0  0
M  END
> <VConfSearch Rank>
121

> <Conf_Id>
36

> <Delta U+W>
-0.079

> <U+W>
-54.971

> <U>
8.266

> <W>
-63.237

> <W(PB)>
-65.340

> <W(SA)>
2.103

> <Valence>
6.935

> <Coulomb>
0.874

> <VdW>
0.457

> <VdW6>
-6.205

> <VdW12>
6.662

> <Bond>
0.107

> <Angle>
2.420

> <Pdih>
4.407

> <Idih>
0.001

> <Tether>
0.000

$$$$
VeraChem MOL file


 19 18  0  0  0  0  0  0  0  0999 V2000     
   20.2680   19.8426   25.0629 C   0  0  0  0  0  0  0  0  0  0  0  0
   20.4170   21.0355   24.8864 O   0  5  0  0  0  0  0  0  0  0  0  0
   20.9836   19.1756   25.7838 O   0  0  0  0  0  0  0  0  0  0  0  0
   19.1066   19.1462   24.3590 C   0  0  0  0  0  0  0  0  0  0  0  0
   18.3822   19.9064   24.0423 H   0  0  0  0  0  0  0  0  0  0  0  0
   18.6021   18.5175   25.1023 H   0  0  0  0  0  0  0  0  0  0  0  0
   19.5326   18.2755   23.1484 C   0  0  0  0  0  0  0  0  0  0  0  0
   20.2789   17.5381   23.4752 H   0  0  0  0  0  0  0  0  0  0  0  0
   18.6616   17.7081   22.7936 H   0  0  0  0  0  0  0  0  0  0  0  0
   20.1021   19.1156   21.9834 C   0  0  0  0  0  0  0  0  0  0  0  0
   20.9845   19.6736   22.3260 H   0  0  0  0  0  0  0  0  0  0  0  0
   19.3574   19.8598   21.6690 H   0  0  0  0  0  0  0  0  0  0  0  0
   20.4896   18.2329   20.7787 C   0  0  0  0  0  0  0  0  0  0  0  0
   21.2363   17.4891   21.0898 H   0  0  0  0  0  0  0  0  0  0  0  0
   19.6097   17.6755   20.4290 H   0  0  0  0  0  0  0  0  0  0  0  0
   21.0575   19.0740   19.6181 C   0  0  0  0  0  0  0  0  0  0  0  0
   21.9578   19.6186   19.9317 H   0  0  0  0  0  0  0  0  0  0  0  0
   21.3281   18.4310   18.7705 H   0  0  0  0  0  0  0  0  0  0  0  0
   20.3191   19.8063   19.2659 H   0  0  0  0  0  0  0  0  0  0  0  0
  1  2  1  0  0  0  0
  1  3  2  0  0  0  0
  1  4  1  0  0  0  0
  4  5  1  0  0  0  0
  4  6  1  0  0  0  0
  4  7  1  0  0  0  0
  7  8  1  0  0  0  0
  7  9  1  0  0  0  0
  7 10  1  0  0  0  0
 10 11  1  0  0  0  0
 10 12  1  0  0  0  0
 10 13  1  0  0  0  0
 13 14  1  0  0  0  0
 13 15  1  0  0  0  0
 13 16  1  0  0  0  0
 16 17  1  0  0  0  0
 16 18  1  0  0  0  0
 16 19  1  0  0  0  0
M  END
> <VConfSearch Rank>
122

> <Conf_Id>
35

> <Delta U+W>
-0.030

> <U+W>
-54.921

> <U>
8.267

> <W>
-63.188

> <W(PB)>
-65.294

> <W(SA)>
2.106

> <Valence>
6.935

> <Coulomb>
0.875

> <VdW>
0.457

> <VdW6>
-6.205

> <VdW12>
6.662

> <Bond>
0.107

> <Angle>
2.420

> <Pdih>
4.407

> <Idih>
0.001

> <Tether>
0.000

$$$$
VeraChem MOL file


 19 18  0  0  0  0  0  0  0  0999 V2000     
   17.2383   18.1989   22.4074 C   0  0  0  0  0  0  0  0  0  0  0  0
   16.5487   18.9066   21.7000 O   0  5  0  0  0  0  0  0  0  0  0  0
   16.9712   17.9423   23.5648 O   0  0  0  0  0  0  0  0  0  0  0  0
   18.4959   17.5825   21.8009 C   0  0  0  0  0  0  0  0  0  0  0  0
   18.2210   17.1764   20.8203 H   0  0  0  0  0  0  0  0  0  0  0  0
   18.8041   16.7321   22.4213 H   0  0  0  0  0  0  0  0  0  0  0  0
   19.6732   18.5788   21.6362 C   0  0  0  0  0  0  0  0  0  0  0  0
   20.4662   18.0880   21.0578 H   0  0  0  0  0  0  0  0  0  0  0  0
   19.3385   19.4433   21.0465 H   0  0  0  0  0  0  0  0  0  0  0  0
   20.2402   19.0577   22.9941 C   0  0  0  0  0  0  0  0  0  0  0  0
   20.6095   18.1956   23.5661 H   0  0  0  0  0  0  0  0  0  0  0  0
   19.4287   19.4991   23.5887 H   0  0  0  0  0  0  0  0  0  0  0  0
   21.3673   20.1069   22.8533 C   0  0  0  0  0  0  0  0  0  0  0  0
   21.0002   20.9715   22.2833 H   0  0  0  0  0  0  0  0  0  0  0  0
   21.6260   20.4818   23.8532 H   0  0  0  0  0  0  0  0  0  0  0  0
   22.6435   19.5488   22.1871 C   0  0  0  0  0  0  0  0  0  0  0  0
   22.4609   19.2691   21.1421 H   0  0  0  0  0  0  0  0  0  0  0  0
   23.4410   20.3031   22.1941 H   0  0  0  0  0  0  0  0  0  0  0  0
   23.0111   18.6635   22.7222 H   0  0  0  0  0  0  0  0  0  0  0  0
  1  2  1  0  0  0  0
  1  3  2  0  0  0  0
  1  4  1  0  0  0  0
  4  5  1  0  0  0  0
  4  6  1  0  0  0  0
  4  7  1  0  0  0  0
  7  8  1  0  0  0  0
  7  9  1  0  0  0  0
  7 10  1  0  0  0  0
 10 11  1  0  0  0  0
 10 12  1  0  0  0  0
 10 13  1  0  0  0  0
 13 14  1  0  0  0  0
 13 15  1  0  0  0  0
 13 16  1  0  0  0  0
 16 17  1  0  0  0  0
 16 18  1  0  0  0  0
 16 19  1  0  0  0  0
M  END
> <VConfSearch Rank>
123

> <Conf_Id>
74

> <Delta U+W>
0.797

> <U+W>
-54.095

> <U>
8.869

> <W>
-62.964

> <W(PB)>
-65.046

> <W(SA)>
2.082

> <Valence>
7.469

> <Coulomb>
0.762

> <VdW>
0.639

> <VdW6>
-6.782

> <VdW12>
7.421

> <Bond>
0.141

> <Angle>
2.667

> <Pdih>
4.660

> <Idih>
0.001

> <Tether>
0.000

$$$$
VeraChem MOL file


 19 18  0  0  0  0  0  0  0  0999 V2000     
   22.8738   18.7824   22.7270 C   0  0  0  0  0  0  0  0  0  0  0  0
   23.7003   19.6729   22.7085 O   0  5  0  0  0  0  0  0  0  0  0  0
   23.0348   17.7281   23.3091 O   0  0  0  0  0  0  0  0  0  0  0  0
   21.5556   19.0083   21.9953 C   0  0  0  0  0  0  0  0  0  0  0  0
   21.2134   18.0383   21.6169 H   0  0  0  0  0  0  0  0  0  0  0  0
   21.7530   19.6465   21.1258 H   0  0  0  0  0  0  0  0  0  0  0  0
   20.4710   19.6530   22.8968 C   0  0  0  0  0  0  0  0  0  0  0  0
   20.2541   18.9879   23.7432 H   0  0  0  0  0  0  0  0  0  0  0  0
   20.8780   20.5759   23.3325 H   0  0  0  0  0  0  0  0  0  0  0  0
   19.1635   19.9996   22.1412 C   0  0  0  0  0  0  0  0  0  0  0  0
   19.3878   20.7440   21.3651 H   0  0  0  0  0  0  0  0  0  0  0  0
   18.4718   20.4894   22.8401 H   0  0  0  0  0  0  0  0  0  0  0  0
   18.4425   18.7970   21.4841 C   0  0  0  0  0  0  0  0  0  0  0  0
   17.5446   19.1663   20.9699 H   0  0  0  0  0  0  0  0  0  0  0  0
   19.0770   18.3537   20.7053 H   0  0  0  0  0  0  0  0  0  0  0  0
   18.0228   17.7087   22.4955 C   0  0  0  0  0  0  0  0  0  0  0  0
   17.4055   18.1345   23.2972 H   0  0  0  0  0  0  0  0  0  0  0  0
   17.4372   16.9258   21.9965 H   0  0  0  0  0  0  0  0  0  0  0  0
   18.8982   17.2293   22.9516 H   0  0  0  0  0  0  0  0  0  0  0  0
  1  2  1  0  0  0  0
  1  3  2  0  0  0  0
  1  4  1  0  0  0  0
  4  5  1  0  0  0  0
  4  6  1  0  0  0  0
  4  7  1  0  0  0  0
  7  8  1  0  0  0  0
  7  9  1  0  0  0  0
  7 10  1  0  0  0  0
 10 11  1  0  0  0  0
 10 12  1  0  0  0  0
 10 13  1  0  0  0  0
 13 14  1  0  0  0  0
 13 15  1  0  0  0  0
 13 16  1  0  0  0  0
 16 17  1  0  0  0  0
 16 18  1  0  0  0  0
 16 19  1  0  0  0  0
M  END
> <VConfSearch Rank>
124

> <Conf_Id>
67

> <Delta U+W>
0.308

> <U+W>
-54.583

> <U>
8.219

> <W>
-62.802

> <W(PB)>
-64.859

> <W(SA)>
2.057

> <Valence>
7.609

> <Coulomb>
-0.089

> <VdW>
0.699

> <VdW6>
-6.924

> <VdW12>
7.623

> <Bond>
0.163

> <Angle>
2.870

> <Pdih>
4.576

> <Idih>
0.001

> <Tether>
0.000

$$$$
VeraChem MOL file


 19 18  0  0  0  0  0  0  0  0999 V2000     
   17.9702   17.4978   23.8788 C   0  0  0  0  0  0  0  0  0  0  0  0
   16.8910   17.0589   23.5338 O   0  5  0  0  0  0  0  0  0  0  0  0
   18.2480   17.7704   25.0298 O   0  0  0  0  0  0  0  0  0  0  0  0
   19.0263   17.7378   22.8058 C   0  0  0  0  0  0  0  0  0  0  0  0
   18.8909   16.9855   22.0196 H   0  0  0  0  0  0  0  0  0  0  0  0
   20.0086   17.5625   23.2592 H   0  0  0  0  0  0  0  0  0  0  0  0
   18.9540   19.1634   22.2001 C   0  0  0  0  0  0  0  0  0  0  0  0
   17.9323   19.3407   21.8369 H   0  0  0  0  0  0  0  0  0  0  0  0
   19.1288   19.9070   22.9890 H   0  0  0  0  0  0  0  0  0  0  0  0
   19.9402   19.3883   21.0263 C   0  0  0  0  0  0  0  0  0  0  0  0
   19.7918   20.4023   20.6307 H   0  0  0  0  0  0  0  0  0  0  0  0
   19.6814   18.7028   20.2079 H   0  0  0  0  0  0  0  0  0  0  0  0
   21.4369   19.2024   21.3772 C   0  0  0  0  0  0  0  0  0  0  0  0
   21.6301   18.1639   21.6768 H   0  0  0  0  0  0  0  0  0  0  0  0
   22.0323   19.3719   20.4695 H   0  0  0  0  0  0  0  0  0  0  0  0
   21.9302   20.1628   22.4807 C   0  0  0  0  0  0  0  0  0  0  0  0
   21.4422   19.9515   23.4406 H   0  0  0  0  0  0  0  0  0  0  0  0
   23.0127   20.0560   22.6273 H   0  0  0  0  0  0  0  0  0  0  0  0
   21.7262   21.2075   22.2123 H   0  0  0  0  0  0  0  0  0  0  0  0
  1  2  1  0  0  0  0
  1  3  2  0  0  0  0
  1  4  1  0  0  0  0
  4  5  1  0  0  0  0
  4  6  1  0  0  0  0
  4  7  1  0  0  0  0
  7  8  1  0  0  0  0
  7  9  1  0  0  0  0
  7 10  1  0  0  0  0
 10 11  1  0  0  0  0
 10 12  1  0  0  0  0
 10 13  1  0  0  0  0
 13 14  1  0  0  0  0
 13 15  1  0  0  0  0
 13 16  1  0  0  0  0
 16 17  1  0  0  0  0
 16 18  1  0  0  0  0
 16 19  1  0  0  0  0
M  END
> <VConfSearch Rank>
125

> <Conf_Id>
21

> <Delta U+W>
0.319

> <U+W>
-54.572

> <U>
8.220

> <W>
-62.792

> <W(PB)>
-64.830

> <W(SA)>
2.038

> <Valence>
7.609

> <Coulomb>
-0.088

> <VdW>
0.699

> <VdW6>
-6.924

> <VdW12>
7.623

> <Bond>
0.163

> <Angle>
2.870

> <Pdih>
4.576

> <Idih>
0.000

> <Tether>
0.000

$$$$
VeraChem MOL file


 19 18  0  0  0  0  0  0  0  0999 V2000     
   19.8457   16.1867   23.2612 C   0  0  0  0  0  0  0  0  0  0  0  0
   20.5653   15.5796   24.0294 O   0  5  0  0  0  0  0  0  0  0  0  0
   18.6950   15.8737   23.0286 O   0  0  0  0  0  0  0  0  0  0  0  0
   20.4125   17.4191   22.5656 C   0  0  0  0  0  0  0  0  0  0  0  0
   19.9406   17.4958   21.5811 H   0  0  0  0  0  0  0  0  0  0  0  0
   21.4821   17.2488   22.3943 H   0  0  0  0  0  0  0  0  0  0  0  0
   20.2065   18.7200   23.3860 C   0  0  0  0  0  0  0  0  0  0  0  0
   19.1400   18.8618   23.6090 H   0  0  0  0  0  0  0  0  0  0  0  0
   20.7069   18.5904   24.3556 H   0  0  0  0  0  0  0  0  0  0  0  0
   20.7828   19.9823   22.6958 C   0  0  0  0  0  0  0  0  0  0  0  0
   21.6440   19.7139   22.0686 H   0  0  0  0  0  0  0  0  0  0  0  0
   21.1774   20.6476   23.4758 H   0  0  0  0  0  0  0  0  0  0  0  0
   19.7548   20.7933   21.8692 C   0  0  0  0  0  0  0  0  0  0  0  0
   18.9413   21.1334   22.5248 H   0  0  0  0  0  0  0  0  0  0  0  0
   20.2475   21.7013   21.4950 H   0  0  0  0  0  0  0  0  0  0  0  0
   19.1589   20.0256   20.6712 C   0  0  0  0  0  0  0  0  0  0  0  0
   18.5434   20.6939   20.0553 H   0  0  0  0  0  0  0  0  0  0  0  0
   19.9514   19.6119   20.0341 H   0  0  0  0  0  0  0  0  0  0  0  0
   18.5159   19.2032   21.0089 H   0  0  0  0  0  0  0  0  0  0  0  0
  1  2  1  0  0  0  0
  1  3  2  0  0  0  0
  1  4  1  0  0  0  0
  4  5  1  0  0  0  0
  4  6  1  0  0  0  0
  4  7  1  0  0  0  0
  7  8  1  0  0  0  0
  7  9  1  0  0  0  0
  7 10  1  0  0  0  0
 10 11  1  0  0  0  0
 10 12  1  0  0  0  0
 10 13  1  0  0  0  0
 13 14  1  0  0  0  0
 13 15  1  0  0  0  0
 13 16  1  0  0  0  0
 16 17  1  0  0  0  0
 16 18  1  0  0  0  0
 16 19  1  0  0  0  0
M  END
> <VConfSearch Rank>
126

> <Conf_Id>
24

> <Delta U+W>
2.477

> <U+W>
-52.414

> <U>
10.422

> <W>
-62.836

> <W(PB)>
-64.906

> <W(SA)>
2.070

> <Valence>
9.628

> <Coulomb>
0.101

> <VdW>
0.693

> <VdW6>
-6.927

> <VdW12>
7.620

> <Bond>
0.173

> <Angle>
2.989

> <Pdih>
6.465

> <Idih>
0.001

> <Tether>
0.000

$$$$
VeraChem MOL file


 19 18  0  0  0  0  0  0  0  0999 V2000     
   18.4975   17.2398   21.1133 C   0  0  0  0  0  0  0  0  0  0  0  0
   19.2995   17.0789   20.2147 O   0  5  0  0  0  0  0  0  0  0  0  0
   17.7599   16.3632   21.5189 O   0  0  0  0  0  0  0  0  0  0  0  0
   18.3879   18.6234   21.7489 C   0  0  0  0  0  0  0  0  0  0  0  0
   17.3231   18.8824   21.7785 H   0  0  0  0  0  0  0  0  0  0  0  0
   18.8683   19.3480   21.0838 H   0  0  0  0  0  0  0  0  0  0  0  0
   18.9765   18.7070   23.1847 C   0  0  0  0  0  0  0  0  0  0  0  0
   18.6831   19.6565   23.6523 H   0  0  0  0  0  0  0  0  0  0  0  0
   18.5109   17.9163   23.7892 H   0  0  0  0  0  0  0  0  0  0  0  0
   20.5175   18.5444   23.2511 C   0  0  0  0  0  0  0  0  0  0  0  0
   20.8724   17.9012   22.4343 H   0  0  0  0  0  0  0  0  0  0  0  0
   20.7639   18.0100   24.1787 H   0  0  0  0  0  0  0  0  0  0  0  0
   21.3078   19.8761   23.2573 C   0  0  0  0  0  0  0  0  0  0  0  0
   21.0122   20.4767   24.1286 H   0  0  0  0  0  0  0  0  0  0  0  0
   22.3742   19.6471   23.3895 H   0  0  0  0  0  0  0  0  0  0  0  0
   21.1389   20.7162   21.9746 C   0  0  0  0  0  0  0  0  0  0  0  0
   20.1185   21.1102   21.8914 H   0  0  0  0  0  0  0  0  0  0  0  0
   21.8244   21.5733   21.9840 H   0  0  0  0  0  0  0  0  0  0  0  0
   21.3564   20.1172   21.0805 H   0  0  0  0  0  0  0  0  0  0  0  0
  1  2  1  0  0  0  0
  1  3  2  0  0  0  0
  1  4  1  0  0  0  0
  4  5  1  0  0  0  0
  4  6  1  0  0  0  0
  4  7  1  0  0  0  0
  7  8  1  0  0  0  0
  7  9  1  0  0  0  0
  7 10  1  0  0  0  0
 10 11  1  0  0  0  0
 10 12  1  0  0  0  0
 10 13  1  0  0  0  0
 13 14  1  0  0  0  0
 13 15  1  0  0  0  0
 13 16  1  0  0  0  0
 16 17  1  0  0  0  0
 16 18  1  0  0  0  0
 16 19  1  0  0  0  0
M  END
> <VConfSearch Rank>
127

> <Conf_Id>
4

> <Delta U+W>
3.753

> <U+W>
-51.138

> <U>
12.334

> <W>
-63.472

> <W(PB)>
-65.500

> <W(SA)>
2.028

> <Valence>
9.984

> <Coulomb>
1.767

> <VdW>
0.583

> <VdW6>
-7.767

> <VdW12>
8.349

> <Bond>
0.203

> <Angle>
3.191

> <Pdih>
6.589

> <Idih>
0.001

> <Tether>
0.000

$$$$
VeraChem MOL file


 19 18  0  0  0  0  0  0  0  0999 V2000     
   19.2341   16.4987   23.1694 C   0  0  0  0  0  0  0  0  0  0  0  0
   18.5591   15.6544   22.6138 O   0  5  0  0  0  0  0  0  0  0  0  0
   20.2614   16.2487   23.7683 O   0  0  0  0  0  0  0  0  0  0  0  0
   18.7473   17.9452   23.1360 C   0  0  0  0  0  0  0  0  0  0  0  0
   19.2700   18.5035   23.9191 H   0  0  0  0  0  0  0  0  0  0  0  0
   17.6864   17.9360   23.4121 H   0  0  0  0  0  0  0  0  0  0  0  0
   18.9120   18.6350   21.7533 C   0  0  0  0  0  0  0  0  0  0  0  0
   18.4295   17.9999   20.9974 H   0  0  0  0  0  0  0  0  0  0  0  0
   18.3621   19.5857   21.7440 H   0  0  0  0  0  0  0  0  0  0  0  0
   20.3855   18.8779   21.3348 C   0  0  0  0  0  0  0  0  0  0  0  0
   20.4550   18.7541   20.2454 H   0  0  0  0  0  0  0  0  0  0  0  0
   21.0398   18.1068   21.7639 H   0  0  0  0  0  0  0  0  0  0  0  0
   20.9309   20.2857   21.6788 C   0  0  0  0  0  0  0  0  0  0  0  0
   21.9456   20.3759   21.2671 H   0  0  0  0  0  0  0  0  0  0  0  0
   20.3251   21.0501   21.1730 H   0  0  0  0  0  0  0  0  0  0  0  0
   20.9830   20.5904   23.1901 C   0  0  0  0  0  0  0  0  0  0  0  0
   21.5203   19.8013   23.7324 H   0  0  0  0  0  0  0  0  0  0  0  0
   21.5010   21.5408   23.3726 H   0  0  0  0  0  0  0  0  0  0  0  0
   19.9737   20.6783   23.6108 H   0  0  0  0  0  0  0  0  0  0  0  0
  1  2  1  0  0  0  0
  1  3  2  0  0  0  0
  1  4  1  0  0  0  0
  4  5  1  0  0  0  0
  4  6  1  0  0  0  0
  4  7  1  0  0  0  0
  7  8  1  0  0  0  0
  7  9  1  0  0  0  0
  7 10  1  0  0  0  0
 10 11  1  0  0  0  0
 10 12  1  0  0  0  0
 10 13  1  0  0  0  0
 13 14  1  0  0  0  0
 13 15  1  0  0  0  0
 13 16  1  0  0  0  0
 16 17  1  0  0  0  0
 16 18  1  0  0  0  0
 16 19  1  0  0  0  0
M  END
> <VConfSearch Rank>
128

> <Conf_Id>
73

> <Delta U+W>
3.707

> <U+W>
-51.184

> <U>
12.334

> <W>
-63.519

> <W(PB)>
-65.541

> <W(SA)>
2.022

> <Valence>
9.984

> <Coulomb>
1.768

> <VdW>
0.583

> <VdW6>
-7.767

> <VdW12>
8.350

> <Bond>
0.203

> <Angle>
3.192

> <Pdih>
6.589

> <Idih>
0.001

> <Tether>
0.000

$$$$
VeraChem MOL file


 19 18  0  0  0  0  0  0  0  0999 V2000     
   19.2956   16.4938   22.3821 C   0  0  0  0  0  0  0  0  0  0  0  0
   19.3428   16.3424   21.1773 O   0  5  0  0  0  0  0  0  0  0  0  0
   19.6333   15.6409   23.1793 O   0  0  0  0  0  0  0  0  0  0  0  0
   18.7534   17.8126   22.9263 C   0  0  0  0  0  0  0  0  0  0  0  0
   17.9857   17.5680   23.6695 H   0  0  0  0  0  0  0  0  0  0  0  0
   18.2422   18.3442   22.1155 H   0  0  0  0  0  0  0  0  0  0  0  0
   19.8306   18.7205   23.5803 C   0  0  0  0  0  0  0  0  0  0  0  0
   19.3450   19.6073   24.0078 H   0  0  0  0  0  0  0  0  0  0  0  0
   20.2761   18.1825   24.4284 H   0  0  0  0  0  0  0  0  0  0  0  0
   20.9663   19.1601   22.6206 C   0  0  0  0  0  0  0  0  0  0  0  0
   21.5231   18.2712   22.2936 H   0  0  0  0  0  0  0  0  0  0  0  0
   21.6830   19.7755   23.1813 H   0  0  0  0  0  0  0  0  0  0  0  0
   20.5046   19.9449   21.3683 C   0  0  0  0  0  0  0  0  0  0  0  0
   21.3881   20.1850   20.7612 H   0  0  0  0  0  0  0  0  0  0  0  0
   19.8683   19.3090   20.7381 H   0  0  0  0  0  0  0  0  0  0  0  0
   19.7628   21.2560   21.7066 C   0  0  0  0  0  0  0  0  0  0  0  0
   18.8121   21.0561   22.2165 H   0  0  0  0  0  0  0  0  0  0  0  0
   20.3742   21.8972   22.3547 H   0  0  0  0  0  0  0  0  0  0  0  0
   19.5374   21.8169   20.7904 H   0  0  0  0  0  0  0  0  0  0  0  0
  1  2  1  0  0  0  0
  1  3  2  0  0  0  0
  1  4  1  0  0  0  0
  4  5  1  0  0  0  0
  4  6  1  0  0  0  0
  4  7  1  0  0  0  0
  7  8  1  0  0  0  0
  7  9  1  0  0  0  0
  7 10  1  0  0  0  0
 10 11  1  0  0  0  0
 10 12  1  0  0  0  0
 10 13  1  0  0  0  0
 13 14  1  0  0  0  0
 13 15  1  0  0  0  0
 13 16  1  0  0  0  0
 16 17  1  0  0  0  0
 16 18  1  0  0  0  0
 16 19  1  0  0  0  0
M  END
> <VConfSearch Rank>
129

> <Conf_Id>
56

> <Delta U+W>
1.735

> <U+W>
-53.156

> <U>
10.214

> <W>
-63.370

> <W(PB)>
-65.388

> <W(SA)>
2.018

> <Valence>
7.868

> <Coulomb>
1.968

> <VdW>
0.378

> <VdW6>
-8.067

> <VdW12>
8.445

> <Bond>
0.191

> <Angle>
3.117

> <Pdih>
4.559

> <Idih>
0.001

> <Tether>
0.000

$$$$
VeraChem MOL file


 19 18  0  0  0  0  0  0  0  0999 V2000     
   18.8844   19.6647   24.9216 C   0  0  0  0  0  0  0  0  0  0  0  0
   19.0449   18.9778   25.9109 O   0  5  0  0  0  0  0  0  0  0  0  0
   18.1098   20.5995   24.8709 O   0  0  0  0  0  0  0  0  0  0  0  0
   19.6830   19.3215   23.6691 C   0  0  0  0  0  0  0  0  0  0  0  0
   20.6448   18.8984   23.9826 H   0  0  0  0  0  0  0  0  0  0  0  0
   19.8905   20.2589   23.1413 H   0  0  0  0  0  0  0  0  0  0  0  0
   18.9408   18.3319   22.7359 C   0  0  0  0  0  0  0  0  0  0  0  0
   18.6203   17.4635   23.3280 H   0  0  0  0  0  0  0  0  0  0  0  0
   18.0221   18.8059   22.3636 H   0  0  0  0  0  0  0  0  0  0  0  0
   19.7858   17.8253   21.5402 C   0  0  0  0  0  0  0  0  0  0  0  0
   19.1749   17.0971   20.9893 H   0  0  0  0  0  0  0  0  0  0  0  0
   20.6590   17.2670   21.9047 H   0  0  0  0  0  0  0  0  0  0  0  0
   20.2307   18.9289   20.5486 C   0  0  0  0  0  0  0  0  0  0  0  0
   20.2171   18.5127   19.5318 H   0  0  0  0  0  0  0  0  0  0  0  0
   19.5076   19.7563   20.5494 H   0  0  0  0  0  0  0  0  0  0  0  0
   21.6543   19.4608   20.8263 C   0  0  0  0  0  0  0  0  0  0  0  0
   21.9285   20.2257   20.0884 H   0  0  0  0  0  0  0  0  0  0  0  0
   21.7354   19.9123   21.8214 H   0  0  0  0  0  0  0  0  0  0  0  0
   22.3929   18.6514   20.7604 H   0  0  0  0  0  0  0  0  0  0  0  0
  1  2  1  0  0  0  0
  1  3  2  0  0  0  0
  1  4  1  0  0  0  0
  4  5  1  0  0  0  0
  4  6  1  0  0  0  0
  4  7  1  0  0  0  0
  7  8  1  0  0  0  0
  7  9  1  0  0  0  0
  7 10  1  0  0  0  0
 10 11  1  0  0  0  0
 10 12  1  0  0  0  0
 10 13  1  0  0  0  0
 13 14  1  0  0  0  0
 13 15  1  0  0  0  0
 13 16  1  0  0  0  0
 16 17  1  0  0  0  0
 16 18  1  0  0  0  0
 16 19  1  0  0  0  0
M  END
> <VConfSearch Rank>
130

> <Conf_Id>
53

> <Delta U+W>
2.279

> <U+W>
-52.612

> <U>
10.231

> <W>
-62.843

> <W(PB)>
-64.893

> <W(SA)>
2.050

> <Valence>
9.644

> <Coulomb>
-0.164

> <VdW>
0.751

> <VdW6>
-6.881

> <VdW12>
7.631

> <Bond>
0.163

> <Angle>
2.998

> <Pdih>
6.482

> <Idih>
0.001

> <Tether>
0.000

$$$$
VeraChem MOL file


 19 18  0  0  0  0  0  0  0  0999 V2000     
   17.8853   19.0662   23.2933 C   0  0  0  0  0  0  0  0  0  0  0  0
   17.3948   18.0076   22.9535 O   0  5  0  0  0  0  0  0  0  0  0  0
   17.4377   20.1475   22.9653 O   0  0  0  0  0  0  0  0  0  0  0  0
   19.0846   19.0339   24.2388 C   0  0  0  0  0  0  0  0  0  0  0  0
   19.3233   17.9902   24.4769 H   0  0  0  0  0  0  0  0  0  0  0  0
   18.7529   19.5006   25.1736 H   0  0  0  0  0  0  0  0  0  0  0  0
   20.3534   19.7729   23.7277 C   0  0  0  0  0  0  0  0  0  0  0  0
   20.0732   20.7444   23.2973 H   0  0  0  0  0  0  0  0  0  0  0  0
   20.9867   19.9989   24.5962 H   0  0  0  0  0  0  0  0  0  0  0  0
   21.2092   18.9708   22.7163 C   0  0  0  0  0  0  0  0  0  0  0  0
   21.4917   18.0043   23.1555 H   0  0  0  0  0  0  0  0  0  0  0  0
   22.1462   19.5198   22.5501 H   0  0  0  0  0  0  0  0  0  0  0  0
   20.5215   18.7402   21.3527 C   0  0  0  0  0  0  0  0  0  0  0  0
   19.6527   18.0810   21.4756 H   0  0  0  0  0  0  0  0  0  0  0  0
   20.1476   19.6950   20.9579 H   0  0  0  0  0  0  0  0  0  0  0  0
   21.4876   18.1049   20.3325 C   0  0  0  0  0  0  0  0  0  0  0  0
   21.8563   17.1355   20.6925 H   0  0  0  0  0  0  0  0  0  0  0  0
   20.9816   17.9398   19.3724 H   0  0  0  0  0  0  0  0  0  0  0  0
   22.3531   18.7558   20.1517 H   0  0  0  0  0  0  0  0  0  0  0  0
  1  2  1  0  0  0  0
  1  3  2  0  0  0  0
  1  4  1  0  0  0  0
  4  5  1  0  0  0  0
  4  6  1  0  0  0  0
  4  7  1  0  0  0  0
  7  8  1  0  0  0  0
  7  9  1  0  0  0  0
  7 10  1  0  0  0  0
 10 11  1  0  0  0  0
 10 12  1  0  0  0  0
 10 13  1  0  0  0  0
 13 14  1  0  0  0  0
 13 15  1  0  0  0  0
 13 16  1  0  0  0  0
 16 17  1  0  0  0  0
 16 18  1  0  0  0  0
 16 19  1  0  0  0  0
M  END
> <VConfSearch Rank>
131

> <Conf_Id>
25

> <Delta U+W>
2.065

> <U+W>
-52.826

> <U>
10.967

> <W>
-63.794

> <W(PB)>
-65.830

> <W(SA)>
2.036

> <Valence>
8.609

> <Coulomb>
1.892

> <VdW>
0.467

> <VdW6>
-7.569

> <VdW12>
8.036

> <Bond>
0.170

> <Angle>
3.195

> <Pdih>
5.237

> <Idih>
0.007

> <Tether>
0.000

$$$$
VeraChem MOL file


 19 18  0  0  0  0  0  0  0  0999 V2000     
   20.7563   17.3999   24.3331 C   0  0  0  0  0  0  0  0  0  0  0  0
   21.7294   17.8793   24.8814 O   0  5  0  0  0  0  0  0  0  0  0  0
   20.7483   16.2934   23.8308 O   0  0  0  0  0  0  0  0  0  0  0  0
   19.4546   18.1993   24.3359 C   0  0  0  0  0  0  0  0  0  0  0  0
   19.1635   18.3108   25.3868 H   0  0  0  0  0  0  0  0  0  0  0  0
   18.6693   17.6039   23.8545 H   0  0  0  0  0  0  0  0  0  0  0  0
   19.5387   19.6076   23.6827 C   0  0  0  0  0  0  0  0  0  0  0  0
   18.6985   20.2064   24.0594 H   0  0  0  0  0  0  0  0  0  0  0  0
   20.4502   20.1220   24.0176 H   0  0  0  0  0  0  0  0  0  0  0  0
   19.4643   19.6118   22.1358 C   0  0  0  0  0  0  0  0  0  0  0  0
   19.3748   20.6542   21.8004 H   0  0  0  0  0  0  0  0  0  0  0  0
   18.5476   19.1026   21.8082 H   0  0  0  0  0  0  0  0  0  0  0  0
   20.6885   18.9724   21.4444 C   0  0  0  0  0  0  0  0  0  0  0  0
   21.6133   19.4103   21.8449 H   0  0  0  0  0  0  0  0  0  0  0  0
   20.7232   17.8967   21.6590 H   0  0  0  0  0  0  0  0  0  0  0  0
   20.6440   19.1736   19.9162 C   0  0  0  0  0  0  0  0  0  0  0  0
   21.5157   18.7065   19.4397 H   0  0  0  0  0  0  0  0  0  0  0  0
   19.7402   18.7214   19.4873 H   0  0  0  0  0  0  0  0  0  0  0  0
   20.6491   20.2410   19.6594 H   0  0  0  0  0  0  0  0  0  0  0  0
  1  2  1  0  0  0  0
  1  3  2  0  0  0  0
  1  4  1  0  0  0  0
  4  5  1  0  0  0  0
  4  6  1  0  0  0  0
  4  7  1  0  0  0  0
  7  8  1  0  0  0  0
  7  9  1  0  0  0  0
  7 10  1  0  0  0  0
 10 11  1  0  0  0  0
 10 12  1  0  0  0  0
 10 13  1  0  0  0  0
 13 14  1  0  0  0  0
 13 15  1  0  0  0  0
 13 16  1  0  0  0  0
 16 17  1  0  0  0  0
 16 18  1  0  0  0  0
 16 19  1  0  0  0  0
M  END
> <VConfSearch Rank>
132

> <Conf_Id>
52

> <Delta U+W>
2.070

> <U+W>
-52.822

> <U>
10.967

> <W>
-63.789

> <W(PB)>
-65.837

> <W(SA)>
2.048

> <Valence>
8.609

> <Coulomb>
1.892

> <VdW>
0.467

> <VdW6>
-7.569

> <VdW12>
8.035

> <Bond>
0.170

> <Angle>
3.196

> <Pdih>
5.237

> <Idih>
0.007

> <Tether>
0.000

$$$$
VeraChem MOL file


 19 18  0  0  0  0  0  0  0  0999 V2000     
   21.4577   17.4705   22.5565 C   0  0  0  0  0  0  0  0  0  0  0  0
   21.2829   16.6708   23.4554 O   0  5  0  0  0  0  0  0  0  0  0  0
   21.6579   17.1421   21.4038 O   0  0  0  0  0  0  0  0  0  0  0  0
   21.5579   18.9564   22.9048 C   0  0  0  0  0  0  0  0  0  0  0  0
   21.5620   19.5415   21.9773 H   0  0  0  0  0  0  0  0  0  0  0  0
   22.5432   19.0936   23.3647 H   0  0  0  0  0  0  0  0  0  0  0  0
   20.4707   19.4977   23.8766 C   0  0  0  0  0  0  0  0  0  0  0  0
   20.2830   18.7666   24.6750 H   0  0  0  0  0  0  0  0  0  0  0  0
   20.8783   20.3863   24.3772 H   0  0  0  0  0  0  0  0  0  0  0  0
   19.1317   19.9102   23.2131 C   0  0  0  0  0  0  0  0  0  0  0  0
   19.3058   20.7140   22.4847 H   0  0  0  0  0  0  0  0  0  0  0  0
   18.4990   20.3520   23.9951 H   0  0  0  0  0  0  0  0  0  0  0  0
   18.3423   18.7516   22.5570 C   0  0  0  0  0  0  0  0  0  0  0  0
   18.6403   17.7882   22.9934 H   0  0  0  0  0  0  0  0  0  0  0  0
   17.2754   18.8733   22.7891 H   0  0  0  0  0  0  0  0  0  0  0  0
   18.4985   18.7166   21.0216 C   0  0  0  0  0  0  0  0  0  0  0  0
   18.1101   19.6375   20.5677 H   0  0  0  0  0  0  0  0  0  0  0  0
   19.5490   18.6109   20.7268 H   0  0  0  0  0  0  0  0  0  0  0  0
   17.9431   17.8704   20.5971 H   0  0  0  0  0  0  0  0  0  0  0  0
  1  2  1  0  0  0  0
  1  3  2  0  0  0  0
  1  4  1  0  0  0  0
  4  5  1  0  0  0  0
  4  6  1  0  0  0  0
  4  7  1  0  0  0  0
  7  8  1  0  0  0  0
  7  9  1  0  0  0  0
  7 10  1  0  0  0  0
 10 11  1  0  0  0  0
 10 12  1  0  0  0  0
 10 13  1  0  0  0  0
 13 14  1  0  0  0  0
 13 15  1  0  0  0  0
 13 16  1  0  0  0  0
 16 17  1  0  0  0  0
 16 18  1  0  0  0  0
 16 19  1  0  0  0  0
M  END
> <VConfSearch Rank>
133

> <Conf_Id>
66

> <Delta U+W>
5.819

> <U+W>
-49.072

> <U>
15.324

> <W>
-64.396

> <W(PB)>
-66.382

> <W(SA)>
1.986

> <Valence>
11.748

> <Coulomb>
3.201

> <VdW>
0.375

> <VdW6>
-8.854

> <VdW12>
9.229

> <Bond>
0.216

> <Angle>
3.812

> <Pdih>
7.699

> <Idih>
0.022

> <Tether>
0.000

$$$$
VeraChem MOL file


 19 18  0  0  0  0  0  0  0  0999 V2000     
   18.6454   21.3065   20.0928 C   0  0  0  0  0  0  0  0  0  0  0  0
   17.9160   22.2774   20.1220 O   0  5  0  0  0  0  0  0  0  0  0  0
   19.1724   20.9029   19.0742 O   0  0  0  0  0  0  0  0  0  0  0  0
   18.8927   20.5789   21.4154 C   0  0  0  0  0  0  0  0  0  0  0  0
   17.9157   20.2741   21.8087 H   0  0  0  0  0  0  0  0  0  0  0  0
   19.3075   21.3106   22.1187 H   0  0  0  0  0  0  0  0  0  0  0  0
   19.8306   19.3456   21.3284 C   0  0  0  0  0  0  0  0  0  0  0  0
   19.4124   18.6191   20.6180 H   0  0  0  0  0  0  0  0  0  0  0  0
   20.8056   19.6567   20.9282 H   0  0  0  0  0  0  0  0  0  0  0  0
   20.0245   18.6735   22.7050 C   0  0  0  0  0  0  0  0  0  0  0  0
   19.0486   18.3635   23.1032 H   0  0  0  0  0  0  0  0  0  0  0  0
   20.4426   19.4016   23.4137 H   0  0  0  0  0  0  0  0  0  0  0  0
   20.9572   17.4477   22.6163 C   0  0  0  0  0  0  0  0  0  0  0  0
   20.5414   16.7161   21.9096 H   0  0  0  0  0  0  0  0  0  0  0  0
   21.9353   17.7541   22.2201 H   0  0  0  0  0  0  0  0  0  0  0  0
   21.1485   16.7792   23.9923 C   0  0  0  0  0  0  0  0  0  0  0  0
   20.1884   16.4342   24.3983 H   0  0  0  0  0  0  0  0  0  0  0  0
   21.8139   15.9099   23.9109 H   0  0  0  0  0  0  0  0  0  0  0  0
   21.5928   17.4801   24.7112 H   0  0  0  0  0  0  0  0  0  0  0  0
  1  2  1  0  0  0  0
  1  3  2  0  0  0  0
  1  4  1  0  0  0  0
  4  5  1  0  0  0  0
  4  6  1  0  0  0  0
  4  7  1  0  0  0  0
  7  8  1  0  0  0  0
  7  9  1  0  0  0  0
  7 10  1  0  0  0  0
 10 11  1  0  0  0  0
 10 12  1  0  0  0  0
 10 13  1  0  0  0  0
 13 14  1  0  0  0  0
 13 15  1  0  0  0  0
 13 16  1  0  0  0  0
 16 17  1  0  0  0  0
 16 18  1  0  0  0  0
 16 19  1  0  0  0  0
M  END
> <VConfSearch Rank>
134

> <Conf_Id>
0

> <Delta U+W>
0.000

> <U+W>
-54.891

> <U>
6.966

> <W>
-61.857

> <W(PB)>
-63.965

> <W(SA)>
2.108

> <Valence>
7.175

> <Coulomb>
-1.360

> <VdW>
1.151

> <VdW6>
-5.641

> <VdW12>
6.792

> <Bond>
0.119

> <Angle>
2.715

> <Pdih>
4.340

> <Idih>
0.000

> <Tether>
0.000

$$$$
VeraChem MOL file


 19 18  0  0  0  0  0  0  0  0999 V2000     
   20.5496   20.7364   24.9434 C   0  0  0  0  0  0  0  0  0  0  0  0
   20.6939   21.9294   24.7640 O   0  5  0  0  0  0  0  0  0  0  0  0
   20.1082   20.2592   25.9698 O   0  0  0  0  0  0  0  0  0  0  0  0
   20.9239   19.7873   23.8105 C   0  0  0  0  0  0  0  0  0  0  0  0
   21.2821   18.8508   24.2548 H   0  0  0  0  0  0  0  0  0  0  0  0
   21.7645   20.2275   23.2607 H   0  0  0  0  0  0  0  0  0  0  0  0
   19.7448   19.5049   22.8472 C   0  0  0  0  0  0  0  0  0  0  0  0
   18.9071   19.0764   23.4149 H   0  0  0  0  0  0  0  0  0  0  0  0
   19.3894   20.4533   22.4209 H   0  0  0  0  0  0  0  0  0  0  0  0
   20.1496   18.5421   21.7102 C   0  0  0  0  0  0  0  0  0  0  0  0
   20.5056   17.5956   22.1396 H   0  0  0  0  0  0  0  0  0  0  0  0
   20.9879   18.9727   21.1453 H   0  0  0  0  0  0  0  0  0  0  0  0
   18.9730   18.2625   20.7521 C   0  0  0  0  0  0  0  0  0  0  0  0
   18.1329   17.8300   21.3131 H   0  0  0  0  0  0  0  0  0  0  0  0
   18.6152   19.2069   20.3189 H   0  0  0  0  0  0  0  0  0  0  0  0
   19.3806   17.3009   19.6181 C   0  0  0  0  0  0  0  0  0  0  0  0
   18.5327   17.1131   18.9467 H   0  0  0  0  0  0  0  0  0  0  0  0
   20.1992   17.7230   19.0204 H   0  0  0  0  0  0  0  0  0  0  0  0
   19.7133   16.3358   20.0221 H   0  0  0  0  0  0  0  0  0  0  0  0
  1  2  1  0  0  0  0
  1  3  2  0  0  0  0
  1  4  1  0  0  0  0
  4  5  1  0  0  0  0
  4  6  1  0  0  0  0
  4  7  1  0  0  0  0
  7  8  1  0  0  0  0
  7  9  1  0  0  0  0
  7 10  1  0  0  0  0
 10 11  1  0  0  0  0
 10 12  1  0  0  0  0
 10 13  1  0  0  0  0
 13 14  1  0  0  0  0
 13 15  1  0  0  0  0
 13 16  1  0  0  0  0
 16 17  1  0  0  0  0
 16 18  1  0  0  0  0
 16 19  1  0  0  0  0
M  END
> <VConfSearch Rank>
135

> <Conf_Id>
18

> <Delta U+W>
-1.199

> <U+W>
-56.090

> <U>
5.975

> <W>
-62.066

> <W(PB)>
-64.219

> <W(SA)>
2.153

> <Valence>
6.673

> <Coulomb>
-1.307

> <VdW>
0.610

> <VdW6>
-5.351

> <VdW12>
5.961

> <Bond>
0.086

> <Angle>
2.253

> <Pdih>
4.333

> <Idih>
0.001

> <Tether>
0.000

$$$$
VeraChem MOL file


 19 18  0  0  0  0  0  0  0  0999 V2000     
   20.6406   21.7149   20.7401 C   0  0  0  0  0  0  0  0  0  0  0  0
   19.7892   22.4554   20.2894 O   0  5  0  0  0  0  0  0  0  0  0  0
   21.7767   22.0681   20.9868 O   0  0  0  0  0  0  0  0  0  0  0  0
   20.2561   20.2688   21.0320 C   0  0  0  0  0  0  0  0  0  0  0  0
   21.1417   19.6470   20.8590 H   0  0  0  0  0  0  0  0  0  0  0  0
   19.4968   19.9645   20.3017 H   0  0  0  0  0  0  0  0  0  0  0  0
   19.7212   20.0693   22.4740 C   0  0  0  0  0  0  0  0  0  0  0  0
   20.5054   20.3350   23.1963 H   0  0  0  0  0  0  0  0  0  0  0  0
   18.8931   20.7715   22.6430 H   0  0  0  0  0  0  0  0  0  0  0  0
   19.2180   18.6332   22.7531 C   0  0  0  0  0  0  0  0  0  0  0  0
   18.4282   18.3737   22.0348 H   0  0  0  0  0  0  0  0  0  0  0  0
   18.7517   18.6144   23.7478 H   0  0  0  0  0  0  0  0  0  0  0  0
   20.3374   17.5693   22.7033 C   0  0  0  0  0  0  0  0  0  0  0  0
   20.7667   17.5183   21.6941 H   0  0  0  0  0  0  0  0  0  0  0  0
   21.1510   17.8550   23.3843 H   0  0  0  0  0  0  0  0  0  0  0  0
   19.8090   16.1745   23.0940 C   0  0  0  0  0  0  0  0  0  0  0  0
   20.6144   15.4299   23.0510 H   0  0  0  0  0  0  0  0  0  0  0  0
   19.4057   16.1786   24.1152 H   0  0  0  0  0  0  0  0  0  0  0  0
   19.0118   15.8516   22.4116 H   0  0  0  0  0  0  0  0  0  0  0  0
  1  2  1  0  0  0  0
  1  3  2  0  0  0  0
  1  4  1  0  0  0  0
  4  5  1  0  0  0  0
  4  6  1  0  0  0  0
  4  7  1  0  0  0  0
  7  8  1  0  0  0  0
  7  9  1  0  0  0  0
  7 10  1  0  0  0  0
 10 11  1  0  0  0  0
 10 12  1  0  0  0  0
 10 13  1  0  0  0  0
 13 14  1  0  0  0  0
 13 15  1  0  0  0  0
 13 16  1  0  0  0  0
 16 17  1  0  0  0  0
 16 18  1  0  0  0  0
 16 19  1  0  0  0  0
M  END
> <VConfSearch Rank>
136

> <Conf_Id>
34

> <Delta U+W>
-0.563

> <U+W>
-55.455

> <U>
6.914

> <W>
-62.369

> <W(PB)>
-64.446

> <W(SA)>
2.077

> <Valence>
7.196

> <Coulomb>
-1.020

> <VdW>
0.738

> <VdW6>
-6.010

> <VdW12>
6.748

> <Bond>
0.126

> <Angle>
2.499

> <Pdih>
4.570

> <Idih>
0.001

> <Tether>
0.000

$$$$
VeraChem MOL file


 19 18  0  0  0  0  0  0  0  0999 V2000     
   16.9355   18.5464   23.1581 C   0  0  0  0  0  0  0  0  0  0  0  0
   16.1285   17.8399   22.5872 O   0  5  0  0  0  0  0  0  0  0  0  0
   16.6268   19.4202   23.9439 O   0  0  0  0  0  0  0  0  0  0  0  0
   18.4153   18.3396   22.8551 C   0  0  0  0  0  0  0  0  0  0  0  0
   18.5721   17.2770   22.6340 H   0  0  0  0  0  0  0  0  0  0  0  0
   18.9775   18.5686   23.7674 H   0  0  0  0  0  0  0  0  0  0  0  0
   18.9133   19.2109   21.6728 C   0  0  0  0  0  0  0  0  0  0  0  0
   18.2708   19.0231   20.8014 H   0  0  0  0  0  0  0  0  0  0  0  0
   18.7924   20.2738   21.9238 H   0  0  0  0  0  0  0  0  0  0  0  0
   20.3820   18.9313   21.2749 C   0  0  0  0  0  0  0  0  0  0  0  0
   20.6105   19.4999   20.3631 H   0  0  0  0  0  0  0  0  0  0  0  0
   20.4977   17.8698   21.0164 H   0  0  0  0  0  0  0  0  0  0  0  0
   21.3995   19.3137   22.3731 C   0  0  0  0  0  0  0  0  0  0  0  0
   21.2501   20.3615   22.6682 H   0  0  0  0  0  0  0  0  0  0  0  0
   21.2368   18.7015   23.2699 H   0  0  0  0  0  0  0  0  0  0  0  0
   22.8510   19.1199   21.8906 C   0  0  0  0  0  0  0  0  0  0  0  0
   23.0363   18.0735   21.6145 H   0  0  0  0  0  0  0  0  0  0  0  0
   23.0617   19.7481   21.0152 H   0  0  0  0  0  0  0  0  0  0  0  0
   23.5612   19.3926   22.6820 H   0  0  0  0  0  0  0  0  0  0  0  0
  1  2  1  0  0  0  0
  1  3  2  0  0  0  0
  1  4  1  0  0  0  0
  4  5  1  0  0  0  0
  4  6  1  0  0  0  0
  4  7  1  0  0  0  0
  7  8  1  0  0  0  0
  7  9  1  0  0  0  0
  7 10  1  0  0  0  0
 10 11  1  0  0  0  0
 10 12  1  0  0  0  0
 10 13  1  0  0  0  0
 13 14  1  0  0  0  0
 13 15  1  0  0  0  0
 13 16  1  0  0  0  0
 16 17  1  0  0  0  0
 16 18  1  0  0  0  0
 16 19  1  0  0  0  0
M  END
> <VConfSearch Rank>
137

> <Conf_Id>
33

> <Delta U+W>
-0.526

> <U+W>
-55.418

> <U>
6.914

> <W>
-62.332

> <W(PB)>
-64.421

> <W(SA)>
2.090

> <Valence>
7.196

> <Coulomb>
-1.020

> <VdW>
0.738

> <VdW6>
-6.010

> <VdW12>
6.748

> <Bond>
0.126

> <Angle>
2.499

> <Pdih>
4.570

> <Idih>
0.001

> <Tether>
0.000

$$$$
VeraChem MOL file


 19 18  0  0  0  0  0  0  0  0999 V2000     
   17.9372   16.5537   22.8755 C   0  0  0  0  0  0  0  0  0  0  0  0
   18.0119   16.2633   24.0529 O   0  5  0  0  0  0  0  0  0  0  0  0
   16.9087   16.4918   22.2315 O   0  0  0  0  0  0  0  0  0  0  0  0
   19.1995   17.0394   22.1718 C   0  0  0  0  0  0  0  0  0  0  0  0
   19.1519   16.7155   21.1252 H   0  0  0  0  0  0  0  0  0  0  0  0
   20.0599   16.5354   22.6284 H   0  0  0  0  0  0  0  0  0  0  0  0
   19.3786   18.5758   22.2487 C   0  0  0  0  0  0  0  0  0  0  0  0
   18.5054   19.0658   21.7964 H   0  0  0  0  0  0  0  0  0  0  0  0
   19.4047   18.8781   23.3039 H   0  0  0  0  0  0  0  0  0  0  0  0
   20.6670   19.0394   21.5307 C   0  0  0  0  0  0  0  0  0  0  0  0
   20.6546   18.6663   20.4974 H   0  0  0  0  0  0  0  0  0  0  0  0
   21.5439   18.5875   22.0144 H   0  0  0  0  0  0  0  0  0  0  0  0
   20.8310   20.5765   21.4955 C   0  0  0  0  0  0  0  0  0  0  0  0
   21.7003   20.8241   20.8708 H   0  0  0  0  0  0  0  0  0  0  0  0
   19.9583   21.0318   21.0072 H   0  0  0  0  0  0  0  0  0  0  0  0
   21.0293   21.2018   22.8931 C   0  0  0  0  0  0  0  0  0  0  0  0
   21.8796   20.7411   23.4127 H   0  0  0  0  0  0  0  0  0  0  0  0
   21.2286   22.2778   22.8072 H   0  0  0  0  0  0  0  0  0  0  0  0
   20.1358   21.0787   23.5178 H   0  0  0  0  0  0  0  0  0  0  0  0
  1  2  1  0  0  0  0
  1  3  2  0  0  0  0
  1  4  1  0  0  0  0
  4  5  1  0  0  0  0
  4  6  1  0  0  0  0
  4  7  1  0  0  0  0
  7  8  1  0  0  0  0
  7  9  1  0  0  0  0
  7 10  1  0  0  0  0
 10 11  1  0  0  0  0
 10 12  1  0  0  0  0
 10 13  1  0  0  0  0
 13 14  1  0  0  0  0
 13 15  1  0  0  0  0
 13 16  1  0  0  0  0
 16 17  1  0  0  0  0
 16 18  1  0  0  0  0
 16 19  1  0  0  0  0
M  END
> <VConfSearch Rank>
138

> <Conf_Id>
42

> <Delta U+W>
-0.344

> <U+W>
-55.236

> <U>
7.244

> <W>
-62.479

> <W(PB)>
-64.610

> <W(SA)>
2.130

> <Valence>
7.174

> <Coulomb>
-0.669

> <VdW>
0.739

> <VdW6>
-5.969

> <VdW12>
6.708

> <Bond>
0.116

> <Angle>
2.481

> <Pdih>
4.576

> <Idih>
0.000

> <Tether>
0.000

$$$$
VeraChem MOL file


 19 18  0  0  0  0  0  0  0  0999 V2000     
   17.8061   17.9357   24.2247 C   0  0  0  0  0  0  0  0  0  0  0  0
   18.3168   17.4057   25.1914 O   0  5  0  0  0  0  0  0  0  0  0  0
   16.7557   17.5713   23.7345 O   0  0  0  0  0  0  0  0  0  0  0  0
   18.5322   19.1112   23.5801 C   0  0  0  0  0  0  0  0  0  0  0  0
   19.0697   19.6533   24.3675 H   0  0  0  0  0  0  0  0  0  0  0  0
   17.7781   19.7952   23.1725 H   0  0  0  0  0  0  0  0  0  0  0  0
   19.5156   18.6742   22.4665 C   0  0  0  0  0  0  0  0  0  0  0  0
   20.2484   17.9767   22.8932 H   0  0  0  0  0  0  0  0  0  0  0  0
   18.9643   18.1251   21.6907 H   0  0  0  0  0  0  0  0  0  0  0  0
   20.2398   19.8848   21.8336 C   0  0  0  0  0  0  0  0  0  0  0  0
   20.8305   20.4053   22.5998 H   0  0  0  0  0  0  0  0  0  0  0  0
   19.4896   20.6039   21.4771 H   0  0  0  0  0  0  0  0  0  0  0  0
   21.1547   19.5015   20.6475 C   0  0  0  0  0  0  0  0  0  0  0  0
   20.5662   18.9856   19.8763 H   0  0  0  0  0  0  0  0  0  0  0  0
   21.5348   20.4221   20.1836 H   0  0  0  0  0  0  0  0  0  0  0  0
   22.3542   18.6216   21.0608 C   0  0  0  0  0  0  0  0  0  0  0  0
   22.0249   17.6406   21.4254 H   0  0  0  0  0  0  0  0  0  0  0  0
   23.0185   18.4513   20.2037 H   0  0  0  0  0  0  0  0  0  0  0  0
   22.9414   19.1046   21.8527 H   0  0  0  0  0  0  0  0  0  0  0  0
  1  2  1  0  0  0  0
  1  3  2  0  0  0  0
  1  4  1  0  0  0  0
  4  5  1  0  0  0  0
  4  6  1  0  0  0  0
  4  7  1  0  0  0  0
  7  8  1  0  0  0  0
  7  9  1  0  0  0  0
  7 10  1  0  0  0  0
 10 11  1  0  0  0  0
 10 12  1  0  0  0  0
 10 13  1  0  0  0  0
 13 14  1  0  0  0  0
 13 15  1  0  0  0  0
 13 16  1  0  0  0  0
 16 17  1  0  0  0  0
 16 18  1  0  0  0  0
 16 19  1  0  0  0  0
M  END
> <VConfSearch Rank>
139

> <Conf_Id>
41

> <Delta U+W>
-0.361

> <U+W>
-55.252

> <U>
7.244

> <W>
-62.496

> <W(PB)>
-64.596

> <W(SA)>
2.099

> <Valence>
7.174

> <Coulomb>
-0.669

> <VdW>
0.739

> <VdW6>
-5.969

> <VdW12>
6.708

> <Bond>
0.116

> <Angle>
2.481

> <Pdih>
4.576

> <Idih>
0.000

> <Tether>
0.000

$$$$
VeraChem MOL file


 19 18  0  0  0  0  0  0  0  0999 V2000     
   19.2469   17.4669   19.9829 C   0  0  0  0  0  0  0  0  0  0  0  0
   19.6114   18.2553   19.1331 O   0  5  0  0  0  0  0  0  0  0  0  0
   19.6060   16.3066   20.0212 O   0  0  0  0  0  0  0  0  0  0  0  0
   18.2678   17.9523   21.0483 C   0  0  0  0  0  0  0  0  0  0  0  0
   17.4768   17.1980   21.1348 H   0  0  0  0  0  0  0  0  0  0  0  0
   17.7904   18.8733   20.6920 H   0  0  0  0  0  0  0  0  0  0  0  0
   18.9130   18.1873   22.4388 C   0  0  0  0  0  0  0  0  0  0  0  0
   18.1196   18.3972   23.1689 H   0  0  0  0  0  0  0  0  0  0  0  0
   19.4112   17.2653   22.7693 H   0  0  0  0  0  0  0  0  0  0  0  0
   19.9237   19.3560   22.4351 C   0  0  0  0  0  0  0  0  0  0  0  0
   19.4242   20.2723   22.0916 H   0  0  0  0  0  0  0  0  0  0  0  0
   20.7303   19.1457   21.7191 H   0  0  0  0  0  0  0  0  0  0  0  0
   20.5292   19.5920   23.8345 C   0  0  0  0  0  0  0  0  0  0  0  0
   19.7272   19.8070   24.5542 H   0  0  0  0  0  0  0  0  0  0  0  0
   21.0316   18.6777   24.1795 H   0  0  0  0  0  0  0  0  0  0  0  0
   21.5371   20.7587   23.8275 C   0  0  0  0  0  0  0  0  0  0  0  0
   21.0533   21.6937   23.5159 H   0  0  0  0  0  0  0  0  0  0  0  0
   21.9580   20.9123   24.8297 H   0  0  0  0  0  0  0  0  0  0  0  0
   22.3674   20.5560   23.1384 H   0  0  0  0  0  0  0  0  0  0  0  0
  1  2  1  0  0  0  0
  1  3  2  0  0  0  0
  1  4  1  0  0  0  0
  4  5  1  0  0  0  0
  4  6  1  0  0  0  0
  4  7  1  0  0  0  0
  7  8  1  0  0  0  0
  7  9  1  0  0  0  0
  7 10  1  0  0  0  0
 10 11  1  0  0  0  0
 10 12  1  0  0  0  0
 10 13  1  0  0  0  0
 13 14  1  0  0  0  0
 13 15  1  0  0  0  0
 13 16  1  0  0  0  0
 16 17  1  0  0  0  0
 16 18  1  0  0  0  0
 16 19  1  0  0  0  0
M  END
> <VConfSearch Rank>
140

> <Conf_Id>
36

> <Delta U+W>
-0.079

> <U+W>
-54.971

> <U>
8.266

> <W>
-63.237

> <W(PB)>
-65.340

> <W(SA)>
2.103

> <Valence>
6.935

> <Coulomb>
0.874

> <VdW>
0.457

> <VdW6>
-6.205

> <VdW12>
6.662

> <Bond>
0.107

> <Angle>
2.420

> <Pdih>
4.407

> <Idih>
0.001

> <Tether>
0.000

$$$$
VeraChem MOL file


 19 18  0  0  0  0  0  0  0  0999 V2000     
   19.5684   19.2914   19.5567 C   0  0  0  0  0  0  0  0  0  0  0  0
   20.6558   19.6651   19.1637 O   0  5  0  0  0  0  0  0  0  0  0  0
   18.5303   19.8757   19.3171 O   0  0  0  0  0  0  0  0  0  0  0  0
   19.4979   18.0069   20.3780 C   0  0  0  0  0  0  0  0  0  0  0  0
   20.4221   17.4381   20.2190 H   0  0  0  0  0  0  0  0  0  0  0  0
   18.6791   17.4019   19.9708 H   0  0  0  0  0  0  0  0  0  0  0  0
   19.2660   18.2384   21.8938 C   0  0  0  0  0  0  0  0  0  0  0  0
   18.3530   18.8333   22.0356 H   0  0  0  0  0  0  0  0  0  0  0  0
   19.0905   17.2690   22.3795 H   0  0  0  0  0  0  0  0  0  0  0  0
   20.4602   18.9416   22.5770 C   0  0  0  0  0  0  0  0  0  0  0  0
   20.6316   19.9202   22.1076 H   0  0  0  0  0  0  0  0  0  0  0  0
   21.3727   18.3498   22.4213 H   0  0  0  0  0  0  0  0  0  0  0  0
   20.2213   19.1332   24.0892 C   0  0  0  0  0  0  0  0  0  0  0  0
   19.3103   19.7269   24.2478 H   0  0  0  0  0  0  0  0  0  0  0  0
   20.0534   18.1570   24.5649 H   0  0  0  0  0  0  0  0  0  0  0  0
   21.4145   19.8350   24.7680 C   0  0  0  0  0  0  0  0  0  0  0  0
   21.5856   20.8281   24.3322 H   0  0  0  0  0  0  0  0  0  0  0  0
   21.2278   19.9636   25.8421 H   0  0  0  0  0  0  0  0  0  0  0  0
   22.3341   19.2466   24.6517 H   0  0  0  0  0  0  0  0  0  0  0  0
  1  2  1  0  0  0  0
  1  3  2  0  0  0  0
  1  4  1  0  0  0  0
  4  5  1  0  0  0  0
  4  6  1  0  0  0  0
  4  7  1  0  0  0  0
  7  8  1  0  0  0  0
  7  9  1  0  0  0  0
  7 10  1  0  0  0  0
 10 11  1  0  0  0  0
 10 12  1  0  0  0  0
 10 13  1  0  0  0  0
 13 14  1  0  0  0  0
 13 15  1  0  0  0  0
 13 16  1  0  0  0  0
 16 17  1  0  0  0  0
 16 18  1  0  0  0  0
 16 19  1  0  0  0  0
M  END
> <VConfSearch Rank>
141

> <Conf_Id>
35

> <Delta U+W>
-0.030

> <U+W>
-54.921

> <U>
8.267

> <W>
-63.188

> <W(PB)>
-65.294

> <W(SA)>
2.106

> <Valence>
6.935

> <Coulomb>
0.875

> <VdW>
0.457

> <VdW6>
-6.205

> <VdW12>
6.662

> <Bond>
0.107

> <Angle>
2.420

> <Pdih>
4.407

> <Idih>
0.001

> <Tether>
0.000

$$$$
VeraChem MOL file


 19 18  0  0  0  0  0  0  0  0999 V2000     
   17.5526   20.3433   22.4766 C   0  0  0  0  0  0  0  0  0  0  0  0
   16.6752   19.8677   21.7834 O   0  5  0  0  0  0  0  0  0  0  0  0
   17.8231   21.5278   22.4989 O   0  0  0  0  0  0  0  0  0  0  0  0
   18.3419   19.4033   23.3837 C   0  0  0  0  0  0  0  0  0  0  0  0
   17.6189   18.7507   23.8871 H   0  0  0  0  0  0  0  0  0  0  0  0
   18.8303   19.9980   24.1653 H   0  0  0  0  0  0  0  0  0  0  0  0
   19.3897   18.5359   22.6385 C   0  0  0  0  0  0  0  0  0  0  0  0
   19.7900   17.7936   23.3407 H   0  0  0  0  0  0  0  0  0  0  0  0
   18.8929   17.9764   21.8338 H   0  0  0  0  0  0  0  0  0  0  0  0
   20.5496   19.3772   22.0539 C   0  0  0  0  0  0  0  0  0  0  0  0
   21.0691   19.9057   22.8648 H   0  0  0  0  0  0  0  0  0  0  0  0
   20.1363   20.1523   21.3940 H   0  0  0  0  0  0  0  0  0  0  0  0
   21.5679   18.5409   21.2450 C   0  0  0  0  0  0  0  0  0  0  0  0
   21.0514   18.0126   20.4317 H   0  0  0  0  0  0  0  0  0  0  0  0
   22.2829   19.2240   20.7661 H   0  0  0  0  0  0  0  0  0  0  0  0
   22.3511   17.5280   22.1079 C   0  0  0  0  0  0  0  0  0  0  0  0
   21.6906   16.7518   22.5140 H   0  0  0  0  0  0  0  0  0  0  0  0
   23.1212   17.0271   21.5071 H   0  0  0  0  0  0  0  0  0  0  0  0
   22.8505   18.0299   22.9468 H   0  0  0  0  0  0  0  0  0  0  0  0
  1  2  1  0  0  0  0
  1  3  2  0  0  0  0
  1  4  1  0  0  0  0
  4  5  1  0  0  0  0
  4  6  1  0  0  0  0
  4  7  1  0  0  0  0
  7  8  1  0  0  0  0
  7  9  1  0  0  0  0
  7 10  1  0  0  0  0
 10 11  1  0  0  0  0
 10 12  1  0  0  0  0
 10 13  1  0  0  0  0
 13 14  1  0  0  0  0
 13 15  1  0  0  0  0
 13 16  1  0  0  0  0
 16 17  1  0  0  0  0
 16 18  1  0  0  0  0
 16 19  1  0  0  0  0
M  END
> <VConfSearch Rank>
142

> <Conf_Id>
74

> <Delta U+W>
0.797

> <U+W>
-54.095

> <U>
8.869

> <W>
-62.964

> <W(PB)>
-65.046

> <W(SA)>
2.082

> <Valence>
7.469

> <Coulomb>
0.762

> <VdW>
0.639

> <VdW6>
-6.782

> <VdW12>
7.421

> <Bond>
0.141

> <Angle>
2.667

> <Pdih>
4.660

> <Idih>
0.001

> <Tether>
0.000

$$$$
VeraChem MOL file


 19 18  0  0  0  0  0  0  0  0999 V2000     
   18.5830   21.4075   23.0049 C   0  0  0  0  0  0  0  0  0  0  0  0
   19.0075   22.3950   23.5715 O   0  5  0  0  0  0  0  0  0  0  0  0
   17.6086   21.4159   22.2792 O   0  0  0  0  0  0  0  0  0  0  0  0
   19.3251   20.0902   23.2009 C   0  0  0  0  0  0  0  0  0  0  0  0
   18.5873   19.2812   23.1524 H   0  0  0  0  0  0  0  0  0  0  0  0
   19.7493   20.0848   24.2120 H   0  0  0  0  0  0  0  0  0  0  0  0
   20.4438   19.8690   22.1501 C   0  0  0  0  0  0  0  0  0  0  0  0
   20.0028   19.8381   21.1450 H   0  0  0  0  0  0  0  0  0  0  0  0
   21.1144   20.7394   22.1608 H   0  0  0  0  0  0  0  0  0  0  0  0
   21.2872   18.5940   22.4026 C   0  0  0  0  0  0  0  0  0  0  0  0
   21.8004   18.6925   23.3689 H   0  0  0  0  0  0  0  0  0  0  0  0
   22.0791   18.5390   21.6432 H   0  0  0  0  0  0  0  0  0  0  0  0
   20.4927   17.2649   22.3940 C   0  0  0  0  0  0  0  0  0  0  0  0
   21.1894   16.4400   22.5973 H   0  0  0  0  0  0  0  0  0  0  0  0
   19.7627   17.2540   23.2142 H   0  0  0  0  0  0  0  0  0  0  0  0
   19.7754   16.9900   21.0549 C   0  0  0  0  0  0  0  0  0  0  0  0
   20.4837   17.0187   20.2167 H   0  0  0  0  0  0  0  0  0  0  0  0
   19.3054   15.9981   21.0674 H   0  0  0  0  0  0  0  0  0  0  0  0
   18.9868   17.7293   20.8659 H   0  0  0  0  0  0  0  0  0  0  0  0
  1  2  1  0  0  0  0
  1  3  2  0  0  0  0
  1  4  1  0  0  0  0
  4  5  1  0  0  0  0
  4  6  1  0  0  0  0
  4  7  1  0  0  0  0
  7  8  1  0  0  0  0
  7  9  1  0  0  0  0
  7 10  1  0  0  0  0
 10 11  1  0  0  0  0
 10 12  1  0  0  0  0
 10 13  1  0  0  0  0
 13 14  1  0  0  0  0
 13 15  1  0  0  0  0
 13 16  1  0  0  0  0
 16 17  1  0  0  0  0
 16 18  1  0  0  0  0
 16 19  1  0  0  0  0
M  END
> <VConfSearch Rank>
143

> <Conf_Id>
67

> <Delta U+W>
0.308

> <U+W>
-54.583

> <U>
8.219

> <W>
-62.802

> <W(PB)>
-64.859

> <W(SA)>
2.057

> <Valence>
7.609

> <Coulomb>
-0.089

> <VdW>
0.699

> <VdW6>
-6.924

> <VdW12>
7.623

> <Bond>
0.163

> <Angle>
2.870

> <Pdih>
4.576

> <Idih>
0.001

> <Tether>
0.000

$$$$
VeraChem MOL file


 19 18  0  0  0  0  0  0  0  0999 V2000     
   17.2098   18.6655   21.3893 C   0  0  0  0  0  0  0  0  0  0  0  0
   16.7702   18.6483   20.2566 O   0  5  0  0  0  0  0  0  0  0  0  0
   16.5484   18.9690   22.3623 O   0  0  0  0  0  0  0  0  0  0  0  0
   18.6764   18.3055   21.5979 C   0  0  0  0  0  0  0  0  0  0  0  0
   18.9567   17.5639   20.8404 H   0  0  0  0  0  0  0  0  0  0  0  0
   18.7651   17.8210   22.5770 H   0  0  0  0  0  0  0  0  0  0  0  0
   19.6151   19.5369   21.5141 C   0  0  0  0  0  0  0  0  0  0  0  0
   19.4362   20.0520   20.5602 H   0  0  0  0  0  0  0  0  0  0  0  0
   19.3498   20.2552   22.3011 H   0  0  0  0  0  0  0  0  0  0  0  0
   21.1192   19.1765   21.6050 C   0  0  0  0  0  0  0  0  0  0  0  0
   21.7095   20.0962   21.4930 H   0  0  0  0  0  0  0  0  0  0  0  0
   21.3848   18.5399   20.7501 H   0  0  0  0  0  0  0  0  0  0  0  0
   21.5488   18.4622   22.9101 C   0  0  0  0  0  0  0  0  0  0  0  0
   21.0482   17.4885   22.9921 H   0  0  0  0  0  0  0  0  0  0  0  0
   22.6245   18.2461   22.8524 H   0  0  0  0  0  0  0  0  0  0  0  0
   21.2776   19.2957   24.1810 C   0  0  0  0  0  0  0  0  0  0  0  0
   20.2016   19.4386   24.3420 H   0  0  0  0  0  0  0  0  0  0  0  0
   21.6819   18.7885   25.0666 H   0  0  0  0  0  0  0  0  0  0  0  0
   21.7505   20.2839   24.1112 H   0  0  0  0  0  0  0  0  0  0  0  0
  1  2  1  0  0  0  0
  1  3  2  0  0  0  0
  1  4  1  0  0  0  0
  4  5  1  0  0  0  0
  4  6  1  0  0  0  0
  4  7  1  0  0  0  0
  7  8  1  0  0  0  0
  7  9  1  0  0  0  0
  7 10  1  0  0  0  0
 10 11  1  0  0  0  0
 10 12  1  0  0  0  0
 10 13  1  0  0  0  0
 13 14  1  0  0  0  0
 13 15  1  0  0  0  0
 13 16  1  0  0  0  0
 16 17  1  0  0  0  0
 16 18  1  0  0  0  0
 16 19  1  0  0  0  0
M  END
> <VConfSearch Rank>
144

> <Conf_Id>
21

> <Delta U+W>
0.319

> <U+W>
-54.572

> <U>
8.220

> <W>
-62.792

> <W(PB)>
-64.830

> <W(SA)>
2.038

> <Valence>
7.609

> <Coulomb>
-0.088

> <VdW>
0.699

> <VdW6>
-6.924

> <VdW12>
7.623

> <Bond>
0.163

> <Angle>
2.870

> <Pdih>
4.576

> <Idih>
0.000

> <Tether>
0.000

$$$$
VeraChem MOL file


 19 18  0  0  0  0  0  0  0  0999 V2000     
   22.7445   19.7729   22.1450 C   0  0  0  0  0  0  0  0  0  0  0  0
   23.7745   19.1426   22.2802 O   0  5  0  0  0  0  0  0  0  0  0  0
   22.6713   20.8166   21.5274 O   0  0  0  0  0  0  0  0  0  0  0  0
   21.4711   19.2135   22.7692 C   0  0  0  0  0  0  0  0  0  0  0  0
   20.8411   20.0593   23.0619 H   0  0  0  0  0  0  0  0  0  0  0  0
   21.7487   18.6885   23.6910 H   0  0  0  0  0  0  0  0  0  0  0  0
   20.7087   18.2521   21.8195 C   0  0  0  0  0  0  0  0  0  0  0  0
   20.4807   18.7587   20.8715 H   0  0  0  0  0  0  0  0  0  0  0  0
   21.3825   17.4215   21.5678 H   0  0  0  0  0  0  0  0  0  0  0  0
   19.4142   17.6691   22.4410 C   0  0  0  0  0  0  0  0  0  0  0  0
   19.5164   17.5929   23.5322 H   0  0  0  0  0  0  0  0  0  0  0  0
   19.2962   16.6384   22.0795 H   0  0  0  0  0  0  0  0  0  0  0  0
   18.1201   18.4393   22.0803 C   0  0  0  0  0  0  0  0  0  0  0  0
   17.9797   18.4333   20.9906 H   0  0  0  0  0  0  0  0  0  0  0  0
   17.2630   17.8975   22.5034 H   0  0  0  0  0  0  0  0  0  0  0  0
   18.0859   19.8941   22.5923 C   0  0  0  0  0  0  0  0  0  0  0  0
   17.0970   20.3381   22.4198 H   0  0  0  0  0  0  0  0  0  0  0  0
   18.2940   19.9384   23.6692 H   0  0  0  0  0  0  0  0  0  0  0  0
   18.8223   20.5154   22.0675 H   0  0  0  0  0  0  0  0  0  0  0  0
  1  2  1  0  0  0  0
  1  3  2  0  0  0  0
  1  4  1  0  0  0  0
  4  5  1  0  0  0  0
  4  6  1  0  0  0  0
  4  7  1  0  0  0  0
  7  8  1  0  0  0  0
  7  9  1  0  0  0  0
  7 10  1  0  0  0  0
 10 11  1  0  0  0  0
 10 12  1  0  0  0  0
 10 13  1  0  0  0  0
 13 14  1  0  0  0  0
 13 15  1  0  0  0  0
 13 16  1  0  0  0  0
 16 17  1  0  0  0  0
 16 18  1  0  0  0  0
 16 19  1  0  0  0  0
M  END
> <VConfSearch Rank>
145

> <Conf_Id>
24

> <Delta U+W>
2.477

> <U+W>
-52.414

> <U>
10.422

> <W>
-62.836

> <W(PB)>
-64.906

> <W(SA)>
2.070

> <Valence>
9.628

> <Coulomb>
0.101

> <VdW>
0.693

> <VdW6>
-6.927

> <VdW12>
7.620

> <Bond>
0.173

> <Angle>
2.989

> <Pdih>
6.465

> <Idih>
0.001

> <Tether>
0.000

$$$$
VeraChem MOL file


 19 18  0  0  0  0  0  0  0  0999 V2000     
   18.3939   16.9911   23.0427 C   0  0  0  0  0  0  0  0  0  0  0  0
   19.2794   16.3490   23.5721 O   0  5  0  0  0  0  0  0  0  0  0  0
   17.2272   16.9271   23.3769 O   0  0  0  0  0  0  0  0  0  0  0  0
   18.7588   17.9059   21.8763 C   0  0  0  0  0  0  0  0  0  0  0  0
   18.0496   17.6967   21.0670 H   0  0  0  0  0  0  0  0  0  0  0  0
   19.7485   17.6176   21.5079 H   0  0  0  0  0  0  0  0  0  0  0  0
   18.7108   19.4201   22.2225 C   0  0  0  0  0  0  0  0  0  0  0  0
   18.7797   20.0146   21.3016 H   0  0  0  0  0  0  0  0  0  0  0  0
   17.7226   19.6394   22.6501 H   0  0  0  0  0  0  0  0  0  0  0  0
   19.8018   19.8786   23.2249 C   0  0  0  0  0  0  0  0  0  0  0  0
   20.0672   19.0590   23.9067 H   0  0  0  0  0  0  0  0  0  0  0  0
   19.3722   20.6657   23.8594 H   0  0  0  0  0  0  0  0  0  0  0  0
   21.0802   20.4558   22.5688 C   0  0  0  0  0  0  0  0  0  0  0  0
   20.8188   21.3313   21.9586 H   0  0  0  0  0  0  0  0  0  0  0  0
   21.7441   20.8224   23.3638 H   0  0  0  0  0  0  0  0  0  0  0  0
   21.8585   19.4426   21.7043 C   0  0  0  0  0  0  0  0  0  0  0  0
   21.2943   19.1772   20.8017 H   0  0  0  0  0  0  0  0  0  0  0  0
   22.8167   19.8696   21.3815 H   0  0  0  0  0  0  0  0  0  0  0  0
   22.0687   18.5241   22.2679 H   0  0  0  0  0  0  0  0  0  0  0  0
  1  2  1  0  0  0  0
  1  3  2  0  0  0  0
  1  4  1  0  0  0  0
  4  5  1  0  0  0  0
  4  6  1  0  0  0  0
  4  7  1  0  0  0  0
  7  8  1  0  0  0  0
  7  9  1  0  0  0  0
  7 10  1  0  0  0  0
 10 11  1  0  0  0  0
 10 12  1  0  0  0  0
 10 13  1  0  0  0  0
 13 14  1  0  0  0  0
 13 15  1  0  0  0  0
 13 16  1  0  0  0  0
 16 17  1  0  0  0  0
 16 18  1  0  0  0  0
 16 19  1  0  0  0  0
M  END
> <VConfSearch Rank>
146

> <Conf_Id>
4

> <Delta U+W>
3.753

> <U+W>
-51.138

> <U>
12.334

> <W>
-63.472

> <W(PB)>
-65.500

> <W(SA)>
2.028

> <Valence>
9.984

> <Coulomb>
1.767

> <VdW>
0.583

> <VdW6>
-7.767

> <VdW12>
8.349

> <Bond>
0.203

> <Angle>
3.191

> <Pdih>
6.589

> <Idih>
0.001

> <Tether>
0.000

$$$$
VeraChem MOL file


 19 18  0  0  0  0  0  0  0  0999 V2000     
   22.2370   19.9195   23.0475 C   0  0  0  0  0  0  0  0  0  0  0  0
   23.0387   19.6002   23.9032 O   0  5  0  0  0  0  0  0  0  0  0  0
   22.5529   20.2404   21.9188 O   0  0  0  0  0  0  0  0  0  0  0  0
   20.7573   19.9457   23.4221 C   0  0  0  0  0  0  0  0  0  0  0  0
   20.2220   20.5377   22.6729 H   0  0  0  0  0  0  0  0  0  0  0  0
   20.6732   20.4894   24.3703 H   0  0  0  0  0  0  0  0  0  0  0  0
   20.1209   18.5368   23.5799 C   0  0  0  0  0  0  0  0  0  0  0  0
   20.7352   17.9642   24.2886 H   0  0  0  0  0  0  0  0  0  0  0  0
   19.1295   18.6264   24.0439 H   0  0  0  0  0  0  0  0  0  0  0  0
   20.0094   17.7369   22.2558 C   0  0  0  0  0  0  0  0  0  0  0  0
   20.1679   16.6744   22.4855 H   0  0  0  0  0  0  0  0  0  0  0  0
   20.8189   18.0164   21.5678 H   0  0  0  0  0  0  0  0  0  0  0  0
   18.6414   17.8594   21.5406 C   0  0  0  0  0  0  0  0  0  0  0  0
   18.6448   17.1931   20.6670 H   0  0  0  0  0  0  0  0  0  0  0  0
   17.8446   17.4936   22.2028 H   0  0  0  0  0  0  0  0  0  0  0  0
   18.3010   19.2884   21.0699 C   0  0  0  0  0  0  0  0  0  0  0  0
   19.1159   19.7083   20.4658 H   0  0  0  0  0  0  0  0  0  0  0  0
   17.3910   19.2839   20.4561 H   0  0  0  0  0  0  0  0  0  0  0  0
   18.1203   19.9534   21.9234 H   0  0  0  0  0  0  0  0  0  0  0  0
  1  2  1  0  0  0  0
  1  3  2  0  0  0  0
  1  4  1  0  0  0  0
  4  5  1  0  0  0  0
  4  6  1  0  0  0  0
  4  7  1  0  0  0  0
  7  8  1  0  0  0  0
  7  9  1  0  0  0  0
  7 10  1  0  0  0  0
 10 11  1  0  0  0  0
 10 12  1  0  0  0  0
 10 13  1  0  0  0  0
 13 14  1  0  0  0  0
 13 15  1  0  0  0  0
 13 16  1  0  0  0  0
 16 17  1  0  0  0  0
 16 18  1  0  0  0  0
 16 19  1  0  0  0  0
M  END
> <VConfSearch Rank>
147

> <Conf_Id>
73

> <Delta U+W>
3.707

> <U+W>
-51.184

> <U>
12.334

> <W>
-63.519

> <W(PB)>
-65.541

> <W(SA)>
2.022

> <Valence>
9.984

> <Coulomb>
1.768

> <VdW>
0.583

> <VdW6>
-7.767

> <VdW12>
8.350

> <Bond>
0.203

> <Angle>
3.192

> <Pdih>
6.589

> <Idih>
0.001

> <Tether>
0.000

$$$$
VeraChem MOL file


 19 18  0  0  0  0  0  0  0  0999 V2000     
   19.4801   18.1768   24.8115 C   0  0  0  0  0  0  0  0  0  0  0  0
   18.6666   17.3157   24.5407 O   0  5  0  0  0  0  0  0  0  0  0  0
   20.2926   18.0738   25.7096 O   0  0  0  0  0  0  0  0  0  0  0  0
   19.4619   19.4712   24.0032 C   0  0  0  0  0  0  0  0  0  0  0  0
   19.4442   20.3022   24.7180 H   0  0  0  0  0  0  0  0  0  0  0  0
   18.5211   19.5233   23.4434 H   0  0  0  0  0  0  0  0  0  0  0  0
   20.6752   19.6409   23.0485 C   0  0  0  0  0  0  0  0  0  0  0  0
   20.6206   20.6251   22.5656 H   0  0  0  0  0  0  0  0  0  0  0  0
   21.5958   19.6501   23.6481 H   0  0  0  0  0  0  0  0  0  0  0  0
   20.7990   18.5362   21.9675 C   0  0  0  0  0  0  0  0  0  0  0  0
   20.9751   17.5704   22.4608 H   0  0  0  0  0  0  0  0  0  0  0  0
   21.6945   18.7337   21.3628 H   0  0  0  0  0  0  0  0  0  0  0  0
   19.5789   18.3967   21.0246 C   0  0  0  0  0  0  0  0  0  0  0  0
   19.7747   17.5780   20.3187 H   0  0  0  0  0  0  0  0  0  0  0  0
   18.6915   18.0960   21.5979 H   0  0  0  0  0  0  0  0  0  0  0  0
   19.2740   19.6810   20.2238 C   0  0  0  0  0  0  0  0  0  0  0  0
   18.9615   20.4987   20.8854 H   0  0  0  0  0  0  0  0  0  0  0  0
   20.1561   20.0110   19.6599 H   0  0  0  0  0  0  0  0  0  0  0  0
   18.4613   19.5032   19.5078 H   0  0  0  0  0  0  0  0  0  0  0  0
  1  2  1  0  0  0  0
  1  3  2  0  0  0  0
  1  4  1  0  0  0  0
  4  5  1  0  0  0  0
  4  6  1  0  0  0  0
  4  7  1  0  0  0  0
  7  8  1  0  0  0  0
  7  9  1  0  0  0  0
  7 10  1  0  0  0  0
 10 11  1  0  0  0  0
 10 12  1  0  0  0  0
 10 13  1  0  0  0  0
 13 14  1  0  0  0  0
 13 15  1  0  0  0  0
 13 16  1  0  0  0  0
 16 17  1  0  0  0  0
 16 18  1  0  0  0  0
 16 19  1  0  0  0  0
M  END
> <VConfSearch Rank>
148

> <Conf_Id>
56

> <Delta U+W>
1.735

> <U+W>
-53.156

> <U>
10.214

> <W>
-63.370

> <W(PB)>
-65.388

> <W(SA)>
2.018

> <Valence>
7.868

> <Coulomb>
1.968

> <VdW>
0.378

> <VdW6>
-8.067

> <VdW12>
8.445

> <Bond>
0.191

> <Angle>
3.117

> <Pdih>
4.559

> <Idih>
0.001

> <Tether>
0.000

$$$$
VeraChem MOL file


 19 18  0  0  0  0  0  0  0  0999 V2000     
   20.2925   21.8278   21.8755 C   0  0  0  0  0  0  0  0  0  0  0  0
   21.1157   22.4898   22.4758 O   0  5  0  0  0  0  0  0  0  0  0  0
   19.4029   22.3103   21.2031 O   0  0  0  0  0  0  0  0  0  0  0  0
   20.3671   20.3094   21.9899 C   0  0  0  0  0  0  0  0  0  0  0  0
   21.4194   20.0276   22.1154 H   0  0  0  0  0  0  0  0  0  0  0  0
   20.0234   19.8882   21.0386 H   0  0  0  0  0  0  0  0  0  0  0  0
   19.5198   19.7528   23.1617 C   0  0  0  0  0  0  0  0  0  0  0  0
   19.7884   20.2956   24.0785 H   0  0  0  0  0  0  0  0  0  0  0  0
   18.4589   19.9698   22.9758 H   0  0  0  0  0  0  0  0  0  0  0  0
   19.7029   18.2358   23.4185 C   0  0  0  0  0  0  0  0  0  0  0  0
   19.0983   17.9746   24.2978 H   0  0  0  0  0  0  0  0  0  0  0  0
   20.7438   18.0234   23.6984 H   0  0  0  0  0  0  0  0  0  0  0  0
   19.2661   17.3237   22.2454 C   0  0  0  0  0  0  0  0  0  0  0  0
   18.8234   16.4074   22.6599 H   0  0  0  0  0  0  0  0  0  0  0  0
   18.4724   17.8085   21.6604 H   0  0  0  0  0  0  0  0  0  0  0  0
   20.4360   16.9125   21.3240 C   0  0  0  0  0  0  0  0  0  0  0  0
   20.0789   16.2545   20.5213 H   0  0  0  0  0  0  0  0  0  0  0  0
   20.9134   17.7809   20.8565 H   0  0  0  0  0  0  0  0  0  0  0  0
   21.2037   16.3669   21.8881 H   0  0  0  0  0  0  0  0  0  0  0  0
  1  2  1  0  0  0  0
  1  3  2  0  0  0  0
  1  4  1  0  0  0  0
  4  5  1  0  0  0  0
  4  6  1  0  0  0  0
  4  7  1  0  0  0  0
  7  8  1  0  0  0  0
  7  9  1  0  0  0  0
  7 10  1  0  0  0  0
 10 11  1  0  0  0  0
 10 12  1  0  0  0  0
 10 13  1  0  0  0  0
 13 14  1  0  0  0  0
 13 15  1  0  0  0  0
 13 16  1  0  0  0  0
 16 17  1  0  0  0  0
 16 18  1  0  0  0  0
 16 19  1  0  0  0  0
M  END
> <VConfSearch Rank>
149

> <Conf_Id>
53

> <Delta U+W>
2.279

> <U+W>
-52.612

> <U>
10.231

> <W>
-62.843

> <W(PB)>
-64.893

> <W(SA)>
2.050

> <Valence>
9.644

> <Coulomb>
-0.164

> <VdW>
0.751

> <VdW6>
-6.881

> <VdW12>
7.631

> <Bond>
0.163

> <Angle>
2.998

> <Pdih>
6.482

> <Idih>
0.001

> <Tether>
0.000

$$$$
VeraChem MOL file


 19 18  0  0  0  0  0  0  0  0999 V2000     
   21.7821   19.4511   20.7834 C   0  0  0  0  0  0  0  0  0  0  0  0
   22.7093   19.9228   21.4117 O   0  5  0  0  0  0  0  0  0  0  0  0
   21.2104   20.0421   19.8883 O   0  0  0  0  0  0  0  0  0  0  0  0
   21.3613   18.0149   21.0893 C   0  0  0  0  0  0  0  0  0  0  0  0
   22.0098   17.6132   21.8773 H   0  0  0  0  0  0  0  0  0  0  0  0
   21.5707   17.4329   20.1842 H   0  0  0  0  0  0  0  0  0  0  0  0
   19.8668   17.8286   21.4752 C   0  0  0  0  0  0  0  0  0  0  0  0
   19.2289   18.4098   20.7949 H   0  0  0  0  0  0  0  0  0  0  0  0
   19.6031   16.7752   21.3102 H   0  0  0  0  0  0  0  0  0  0  0  0
   19.5279   18.1744   22.9464 C   0  0  0  0  0  0  0  0  0  0  0  0
   20.1638   17.5849   23.6208 H   0  0  0  0  0  0  0  0  0  0  0  0
   18.4941   17.8584   23.1425 H   0  0  0  0  0  0  0  0  0  0  0  0
   19.6603   19.6750   23.2874 C   0  0  0  0  0  0  0  0  0  0  0  0
   20.7117   19.9837   23.2265 H   0  0  0  0  0  0  0  0  0  0  0  0
   19.1060   20.2744   22.5520 H   0  0  0  0  0  0  0  0  0  0  0  0
   19.1329   19.9818   24.7035 C   0  0  0  0  0  0  0  0  0  0  0  0
   19.6888   19.4135   25.4607 H   0  0  0  0  0  0  0  0  0  0  0  0
   19.2420   21.0496   24.9333 H   0  0  0  0  0  0  0  0  0  0  0  0
   18.0696   19.7232   24.7921 H   0  0  0  0  0  0  0  0  0  0  0  0
  1  2  1  0  0  0  0
  1  3  2  0  0  0  0
  1  4  1  0  0  0  0
  4  5  1  0  0  0  0
  4  6  1  0  0  0  0
  4  7  1  0  0  0  0
  7  8  1  0  0  0  0
  7  9  1  0  0  0  0
  7 10  1  0  0  0  0
 10 11  1  0  0  0  0
 10 12  1  0  0  0  0
 10 13  1  0  0  0  0
 13 14  1  0  0  0  0
 13 15  1  0  0  0  0
 13 16  1  0  0  0  0
 16 17  1  0  0  0  0
 16 18  1  0  0  0  0
 16 19  1  0  0  0  0
M  END
> <VConfSearch Rank>
150

> <Conf_Id>
25

> <Delta U+W>
2.065

> <U+W>
-52.826

> <U>
10.967

> <W>
-63.794

> <W(PB)>
-65.830

> <W(SA)>
2.036

> <Valence>
8.609

> <Coulomb>
1.892

> <VdW>
0.467

> <VdW6>
-7.569

> <VdW12>
8.036

> <Bond>
0.170

> <Angle>
3.195

> <Pdih>
5.237

> <Idih>
0.007

> <Tether>
0.000

$$$$
VeraChem MOL file


 19 18  0  0  0  0  0  0  0  0999 V2000     
   21.9795   17.3100   22.6036 C   0  0  0  0  0  0  0  0  0  0  0  0
   23.0048   17.9343   22.4129 O   0  5  0  0  0  0  0  0  0  0  0  0
   21.6184   16.3855   21.9024 O   0  0  0  0  0  0  0  0  0  0  0  0
   21.1352   17.6581   23.8281 C   0  0  0  0  0  0  0  0  0  0  0  0
   21.7618   17.4514   24.7035 H   0  0  0  0  0  0  0  0  0  0  0  0
   20.2838   16.9688   23.8821 H   0  0  0  0  0  0  0  0  0  0  0  0
   20.6407   19.1305   23.8970 C   0  0  0  0  0  0  0  0  0  0  0  0
   20.3836   19.3529   24.9415 H   0  0  0  0  0  0  0  0  0  0  0  0
   21.4607   19.8137   23.6358 H   0  0  0  0  0  0  0  0  0  0  0  0
   19.3955   19.4389   23.0292 C   0  0  0  0  0  0  0  0  0  0  0  0
   19.0483   20.4514   23.2768 H   0  0  0  0  0  0  0  0  0  0  0  0
   18.5777   18.7574   23.3004 H   0  0  0  0  0  0  0  0  0  0  0  0
   19.6528   19.3616   21.5082 C   0  0  0  0  0  0  0  0  0  0  0  0
   20.5344   19.9639   21.2485 H   0  0  0  0  0  0  0  0  0  0  0  0
   19.8730   18.3270   21.2155 H   0  0  0  0  0  0  0  0  0  0  0  0
   18.4353   19.8582   20.7028 C   0  0  0  0  0  0  0  0  0  0  0  0
   18.6310   19.7887   19.6248 H   0  0  0  0  0  0  0  0  0  0  0  0
   17.5454   19.2549   20.9254 H   0  0  0  0  0  0  0  0  0  0  0  0
   18.2078   20.9059   20.9389 H   0  0  0  0  0  0  0  0  0  0  0  0
  1  2  1  0  0  0  0
  1  3  2  0  0  0  0
  1  4  1  0  0  0  0
  4  5  1  0  0  0  0
  4  6  1  0  0  0  0
  4  7  1  0  0  0  0
  7  8  1  0  0  0  0
  7  9  1  0  0  0  0
  7 10  1  0  0  0  0
 10 11  1  0  0  0  0
 10 12  1  0  0  0  0
 10 13  1  0  0  0  0
 13 14  1  0  0  0  0
 13 15  1  0  0  0  0
 13 16  1  0  0  0  0
 16 17  1  0  0  0  0
 16 18  1  0  0  0  0
 16 19  1  0  0  0  0
M  END
> <VConfSearch Rank>
151

> <Conf_Id>
52

> <Delta U+W>
2.070

> <U+W>
-52.822

> <U>
10.967

> <W>
-63.789

> <W(PB)>
-65.837

> <W(SA)>
2.048

> <Valence>
8.609

> <Coulomb>
1.892

> <VdW>
0.467

> <VdW6>
-7.569

> <VdW12>
8.035

> <Bond>
0.170

> <Angle>
3.196

> <Pdih>
5.237

> <Idih>
0.007

> <Tether>
0.000

$$$$
VeraChem MOL file


 19 18  0  0  0  0  0  0  0  0999 V2000     
   20.9768   18.3255   24.3415 C   0  0  0  0  0  0  0  0  0  0  0  0
   20.6644   17.1900   24.6434 O   0  5  0  0  0  0  0  0  0  0  0  0
   22.1290   18.6800   24.1884 O   0  0  0  0  0  0  0  0  0  0  0  0
   19.8845   19.3940   24.2732 C   0  0  0  0  0  0  0  0  0  0  0  0
   20.3075   20.3108   23.8452 H   0  0  0  0  0  0  0  0  0  0  0  0
   19.6231   19.6263   25.3120 H   0  0  0  0  0  0  0  0  0  0  0  0
   18.5914   18.9909   23.5084 C   0  0  0  0  0  0  0  0  0  0  0  0
   18.3195   17.9543   23.7507 H   0  0  0  0  0  0  0  0  0  0  0  0
   17.7680   19.6107   23.8883 H   0  0  0  0  0  0  0  0  0  0  0  0
   18.6432   19.1774   21.9703 C   0  0  0  0  0  0  0  0  0  0  0  0
   18.8155   20.2346   21.7260 H   0  0  0  0  0  0  0  0  0  0  0  0
   17.6451   18.9418   21.5762 H   0  0  0  0  0  0  0  0  0  0  0  0
   19.6707   18.2817   21.2369 C   0  0  0  0  0  0  0  0  0  0  0  0
   19.9129   17.3984   21.8440 H   0  0  0  0  0  0  0  0  0  0  0  0
   19.2132   17.8999   20.3138 H   0  0  0  0  0  0  0  0  0  0  0  0
   20.9598   19.0405   20.8552 C   0  0  0  0  0  0  0  0  0  0  0  0
   20.7384   19.8665   20.1670 H   0  0  0  0  0  0  0  0  0  0  0  0
   21.4558   19.4595   21.7385 H   0  0  0  0  0  0  0  0  0  0  0  0
   21.6700   18.3675   20.3580 H   0  0  0  0  0  0  0  0  0  0  0  0
  1  2  1  0  0  0  0
  1  3  2  0  0  0  0
  1  4  1  0  0  0  0
  4  5  1  0  0  0  0
  4  6  1  0  0  0  0
  4  7  1  0  0  0  0
  7  8  1  0  0  0  0
  7  9  1  0  0  0  0
  7 10  1  0  0  0  0
 10 11  1  0  0  0  0
 10 12  1  0  0  0  0
 10 13  1  0  0  0  0
 13 14  1  0  0  0  0
 13 15  1  0  0  0  0
 13 16  1  0  0  0  0
 16 17  1  0  0  0  0
 16 18  1  0  0  0  0
 16 19  1  0  0  0  0
M  END
> <VConfSearch Rank>
152

> <Conf_Id>
66

> <Delta U+W>
5.819

> <U+W>
-49.072

> <U>
15.324

> <W>
-64.396

> <W(PB)>
-66.382

> <W(SA)>
1.986

> <Valence>
11.748

> <Coulomb>
3.201

> <VdW>
0.375

> <VdW6>
-8.854

> <VdW12>
9.229

> <Bond>
0.216

> <Angle>
3.812

> <Pdih>
7.699

> <Idih>
0.022

> <Tether>
0.000

$$$$
VeraChem MOL file


 19 18  0  0  0  0  0  0  0  0999 V2000     
   20.4612   21.2235   24.5985 C   0  0  0  0  0  0  0  0  0  0  0  0
   19.9395   22.2004   25.0976 O   0  5  0  0  0  0  0  0  0  0  0  0
   21.5234   20.7710   24.9797 O   0  0  0  0  0  0  0  0  0  0  0  0
   19.7231   20.5539   23.4381 C   0  0  0  0  0  0  0  0  0  0  0  0
   19.5797   21.3129   22.6601 H   0  0  0  0  0  0  0  0  0  0  0  0
   18.7271   20.2747   23.8016 H   0  0  0  0  0  0  0  0  0  0  0  0
   20.4278   19.3104   22.8335 C   0  0  0  0  0  0  0  0  0  0  0  0
   21.4272   19.5955   22.4766 H   0  0  0  0  0  0  0  0  0  0  0  0
   20.5738   18.5562   23.6192 H   0  0  0  0  0  0  0  0  0  0  0  0
   19.6159   18.6990   21.6710 C   0  0  0  0  0  0  0  0  0  0  0  0
   19.4710   19.4547   20.8867 H   0  0  0  0  0  0  0  0  0  0  0  0
   18.6171   18.4148   22.0300 H   0  0  0  0  0  0  0  0  0  0  0  0
   20.3182   17.4630   21.0713 C   0  0  0  0  0  0  0  0  0  0  0  0
   21.3170   17.7436   20.7094 H   0  0  0  0  0  0  0  0  0  0  0  0
   20.4632   16.7038   21.8524 H   0  0  0  0  0  0  0  0  0  0  0  0
   19.5049   16.8553   19.9111 C   0  0  0  0  0  0  0  0  0  0  0  0
   19.3716   17.5842   19.1008 H   0  0  0  0  0  0  0  0  0  0  0  0
   20.0184   15.9780   19.4967 H   0  0  0  0  0  0  0  0  0  0  0  0
   18.5113   16.5366   20.2525 H   0  0  0  0  0  0  0  0  0  0  0  0
  1  2  1  0  0  0  0
  1  3  2  0  0  0  0
  1  4  1  0  0  0  0
  4  5  1  0  0  0  0
  4  6  1  0  0  0  0
  4  7  1  0  0  0  0
  7  8  1  0  0  0  0
  7  9  1  0  0  0  0
  7 10  1  0  0  0  0
 10 11  1  0  0  0  0
 10 12  1  0  0  0  0
 10 13  1  0  0  0  0
 13 14  1  0  0  0  0
 13 15  1  0  0  0  0
 13 16  1  0  0  0  0
 16 17  1  0  0  0  0
 16 18  1  0  0  0  0
 16 19  1  0  0  0  0
M  END
> <VConfSearch Rank>
153

> <Conf_Id>
0

> <Delta U+W>
0.000

> <U+W>
-54.891

> <U>
6.966

> <W>
-61.857

> <W(PB)>
-63.965

> <W(SA)>
2.108

> <Valence>
7.175

> <Coulomb>
-1.360

> <VdW>
1.151

> <VdW6>
-5.641

> <VdW12>
6.792

> <Bond>
0.119

> <Angle>
2.715

> <Pdih>
4.340

> <Idih>
0.000

> <Tether>
0.000

$$$$
VeraChem MOL file


 19 18  0  0  0  0  0  0  0  0999 V2000     
   21.2803   22.0216   22.4827 C   0  0  0  0  0  0  0  0  0  0  0  0
   22.3666   22.0477   23.0264 O   0  5  0  0  0  0  0  0  0  0  0  0
   20.9249   22.8328   21.6509 O   0  0  0  0  0  0  0  0  0  0  0  0
   20.3182   20.8972   22.8494 C   0  0  0  0  0  0  0  0  0  0  0  0
   19.2952   21.2839   22.7683 H   0  0  0  0  0  0  0  0  0  0  0  0
   20.4837   20.6366   23.9018 H   0  0  0  0  0  0  0  0  0  0  0  0
   20.4880   19.6440   21.9557 C   0  0  0  0  0  0  0  0  0  0  0  0
   20.3318   19.9241   20.9046 H   0  0  0  0  0  0  0  0  0  0  0  0
   21.5205   19.2768   22.0381 H   0  0  0  0  0  0  0  0  0  0  0  0
   19.5033   18.5212   22.3472 C   0  0  0  0  0  0  0  0  0  0  0  0
   18.4722   18.8918   22.2652 H   0  0  0  0  0  0  0  0  0  0  0  0
   19.6611   18.2444   23.3987 H   0  0  0  0  0  0  0  0  0  0  0  0
   19.6746   17.2741   21.4552 C   0  0  0  0  0  0  0  0  0  0  0  0
   19.5156   17.5466   20.4026 H   0  0  0  0  0  0  0  0  0  0  0  0
   20.7044   16.8992   21.5361 H   0  0  0  0  0  0  0  0  0  0  0  0
   18.6898   16.1551   21.8489 C   0  0  0  0  0  0  0  0  0  0  0  0
   18.8253   15.2764   21.2050 H   0  0  0  0  0  0  0  0  0  0  0  0
   18.8479   15.8408   22.8889 H   0  0  0  0  0  0  0  0  0  0  0  0
   17.6502   16.4930   21.7470 H   0  0  0  0  0  0  0  0  0  0  0  0
  1  2  1  0  0  0  0
  1  3  2  0  0  0  0
  1  4  1  0  0  0  0
  4  5  1  0  0  0  0
  4  6  1  0  0  0  0
  4  7  1  0  0  0  0
  7  8  1  0  0  0  0
  7  9  1  0  0  0  0
  7 10  1  0  0  0  0
 10 11  1  0  0  0  0
 10 12  1  0  0  0  0
 10 13  1  0  0  0  0
 13 14  1  0  0  0  0
 13 15  1  0  0  0  0
 13 16  1  0  0  0  0
 16 17  1  0  0  0  0
 16 18  1  0  0  0  0
 16 19  1  0  0  0  0
M  END
> <VConfSearch Rank>
154

> <Conf_Id>
18

> <Delta U+W>
-1.199

> <U+W>
-56.090

> <U>
5.975

> <W>
-62.066

> <W(PB)>
-64.219

> <W(SA)>
2.153

> <Valence>
6.673

> <Coulomb>
-1.307

> <VdW>
0.610

> <VdW6>
-5.351

> <VdW12>
5.961

> <Bond>
0.086

> <Angle>
2.253

> <Pdih>
4.333

> <Idih>
0.001

> <Tether>
0.000

$$$$
VeraChem MOL file


 19 18  0  0  0  0  0  0  0  0999 V2000     
   21.5828   19.1797   24.9605 C   0  0  0  0  0  0  0  0  0  0  0  0
   21.8517   20.2419   25.4856 O   0  5  0  0  0  0  0  0  0  0  0  0
   21.5925   18.1171   25.5496 O   0  0  0  0  0  0  0  0  0  0  0  0
   21.1912   19.1833   23.4871 C   0  0  0  0  0  0  0  0  0  0  0  0
   21.5406   18.2426   23.0470 H   0  0  0  0  0  0  0  0  0  0  0  0
   21.7357   19.9964   22.9922 H   0  0  0  0  0  0  0  0  0  0  0  0
   19.6647   19.3536   23.2722 C   0  0  0  0  0  0  0  0  0  0  0  0
   19.1328   18.5103   23.7339 H   0  0  0  0  0  0  0  0  0  0  0  0
   19.3329   20.2571   23.8023 H   0  0  0  0  0  0  0  0  0  0  0  0
   19.2601   19.4755   21.7840 C   0  0  0  0  0  0  0  0  0  0  0  0
   19.7870   20.3246   21.3275 H   0  0  0  0  0  0  0  0  0  0  0  0
   18.1882   19.7108   21.7323 H   0  0  0  0  0  0  0  0  0  0  0  0
   19.5324   18.1930   20.9662 C   0  0  0  0  0  0  0  0  0  0  0  0
   20.6094   17.9813   20.9413 H   0  0  0  0  0  0  0  0  0  0  0  0
   19.0475   17.3344   21.4508 H   0  0  0  0  0  0  0  0  0  0  0  0
   19.0141   18.3245   19.5201 C   0  0  0  0  0  0  0  0  0  0  0  0
   19.2174   17.4077   18.9516 H   0  0  0  0  0  0  0  0  0  0  0  0
   17.9303   18.4990   19.5051 H   0  0  0  0  0  0  0  0  0  0  0  0
   19.5033   19.1600   19.0023 H   0  0  0  0  0  0  0  0  0  0  0  0
  1  2  1  0  0  0  0
  1  3  2  0  0  0  0
  1  4  1  0  0  0  0
  4  5  1  0  0  0  0
  4  6  1  0  0  0  0
  4  7  1  0  0  0  0
  7  8  1  0  0  0  0
  7  9  1  0  0  0  0
  7 10  1  0  0  0  0
 10 11  1  0  0  0  0
 10 12  1  0  0  0  0
 10 13  1  0  0  0  0
 13 14  1  0  0  0  0
 13 15  1  0  0  0  0
 13 16  1  0  0  0  0
 16 17  1  0  0  0  0
 16 18  1  0  0  0  0
 16 19  1  0  0  0  0
M  END
> <VConfSearch Rank>
155

> <Conf_Id>
34

> <Delta U+W>
-0.563

> <U+W>
-55.455

> <U>
6.914

> <W>
-62.369

> <W(PB)>
-64.446

> <W(SA)>
2.077

> <Valence>
7.196

> <Coulomb>
-1.020

> <VdW>
0.738

> <VdW6>
-6.010

> <VdW12>
6.748

> <Bond>
0.126

> <Angle>
2.499

> <Pdih>
4.570

> <Idih>
0.001

> <Tether>
0.000

$$$$
VeraChem MOL file


 19 18  0  0  0  0  0  0  0  0999 V2000     
   18.2287   21.6185   22.2446 C   0  0  0  0  0  0  0  0  0  0  0  0
   17.0139   21.6333   22.2656 O   0  5  0  0  0  0  0  0  0  0  0  0
   18.9073   22.5747   21.9262 O   0  0  0  0  0  0  0  0  0  0  0  0
   18.9397   20.3223   22.6171 C   0  0  0  0  0  0  0  0  0  0  0  0
   18.3285   19.8013   23.3638 H   0  0  0  0  0  0  0  0  0  0  0  0
   19.8867   20.5885   23.1000 H   0  0  0  0  0  0  0  0  0  0  0  0
   19.1894   19.4018   21.3942 C   0  0  0  0  0  0  0  0  0  0  0  0
   18.2329   19.2297   20.8815 H   0  0  0  0  0  0  0  0  0  0  0  0
   19.8391   19.9174   20.6734 H   0  0  0  0  0  0  0  0  0  0  0  0
   19.8053   18.0324   21.7670 C   0  0  0  0  0  0  0  0  0  0  0  0
   19.8360   17.4067   20.8646 H   0  0  0  0  0  0  0  0  0  0  0  0
   19.1492   17.5159   22.4811 H   0  0  0  0  0  0  0  0  0  0  0  0
   21.2311   18.1391   22.3528 C   0  0  0  0  0  0  0  0  0  0  0  0
   21.8749   18.7002   21.6615 H   0  0  0  0  0  0  0  0  0  0  0  0
   21.2115   18.6976   23.2978 H   0  0  0  0  0  0  0  0  0  0  0  0
   21.8433   16.7469   22.6062 C   0  0  0  0  0  0  0  0  0  0  0  0
   21.2334   16.1733   23.3165 H   0  0  0  0  0  0  0  0  0  0  0  0
   21.9142   16.1726   21.6731 H   0  0  0  0  0  0  0  0  0  0  0  0
   22.8540   16.8392   23.0246 H   0  0  0  0  0  0  0  0  0  0  0  0
  1  2  1  0  0  0  0
  1  3  2  0  0  0  0
  1  4  1  0  0  0  0
  4  5  1  0  0  0  0
  4  6  1  0  0  0  0
  4  7  1  0  0  0  0
  7  8  1  0  0  0  0
  7  9  1  0  0  0  0
  7 10  1  0  0  0  0
 10 11  1  0  0  0  0
 10 12  1  0  0  0  0
 10 13  1  0  0  0  0
 13 14  1  0  0  0  0
 13 15  1  0  0  0  0
 13 16  1  0  0  0  0
 16 17  1  0  0  0  0
 16 18  1  0  0  0  0
 16 19  1  0  0  0  0
M  END
> <VConfSearch Rank>
156

> <Conf_Id>
33

> <Delta U+W>
-0.526

> <U+W>
-55.418

> <U>
6.914

> <W>
-62.332

> <W(PB)>
-64.421

> <W(SA)>
2.090

> <Valence>
7.196

> <Coulomb>
-1.020

> <VdW>
0.738

> <VdW6>
-6.010

> <VdW12>
6.748

> <Bond>
0.126

> <Angle>
2.499

> <Pdih>
4.570

> <Idih>
0.001

> <Tether>
0.000

$$$$
VeraChem MOL file


 19 18  0  0  0  0  0  0  0  0999 V2000     
   22.3242   20.7629   23.1958 C   0  0  0  0  0  0  0  0  0  0  0  0
   21.9030   21.7163   23.8202 O   0  5  0  0  0  0  0  0  0  0  0  0
   23.3703   20.2005   23.4518 O   0  0  0  0  0  0  0  0  0  0  0  0
   21.4856   20.2323   22.0384 C   0  0  0  0  0  0  0  0  0  0  0  0
   22.1681   19.8344   21.2777 H   0  0  0  0  0  0  0  0  0  0  0  0
   20.9541   21.0784   21.5863 H   0  0  0  0  0  0  0  0  0  0  0  0
   20.4775   19.1411   22.4759 C   0  0  0  0  0  0  0  0  0  0  0  0
   21.0238   18.3055   22.9348 H   0  0  0  0  0  0  0  0  0  0  0  0
   19.8181   19.5562   23.2495 H   0  0  0  0  0  0  0  0  0  0  0  0
   19.6391   18.6241   21.2840 C   0  0  0  0  0  0  0  0  0  0  0  0
   20.3180   18.2796   20.4920 H   0  0  0  0  0  0  0  0  0  0  0  0
   19.0550   19.4503   20.8558 H   0  0  0  0  0  0  0  0  0  0  0  0
   18.6916   17.4612   21.6586 C   0  0  0  0  0  0  0  0  0  0  0  0
   18.2249   17.0771   20.7410 H   0  0  0  0  0  0  0  0  0  0  0  0
   19.2728   16.6305   22.0822 H   0  0  0  0  0  0  0  0  0  0  0  0
   17.5791   17.8736   22.6466 C   0  0  0  0  0  0  0  0  0  0  0  0
   17.0025   18.7226   22.2570 H   0  0  0  0  0  0  0  0  0  0  0  0
   16.8840   17.0402   22.8113 H   0  0  0  0  0  0  0  0  0  0  0  0
   17.9941   18.1572   23.6219 H   0  0  0  0  0  0  0  0  0  0  0  0
  1  2  1  0  0  0  0
  1  3  2  0  0  0  0
  1  4  1  0  0  0  0
  4  5  1  0  0  0  0
  4  6  1  0  0  0  0
  4  7  1  0  0  0  0
  7  8  1  0  0  0  0
  7  9  1  0  0  0  0
  7 10  1  0  0  0  0
 10 11  1  0  0  0  0
 10 12  1  0  0  0  0
 10 13  1  0  0  0  0
 13 14  1  0  0  0  0
 13 15  1  0  0  0  0
 13 16  1  0  0  0  0
 16 17  1  0  0  0  0
 16 18  1  0  0  0  0
 16 19  1  0  0  0  0
M  END
> <VConfSearch Rank>
157

> <Conf_Id>
42

> <Delta U+W>
-0.344

> <U+W>
-55.236

> <U>
7.244

> <W>
-62.479

> <W(PB)>
-64.610

> <W(SA)>
2.130

> <Valence>
7.174

> <Coulomb>
-0.669

> <VdW>
0.739

> <VdW6>
-5.969

> <VdW12>
6.708

> <Bond>
0.116

> <Angle>
2.481

> <Pdih>
4.576

> <Idih>
0.000

> <Tether>
0.000

$$$$
VeraChem MOL file


 19 18  0  0  0  0  0  0  0  0999 V2000     
   21.4986   18.2398   19.5000 C   0  0  0  0  0  0  0  0  0  0  0  0
   22.5970   17.7698   19.7212 O   0  5  0  0  0  0  0  0  0  0  0  0
   21.2504   18.9488   18.5450 O   0  0  0  0  0  0  0  0  0  0  0  0
   20.3743   17.9381   20.4845 C   0  0  0  0  0  0  0  0  0  0  0  0
   20.5438   16.9372   20.8996 H   0  0  0  0  0  0  0  0  0  0  0  0
   19.4320   17.9016   19.9247 H   0  0  0  0  0  0  0  0  0  0  0  0
   20.2780   18.9799   21.6264 C   0  0  0  0  0  0  0  0  0  0  0  0
   21.2372   19.0121   22.1598 H   0  0  0  0  0  0  0  0  0  0  0  0
   20.1177   19.9775   21.1946 H   0  0  0  0  0  0  0  0  0  0  0  0
   19.1330   18.6475   22.6108 C   0  0  0  0  0  0  0  0  0  0  0  0
   19.3189   17.6713   23.0793 H   0  0  0  0  0  0  0  0  0  0  0  0
   18.1947   18.5491   22.0478 H   0  0  0  0  0  0  0  0  0  0  0  0
   18.9368   19.7187   23.7084 C   0  0  0  0  0  0  0  0  0  0  0  0
   18.7450   20.6957   23.2436 H   0  0  0  0  0  0  0  0  0  0  0  0
   18.0374   19.4689   24.2880 H   0  0  0  0  0  0  0  0  0  0  0  0
   20.1356   19.8297   24.6750 C   0  0  0  0  0  0  0  0  0  0  0  0
   21.0346   20.1893   24.1589 H   0  0  0  0  0  0  0  0  0  0  0  0
   19.9119   20.5371   25.4840 H   0  0  0  0  0  0  0  0  0  0  0  0
   20.3648   18.8573   25.1300 H   0  0  0  0  0  0  0  0  0  0  0  0
  1  2  1  0  0  0  0
  1  3  2  0  0  0  0
  1  4  1  0  0  0  0
  4  5  1  0  0  0  0
  4  6  1  0  0  0  0
  4  7  1  0  0  0  0
  7  8  1  0  0  0  0
  7  9  1  0  0  0  0
  7 10  1  0  0  0  0
 10 11  1  0  0  0  0
 10 12  1  0  0  0  0
 10 13  1  0  0  0  0
 13 14  1  0  0  0  0
 13 15  1  0  0  0  0
 13 16  1  0  0  0  0
 16 17  1  0  0  0  0
 16 18  1  0  0  0  0
 16 19  1  0  0  0  0
M  END
> <VConfSearch Rank>
158

> <Conf_Id>
41

> <Delta U+W>
-0.361

> <U+W>
-55.252

> <U>
7.244

> <W>
-62.496

> <W(PB)>
-64.596

> <W(SA)>
2.099

> <Valence>
7.174

> <Coulomb>
-0.669

> <VdW>
0.739

> <VdW6>
-5.969

> <VdW12>
6.708

> <Bond>
0.116

> <Angle>
2.481

> <Pdih>
4.576

> <Idih>
0.000

> <Tether>
0.000

$$$$
VeraChem MOL file


 19 18  0  0  0  0  0  0  0  0999 V2000     
   19.8628   18.7483   25.1974 C   0  0  0  0  0  0  0  0  0  0  0  0
   18.9363   19.4824   25.4789 O   0  5  0  0  0  0  0  0  0  0  0  0
   19.9701   17.6119   25.6143 O   0  0  0  0  0  0  0  0  0  0  0  0
   20.9638   19.2882   24.2889 C   0  0  0  0  0  0  0  0  0  0  0  0
   21.9249   19.0233   24.7453 H   0  0  0  0  0  0  0  0  0  0  0  0
   20.9070   20.3835   24.2822 H   0  0  0  0  0  0  0  0  0  0  0  0
   20.9111   18.7407   22.8389 C   0  0  0  0  0  0  0  0  0  0  0  0
   21.8110   19.0689   22.3012 H   0  0  0  0  0  0  0  0  0  0  0  0
   20.9401   17.6424   22.8633 H   0  0  0  0  0  0  0  0  0  0  0  0
   19.6573   19.2142   22.0700 C   0  0  0  0  0  0  0  0  0  0  0  0
   19.6260   20.3124   22.0596 H   0  0  0  0  0  0  0  0  0  0  0  0
   18.7523   18.8750   22.5928 H   0  0  0  0  0  0  0  0  0  0  0  0
   19.6415   18.6839   20.6212 C   0  0  0  0  0  0  0  0  0  0  0  0
   20.5426   19.0236   20.0920 H   0  0  0  0  0  0  0  0  0  0  0  0
   19.6704   17.5854   20.6287 H   0  0  0  0  0  0  0  0  0  0  0  0
   18.3895   19.1581   19.8568 C   0  0  0  0  0  0  0  0  0  0  0  0
   18.3516   20.2542   19.8068 H   0  0  0  0  0  0  0  0  0  0  0  0
   18.3941   18.7718   18.8292 H   0  0  0  0  0  0  0  0  0  0  0  0
   17.4728   18.8054   20.3475 H   0  0  0  0  0  0  0  0  0  0  0  0
  1  2  1  0  0  0  0
  1  3  2  0  0  0  0
  1  4  1  0  0  0  0
  4  5  1  0  0  0  0
  4  6  1  0  0  0  0
  4  7  1  0  0  0  0
  7  8  1  0  0  0  0
  7  9  1  0  0  0  0
  7 10  1  0  0  0  0
 10 11  1  0  0  0  0
 10 12  1  0  0  0  0
 10 13  1  0  0  0  0
 13 14  1  0  0  0  0
 13 15  1  0  0  0  0
 13 16  1  0  0  0  0
 16 17  1  0  0  0  0
 16 18  1  0  0  0  0
 16 19  1  0  0  0  0
M  END
> <VConfSearch Rank>
159

> <Conf_Id>
36

> <Delta U+W>
-0.079

> <U+W>
-54.971

> <U>
8.266

> <W>
-63.237

> <W(PB)>
-65.340

> <W(SA)>
2.103

> <Valence>
6.935

> <Coulomb>
0.874

> <VdW>
0.457

> <VdW6>
-6.205

> <VdW12>
6.662

> <Bond>
0.107

> <Angle>
2.420

> <Pdih>
4.407

> <Idih>
0.001

> <Tether>
0.000

$$$$
VeraChem MOL file


 19 18  0  0  0  0  0  0  0  0999 V2000     
   19.5776   21.7466   22.6386 C   0  0  0  0  0  0  0  0  0  0  0  0
   19.0773   21.7430   23.7460 O   0  5  0  0  0  0  0  0  0  0  0  0
   19.0611   22.2675   21.6698 O   0  0  0  0  0  0  0  0  0  0  0  0
   20.9386   21.0802   22.4570 C   0  0  0  0  0  0  0  0  0  0  0  0
   21.4097   20.9714   23.4415 H   0  0  0  0  0  0  0  0  0  0  0  0
   21.5664   21.7688   21.8793 H   0  0  0  0  0  0  0  0  0  0  0  0
   20.8786   19.7075   21.7378 C   0  0  0  0  0  0  0  0  0  0  0  0
   20.3790   19.8272   20.7664 H   0  0  0  0  0  0  0  0  0  0  0  0
   21.9027   19.3705   21.5274 H   0  0  0  0  0  0  0  0  0  0  0  0
   20.1494   18.6308   22.5723 C   0  0  0  0  0  0  0  0  0  0  0  0
   19.1182   18.9531   22.7726 H   0  0  0  0  0  0  0  0  0  0  0  0
   20.6445   18.5242   23.5472 H   0  0  0  0  0  0  0  0  0  0  0  0
   20.1292   17.2665   21.8519 C   0  0  0  0  0  0  0  0  0  0  0  0
   19.6323   17.3698   20.8773 H   0  0  0  0  0  0  0  0  0  0  0  0
   21.1584   16.9370   21.6527 H   0  0  0  0  0  0  0  0  0  0  0  0
   19.4010   16.1944   22.6870 C   0  0  0  0  0  0  0  0  0  0  0  0
   18.3588   16.4841   22.8749 H   0  0  0  0  0  0  0  0  0  0  0  0
   19.3956   15.2313   22.1602 H   0  0  0  0  0  0  0  0  0  0  0  0
   19.8962   16.0481   23.6559 H   0  0  0  0  0  0  0  0  0  0  0  0
  1  2  1  0  0  0  0
  1  3  2  0  0  0  0
  1  4  1  0  0  0  0
  4  5  1  0  0  0  0
  4  6  1  0  0  0  0
  4  7  1  0  0  0  0
  7  8  1  0  0  0  0
  7  9  1  0  0  0  0
  7 10  1  0  0  0  0
 10 11  1  0  0  0  0
 10 12  1  0  0  0  0
 10 13  1  0  0  0  0
 13 14  1  0  0  0  0
 13 15  1  0  0  0  0
 13 16  1  0  0  0  0
 16 17  1  0  0  0  0
 16 18  1  0  0  0  0
 16 19  1  0  0  0  0
M  END
> <VConfSearch Rank>
160

> <Conf_Id>
35

> <Delta U+W>
-0.030

> <U+W>
-54.921

> <U>
8.267

> <W>
-63.188

> <W(PB)>
-65.294

> <W(SA)>
2.106

> <Valence>
6.935

> <Coulomb>
0.875

> <VdW>
0.457

> <VdW6>
-6.205

> <VdW12>
6.662

> <Bond>
0.107

> <Angle>
2.420

> <Pdih>
4.407

> <Idih>
0.001

> <Tether>
0.000

$$$$
VeraChem MOL file


 19 18  0  0  0  0  0  0  0  0999 V2000     
   21.4154   20.7781   20.5187 C   0  0  0  0  0  0  0  0  0  0  0  0
   22.6165   20.8406   20.6922 O   0  5  0  0  0  0  0  0  0  0  0  0
   20.6975   21.7547   20.4323 O   0  0  0  0  0  0  0  0  0  0  0  0
   20.7793   19.3976   20.3804 C   0  0  0  0  0  0  0  0  0  0  0  0
   21.4050   18.8165   19.6927 H   0  0  0  0  0  0  0  0  0  0  0  0
   19.7995   19.5093   19.9002 H   0  0  0  0  0  0  0  0  0  0  0  0
   20.6338   18.6304   21.7205 C   0  0  0  0  0  0  0  0  0  0  0  0
   20.3152   17.6034   21.5008 H   0  0  0  0  0  0  0  0  0  0  0  0
   21.6158   18.5609   22.2085 H   0  0  0  0  0  0  0  0  0  0  0  0
   19.6176   19.2964   22.6789 C   0  0  0  0  0  0  0  0  0  0  0  0
   18.6276   19.3302   22.2038 H   0  0  0  0  0  0  0  0  0  0  0  0
   19.9142   20.3402   22.8508 H   0  0  0  0  0  0  0  0  0  0  0  0
   19.5105   18.5883   24.0492 C   0  0  0  0  0  0  0  0  0  0  0  0
   20.4990   18.5549   24.5278 H   0  0  0  0  0  0  0  0  0  0  0  0
   18.8677   19.1896   24.7068 H   0  0  0  0  0  0  0  0  0  0  0  0
   18.9291   17.1609   23.9570 C   0  0  0  0  0  0  0  0  0  0  0  0
   19.5991   16.4897   23.4055 H   0  0  0  0  0  0  0  0  0  0  0  0
   18.7886   16.7385   24.9603 H   0  0  0  0  0  0  0  0  0  0  0  0
   17.9539   17.1657   23.4528 H   0  0  0  0  0  0  0  0  0  0  0  0
  1  2  1  0  0  0  0
  1  3  2  0  0  0  0
  1  4  1  0  0  0  0
  4  5  1  0  0  0  0
  4  6  1  0  0  0  0
  4  7  1  0  0  0  0
  7  8  1  0  0  0  0
  7  9  1  0  0  0  0
  7 10  1  0  0  0  0
 10 11  1  0  0  0  0
 10 12  1  0  0  0  0
 10 13  1  0  0  0  0
 13 14  1  0  0  0  0
 13 15  1  0  0  0  0
 13 16  1  0  0  0  0
 16 17  1  0  0  0  0
 16 18  1  0  0  0  0
 16 19  1  0  0  0  0
M  END
> <VConfSearch Rank>
161

> <Conf_Id>
74

> <Delta U+W>
0.797

> <U+W>
-54.095

> <U>
8.869

> <W>
-62.964

> <W(PB)>
-65.046

> <W(SA)>
2.082

> <Valence>
7.469

> <Coulomb>
0.762

> <VdW>
0.639

> <VdW6>
-6.782

> <VdW12>
7.421

> <Bond>
0.141

> <Angle>
2.667

> <Pdih>
4.660

> <Idih>
0.001

> <Tether>
0.000

$$$$
VeraChem MOL file


 19 18  0  0  0  0  0  0  0  0999 V2000     
   17.0989   18.9235   21.7539 C   0  0  0  0  0  0  0  0  0  0  0  0
   16.4989   18.4870   20.7916 O   0  5  0  0  0  0  0  0  0  0  0  0
   16.5899   19.0891   22.8447 O   0  0  0  0  0  0  0  0  0  0  0  0
   18.5755   19.2643   21.5878 C   0  0  0  0  0  0  0  0  0  0  0  0
   18.7996   20.1090   22.2492 H   0  0  0  0  0  0  0  0  0  0  0  0
   18.7331   19.6057   20.5577 H   0  0  0  0  0  0  0  0  0  0  0  0
   19.5077   18.0657   21.9025 C   0  0  0  0  0  0  0  0  0  0  0  0
   19.3690   17.7570   22.9472 H   0  0  0  0  0  0  0  0  0  0  0  0
   19.1985   17.2082   21.2890 H   0  0  0  0  0  0  0  0  0  0  0  0
   21.0043   18.3556   21.6256 C   0  0  0  0  0  0  0  0  0  0  0  0
   21.1344   18.5618   20.5544 H   0  0  0  0  0  0  0  0  0  0  0  0
   21.5837   17.4453   21.8316 H   0  0  0  0  0  0  0  0  0  0  0  0
   21.6101   19.5282   22.4355 C   0  0  0  0  0  0  0  0  0  0  0  0
   22.6630   19.6464   22.1449 H   0  0  0  0  0  0  0  0  0  0  0  0
   21.1142   20.4705   22.1675 H   0  0  0  0  0  0  0  0  0  0  0  0
   21.5376   19.3179   23.9632 C   0  0  0  0  0  0  0  0  0  0  0  0
   22.0081   18.3690   24.2520 H   0  0  0  0  0  0  0  0  0  0  0  0
   22.0599   20.1284   24.4878 H   0  0  0  0  0  0  0  0  0  0  0  0
   20.4984   19.3092   24.3156 H   0  0  0  0  0  0  0  0  0  0  0  0
  1  2  1  0  0  0  0
  1  3  2  0  0  0  0
  1  4  1  0  0  0  0
  4  5  1  0  0  0  0
  4  6  1  0  0  0  0
  4  7  1  0  0  0  0
  7  8  1  0  0  0  0
  7  9  1  0  0  0  0
  7 10  1  0  0  0  0
 10 11  1  0  0  0  0
 10 12  1  0  0  0  0
 10 13  1  0  0  0  0
 13 14  1  0  0  0  0
 13 15  1  0  0  0  0
 13 16  1  0  0  0  0
 16 17  1  0  0  0  0
 16 18  1  0  0  0  0
 16 19  1  0  0  0  0
M  END
> <VConfSearch Rank>
162

> <Conf_Id>
67

> <Delta U+W>
0.308

> <U+W>
-54.583

> <U>
8.219

> <W>
-62.802

> <W(PB)>
-64.859

> <W(SA)>
2.057

> <Valence>
7.609

> <Coulomb>
-0.089

> <VdW>
0.699

> <VdW6>
-6.924

> <VdW12>
7.623

> <Bond>
0.163

> <Angle>
2.870

> <Pdih>
4.576

> <Idih>
0.001

> <Tether>
0.000

$$$$
VeraChem MOL file


 19 18  0  0  0  0  0  0  0  0999 V2000     
   22.2588   18.2912   20.5672 C   0  0  0  0  0  0  0  0  0  0  0  0
   22.9712   19.0387   19.9268 O   0  5  0  0  0  0  0  0  0  0  0  0
   22.1102   17.1145   20.3035 O   0  0  0  0  0  0  0  0  0  0  0  0
   21.4948   18.8663   21.7546 C   0  0  0  0  0  0  0  0  0  0  0  0
   22.1016   19.6661   22.1956 H   0  0  0  0  0  0  0  0  0  0  0  0
   21.4021   18.0747   22.5068 H   0  0  0  0  0  0  0  0  0  0  0  0
   20.0965   19.4100   21.3627 C   0  0  0  0  0  0  0  0  0  0  0  0
   20.2163   20.1336   20.5446 H   0  0  0  0  0  0  0  0  0  0  0  0
   19.4849   18.5928   20.9578 H   0  0  0  0  0  0  0  0  0  0  0  0
   19.3528   20.1054   22.5307 C   0  0  0  0  0  0  0  0  0  0  0  0
   18.3971   20.4971   22.1565 H   0  0  0  0  0  0  0  0  0  0  0  0
   19.9341   20.9804   22.8518 H   0  0  0  0  0  0  0  0  0  0  0  0
   19.0780   19.2102   23.7640 C   0  0  0  0  0  0  0  0  0  0  0  0
   20.0247   18.8907   24.2192 H   0  0  0  0  0  0  0  0  0  0  0  0
   18.5637   19.8126   24.5254 H   0  0  0  0  0  0  0  0  0  0  0  0
   18.2120   17.9736   23.4413 C   0  0  0  0  0  0  0  0  0  0  0  0
   18.7377   17.2830   22.7698 H   0  0  0  0  0  0  0  0  0  0  0  0
   17.9693   17.4242   24.3600 H   0  0  0  0  0  0  0  0  0  0  0  0
   17.2686   18.2685   22.9637 H   0  0  0  0  0  0  0  0  0  0  0  0
  1  2  1  0  0  0  0
  1  3  2  0  0  0  0
  1  4  1  0  0  0  0
  4  5  1  0  0  0  0
  4  6  1  0  0  0  0
  4  7  1  0  0  0  0
  7  8  1  0  0  0  0
  7  9  1  0  0  0  0
  7 10  1  0  0  0  0
 10 11  1  0  0  0  0
 10 12  1  0  0  0  0
 10 13  1  0  0  0  0
 13 14  1  0  0  0  0
 13 15  1  0  0  0  0
 13 16  1  0  0  0  0
 16 17  1  0  0  0  0
 16 18  1  0  0  0  0
 16 19  1  0  0  0  0
M  END
> <VConfSearch Rank>
163

> <Conf_Id>
21

> <Delta U+W>
0.319

> <U+W>
-54.572

> <U>
8.220

> <W>
-62.792

> <W(PB)>
-64.830

> <W(SA)>
2.038

> <Valence>
7.609

> <Coulomb>
-0.088

> <VdW>
0.699

> <VdW6>
-6.924

> <VdW12>
7.623

> <Bond>
0.163

> <Angle>
2.870

> <Pdih>
4.576

> <Idih>
0.000

> <Tether>
0.000

$$$$
VeraChem MOL file


 19 18  0  0  0  0  0  0  0  0999 V2000     
   17.2059   18.3970   22.9363 C   0  0  0  0  0  0  0  0  0  0  0  0
   16.6303   17.3492   23.1535 O   0  5  0  0  0  0  0  0  0  0  0  0
   16.7989   19.4781   23.3129 O   0  0  0  0  0  0  0  0  0  0  0  0
   18.5199   18.3501   22.1648 C   0  0  0  0  0  0  0  0  0  0  0  0
   18.6023   19.2749   21.5855 H   0  0  0  0  0  0  0  0  0  0  0  0
   18.4595   17.5262   21.4437 H   0  0  0  0  0  0  0  0  0  0  0  0
   19.7521   18.1583   23.0882 C   0  0  0  0  0  0  0  0  0  0  0  0
   19.7819   18.9507   23.8488 H   0  0  0  0  0  0  0  0  0  0  0  0
   19.6205   17.2144   23.6351 H   0  0  0  0  0  0  0  0  0  0  0  0
   21.0965   18.1021   22.3191 C   0  0  0  0  0  0  0  0  0  0  0  0
   20.9423   17.6909   21.3121 H   0  0  0  0  0  0  0  0  0  0  0  0
   21.7551   17.3898   22.8347 H   0  0  0  0  0  0  0  0  0  0  0  0
   21.8490   19.4527   22.2330 C   0  0  0  0  0  0  0  0  0  0  0  0
   22.0775   19.8121   23.2458 H   0  0  0  0  0  0  0  0  0  0  0  0
   22.8170   19.2813   21.7424 H   0  0  0  0  0  0  0  0  0  0  0  0
   21.0912   20.5513   21.4594 C   0  0  0  0  0  0  0  0  0  0  0  0
   21.7296   21.4336   21.3223 H   0  0  0  0  0  0  0  0  0  0  0  0
   20.7866   20.1959   20.4664 H   0  0  0  0  0  0  0  0  0  0  0  0
   20.1960   20.8738   22.0057 H   0  0  0  0  0  0  0  0  0  0  0  0
  1  2  1  0  0  0  0
  1  3  2  0  0  0  0
  1  4  1  0  0  0  0
  4  5  1  0  0  0  0
  4  6  1  0  0  0  0
  4  7  1  0  0  0  0
  7  8  1  0  0  0  0
  7  9  1  0  0  0  0
  7 10  1  0  0  0  0
 10 11  1  0  0  0  0
 10 12  1  0  0  0  0
 10 13  1  0  0  0  0
 13 14  1  0  0  0  0
 13 15  1  0  0  0  0
 13 16  1  0  0  0  0
 16 17  1  0  0  0  0
 16 18  1  0  0  0  0
 16 19  1  0  0  0  0
M  END
> <VConfSearch Rank>
164

> <Conf_Id>
24

> <Delta U+W>
2.477

> <U+W>
-52.414

> <U>
10.422

> <W>
-62.836

> <W(PB)>
-64.906

> <W(SA)>
2.070

> <Valence>
9.628

> <Coulomb>
0.101

> <VdW>
0.693

> <VdW6>
-6.927

> <VdW12>
7.620

> <Bond>
0.173

> <Angle>
2.989

> <Pdih>
6.465

> <Idih>
0.001

> <Tether>
0.000

$$$$
VeraChem MOL file


 19 18  0  0  0  0  0  0  0  0999 V2000     
   18.6460   18.8505   20.1096 C   0  0  0  0  0  0  0  0  0  0  0  0
   19.3373   19.6588   19.5218 O   0  5  0  0  0  0  0  0  0  0  0  0
   18.1190   17.8988   19.5677 O   0  0  0  0  0  0  0  0  0  0  0  0
   18.4009   19.0548   21.6024 C   0  0  0  0  0  0  0  0  0  0  0  0
   17.3217   18.9581   21.7693 H   0  0  0  0  0  0  0  0  0  0  0  0
   18.6663   20.0856   21.8580 H   0  0  0  0  0  0  0  0  0  0  0  0
   19.1535   18.0426   22.5102 C   0  0  0  0  0  0  0  0  0  0  0  0
   18.7760   18.1137   23.5391 H   0  0  0  0  0  0  0  0  0  0  0  0
   18.9050   17.0288   22.1669 H   0  0  0  0  0  0  0  0  0  0  0  0
   20.6956   18.2078   22.5052 C   0  0  0  0  0  0  0  0  0  0  0  0
   21.0377   18.6000   21.5377 H   0  0  0  0  0  0  0  0  0  0  0  0
   21.1453   17.2098   22.5972 H   0  0  0  0  0  0  0  0  0  0  0  0
   21.2556   19.0785   23.6568 C   0  0  0  0  0  0  0  0  0  0  0  0
   20.9855   18.6307   24.6231 H   0  0  0  0  0  0  0  0  0  0  0  0
   22.3529   19.0595   23.6054 H   0  0  0  0  0  0  0  0  0  0  0  0
   20.7856   20.5474   23.6234 C   0  0  0  0  0  0  0  0  0  0  0  0
   19.7133   20.6245   23.8415 H   0  0  0  0  0  0  0  0  0  0  0  0
   21.3197   21.1387   24.3783 H   0  0  0  0  0  0  0  0  0  0  0  0
   20.9760   20.9992   22.6411 H   0  0  0  0  0  0  0  0  0  0  0  0
  1  2  1  0  0  0  0
  1  3  2  0  0  0  0
  1  4  1  0  0  0  0
  4  5  1  0  0  0  0
  4  6  1  0  0  0  0
  4  7  1  0  0  0  0
  7  8  1  0  0  0  0
  7  9  1  0  0  0  0
  7 10  1  0  0  0  0
 10 11  1  0  0  0  0
 10 12  1  0  0  0  0
 10 13  1  0  0  0  0
 13 14  1  0  0  0  0
 13 15  1  0  0  0  0
 13 16  1  0  0  0  0
 16 17  1  0  0  0  0
 16 18  1  0  0  0  0
 16 19  1  0  0  0  0
M  END
> <VConfSearch Rank>
165

> <Conf_Id>
4

> <Delta U+W>
3.753

> <U+W>
-51.138

> <U>
12.334

> <W>
-63.472

> <W(PB)>
-65.500

> <W(SA)>
2.028

> <Valence>
9.984

> <Coulomb>
1.767

> <VdW>
0.583

> <VdW6>
-7.767

> <VdW12>
8.349

> <Bond>
0.203

> <Angle>
3.191

> <Pdih>
6.589

> <Idih>
0.001

> <Tether>
0.000

$$$$
VeraChem MOL file


 19 18  0  0  0  0  0  0  0  0999 V2000     
   21.8388   17.7298   23.7424 C   0  0  0  0  0  0  0  0  0  0  0  0
   22.2058   17.8663   24.8929 O   0  5  0  0  0  0  0  0  0  0  0  0
   21.7409   16.6502   23.1933 O   0  0  0  0  0  0  0  0  0  0  0  0
   21.5121   18.9854   22.9379 C   0  0  0  0  0  0  0  0  0  0  0  0
   21.5103   18.7236   21.8750 H   0  0  0  0  0  0  0  0  0  0  0  0
   22.3394   19.6891   23.0863 H   0  0  0  0  0  0  0  0  0  0  0  0
   20.1776   19.6682   23.3474 C   0  0  0  0  0  0  0  0  0  0  0  0
   20.2057   19.8456   24.4315 H   0  0  0  0  0  0  0  0  0  0  0  0
   20.1089   20.6602   22.8811 H   0  0  0  0  0  0  0  0  0  0  0  0
   18.9097   18.8413   23.0093 C   0  0  0  0  0  0  0  0  0  0  0  0
   18.1685   19.0153   23.8012 H   0  0  0  0  0  0  0  0  0  0  0  0
   19.1317   17.7659   23.0409 H   0  0  0  0  0  0  0  0  0  0  0  0
   18.2428   19.2044   21.6597 C   0  0  0  0  0  0  0  0  0  0  0  0
   17.3164   18.6220   21.5618 H   0  0  0  0  0  0  0  0  0  0  0  0
   17.9419   20.2610   21.6691 H   0  0  0  0  0  0  0  0  0  0  0  0
   19.1280   18.9345   20.4255 C   0  0  0  0  0  0  0  0  0  0  0  0
   19.5051   17.9034   20.4296 H   0  0  0  0  0  0  0  0  0  0  0  0
   18.5540   19.0824   19.5017 H   0  0  0  0  0  0  0  0  0  0  0  0
   19.9843   19.6196   20.3956 H   0  0  0  0  0  0  0  0  0  0  0  0
  1  2  1  0  0  0  0
  1  3  2  0  0  0  0
  1  4  1  0  0  0  0
  4  5  1  0  0  0  0
  4  6  1  0  0  0  0
  4  7  1  0  0  0  0
  7  8  1  0  0  0  0
  7  9  1  0  0  0  0
  7 10  1  0  0  0  0
 10 11  1  0  0  0  0
 10 12  1  0  0  0  0
 10 13  1  0  0  0  0
 13 14  1  0  0  0  0
 13 15  1  0  0  0  0
 13 16  1  0  0  0  0
 16 17  1  0  0  0  0
 16 18  1  0  0  0  0
 16 19  1  0  0  0  0
M  END
> <VConfSearch Rank>
166

> <Conf_Id>
73

> <Delta U+W>
3.707

> <U+W>
-51.184

> <U>
12.334

> <W>
-63.519

> <W(PB)>
-65.541

> <W(SA)>
2.022

> <Valence>
9.984

> <Coulomb>
1.768

> <VdW>
0.583

> <VdW6>
-7.767

> <VdW12>
8.350

> <Bond>
0.203

> <Angle>
3.192

> <Pdih>
6.589

> <Idih>
0.001

> <Tether>
0.000

$$$$
VeraChem MOL file


 19 18  0  0  0  0  0  0  0  0999 V2000     
   22.2505   18.5778   23.2455 C   0  0  0  0  0  0  0  0  0  0  0  0
   21.9805   18.5504   24.4300 O   0  5  0  0  0  0  0  0  0  0  0  0
   23.1193   17.8951   22.7392 O   0  0  0  0  0  0  0  0  0  0  0  0
   21.4810   19.5437   22.3487 C   0  0  0  0  0  0  0  0  0  0  0  0
   22.2197   20.1154   21.7750 H   0  0  0  0  0  0  0  0  0  0  0  0
   20.9527   20.2662   22.9814 H   0  0  0  0  0  0  0  0  0  0  0  0
   20.4940   18.8515   21.3694 C   0  0  0  0  0  0  0  0  0  0  0  0
   20.0417   19.6090   20.7163 H   0  0  0  0  0  0  0  0  0  0  0  0
   21.0644   18.1851   20.7079 H   0  0  0  0  0  0  0  0  0  0  0  0
   19.3781   18.0266   22.0612 C   0  0  0  0  0  0  0  0  0  0  0  0
   19.8375   17.1964   22.6151 H   0  0  0  0  0  0  0  0  0  0  0  0
   18.7516   17.5628   21.2873 H   0  0  0  0  0  0  0  0  0  0  0  0
   18.4703   18.8258   23.0278 C   0  0  0  0  0  0  0  0  0  0  0  0
   17.7352   18.1372   23.4664 H   0  0  0  0  0  0  0  0  0  0  0  0
   19.0622   19.2121   23.8686 H   0  0  0  0  0  0  0  0  0  0  0  0
   17.7170   19.9858   22.3418 C   0  0  0  0  0  0  0  0  0  0  0  0
   18.4114   20.7577   21.9869 H   0  0  0  0  0  0  0  0  0  0  0  0
   17.1355   19.6236   21.4840 H   0  0  0  0  0  0  0  0  0  0  0  0
   17.0220   20.4617   23.0455 H   0  0  0  0  0  0  0  0  0  0  0  0
  1  2  1  0  0  0  0
  1  3  2  0  0  0  0
  1  4  1  0  0  0  0
  4  5  1  0  0  0  0
  4  6  1  0  0  0  0
  4  7  1  0  0  0  0
  7  8  1  0  0  0  0
  7  9  1  0  0  0  0
  7 10  1  0  0  0  0
 10 11  1  0  0  0  0
 10 12  1  0  0  0  0
 10 13  1  0  0  0  0
 13 14  1  0  0  0  0
 13 15  1  0  0  0  0
 13 16  1  0  0  0  0
 16 17  1  0  0  0  0
 16 18  1  0  0  0  0
 16 19  1  0  0  0  0
M  END
> <VConfSearch Rank>
167

> <Conf_Id>
56

> <Delta U+W>
1.735

> <U+W>
-53.156

> <U>
10.214

> <W>
-63.370

> <W(PB)>
-65.388

> <W(SA)>
2.018

> <Valence>
7.868

> <Coulomb>
1.968

> <VdW>
0.378

> <VdW6>
-8.067

> <VdW12>
8.445

> <Bond>
0.191

> <Angle>
3.117

> <Pdih>
4.559

> <Idih>
0.001

> <Tether>
0.000

$$$$
VeraChem MOL file


 19 18  0  0  0  0  0  0  0  0999 V2000     
   21.6029   20.8070   23.8408 C   0  0  0  0  0  0  0  0  0  0  0  0
   22.8035   20.9133   23.6871 O   0  5  0  0  0  0  0  0  0  0  0  0
   20.9983   21.3008   24.7720 O   0  0  0  0  0  0  0  0  0  0  0  0
   20.8156   19.9915   22.8214 C   0  0  0  0  0  0  0  0  0  0  0  0
   21.3111   20.0912   21.8483 H   0  0  0  0  0  0  0  0  0  0  0  0
   19.8209   20.4423   22.7335 H   0  0  0  0  0  0  0  0  0  0  0  0
   20.6960   18.4966   23.2112 C   0  0  0  0  0  0  0  0  0  0  0  0
   21.7004   18.1093   23.4314 H   0  0  0  0  0  0  0  0  0  0  0  0
   20.1223   18.4111   24.1444 H   0  0  0  0  0  0  0  0  0  0  0  0
   20.0532   17.6017   22.1220 C   0  0  0  0  0  0  0  0  0  0  0  0
   20.0732   16.5670   22.4908 H   0  0  0  0  0  0  0  0  0  0  0  0
   20.6732   17.6070   21.2150 H   0  0  0  0  0  0  0  0  0  0  0  0
   18.5876   17.9601   21.7720 C   0  0  0  0  0  0  0  0  0  0  0  0
   18.0410   17.0311   21.5584 H   0  0  0  0  0  0  0  0  0  0  0  0
   18.0889   18.4153   22.6388 H   0  0  0  0  0  0  0  0  0  0  0  0
   18.4628   18.8804   20.5374 C   0  0  0  0  0  0  0  0  0  0  0  0
   17.4074   19.0902   20.3207 H   0  0  0  0  0  0  0  0  0  0  0  0
   18.9697   19.8399   20.6894 H   0  0  0  0  0  0  0  0  0  0  0  0
   18.8989   18.4038   19.6498 H   0  0  0  0  0  0  0  0  0  0  0  0
  1  2  1  0  0  0  0
  1  3  2  0  0  0  0
  1  4  1  0  0  0  0
  4  5  1  0  0  0  0
  4  6  1  0  0  0  0
  4  7  1  0  0  0  0
  7  8  1  0  0  0  0
  7  9  1  0  0  0  0
  7 10  1  0  0  0  0
 10 11  1  0  0  0  0
 10 12  1  0  0  0  0
 10 13  1  0  0  0  0
 13 14  1  0  0  0  0
 13 15  1  0  0  0  0
 13 16  1  0  0  0  0
 16 17  1  0  0  0  0
 16 18  1  0  0  0  0
 16 19  1  0  0  0  0
M  END
> <VConfSearch Rank>
168

> <Conf_Id>
53

> <Delta U+W>
2.279

> <U+W>
-52.612

> <U>
10.231

> <W>
-62.843

> <W(PB)>
-64.893

> <W(SA)>
2.050

> <Valence>
9.644

> <Coulomb>
-0.164

> <VdW>
0.751

> <VdW6>
-6.881

> <VdW12>
7.631

> <Bond>
0.163

> <Angle>
2.998

> <Pdih>
6.482

> <Idih>
0.001

> <Tether>
0.000

$$$$
VeraChem MOL file


 19 18  0  0  0  0  0  0  0  0999 V2000     
   18.0586   19.2364   23.6423 C   0  0  0  0  0  0  0  0  0  0  0  0
   18.3942   19.4673   24.7873 O   0  5  0  0  0  0  0  0  0  0  0  0
   17.3064   18.3327   23.3343 O   0  0  0  0  0  0  0  0  0  0  0  0
   18.5534   20.1751   22.5435 C   0  0  0  0  0  0  0  0  0  0  0  0
   19.1705   20.9606   22.9963 H   0  0  0  0  0  0  0  0  0  0  0  0
   17.6638   20.6705   22.1375 H   0  0  0  0  0  0  0  0  0  0  0  0
   19.3241   19.4885   21.3808 C   0  0  0  0  0  0  0  0  0  0  0  0
   18.7967   18.5764   21.0689 H   0  0  0  0  0  0  0  0  0  0  0  0
   19.3001   20.1626   20.5139 H   0  0  0  0  0  0  0  0  0  0  0  0
   20.8079   19.1661   21.6862 C   0  0  0  0  0  0  0  0  0  0  0  0
   21.3306   20.0832   21.9903 H   0  0  0  0  0  0  0  0  0  0  0  0
   21.2846   18.8341   20.7537 H   0  0  0  0  0  0  0  0  0  0  0  0
   21.0071   18.0744   22.7604 C   0  0  0  0  0  0  0  0  0  0  0  0
   20.6567   18.4368   23.7353 H   0  0  0  0  0  0  0  0  0  0  0  0
   20.4039   17.1908   22.5099 H   0  0  0  0  0  0  0  0  0  0  0  0
   22.4892   17.6670   22.8845 C   0  0  0  0  0  0  0  0  0  0  0  0
   23.1110   18.5289   23.1601 H   0  0  0  0  0  0  0  0  0  0  0  0
   22.6147   16.8975   23.6573 H   0  0  0  0  0  0  0  0  0  0  0  0
   22.8663   17.2603   21.9371 H   0  0  0  0  0  0  0  0  0  0  0  0
  1  2  1  0  0  0  0
  1  3  2  0  0  0  0
  1  4  1  0  0  0  0
  4  5  1  0  0  0  0
  4  6  1  0  0  0  0
  4  7  1  0  0  0  0
  7  8  1  0  0  0  0
  7  9  1  0  0  0  0
  7 10  1  0  0  0  0
 10 11  1  0  0  0  0
 10 12  1  0  0  0  0
 10 13  1  0  0  0  0
 13 14  1  0  0  0  0
 13 15  1  0  0  0  0
 13 16  1  0  0  0  0
 16 17  1  0  0  0  0
 16 18  1  0  0  0  0
 16 19  1  0  0  0  0
M  END
> <VConfSearch Rank>
169

> <Conf_Id>
25

> <Delta U+W>
2.065

> <U+W>
-52.826

> <U>
10.967

> <W>
-63.794

> <W(PB)>
-65.830

> <W(SA)>
2.036

> <Valence>
8.609

> <Coulomb>
1.892

> <VdW>
0.467

> <VdW6>
-7.569

> <VdW12>
8.036

> <Bond>
0.170

> <Angle>
3.195

> <Pdih>
5.237

> <Idih>
0.007

> <Tether>
0.000

$$$$
VeraChem MOL file


 19 18  0  0  0  0  0  0  0  0999 V2000     
   21.7959   20.3940   23.3022 C   0  0  0  0  0  0  0  0  0  0  0  0
   21.3051   21.0798   24.1774 O   0  5  0  0  0  0  0  0  0  0  0  0
   22.2658   20.8502   22.2785 O   0  0  0  0  0  0  0  0  0  0  0  0
   21.8915   18.8864   23.5294 C   0  0  0  0  0  0  0  0  0  0  0  0
   22.5427   18.7465   24.3999 H   0  0  0  0  0  0  0  0  0  0  0  0
   22.4064   18.4289   22.6759 H   0  0  0  0  0  0  0  0  0  0  0  0
   20.5381   18.1670   23.7901 C   0  0  0  0  0  0  0  0  0  0  0  0
   20.7526   17.2120   24.2884 H   0  0  0  0  0  0  0  0  0  0  0  0
   19.9349   18.7495   24.5002 H   0  0  0  0  0  0  0  0  0  0  0  0
   19.7104   17.8590   22.5177 C   0  0  0  0  0  0  0  0  0  0  0  0
   18.8650   17.2195   22.8061 H   0  0  0  0  0  0  0  0  0  0  0  0
   20.3167   17.2707   21.8155 H   0  0  0  0  0  0  0  0  0  0  0  0
   19.1615   19.1141   21.8042 C   0  0  0  0  0  0  0  0  0  0  0  0
   18.6399   19.7557   22.5279 H   0  0  0  0  0  0  0  0  0  0  0  0
   19.9889   19.7040   21.3897 H   0  0  0  0  0  0  0  0  0  0  0  0
   18.1970   18.7383   20.6613 C   0  0  0  0  0  0  0  0  0  0  0  0
   17.8228   19.6402   20.1595 H   0  0  0  0  0  0  0  0  0  0  0  0
   18.7022   18.1172   19.9101 H   0  0  0  0  0  0  0  0  0  0  0  0
   17.3323   18.1800   21.0434 H   0  0  0  0  0  0  0  0  0  0  0  0
  1  2  1  0  0  0  0
  1  3  2  0  0  0  0
  1  4  1  0  0  0  0
  4  5  1  0  0  0  0
  4  6  1  0  0  0  0
  4  7  1  0  0  0  0
  7  8  1  0  0  0  0
  7  9  1  0  0  0  0
  7 10  1  0  0  0  0
 10 11  1  0  0  0  0
 10 12  1  0  0  0  0
 10 13  1  0  0  0  0
 13 14  1  0  0  0  0
 13 15  1  0  0  0  0
 13 16  1  0  0  0  0
 16 17  1  0  0  0  0
 16 18  1  0  0  0  0
 16 19  1  0  0  0  0
M  END
> <VConfSearch Rank>
170

> <Conf_Id>
52

> <Delta U+W>
2.070

> <U+W>
-52.822

> <U>
10.967

> <W>
-63.789

> <W(PB)>
-65.837

> <W(SA)>
2.048

> <Valence>
8.609

> <Coulomb>
1.892

> <VdW>
0.467

> <VdW6>
-7.569

> <VdW12>
8.035

> <Bond>
0.170

> <Angle>
3.196

> <Pdih>
5.237

> <Idih>
0.007

> <Tether>
0.000

$$$$
VeraChem MOL file


 19 18  0  0  0  0  0  0  0  0999 V2000     
   20.7078   20.1125   21.0774 C   0  0  0  0  0  0  0  0  0  0  0  0
   20.5189   19.5663   20.0078 O   0  5  0  0  0  0  0  0  0  0  0  0
   20.4159   21.2723   21.2927 O   0  0  0  0  0  0  0  0  0  0  0  0
   21.4624   19.3504   22.1679 C   0  0  0  0  0  0  0  0  0  0  0  0
   21.4119   19.9211   23.1030 H   0  0  0  0  0  0  0  0  0  0  0  0
   22.5147   19.3463   21.8613 H   0  0  0  0  0  0  0  0  0  0  0  0
   21.0040   17.8836   22.4083 C   0  0  0  0  0  0  0  0  0  0  0  0
   20.7999   17.3917   21.4472 H   0  0  0  0  0  0  0  0  0  0  0  0
   21.8468   17.3351   22.8498 H   0  0  0  0  0  0  0  0  0  0  0  0
   19.7896   17.7134   23.3567 C   0  0  0  0  0  0  0  0  0  0  0  0
   20.0301   18.1160   24.3503 H   0  0  0  0  0  0  0  0  0  0  0  0
   19.6353   16.6357   23.5040 H   0  0  0  0  0  0  0  0  0  0  0  0
   18.4636   18.3200   22.8373 C   0  0  0  0  0  0  0  0  0  0  0  0
   18.4894   18.4200   21.7433 H   0  0  0  0  0  0  0  0  0  0  0  0
   17.6438   17.6230   23.0595 H   0  0  0  0  0  0  0  0  0  0  0  0
   18.1304   19.6774   23.4927 C   0  0  0  0  0  0  0  0  0  0  0  0
   18.0041   19.5676   24.5775 H   0  0  0  0  0  0  0  0  0  0  0  0
   18.9232   20.4138   23.3170 H   0  0  0  0  0  0  0  0  0  0  0  0
   17.1968   20.0840   23.0832 H   0  0  0  0  0  0  0  0  0  0  0  0
  1  2  1  0  0  0  0
  1  3  2  0  0  0  0
  1  4  1  0  0  0  0
  4  5  1  0  0  0  0
  4  6  1  0  0  0  0
  4  7  1  0  0  0  0
  7  8  1  0  0  0  0
  7  9  1  0  0  0  0
  7 10  1  0  0  0  0
 10 11  1  0  0  0  0
 10 12  1  0  0  0  0
 10 13  1  0  0  0  0
 13 14  1  0  0  0  0
 13 15  1  0  0  0  0
 13 16  1  0  0  0  0
 16 17  1  0  0  0  0
 16 18  1  0  0  0  0
 16 19  1  0  0  0  0
M  END
> <VConfSearch Rank>
171

> <Conf_Id>
66

> <Delta U+W>
5.819

> <U+W>
-49.072

> <U>
15.324

> <W>
-64.396

> <W(PB)>
-66.382

> <W(SA)>
1.986

> <Valence>
11.748

> <Coulomb>
3.201

> <VdW>
0.375

> <VdW6>
-8.854

> <VdW12>
9.229

> <Bond>
0.216

> <Angle>
3.812

> <Pdih>
7.699

> <Idih>
0.022

> <Tether>
0.000

$$$$
VeraChem MOL file


 19 18  0  0  0  0  0  0  0  0999 V2000     
   22.8698   20.6178   21.4968 C   0  0  0  0  0  0  0  0  0  0  0  0
   23.2928   21.5629   20.8615 O   0  5  0  0  0  0  0  0  0  0  0  0
   23.5744   19.9272   22.2071 O   0  0  0  0  0  0  0  0  0  0  0  0
   21.3768   20.3076   21.3764 C   0  0  0  0  0  0  0  0  0  0  0  0
   21.1616   20.1428   20.3141 H   0  0  0  0  0  0  0  0  0  0  0  0
   20.8301   21.2087   21.6784 H   0  0  0  0  0  0  0  0  0  0  0  0
   20.8831   19.0924   22.2058 C   0  0  0  0  0  0  0  0  0  0  0  0
   21.4388   18.1943   21.9025 H   0  0  0  0  0  0  0  0  0  0  0  0
   21.1069   19.2612   23.2683 H   0  0  0  0  0  0  0  0  0  0  0  0
   19.3685   18.8517   22.0259 C   0  0  0  0  0  0  0  0  0  0  0  0
   19.1469   18.6834   20.9630 H   0  0  0  0  0  0  0  0  0  0  0  0
   18.8149   19.7509   22.3295 H   0  0  0  0  0  0  0  0  0  0  0  0
   18.8798   17.6433   22.8511 C   0  0  0  0  0  0  0  0  0  0  0  0
   19.4299   16.7413   22.5490 H   0  0  0  0  0  0  0  0  0  0  0  0
   19.0978   17.8087   23.9154 H   0  0  0  0  0  0  0  0  0  0  0  0
   17.3673   17.4059   22.6690 C   0  0  0  0  0  0  0  0  0  0  0  0
   17.1249   17.2062   21.6170 H   0  0  0  0  0  0  0  0  0  0  0  0
   17.0370   16.5434   23.2625 H   0  0  0  0  0  0  0  0  0  0  0  0
   16.7904   18.2817   22.9937 H   0  0  0  0  0  0  0  0  0  0  0  0
  1  2  1  0  0  0  0
  1  3  2  0  0  0  0
  1  4  1  0  0  0  0
  4  5  1  0  0  0  0
  4  6  1  0  0  0  0
  4  7  1  0  0  0  0
  7  8  1  0  0  0  0
  7  9  1  0  0  0  0
  7 10  1  0  0  0  0
 10 11  1  0  0  0  0
 10 12  1  0  0  0  0
 10 13  1  0  0  0  0
 13 14  1  0  0  0  0
 13 15  1  0  0  0  0
 13 16  1  0  0  0  0
 16 17  1  0  0  0  0
 16 18  1  0  0  0  0
 16 19  1  0  0  0  0
M  END
> <VConfSearch Rank>
172

> <Conf_Id>
0

> <Delta U+W>
0.000

> <U+W>
-54.891

> <U>
6.966

> <W>
-61.857

> <W(PB)>
-63.965

> <W(SA)>
2.108

> <Valence>
7.175

> <Coulomb>
-1.360

> <VdW>
1.151

> <VdW6>
-5.641

> <VdW12>
6.792

> <Bond>
0.119

> <Angle>
2.715

> <Pdih>
4.340

> <Idih>
0.000

> <Tether>
0.000

$$$$
VeraChem MOL file


 19 18  0  0  0  0  0  0  0  0999 V2000     
   21.1026   19.1719   25.3118 C   0  0  0  0  0  0  0  0  0  0  0  0
   20.5852   18.4160   26.1100 O   0  5  0  0  0  0  0  0  0  0  0  0
   22.2476   19.5675   25.4048 O   0  0  0  0  0  0  0  0  0  0  0  0
   20.2760   19.6332   24.1166 C   0  0  0  0  0  0  0  0  0  0  0  0
   20.5977   20.6474   23.8507 H   0  0  0  0  0  0  0  0  0  0  0  0
   19.2276   19.6979   24.4318 H   0  0  0  0  0  0  0  0  0  0  0  0
   20.4091   18.6927   22.8936 C   0  0  0  0  0  0  0  0  0  0  0  0
   21.4656   18.6286   22.5984 H   0  0  0  0  0  0  0  0  0  0  0  0
   20.0955   17.6790   23.1795 H   0  0  0  0  0  0  0  0  0  0  0  0
   19.5632   19.1815   21.6981 C   0  0  0  0  0  0  0  0  0  0  0  0
   19.8780   20.1955   21.4155 H   0  0  0  0  0  0  0  0  0  0  0  0
   18.5078   19.2457   21.9967 H   0  0  0  0  0  0  0  0  0  0  0  0
   19.6977   18.2427   20.4811 C   0  0  0  0  0  0  0  0  0  0  0  0
   20.7519   18.1774   20.1781 H   0  0  0  0  0  0  0  0  0  0  0  0
   19.3817   17.2277   20.7592 H   0  0  0  0  0  0  0  0  0  0  0  0
   18.8519   18.7338   19.2893 C   0  0  0  0  0  0  0  0  0  0  0  0
   18.9592   18.0551   18.4331 H   0  0  0  0  0  0  0  0  0  0  0  0
   17.7875   18.7786   19.5550 H   0  0  0  0  0  0  0  0  0  0  0  0
   19.1680   19.7354   18.9695 H   0  0  0  0  0  0  0  0  0  0  0  0
  1  2  1  0  0  0  0
  1  3  2  0  0  0  0
  1  4  1  0  0  0  0
  4  5  1  0  0  0  0
  4  6  1  0  0  0  0
  4  7  1  0  0  0  0
  7  8  1  0  0  0  0
  7  9  1  0  0  0  0
  7 10  1  0  0  0  0
 10 11  1  0  0  0  0
 10 12  1  0  0  0  0
 10 13  1  0  0  0  0
 13 14  1  0  0  0  0
 13 15  1  0  0  0  0
 13 16  1  0  0  0  0
 16 17  1  0  0  0  0
 16 18  1  0  0  0  0
 16 19  1  0  0  0  0
M  END
> <VConfSearch Rank>
173

> <Conf_Id>
18

> <Delta U+W>
-1.199

> <U+W>
-56.090

> <U>
5.975

> <W>
-62.066

> <W(PB)>
-64.219

> <W(SA)>
2.153

> <Valence>
6.673

> <Coulomb>
-1.307

> <VdW>
0.610

> <VdW6>
-5.351

> <VdW12>
5.961

> <Bond>
0.086

> <Angle>
2.253

> <Pdih>
4.333

> <Idih>
0.001

> <Tether>
0.000

$$$$
VeraChem MOL file


 19 18  0  0  0  0  0  0  0  0999 V2000     
   17.8052   16.7240   23.0494 C   0  0  0  0  0  0  0  0  0  0  0  0
   17.6982   15.6366   22.5179 O   0  5  0  0  0  0  0  0  0  0  0  0
   17.3429   16.9866   24.1420 O   0  0  0  0  0  0  0  0  0  0  0  0
   18.5802   17.8118   22.3144 C   0  0  0  0  0  0  0  0  0  0  0  0
   18.1269   18.7758   22.5718 H   0  0  0  0  0  0  0  0  0  0  0  0
   18.4381   17.6623   21.2374 H   0  0  0  0  0  0  0  0  0  0  0  0
   20.0921   17.8092   22.6597 C   0  0  0  0  0  0  0  0  0  0  0  0
   20.2238   18.0040   23.7330 H   0  0  0  0  0  0  0  0  0  0  0  0
   20.4938   16.8031   22.4756 H   0  0  0  0  0  0  0  0  0  0  0  0
   20.9153   18.8295   21.8381 C   0  0  0  0  0  0  0  0  0  0  0  0
   20.7883   18.6267   20.7659 H   0  0  0  0  0  0  0  0  0  0  0  0
   21.9805   18.6767   22.0593 H   0  0  0  0  0  0  0  0  0  0  0  0
   20.5463   20.2998   22.1375 C   0  0  0  0  0  0  0  0  0  0  0  0
   19.5043   20.4944   21.8519 H   0  0  0  0  0  0  0  0  0  0  0  0
   20.6242   20.4891   23.2170 H   0  0  0  0  0  0  0  0  0  0  0  0
   21.4650   21.2784   21.3787 C   0  0  0  0  0  0  0  0  0  0  0  0
   21.1888   22.3177   21.5991 H   0  0  0  0  0  0  0  0  0  0  0  0
   22.5144   21.1380   21.6690 H   0  0  0  0  0  0  0  0  0  0  0  0
   21.3863   21.1294   20.2938 H   0  0  0  0  0  0  0  0  0  0  0  0
  1  2  1  0  0  0  0
  1  3  2  0  0  0  0
  1  4  1  0  0  0  0
  4  5  1  0  0  0  0
  4  6  1  0  0  0  0
  4  7  1  0  0  0  0
  7  8  1  0  0  0  0
  7  9  1  0  0  0  0
  7 10  1  0  0  0  0
 10 11  1  0  0  0  0
 10 12  1  0  0  0  0
 10 13  1  0  0  0  0
 13 14  1  0  0  0  0
 13 15  1  0  0  0  0
 13 16  1  0  0  0  0
 16 17  1  0  0  0  0
 16 18  1  0  0  0  0
 16 19  1  0  0  0  0
M  END
> <VConfSearch Rank>
174

> <Conf_Id>
34

> <Delta U+W>
-0.563

> <U+W>
-55.455

> <U>
6.914

> <W>
-62.369

> <W(PB)>
-64.446

> <W(SA)>
2.077

> <Valence>
7.196

> <Coulomb>
-1.020

> <VdW>
0.738

> <VdW6>
-6.010

> <VdW12>
6.748

> <Bond>
0.126

> <Angle>
2.499

> <Pdih>
4.570

> <Idih>
0.001

> <Tether>
0.000

$$$$
VeraChem MOL file


 19 18  0  0  0  0  0  0  0  0999 V2000     
   19.8677   20.1848   19.2322 C   0  0  0  0  0  0  0  0  0  0  0  0
   20.6720   20.9957   18.8177 O   0  5  0  0  0  0  0  0  0  0  0  0
   18.7786   19.9992   18.7266 O   0  0  0  0  0  0  0  0  0  0  0  0
   20.2368   19.3710   20.4675 C   0  0  0  0  0  0  0  0  0  0  0  0
   21.3225   19.2165   20.4614 H   0  0  0  0  0  0  0  0  0  0  0  0
   19.7673   18.3857   20.3701 H   0  0  0  0  0  0  0  0  0  0  0  0
   19.8017   20.0557   21.7893 C   0  0  0  0  0  0  0  0  0  0  0  0
   20.2151   21.0735   21.8117 H   0  0  0  0  0  0  0  0  0  0  0  0
   18.7084   20.1647   21.8034 H   0  0  0  0  0  0  0  0  0  0  0  0
   20.2686   19.3031   23.0578 C   0  0  0  0  0  0  0  0  0  0  0  0
   20.0229   19.9150   23.9365 H   0  0  0  0  0  0  0  0  0  0  0  0
   21.3626   19.2032   23.0448 H   0  0  0  0  0  0  0  0  0  0  0  0
   19.6203   17.9098   23.2191 C   0  0  0  0  0  0  0  0  0  0  0  0
   18.5262   18.0034   23.1810 H   0  0  0  0  0  0  0  0  0  0  0  0
   19.9156   17.2561   22.3880 H   0  0  0  0  0  0  0  0  0  0  0  0
   20.0311   17.2462   24.5488 C   0  0  0  0  0  0  0  0  0  0  0  0
   21.1198   17.1152   24.6021 H   0  0  0  0  0  0  0  0  0  0  0  0
   19.7165   17.8556   25.4062 H   0  0  0  0  0  0  0  0  0  0  0  0
   19.5654   16.2570   24.6474 H   0  0  0  0  0  0  0  0  0  0  0  0
  1  2  1  0  0  0  0
  1  3  2  0  0  0  0
  1  4  1  0  0  0  0
  4  5  1  0  0  0  0
  4  6  1  0  0  0  0
  4  7  1  0  0  0  0
  7  8  1  0  0  0  0
  7  9  1  0  0  0  0
  7 10  1  0  0  0  0
 10 11  1  0  0  0  0
 10 12  1  0  0  0  0
 10 13  1  0  0  0  0
 13 14  1  0  0  0  0
 13 15  1  0  0  0  0
 13 16  1  0  0  0  0
 16 17  1  0  0  0  0
 16 18  1  0  0  0  0
 16 19  1  0  0  0  0
M  END
> <VConfSearch Rank>
175

> <Conf_Id>
33

> <Delta U+W>
-0.526

> <U+W>
-55.418

> <U>
6.914

> <W>
-62.332

> <W(PB)>
-64.421

> <W(SA)>
2.090

> <Valence>
7.196

> <Coulomb>
-1.020

> <VdW>
0.738

> <VdW6>
-6.010

> <VdW12>
6.748

> <Bond>
0.126

> <Angle>
2.499

> <Pdih>
4.570

> <Idih>
0.001

> <Tether>
0.000

$$$$
VeraChem MOL file


 19 18  0  0  0  0  0  0  0  0999 V2000     
   19.8745   15.9362   23.2011 C   0  0  0  0  0  0  0  0  0  0  0  0
   20.9650   15.4339   23.0149 O   0  5  0  0  0  0  0  0  0  0  0  0
   19.1602   15.6621   24.1450 O   0  0  0  0  0  0  0  0  0  0  0  0
   19.3829   16.9807   22.2053 C   0  0  0  0  0  0  0  0  0  0  0  0
   18.2905   16.9051   22.1438 H   0  0  0  0  0  0  0  0  0  0  0  0
   19.7818   16.7237   21.2166 H   0  0  0  0  0  0  0  0  0  0  0  0
   19.7985   18.4222   22.5900 C   0  0  0  0  0  0  0  0  0  0  0  0
   19.3998   18.6611   23.5856 H   0  0  0  0  0  0  0  0  0  0  0  0
   20.8930   18.4687   22.6636 H   0  0  0  0  0  0  0  0  0  0  0  0
   19.2901   19.4592   21.5620 C   0  0  0  0  0  0  0  0  0  0  0  0
   18.2028   19.3482   21.4500 H   0  0  0  0  0  0  0  0  0  0  0  0
   19.7277   19.2491   20.5764 H   0  0  0  0  0  0  0  0  0  0  0  0
   19.5955   20.9210   21.9623 C   0  0  0  0  0  0  0  0  0  0  0  0
   19.1020   21.5930   21.2466 H   0  0  0  0  0  0  0  0  0  0  0  0
   19.1545   21.1367   22.9453 H   0  0  0  0  0  0  0  0  0  0  0  0
   21.1050   21.2447   21.9879 C   0  0  0  0  0  0  0  0  0  0  0  0
   21.5738   21.0092   21.0236 H   0  0  0  0  0  0  0  0  0  0  0  0
   21.2652   22.3117   22.1899 H   0  0  0  0  0  0  0  0  0  0  0  0
   21.6233   20.6773   22.7709 H   0  0  0  0  0  0  0  0  0  0  0  0
  1  2  1  0  0  0  0
  1  3  2  0  0  0  0
  1  4  1  0  0  0  0
  4  5  1  0  0  0  0
  4  6  1  0  0  0  0
  4  7  1  0  0  0  0
  7  8  1  0  0  0  0
  7  9  1  0  0  0  0
  7 10  1  0  0  0  0
 10 11  1  0  0  0  0
 10 12  1  0  0  0  0
 10 13  1  0  0  0  0
 13 14  1  0  0  0  0
 13 15  1  0  0  0  0
 13 16  1  0  0  0  0
 16 17  1  0  0  0  0
 16 18  1  0  0  0  0
 16 19  1  0  0  0  0
M  END
> <VConfSearch Rank>
176

> <Conf_Id>
42

> <Delta U+W>
-0.344

> <U+W>
-55.236

> <U>
7.244

> <W>
-62.479

> <W(PB)>
-64.610

> <W(SA)>
2.130

> <Valence>
7.174

> <Coulomb>
-0.669

> <VdW>
0.739

> <VdW6>
-5.969

> <VdW12>
6.708

> <Bond>
0.116

> <Angle>
2.481

> <Pdih>
4.576

> <Idih>
0.000

> <Tether>
0.000

$$$$
VeraChem MOL file


 19 18  0  0  0  0  0  0  0  0999 V2000     
   22.7477   17.8043   20.9984 C   0  0  0  0  0  0  0  0  0  0  0  0
   22.7798   18.0320   19.8054 O   0  5  0  0  0  0  0  0  0  0  0  0
   23.2111   16.8015   21.5044 O   0  0  0  0  0  0  0  0  0  0  0  0
   22.0725   18.8242   21.9086 C   0  0  0  0  0  0  0  0  0  0  0  0
   22.2235   19.8204   21.4756 H   0  0  0  0  0  0  0  0  0  0  0  0
   22.5875   18.8100   22.8768 H   0  0  0  0  0  0  0  0  0  0  0  0
   20.5607   18.5503   22.1028 C   0  0  0  0  0  0  0  0  0  0  0  0
   20.0704   18.5507   21.1203 H   0  0  0  0  0  0  0  0  0  0  0  0
   20.4256   17.5463   22.5280 H   0  0  0  0  0  0  0  0  0  0  0  0
   19.9017   19.6009   23.0263 C   0  0  0  0  0  0  0  0  0  0  0  0
   19.9938   20.5991   22.5768 H   0  0  0  0  0  0  0  0  0  0  0  0
   20.4508   19.6356   23.9772 H   0  0  0  0  0  0  0  0  0  0  0  0
   18.4145   19.3055   23.3288 C   0  0  0  0  0  0  0  0  0  0  0  0
   18.3188   18.3099   23.7838 H   0  0  0  0  0  0  0  0  0  0  0  0
   18.0576   20.0249   24.0787 H   0  0  0  0  0  0  0  0  0  0  0  0
   17.5078   19.3963   22.0824 C   0  0  0  0  0  0  0  0  0  0  0  0
   17.7540   18.6173   21.3501 H   0  0  0  0  0  0  0  0  0  0  0  0
   16.4547   19.2665   22.3638 H   0  0  0  0  0  0  0  0  0  0  0  0
   17.6089   20.3739   21.5934 H   0  0  0  0  0  0  0  0  0  0  0  0
  1  2  1  0  0  0  0
  1  3  2  0  0  0  0
  1  4  1  0  0  0  0
  4  5  1  0  0  0  0
  4  6  1  0  0  0  0
  4  7  1  0  0  0  0
  7  8  1  0  0  0  0
  7  9  1  0  0  0  0
  7 10  1  0  0  0  0
 10 11  1  0  0  0  0
 10 12  1  0  0  0  0
 10 13  1  0  0  0  0
 13 14  1  0  0  0  0
 13 15  1  0  0  0  0
 13 16  1  0  0  0  0
 16 17  1  0  0  0  0
 16 18  1  0  0  0  0
 16 19  1  0  0  0  0
M  END
> <VConfSearch Rank>
177

> <Conf_Id>
41

> <Delta U+W>
-0.361

> <U+W>
-55.252

> <U>
7.244

> <W>
-62.496

> <W(PB)>
-64.596

> <W(SA)>
2.099

> <Valence>
7.174

> <Coulomb>
-0.669

> <VdW>
0.739

> <VdW6>
-5.969

> <VdW12>
6.708

> <Bond>
0.116

> <Angle>
2.481

> <Pdih>
4.576

> <Idih>
0.000

> <Tether>
0.000

$$$$
VeraChem MOL file


 19 18  0  0  0  0  0  0  0  0999 V2000     
   19.2909   21.7964   22.3564 C   0  0  0  0  0  0  0  0  0  0  0  0
   20.2669   22.1925   22.9624 O   0  5  0  0  0  0  0  0  0  0  0  0
   18.9326   22.2522   21.2884 O   0  0  0  0  0  0  0  0  0  0  0  0
   18.4557   20.6811   22.9791 C   0  0  0  0  0  0  0  0  0  0  0  0
   17.4030   20.9778   22.9022 H   0  0  0  0  0  0  0  0  0  0  0  0
   18.6915   20.6221   24.0486 H   0  0  0  0  0  0  0  0  0  0  0  0
   18.6531   19.2958   22.3104 C   0  0  0  0  0  0  0  0  0  0  0  0
   17.9187   18.5921   22.7251 H   0  0  0  0  0  0  0  0  0  0  0  0
   18.4411   19.3773   21.2352 H   0  0  0  0  0  0  0  0  0  0  0  0
   20.0756   18.7310   22.5221 C   0  0  0  0  0  0  0  0  0  0  0  0
   20.2876   18.6638   23.5980 H   0  0  0  0  0  0  0  0  0  0  0  0
   20.8157   19.4216   22.0945 H   0  0  0  0  0  0  0  0  0  0  0  0
   20.2397   17.3395   21.8760 C   0  0  0  0  0  0  0  0  0  0  0  0
   19.5046   16.6433   22.3030 H   0  0  0  0  0  0  0  0  0  0  0  0
   20.0306   17.4044   20.7992 H   0  0  0  0  0  0  0  0  0  0  0  0
   21.6599   16.7787   22.0890 C   0  0  0  0  0  0  0  0  0  0  0  0
   21.8844   16.6738   23.1586 H   0  0  0  0  0  0  0  0  0  0  0  0
   21.7593   15.7896   21.6232 H   0  0  0  0  0  0  0  0  0  0  0  0
   22.4143   17.4406   21.6437 H   0  0  0  0  0  0  0  0  0  0  0  0
  1  2  1  0  0  0  0
  1  3  2  0  0  0  0
  1  4  1  0  0  0  0
  4  5  1  0  0  0  0
  4  6  1  0  0  0  0
  4  7  1  0  0  0  0
  7  8  1  0  0  0  0
  7  9  1  0  0  0  0
  7 10  1  0  0  0  0
 10 11  1  0  0  0  0
 10 12  1  0  0  0  0
 10 13  1  0  0  0  0
 13 14  1  0  0  0  0
 13 15  1  0  0  0  0
 13 16  1  0  0  0  0
 16 17  1  0  0  0  0
 16 18  1  0  0  0  0
 16 19  1  0  0  0  0
M  END
> <VConfSearch Rank>
178

> <Conf_Id>
36

> <Delta U+W>
-0.079

> <U+W>
-54.971

> <U>
8.266

> <W>
-63.237

> <W(PB)>
-65.340

> <W(SA)>
2.103

> <Valence>
6.935

> <Coulomb>
0.874

> <VdW>
0.457

> <VdW6>
-6.205

> <VdW12>
6.662

> <Bond>
0.107

> <Angle>
2.420

> <Pdih>
4.407

> <Idih>
0.001

> <Tether>
0.000

$$$$
VeraChem MOL file


 19 18  0  0  0  0  0  0  0  0999 V2000     
   22.3960   17.9519   20.8887 C   0  0  0  0  0  0  0  0  0  0  0  0
   22.9632   18.9966   20.6368 O   0  5  0  0  0  0  0  0  0  0  0  0
   22.1299   17.1129   20.0509 O   0  0  0  0  0  0  0  0  0  0  0  0
   22.0153   17.6664   22.3388 C   0  0  0  0  0  0  0  0  0  0  0  0
   22.6042   18.3223   22.9914 H   0  0  0  0  0  0  0  0  0  0  0  0
   22.3226   16.6379   22.5621 H   0  0  0  0  0  0  0  0  0  0  0  0
   20.5027   17.8312   22.6388 C   0  0  0  0  0  0  0  0  0  0  0  0
   19.9248   17.1900   21.9586 H   0  0  0  0  0  0  0  0  0  0  0  0
   20.3006   17.4744   23.6578 H   0  0  0  0  0  0  0  0  0  0  0  0
   20.0270   19.2955   22.5082 C   0  0  0  0  0  0  0  0  0  0  0  0
   20.2103   19.6546   21.4860 H   0  0  0  0  0  0  0  0  0  0  0  0
   20.6164   19.9342   23.1803 H   0  0  0  0  0  0  0  0  0  0  0  0
   18.5276   19.4409   22.8414 C   0  0  0  0  0  0  0  0  0  0  0  0
   17.9355   18.8047   22.1689 H   0  0  0  0  0  0  0  0  0  0  0  0
   18.3389   19.0871   23.8645 H   0  0  0  0  0  0  0  0  0  0  0  0
   18.0561   20.9029   22.7102 C   0  0  0  0  0  0  0  0  0  0  0  0
   18.2045   21.2729   21.6872 H   0  0  0  0  0  0  0  0  0  0  0  0
   16.9883   20.9881   22.9500 H   0  0  0  0  0  0  0  0  0  0  0  0
   18.6108   21.5574   23.3953 H   0  0  0  0  0  0  0  0  0  0  0  0
  1  2  1  0  0  0  0
  1  3  2  0  0  0  0
  1  4  1  0  0  0  0
  4  5  1  0  0  0  0
  4  6  1  0  0  0  0
  4  7  1  0  0  0  0
  7  8  1  0  0  0  0
  7  9  1  0  0  0  0
  7 10  1  0  0  0  0
 10 11  1  0  0  0  0
 10 12  1  0  0  0  0
 10 13  1  0  0  0  0
 13 14  1  0  0  0  0
 13 15  1  0  0  0  0
 13 16  1  0  0  0  0
 16 17  1  0  0  0  0
 16 18  1  0  0  0  0
 16 19  1  0  0  0  0
M  END
> <VConfSearch Rank>
179

> <Conf_Id>
35

> <Delta U+W>
-0.030

> <U+W>
-54.921

> <U>
8.267

> <W>
-63.188

> <W(PB)>
-65.294

> <W(SA)>
2.106

> <Valence>
6.935

> <Coulomb>
0.875

> <VdW>
0.457

> <VdW6>
-6.205

> <VdW12>
6.662

> <Bond>
0.107

> <Angle>
2.420

> <Pdih>
4.407

> <Idih>
0.001

> <Tether>
0.000

$$$$
VeraChem MOL file


 19 18  0  0  0  0  0  0  0  0999 V2000     
   21.5616   21.1775   21.2521 C   0  0  0  0  0  0  0  0  0  0  0  0
   20.9021   22.1975   21.2134 O   0  5  0  0  0  0  0  0  0  0  0  0
   22.2325   20.7758   20.3219 O   0  0  0  0  0  0  0  0  0  0  0  0
   21.5630   20.3704   22.5474 C   0  0  0  0  0  0  0  0  0  0  0  0
   21.7045   21.0774   23.3733 H   0  0  0  0  0  0  0  0  0  0  0  0
   22.4356   19.7058   22.5457 H   0  0  0  0  0  0  0  0  0  0  0  0
   20.2674   19.5513   22.7845 C   0  0  0  0  0  0  0  0  0  0  0  0
   20.2995   19.1351   23.7994 H   0  0  0  0  0  0  0  0  0  0  0  0
   19.3993   20.2236   22.7441 H   0  0  0  0  0  0  0  0  0  0  0  0
   20.0924   18.4064   21.7581 C   0  0  0  0  0  0  0  0  0  0  0  0
   20.9427   17.7142   21.8268 H   0  0  0  0  0  0  0  0  0  0  0  0
   20.1155   18.8253   20.7427 H   0  0  0  0  0  0  0  0  0  0  0  0
   18.7711   17.6223   21.9319 C   0  0  0  0  0  0  0  0  0  0  0  0
   17.9185   18.3119   21.8616 H   0  0  0  0  0  0  0  0  0  0  0  0
   18.6685   16.9161   21.0965 H   0  0  0  0  0  0  0  0  0  0  0  0
   18.6958   16.8360   23.2586 C   0  0  0  0  0  0  0  0  0  0  0  0
   18.6760   17.5102   24.1239 H   0  0  0  0  0  0  0  0  0  0  0  0
   17.7833   16.2267   23.2919 H   0  0  0  0  0  0  0  0  0  0  0  0
   19.5560   16.1624   23.3655 H   0  0  0  0  0  0  0  0  0  0  0  0
  1  2  1  0  0  0  0
  1  3  2  0  0  0  0
  1  4  1  0  0  0  0
  4  5  1  0  0  0  0
  4  6  1  0  0  0  0
  4  7  1  0  0  0  0
  7  8  1  0  0  0  0
  7  9  1  0  0  0  0
  7 10  1  0  0  0  0
 10 11  1  0  0  0  0
 10 12  1  0  0  0  0
 10 13  1  0  0  0  0
 13 14  1  0  0  0  0
 13 15  1  0  0  0  0
 13 16  1  0  0  0  0
 16 17  1  0  0  0  0
 16 18  1  0  0  0  0
 16 19  1  0  0  0  0
M  END
> <VConfSearch Rank>
180

> <Conf_Id>
74

> <Delta U+W>
0.797

> <U+W>
-54.095

> <U>
8.869

> <W>
-62.964

> <W(PB)>
-65.046

> <W(SA)>
2.082

> <Valence>
7.469

> <Coulomb>
0.762

> <VdW>
0.639

> <VdW6>
-6.782

> <VdW12>
7.421

> <Bond>
0.141

> <Angle>
2.667

> <Pdih>
4.660

> <Idih>
0.001

> <Tether>
0.000

$$$$
VeraChem MOL file


 19 18  0  0  0  0  0  0  0  0999 V2000     
   19.1544   17.4455   19.9104 C   0  0  0  0  0  0  0  0  0  0  0  0
   18.0373   17.2428   19.4776 O   0  5  0  0  0  0  0  0  0  0  0  0
   20.1578   17.4047   19.2263 O   0  0  0  0  0  0  0  0  0  0  0  0
   19.3027   17.7883   21.3884 C   0  0  0  0  0  0  0  0  0  0  0  0
   20.2636   17.3864   21.7295 H   0  0  0  0  0  0  0  0  0  0  0  0
   18.5147   17.2630   21.9411 H   0  0  0  0  0  0  0  0  0  0  0  0
   19.2232   19.3125   21.6625 C   0  0  0  0  0  0  0  0  0  0  0  0
   20.0394   19.8236   21.1350 H   0  0  0  0  0  0  0  0  0  0  0  0
   18.2914   19.7004   21.2284 H   0  0  0  0  0  0  0  0  0  0  0  0
   19.2526   19.6732   23.1691 C   0  0  0  0  0  0  0  0  0  0  0  0
   18.3708   19.2357   23.6569 H   0  0  0  0  0  0  0  0  0  0  0  0
   19.1476   20.7617   23.2731 H   0  0  0  0  0  0  0  0  0  0  0  0
   20.5208   19.2178   23.9320 C   0  0  0  0  0  0  0  0  0  0  0  0
   20.4204   19.5141   24.9852 H   0  0  0  0  0  0  0  0  0  0  0  0
   20.5912   18.1220   23.9309 H   0  0  0  0  0  0  0  0  0  0  0  0
   21.8241   19.8237   23.3682 C   0  0  0  0  0  0  0  0  0  0  0  0
   21.7672   20.9196   23.3386 H   0  0  0  0  0  0  0  0  0  0  0  0
   22.6802   19.5458   23.9964 H   0  0  0  0  0  0  0  0  0  0  0  0
   22.0255   19.4609   22.3523 H   0  0  0  0  0  0  0  0  0  0  0  0
  1  2  1  0  0  0  0
  1  3  2  0  0  0  0
  1  4  1  0  0  0  0
  4  5  1  0  0  0  0
  4  6  1  0  0  0  0
  4  7  1  0  0  0  0
  7  8  1  0  0  0  0
  7  9  1  0  0  0  0
  7 10  1  0  0  0  0
 10 11  1  0  0  0  0
 10 12  1  0  0  0  0
 10 13  1  0  0  0  0
 13 14  1  0  0  0  0
 13 15  1  0  0  0  0
 13 16  1  0  0  0  0
 16 17  1  0  0  0  0
 16 18  1  0  0  0  0
 16 19  1  0  0  0  0
M  END
> <VConfSearch Rank>
181

> <Conf_Id>
67

> <Delta U+W>
0.308

> <U+W>
-54.583

> <U>
8.219

> <W>
-62.802

> <W(PB)>
-64.859

> <W(SA)>
2.057

> <Valence>
7.609

> <Coulomb>
-0.089

> <VdW>
0.699

> <VdW6>
-6.924

> <VdW12>
7.623

> <Bond>
0.163

> <Angle>
2.870

> <Pdih>
4.576

> <Idih>
0.001

> <Tether>
0.000

$$$$
VeraChem MOL file


 19 18  0  0  0  0  0  0  0  0999 V2000     
   18.0217   17.7590   24.1375 C   0  0  0  0  0  0  0  0  0  0  0  0
   18.0827   16.7243   24.7716 O   0  5  0  0  0  0  0  0  0  0  0  0
   16.9777   18.3071   23.8443 O   0  0  0  0  0  0  0  0  0  0  0  0
   19.3260   18.3934   23.6676 C   0  0  0  0  0  0  0  0  0  0  0  0
   20.1003   18.1726   24.4121 H   0  0  0  0  0  0  0  0  0  0  0  0
   19.1839   19.4801   23.6574 H   0  0  0  0  0  0  0  0  0  0  0  0
   19.7692   17.8901   22.2695 C   0  0  0  0  0  0  0  0  0  0  0  0
   19.8138   16.7925   22.2879 H   0  0  0  0  0  0  0  0  0  0  0  0
   19.0041   18.1503   21.5260 H   0  0  0  0  0  0  0  0  0  0  0  0
   21.1512   18.4321   21.8256 C   0  0  0  0  0  0  0  0  0  0  0  0
   21.4055   17.9934   20.8511 H   0  0  0  0  0  0  0  0  0  0  0  0
   21.9161   18.0740   22.5281 H   0  0  0  0  0  0  0  0  0  0  0  0
   21.2531   19.9738   21.7220 C   0  0  0  0  0  0  0  0  0  0  0  0
   21.1054   20.4310   22.7093 H   0  0  0  0  0  0  0  0  0  0  0  0
   22.2750   20.2367   21.4160 H   0  0  0  0  0  0  0  0  0  0  0  0
   20.2596   20.5857   20.7111 C   0  0  0  0  0  0  0  0  0  0  0  0
   19.2214   20.4464   21.0382 H   0  0  0  0  0  0  0  0  0  0  0  0
   20.4335   21.6644   20.6064 H   0  0  0  0  0  0  0  0  0  0  0  0
   20.3740   20.1264   19.7206 H   0  0  0  0  0  0  0  0  0  0  0  0
  1  2  1  0  0  0  0
  1  3  2  0  0  0  0
  1  4  1  0  0  0  0
  4  5  1  0  0  0  0
  4  6  1  0  0  0  0
  4  7  1  0  0  0  0
  7  8  1  0  0  0  0
  7  9  1  0  0  0  0
  7 10  1  0  0  0  0
 10 11  1  0  0  0  0
 10 12  1  0  0  0  0
 10 13  1  0  0  0  0
 13 14  1  0  0  0  0
 13 15  1  0  0  0  0
 13 16  1  0  0  0  0
 16 17  1  0  0  0  0
 16 18  1  0  0  0  0
 16 19  1  0  0  0  0
M  END
> <VConfSearch Rank>
182

> <Conf_Id>
21

> <Delta U+W>
0.319

> <U+W>
-54.572

> <U>
8.220

> <W>
-62.792

> <W(PB)>
-64.830

> <W(SA)>
2.038

> <Valence>
7.609

> <Coulomb>
-0.088

> <VdW>
0.699

> <VdW6>
-6.924

> <VdW12>
7.623

> <Bond>
0.163

> <Angle>
2.870

> <Pdih>
4.576

> <Idih>
0.000

> <Tether>
0.000

$$$$
VeraChem MOL file


 19 18  0  0  0  0  0  0  0  0999 V2000     
   21.6850   17.0065   23.6713 C   0  0  0  0  0  0  0  0  0  0  0  0
   22.8250   17.1141   24.0778 O   0  5  0  0  0  0  0  0  0  0  0  0
   20.8947   16.1869   24.0953 O   0  0  0  0  0  0  0  0  0  0  0  0
   21.2156   17.9648   22.5825 C   0  0  0  0  0  0  0  0  0  0  0  0
   20.4844   17.4366   21.9628 H   0  0  0  0  0  0  0  0  0  0  0  0
   22.0740   18.1924   21.9392 H   0  0  0  0  0  0  0  0  0  0  0  0
   20.6179   19.2775   23.1545 C   0  0  0  0  0  0  0  0  0  0  0  0
   19.7946   19.0489   23.8453 H   0  0  0  0  0  0  0  0  0  0  0  0
   21.3951   19.7680   23.7568 H   0  0  0  0  0  0  0  0  0  0  0  0
   20.1412   20.2663   22.0604 C   0  0  0  0  0  0  0  0  0  0  0  0
   20.7418   20.1441   21.1486 H   0  0  0  0  0  0  0  0  0  0  0  0
   20.3393   21.2876   22.4136 H   0  0  0  0  0  0  0  0  0  0  0  0
   18.6332   20.1763   21.7203 C   0  0  0  0  0  0  0  0  0  0  0  0
   18.0395   20.3883   22.6202 H   0  0  0  0  0  0  0  0  0  0  0  0
   18.3910   20.9689   20.9990 H   0  0  0  0  0  0  0  0  0  0  0  0
   18.1977   18.8200   21.1281 C   0  0  0  0  0  0  0  0  0  0  0  0
   17.1548   18.8667   20.7893 H   0  0  0  0  0  0  0  0  0  0  0  0
   18.8218   18.5468   20.2673 H   0  0  0  0  0  0  0  0  0  0  0  0
   18.2655   18.0214   21.8774 H   0  0  0  0  0  0  0  0  0  0  0  0
  1  2  1  0  0  0  0
  1  3  2  0  0  0  0
  1  4  1  0  0  0  0
  4  5  1  0  0  0  0
  4  6  1  0  0  0  0
  4  7  1  0  0  0  0
  7  8  1  0  0  0  0
  7  9  1  0  0  0  0
  7 10  1  0  0  0  0
 10 11  1  0  0  0  0
 10 12  1  0  0  0  0
 10 13  1  0  0  0  0
 13 14  1  0  0  0  0
 13 15  1  0  0  0  0
 13 16  1  0  0  0  0
 16 17  1  0  0  0  0
 16 18  1  0  0  0  0
 16 19  1  0  0  0  0
M  END
> <VConfSearch Rank>
183

> <Conf_Id>
24

> <Delta U+W>
2.477

> <U+W>
-52.414

> <U>
10.422

> <W>
-62.836

> <W(PB)>
-64.906

> <W(SA)>
2.070

> <Valence>
9.628

> <Coulomb>
0.101

> <VdW>
0.693

> <VdW6>
-6.927

> <VdW12>
7.620

> <Bond>
0.173

> <Angle>
2.989

> <Pdih>
6.465

> <Idih>
0.001

> <Tether>
0.000

$$$$
VeraChem MOL file


 19 18  0  0  0  0  0  0  0  0999 V2000     
   21.6691   17.5144   21.2871 C   0  0  0  0  0  0  0  0  0  0  0  0
   21.6110   18.0247   20.1858 O   0  5  0  0  0  0  0  0  0  0  0  0
   22.6786   17.0131   21.7417 O   0  0  0  0  0  0  0  0  0  0  0  0
   20.4007   17.4732   22.1355 C   0  0  0  0  0  0  0  0  0  0  0  0
   20.2903   16.4463   22.5029 H   0  0  0  0  0  0  0  0  0  0  0  0
   19.5429   17.6668   21.4837 H   0  0  0  0  0  0  0  0  0  0  0  0
   20.4168   18.4514   23.3430 C   0  0  0  0  0  0  0  0  0  0  0  0
   19.5791   18.2251   24.0162 H   0  0  0  0  0  0  0  0  0  0  0  0
   21.3303   18.2599   23.9229 H   0  0  0  0  0  0  0  0  0  0  0  0
   20.3811   19.9508   22.9478 C   0  0  0  0  0  0  0  0  0  0  0  0
   20.8666   20.1040   21.9743 H   0  0  0  0  0  0  0  0  0  0  0  0
   20.9880   20.5088   23.6738 H   0  0  0  0  0  0  0  0  0  0  0  0
   18.9676   20.5829   22.9394 C   0  0  0  0  0  0  0  0  0  0  0  0
   18.5228   20.5060   23.9411 H   0  0  0  0  0  0  0  0  0  0  0  0
   19.0680   21.6567   22.7294 H   0  0  0  0  0  0  0  0  0  0  0  0
   18.0062   19.9654   21.9030 C   0  0  0  0  0  0  0  0  0  0  0  0
   17.7433   18.9350   22.1722 H   0  0  0  0  0  0  0  0  0  0  0  0
   17.0736   20.5421   21.8531 H   0  0  0  0  0  0  0  0  0  0  0  0
   18.4568   19.9612   20.9018 H   0  0  0  0  0  0  0  0  0  0  0  0
  1  2  1  0  0  0  0
  1  3  2  0  0  0  0
  1  4  1  0  0  0  0
  4  5  1  0  0  0  0
  4  6  1  0  0  0  0
  4  7  1  0  0  0  0
  7  8  1  0  0  0  0
  7  9  1  0  0  0  0
  7 10  1  0  0  0  0
 10 11  1  0  0  0  0
 10 12  1  0  0  0  0
 10 13  1  0  0  0  0
 13 14  1  0  0  0  0
 13 15  1  0  0  0  0
 13 16  1  0  0  0  0
 16 17  1  0  0  0  0
 16 18  1  0  0  0  0
 16 19  1  0  0  0  0
M  END
> <VConfSearch Rank>
184

> <Conf_Id>
4

> <Delta U+W>
3.753

> <U+W>
-51.138

> <U>
12.334

> <W>
-63.472

> <W(PB)>
-65.500

> <W(SA)>
2.028

> <Valence>
9.984

> <Coulomb>
1.767

> <VdW>
0.583

> <VdW6>
-7.767

> <VdW12>
8.349

> <Bond>
0.203

> <Angle>
3.191

> <Pdih>
6.589

> <Idih>
0.001

> <Tether>
0.000

$$$$
VeraChem MOL file


 19 18  0  0  0  0  0  0  0  0999 V2000     
   18.1874   16.9712   22.6932 C   0  0  0  0  0  0  0  0  0  0  0  0
   17.8304   16.1058   21.9181 O   0  5  0  0  0  0  0  0  0  0  0  0
   18.4029   16.7684   23.8718 O   0  0  0  0  0  0  0  0  0  0  0  0
   18.3444   18.3933   22.1610 C   0  0  0  0  0  0  0  0  0  0  0  0
   18.3559   19.0812   23.0123 H   0  0  0  0  0  0  0  0  0  0  0  0
   17.4418   18.6240   21.5832 H   0  0  0  0  0  0  0  0  0  0  0  0
   19.5954   18.5964   21.2618 C   0  0  0  0  0  0  0  0  0  0  0  0
   19.5685   17.8386   20.4664 H   0  0  0  0  0  0  0  0  0  0  0  0
   19.5350   19.5685   20.7544 H   0  0  0  0  0  0  0  0  0  0  0  0
   20.9462   18.4817   22.0153 C   0  0  0  0  0  0  0  0  0  0  0  0
   21.6773   18.0227   21.3359 H   0  0  0  0  0  0  0  0  0  0  0  0
   20.8556   17.7914   22.8651 H   0  0  0  0  0  0  0  0  0  0  0  0
   21.5368   19.8318   22.4912 C   0  0  0  0  0  0  0  0  0  0  0  0
   22.5243   19.6426   22.9342 H   0  0  0  0  0  0  0  0  0  0  0  0
   21.7088   20.4853   21.6248 H   0  0  0  0  0  0  0  0  0  0  0  0
   20.6653   20.5721   23.5265 C   0  0  0  0  0  0  0  0  0  0  0  0
   20.4149   19.9164   24.3708 H   0  0  0  0  0  0  0  0  0  0  0  0
   21.1983   21.4463   23.9221 H   0  0  0  0  0  0  0  0  0  0  0  0
   19.7326   20.9307   23.0741 H   0  0  0  0  0  0  0  0  0  0  0  0
  1  2  1  0  0  0  0
  1  3  2  0  0  0  0
  1  4  1  0  0  0  0
  4  5  1  0  0  0  0
  4  6  1  0  0  0  0
  4  7  1  0  0  0  0
  7  8  1  0  0  0  0
  7  9  1  0  0  0  0
  7 10  1  0  0  0  0
 10 11  1  0  0  0  0
 10 12  1  0  0  0  0
 10 13  1  0  0  0  0
 13 14  1  0  0  0  0
 13 15  1  0  0  0  0
 13 16  1  0  0  0  0
 16 17  1  0  0  0  0
 16 18  1  0  0  0  0
 16 19  1  0  0  0  0
M  END
> <VConfSearch Rank>
185

> <Conf_Id>
73

> <Delta U+W>
3.707

> <U+W>
-51.184

> <U>
12.334

> <W>
-63.519

> <W(PB)>
-65.541

> <W(SA)>
2.022

> <Valence>
9.984

> <Coulomb>
1.768

> <VdW>
0.583

> <VdW6>
-7.767

> <VdW12>
8.350

> <Bond>
0.203

> <Angle>
3.192

> <Pdih>
6.589

> <Idih>
0.001

> <Tether>
0.000

$$$$
VeraChem MOL file


 19 18  0  0  0  0  0  0  0  0999 V2000     
   17.5728   17.7936   22.3267 C   0  0  0  0  0  0  0  0  0  0  0  0
   17.6659   17.3812   21.1874 O   0  5  0  0  0  0  0  0  0  0  0  0
   17.0144   17.1840   23.2176 O   0  0  0  0  0  0  0  0  0  0  0  0
   18.1594   19.1647   22.6515 C   0  0  0  0  0  0  0  0  0  0  0  0
   17.3801   19.7398   23.1649 H   0  0  0  0  0  0  0  0  0  0  0  0
   18.3653   19.6907   21.7122 H   0  0  0  0  0  0  0  0  0  0  0  0
   19.4320   19.1165   23.5405 C   0  0  0  0  0  0  0  0  0  0  0  0
   19.7413   20.1410   23.7850 H   0  0  0  0  0  0  0  0  0  0  0  0
   19.1744   18.6429   24.4978 H   0  0  0  0  0  0  0  0  0  0  0  0
   20.6234   18.3483   22.9124 C   0  0  0  0  0  0  0  0  0  0  0  0
   20.3422   17.2940   22.7841 H   0  0  0  0  0  0  0  0  0  0  0  0
   21.4601   18.3529   23.6241 H   0  0  0  0  0  0  0  0  0  0  0  0
   21.1196   18.8985   21.5529 C   0  0  0  0  0  0  0  0  0  0  0  0
   21.9479   18.2679   21.2021 H   0  0  0  0  0  0  0  0  0  0  0  0
   20.3280   18.8061   20.7970 H   0  0  0  0  0  0  0  0  0  0  0  0
   21.6056   20.3621   21.6253 C   0  0  0  0  0  0  0  0  0  0  0  0
   20.7803   21.0451   21.8628 H   0  0  0  0  0  0  0  0  0  0  0  0
   22.3829   20.4804   22.3913 H   0  0  0  0  0  0  0  0  0  0  0  0
   22.0290   20.6743   20.6620 H   0  0  0  0  0  0  0  0  0  0  0  0
  1  2  1  0  0  0  0
  1  3  2  0  0  0  0
  1  4  1  0  0  0  0
  4  5  1  0  0  0  0
  4  6  1  0  0  0  0
  4  7  1  0  0  0  0
  7  8  1  0  0  0  0
  7  9  1  0  0  0  0
  7 10  1  0  0  0  0
 10 11  1  0  0  0  0
 10 12  1  0  0  0  0
 10 13  1  0  0  0  0
 13 14  1  0  0  0  0
 13 15  1  0  0  0  0
 13 16  1  0  0  0  0
 16 17  1  0  0  0  0
 16 18  1  0  0  0  0
 16 19  1  0  0  0  0
M  END
> <VConfSearch Rank>
186

> <Conf_Id>
56

> <Delta U+W>
1.735

> <U+W>
-53.156

> <U>
10.214

> <W>
-63.370

> <W(PB)>
-65.388

> <W(SA)>
2.018

> <Valence>
7.868

> <Coulomb>
1.968

> <VdW>
0.378

> <VdW6>
-8.067

> <VdW12>
8.445

> <Bond>
0.191

> <Angle>
3.117

> <Pdih>
4.559

> <Idih>
0.001

> <Tether>
0.000

$$$$
VeraChem MOL file


 19 18  0  0  0  0  0  0  0  0999 V2000     
   17.4895   17.4703   22.8756 C   0  0  0  0  0  0  0  0  0  0  0  0
   16.8562   16.8758   22.0260 O   0  5  0  0  0  0  0  0  0  0  0  0
   17.0733   17.6846   23.9969 O   0  0  0  0  0  0  0  0  0  0  0  0
   18.8730   17.9944   22.5077 C   0  0  0  0  0  0  0  0  0  0  0  0
   19.3114   17.3124   21.7695 H   0  0  0  0  0  0  0  0  0  0  0  0
   19.4946   17.9499   23.4089 H   0  0  0  0  0  0  0  0  0  0  0  0
   18.8390   19.4393   21.9489 C   0  0  0  0  0  0  0  0  0  0  0  0
   18.1002   19.4846   21.1367 H   0  0  0  0  0  0  0  0  0  0  0  0
   18.4779   20.1211   22.7311 H   0  0  0  0  0  0  0  0  0  0  0  0
   20.1981   19.9459   21.4044 C   0  0  0  0  0  0  0  0  0  0  0  0
   20.0344   20.9507   20.9914 H   0  0  0  0  0  0  0  0  0  0  0  0
   20.5209   19.3244   20.5578 H   0  0  0  0  0  0  0  0  0  0  0  0
   21.3254   20.0379   22.4627 C   0  0  0  0  0  0  0  0  0  0  0  0
   21.9492   20.9133   22.2351 H   0  0  0  0  0  0  0  0  0  0  0  0
   20.8990   20.2175   23.4593 H   0  0  0  0  0  0  0  0  0  0  0  0
   22.2415   18.7942   22.4878 C   0  0  0  0  0  0  0  0  0  0  0  0
   23.0321   18.9154   23.2396 H   0  0  0  0  0  0  0  0  0  0  0  0
   21.6860   17.8817   22.7315 H   0  0  0  0  0  0  0  0  0  0  0  0
   22.7253   18.6462   21.5135 H   0  0  0  0  0  0  0  0  0  0  0  0
  1  2  1  0  0  0  0
  1  3  2  0  0  0  0
  1  4  1  0  0  0  0
  4  5  1  0  0  0  0
  4  6  1  0  0  0  0
  4  7  1  0  0  0  0
  7  8  1  0  0  0  0
  7  9  1  0  0  0  0
  7 10  1  0  0  0  0
 10 11  1  0  0  0  0
 10 12  1  0  0  0  0
 10 13  1  0  0  0  0
 13 14  1  0  0  0  0
 13 15  1  0  0  0  0
 13 16  1  0  0  0  0
 16 17  1  0  0  0  0
 16 18  1  0  0  0  0
 16 19  1  0  0  0  0
M  END
> <VConfSearch Rank>
187

> <Conf_Id>
53

> <Delta U+W>
2.279

> <U+W>
-52.612

> <U>
10.231

> <W>
-62.843

> <W(PB)>
-64.893

> <W(SA)>
2.050

> <Valence>
9.644

> <Coulomb>
-0.164

> <VdW>
0.751

> <VdW6>
-6.881

> <VdW12>
7.631

> <Bond>
0.163

> <Angle>
2.998

> <Pdih>
6.482

> <Idih>
0.001

> <Tether>
0.000

$$$$
VeraChem MOL file


 19 18  0  0  0  0  0  0  0  0999 V2000     
   19.7619   16.8328   21.3179 C   0  0  0  0  0  0  0  0  0  0  0  0
   18.5760   16.6350   21.4956 O   0  5  0  0  0  0  0  0  0  0  0  0
   20.6271   16.0374   21.6279 O   0  0  0  0  0  0  0  0  0  0  0  0
   20.1789   18.1174   20.6043 C   0  0  0  0  0  0  0  0  0  0  0  0
   19.2800   18.6908   20.3473 H   0  0  0  0  0  0  0  0  0  0  0  0
   20.6356   17.8092   19.6566 H   0  0  0  0  0  0  0  0  0  0  0  0
   21.1842   19.0127   21.3820 C   0  0  0  0  0  0  0  0  0  0  0  0
   21.9807   18.3922   21.8157 H   0  0  0  0  0  0  0  0  0  0  0  0
   21.6779   19.6752   20.6583 H   0  0  0  0  0  0  0  0  0  0  0  0
   20.5480   19.9029   22.4781 C   0  0  0  0  0  0  0  0  0  0  0  0
   19.7579   20.5255   22.0366 H   0  0  0  0  0  0  0  0  0  0  0  0
   21.3176   20.5957   22.8454 H   0  0  0  0  0  0  0  0  0  0  0  0
   19.9781   19.1145   23.6778 C   0  0  0  0  0  0  0  0  0  0  0  0
   19.1181   18.5122   23.3584 H   0  0  0  0  0  0  0  0  0  0  0  0
   20.7362   18.4162   24.0585 H   0  0  0  0  0  0  0  0  0  0  0  0
   19.5310   20.0573   24.8131 C   0  0  0  0  0  0  0  0  0  0  0  0
   18.7536   20.7497   24.4645 H   0  0  0  0  0  0  0  0  0  0  0  0
   19.1210   19.4825   25.6536 H   0  0  0  0  0  0  0  0  0  0  0  0
   20.3757   20.6500   25.1882 H   0  0  0  0  0  0  0  0  0  0  0  0
  1  2  1  0  0  0  0
  1  3  2  0  0  0  0
  1  4  1  0  0  0  0
  4  5  1  0  0  0  0
  4  6  1  0  0  0  0
  4  7  1  0  0  0  0
  7  8  1  0  0  0  0
  7  9  1  0  0  0  0
  7 10  1  0  0  0  0
 10 11  1  0  0  0  0
 10 12  1  0  0  0  0
 10 13  1  0  0  0  0
 13 14  1  0  0  0  0
 13 15  1  0  0  0  0
 13 16  1  0  0  0  0
 16 17  1  0  0  0  0
 16 18  1  0  0  0  0
 16 19  1  0  0  0  0
M  END
> <VConfSearch Rank>
188

> <Conf_Id>
25

> <Delta U+W>
2.065

> <U+W>
-52.826

> <U>
10.967

> <W>
-63.794

> <W(PB)>
-65.830

> <W(SA)>
2.036

> <Valence>
8.609

> <Coulomb>
1.892

> <VdW>
0.467

> <VdW6>
-7.569

> <VdW12>
8.036

> <Bond>
0.170

> <Angle>
3.195

> <Pdih>
5.237

> <Idih>
0.007

> <Tether>
0.000

$$$$
VeraChem MOL file


 19 18  0  0  0  0  0  0  0  0999 V2000     
   17.8045   19.0186   21.8034 C   0  0  0  0  0  0  0  0  0  0  0  0
   17.5010   17.9950   21.2225 O   0  5  0  0  0  0  0  0  0  0  0  0
   17.7467   20.1201   21.2934 O   0  0  0  0  0  0  0  0  0  0  0  0
   18.2129   18.9254   23.2724 C   0  0  0  0  0  0  0  0  0  0  0  0
   17.3395   18.5400   23.8113 H   0  0  0  0  0  0  0  0  0  0  0  0
   18.3973   19.9361   23.6563 H   0  0  0  0  0  0  0  0  0  0  0  0
   19.4330   18.0075   23.5655 C   0  0  0  0  0  0  0  0  0  0  0  0
   19.4010   17.7306   24.6279 H   0  0  0  0  0  0  0  0  0  0  0  0
   19.3375   17.0670   23.0053 H   0  0  0  0  0  0  0  0  0  0  0  0
   20.8131   18.6532   23.2882 C   0  0  0  0  0  0  0  0  0  0  0  0
   21.5899   17.9796   23.6754 H   0  0  0  0  0  0  0  0  0  0  0  0
   20.9048   19.5887   23.8567 H   0  0  0  0  0  0  0  0  0  0  0  0
   21.0928   18.9245   21.7936 C   0  0  0  0  0  0  0  0  0  0  0  0
   20.9035   18.0142   21.2080 H   0  0  0  0  0  0  0  0  0  0  0  0
   20.4101   19.6967   21.4167 H   0  0  0  0  0  0  0  0  0  0  0  0
   22.5450   19.3901   21.5655 C   0  0  0  0  0  0  0  0  0  0  0  0
   22.7248   19.5867   20.5006 H   0  0  0  0  0  0  0  0  0  0  0  0
   22.7523   20.3144   22.1206 H   0  0  0  0  0  0  0  0  0  0  0  0
   23.2601   18.6245   21.8940 H   0  0  0  0  0  0  0  0  0  0  0  0
  1  2  1  0  0  0  0
  1  3  2  0  0  0  0
  1  4  1  0  0  0  0
  4  5  1  0  0  0  0
  4  6  1  0  0  0  0
  4  7  1  0  0  0  0
  7  8  1  0  0  0  0
  7  9  1  0  0  0  0
  7 10  1  0  0  0  0
 10 11  1  0  0  0  0
 10 12  1  0  0  0  0
 10 13  1  0  0  0  0
 13 14  1  0  0  0  0
 13 15  1  0  0  0  0
 13 16  1  0  0  0  0
 16 17  1  0  0  0  0
 16 18  1  0  0  0  0
 16 19  1  0  0  0  0
M  END
> <VConfSearch Rank>
189

> <Conf_Id>
52

> <Delta U+W>
2.070

> <U+W>
-52.822

> <U>
10.967

> <W>
-63.789

> <W(PB)>
-65.837

> <W(SA)>
2.048

> <Valence>
8.609

> <Coulomb>
1.892

> <VdW>
0.467

> <VdW6>
-7.569

> <VdW12>
8.035

> <Bond>
0.170

> <Angle>
3.196

> <Pdih>
5.237

> <Idih>
0.007

> <Tether>
0.000

$$$$
VeraChem MOL file


 19 18  0  0  0  0  0  0  0  0999 V2000     
   19.3212   16.8187   22.8895 C   0  0  0  0  0  0  0  0  0  0  0  0
   19.1568   16.6351   24.0800 O   0  5  0  0  0  0  0  0  0  0  0  0
   18.5042   16.4999   22.0484 O   0  0  0  0  0  0  0  0  0  0  0  0
   20.6688   17.3596   22.4091 C   0  0  0  0  0  0  0  0  0  0  0  0
   20.5955   17.6064   21.3432 H   0  0  0  0  0  0  0  0  0  0  0  0
   21.3753   16.5254   22.4884 H   0  0  0  0  0  0  0  0  0  0  0  0
   21.2326   18.5721   23.2037 C   0  0  0  0  0  0  0  0  0  0  0  0
   21.0596   18.4295   24.2793 H   0  0  0  0  0  0  0  0  0  0  0  0
   22.3236   18.5804   23.0768 H   0  0  0  0  0  0  0  0  0  0  0  0
   20.7021   19.9605   22.7632 C   0  0  0  0  0  0  0  0  0  0  0  0
   20.9640   20.1462   21.7125 H   0  0  0  0  0  0  0  0  0  0  0  0
   21.2460   20.7197   23.3419 H   0  0  0  0  0  0  0  0  0  0  0  0
   19.1868   20.1831   22.9871 C   0  0  0  0  0  0  0  0  0  0  0  0
   18.8090   19.5028   23.7629 H   0  0  0  0  0  0  0  0  0  0  0  0
   19.0309   21.2001   23.3726 H   0  0  0  0  0  0  0  0  0  0  0  0
   18.3625   20.0296   21.6909 C   0  0  0  0  0  0  0  0  0  0  0  0
   18.6666   20.7737   20.9434 H   0  0  0  0  0  0  0  0  0  0  0  0
   18.4898   19.0345   21.2492 H   0  0  0  0  0  0  0  0  0  0  0  0
   17.2936   20.1729   21.8949 H   0  0  0  0  0  0  0  0  0  0  0  0
  1  2  1  0  0  0  0
  1  3  2  0  0  0  0
  1  4  1  0  0  0  0
  4  5  1  0  0  0  0
  4  6  1  0  0  0  0
  4  7  1  0  0  0  0
  7  8  1  0  0  0  0
  7  9  1  0  0  0  0
  7 10  1  0  0  0  0
 10 11  1  0  0  0  0
 10 12  1  0  0  0  0
 10 13  1  0  0  0  0
 13 14  1  0  0  0  0
 13 15  1  0  0  0  0
 13 16  1  0  0  0  0
 16 17  1  0  0  0  0
 16 18  1  0  0  0  0
 16 19  1  0  0  0  0
M  END
> <VConfSearch Rank>
190

> <Conf_Id>
66

> <Delta U+W>
5.819

> <U+W>
-49.072

> <U>
15.324

> <W>
-64.396

> <W(PB)>
-66.382

> <W(SA)>
1.986

> <Valence>
11.748

> <Coulomb>
3.201

> <VdW>
0.375

> <VdW6>
-8.854

> <VdW12>
9.229

> <Bond>
0.216

> <Angle>
3.812

> <Pdih>
7.699

> <Idih>
0.022

> <Tether>
0.000

$$$$
VeraChem MOL file


 19 18  0  0  0  0  0  0  0  0999 V2000     
   17.0654   17.1628   21.7306 C   0  0  0  0  0  0  0  0  0  0  0  0
   16.5502   16.3286   21.0133 O   0  5  0  0  0  0  0  0  0  0  0  0
   16.4971   17.6610   22.6830 O   0  0  0  0  0  0  0  0  0  0  0  0
   18.4962   17.5856   21.3937 C   0  0  0  0  0  0  0  0  0  0  0  0
   18.4926   17.9605   20.3634 H   0  0  0  0  0  0  0  0  0  0  0  0
   19.1156   16.6810   21.4037 H   0  0  0  0  0  0  0  0  0  0  0  0
   19.1119   18.6528   22.3374 C   0  0  0  0  0  0  0  0  0  0  0  0
   18.4836   19.5542   22.3272 H   0  0  0  0  0  0  0  0  0  0  0  0
   19.1072   18.2734   23.3687 H   0  0  0  0  0  0  0  0  0  0  0  0
   20.5540   19.0200   21.9254 C   0  0  0  0  0  0  0  0  0  0  0  0
   20.5563   19.3989   20.8941 H   0  0  0  0  0  0  0  0  0  0  0  0
   21.1803   18.1174   21.9362 H   0  0  0  0  0  0  0  0  0  0  0  0
   21.1641   20.0810   22.8648 C   0  0  0  0  0  0  0  0  0  0  0  0
   20.5414   20.9863   22.8555 H   0  0  0  0  0  0  0  0  0  0  0  0
   21.1654   19.7050   23.8973 H   0  0  0  0  0  0  0  0  0  0  0  0
   22.6038   20.4453   22.4506 C   0  0  0  0  0  0  0  0  0  0  0  0
   22.6279   20.8541   21.4319 H   0  0  0  0  0  0  0  0  0  0  0  0
   23.0221   21.2005   23.1287 H   0  0  0  0  0  0  0  0  0  0  0  0
   23.2566   19.5631   22.4816 H   0  0  0  0  0  0  0  0  0  0  0  0
  1  2  1  0  0  0  0
  1  3  2  0  0  0  0
  1  4  1  0  0  0  0
  4  5  1  0  0  0  0
  4  6  1  0  0  0  0
  4  7  1  0  0  0  0
  7  8  1  0  0  0  0
  7  9  1  0  0  0  0
  7 10  1  0  0  0  0
 10 11  1  0  0  0  0
 10 12  1  0  0  0  0
 10 13  1  0  0  0  0
 13 14  1  0  0  0  0
 13 15  1  0  0  0  0
 13 16  1  0  0  0  0
 16 17  1  0  0  0  0
 16 18  1  0  0  0  0
 16 19  1  0  0  0  0
M  END
> <VConfSearch Rank>
191

> <Conf_Id>
0

> <Delta U+W>
0.000

> <U+W>
-54.891

> <U>
6.966

> <W>
-61.857

> <W(PB)>
-63.965

> <W(SA)>
2.108

> <Valence>
7.175

> <Coulomb>
-1.360

> <VdW>
1.151

> <VdW6>
-5.641

> <VdW12>
6.792

> <Bond>
0.119

> <Angle>
2.715

> <Pdih>
4.340

> <Idih>
0.000

> <Tether>
0.000

$$$$
VeraChem MOL file


 19 18  0  0  0  0  0  0  0  0999 V2000     
   21.3451   15.9474   22.8994 C   0  0  0  0  0  0  0  0  0  0  0  0
   21.0499   15.0344   22.1541 O   0  5  0  0  0  0  0  0  0  0  0  0
   22.4056   16.0192   23.4880 O   0  0  0  0  0  0  0  0  0  0  0  0
   20.3374   17.0755   23.0906 C   0  0  0  0  0  0  0  0  0  0  0  0
   20.4471   17.4611   24.1114 H   0  0  0  0  0  0  0  0  0  0  0  0
   19.3299   16.6496   23.0116 H   0  0  0  0  0  0  0  0  0  0  0  0
   20.5148   18.2217   22.0646 C   0  0  0  0  0  0  0  0  0  0  0  0
   21.5321   18.6288   22.1476 H   0  0  0  0  0  0  0  0  0  0  0  0
   20.4150   17.8171   21.0478 H   0  0  0  0  0  0  0  0  0  0  0  0
   19.4833   19.3502   22.2795 C   0  0  0  0  0  0  0  0  0  0  0  0
   19.5847   19.7516   23.2973 H   0  0  0  0  0  0  0  0  0  0  0  0
   18.4674   18.9398   22.1971 H   0  0  0  0  0  0  0  0  0  0  0  0
   19.6624   20.4907   21.2561 C   0  0  0  0  0  0  0  0  0  0  0  0
   20.6770   20.9051   21.3367 H   0  0  0  0  0  0  0  0  0  0  0  0
   19.5597   20.0935   20.2367 H   0  0  0  0  0  0  0  0  0  0  0  0
   18.6309   21.6157   21.4736 C   0  0  0  0  0  0  0  0  0  0  0  0
   18.7726   22.4180   20.7379 H   0  0  0  0  0  0  0  0  0  0  0  0
   17.6065   21.2353   21.3674 H   0  0  0  0  0  0  0  0  0  0  0  0
   18.7322   22.0530   22.4756 H   0  0  0  0  0  0  0  0  0  0  0  0
  1  2  1  0  0  0  0
  1  3  2  0  0  0  0
  1  4  1  0  0  0  0
  4  5  1  0  0  0  0
  4  6  1  0  0  0  0
  4  7  1  0  0  0  0
  7  8  1  0  0  0  0
  7  9  1  0  0  0  0
  7 10  1  0  0  0  0
 10 11  1  0  0  0  0
 10 12  1  0  0  0  0
 10 13  1  0  0  0  0
 13 14  1  0  0  0  0
 13 15  1  0  0  0  0
 13 16  1  0  0  0  0
 16 17  1  0  0  0  0
 16 18  1  0  0  0  0
 16 19  1  0  0  0  0
M  END
> <VConfSearch Rank>
192

> <Conf_Id>
18

> <Delta U+W>
-1.199

> <U+W>
-56.090

> <U>
5.975

> <W>
-62.066

> <W(PB)>
-64.219

> <W(SA)>
2.153

> <Valence>
6.673

> <Coulomb>
-1.307

> <VdW>
0.610

> <VdW6>
-5.351

> <VdW12>
5.961

> <Bond>
0.086

> <Angle>
2.253

> <Pdih>
4.333

> <Idih>
0.001

> <Tether>
0.000

$$$$
VeraChem MOL file


 19 18  0  0  0  0  0  0  0  0999 V2000     
   21.6269   17.4488   19.8477 C   0  0  0  0  0  0  0  0  0  0  0  0
   22.0561   18.0195   18.8646 O   0  5  0  0  0  0  0  0  0  0  0  0
   22.0246   16.3635   20.2221 O   0  0  0  0  0  0  0  0  0  0  0  0
   20.5452   18.1423   20.6682 C   0  0  0  0  0  0  0  0  0  0  0  0
   19.8979   17.3655   21.0907 H   0  0  0  0  0  0  0  0  0  0  0  0
   19.9315   18.7416   19.9850 H   0  0  0  0  0  0  0  0  0  0  0  0
   21.1267   19.0398   21.7914 C   0  0  0  0  0  0  0  0  0  0  0  0
   21.7024   18.4216   22.4940 H   0  0  0  0  0  0  0  0  0  0  0  0
   21.8394   19.7465   21.3442 H   0  0  0  0  0  0  0  0  0  0  0  0
   20.0504   19.8417   22.5610 C   0  0  0  0  0  0  0  0  0  0  0  0
   19.4822   20.4650   21.8569 H   0  0  0  0  0  0  0  0  0  0  0  0
   20.5562   20.5325   23.2493 H   0  0  0  0  0  0  0  0  0  0  0  0
   19.0799   18.9502   23.3677 C   0  0  0  0  0  0  0  0  0  0  0  0
   18.5077   18.3032   22.6898 H   0  0  0  0  0  0  0  0  0  0  0  0
   19.6508   18.2904   24.0355 H   0  0  0  0  0  0  0  0  0  0  0  0
   18.0969   19.7960   24.2017 C   0  0  0  0  0  0  0  0  0  0  0  0
   17.4128   19.1491   24.7663 H   0  0  0  0  0  0  0  0  0  0  0  0
   18.6342   20.4292   24.9198 H   0  0  0  0  0  0  0  0  0  0  0  0
   17.4928   20.4464   23.5556 H   0  0  0  0  0  0  0  0  0  0  0  0
  1  2  1  0  0  0  0
  1  3  2  0  0  0  0
  1  4  1  0  0  0  0
  4  5  1  0  0  0  0
  4  6  1  0  0  0  0
  4  7  1  0  0  0  0
  7  8  1  0  0  0  0
  7  9  1  0  0  0  0
  7 10  1  0  0  0  0
 10 11  1  0  0  0  0
 10 12  1  0  0  0  0
 10 13  1  0  0  0  0
 13 14  1  0  0  0  0
 13 15  1  0  0  0  0
 13 16  1  0  0  0  0
 16 17  1  0  0  0  0
 16 18  1  0  0  0  0
 16 19  1  0  0  0  0
M  END
> <VConfSearch Rank>
193

> <Conf_Id>
34

> <Delta U+W>
-0.563

> <U+W>
-55.455

> <U>
6.914

> <W>
-62.369

> <W(PB)>
-64.446

> <W(SA)>
2.077

> <Valence>
7.196

> <Coulomb>
-1.020

> <VdW>
0.738

> <VdW6>
-6.010

> <VdW12>
6.748

> <Bond>
0.126

> <Angle>
2.499

> <Pdih>
4.570

> <Idih>
0.001

> <Tether>
0.000

$$$$
VeraChem MOL file


 19 18  0  0  0  0  0  0  0  0999 V2000     
   19.9530   15.9524   20.9569 C   0  0  0  0  0  0  0  0  0  0  0  0
   18.9458   15.2855   20.8265 O   0  5  0  0  0  0  0  0  0  0  0  0
   21.0746   15.4852   20.9470 O   0  0  0  0  0  0  0  0  0  0  0  0
   19.7999   17.4548   21.1662 C   0  0  0  0  0  0  0  0  0  0  0  0
   18.9067   17.7849   20.6224 H   0  0  0  0  0  0  0  0  0  0  0  0
   20.6631   17.9456   20.7027 H   0  0  0  0  0  0  0  0  0  0  0  0
   19.6887   17.8439   22.6634 C   0  0  0  0  0  0  0  0  0  0  0  0
   18.8721   17.2660   23.1179 H   0  0  0  0  0  0  0  0  0  0  0  0
   20.6075   17.5483   23.1886 H   0  0  0  0  0  0  0  0  0  0  0  0
   19.4172   19.3497   22.8918 C   0  0  0  0  0  0  0  0  0  0  0  0
   19.2358   19.5126   23.9631 H   0  0  0  0  0  0  0  0  0  0  0  0
   18.4936   19.6402   22.3726 H   0  0  0  0  0  0  0  0  0  0  0  0
   20.5795   20.2598   22.4354 C   0  0  0  0  0  0  0  0  0  0  0  0
   21.5136   19.9371   22.9158 H   0  0  0  0  0  0  0  0  0  0  0  0
   20.7283   20.1692   21.3514 H   0  0  0  0  0  0  0  0  0  0  0  0
   20.3096   21.7376   22.7824 C   0  0  0  0  0  0  0  0  0  0  0  0
   19.3945   22.0950   22.2922 H   0  0  0  0  0  0  0  0  0  0  0  0
   20.1935   21.8724   23.8658 H   0  0  0  0  0  0  0  0  0  0  0  0
   21.1420   22.3712   22.4496 H   0  0  0  0  0  0  0  0  0  0  0  0
  1  2  1  0  0  0  0
  1  3  2  0  0  0  0
  1  4  1  0  0  0  0
  4  5  1  0  0  0  0
  4  6  1  0  0  0  0
  4  7  1  0  0  0  0
  7  8  1  0  0  0  0
  7  9  1  0  0  0  0
  7 10  1  0  0  0  0
 10 11  1  0  0  0  0
 10 12  1  0  0  0  0
 10 13  1  0  0  0  0
 13 14  1  0  0  0  0
 13 15  1  0  0  0  0
 13 16  1  0  0  0  0
 16 17  1  0  0  0  0
 16 18  1  0  0  0  0
 16 19  1  0  0  0  0
M  END
> <VConfSearch Rank>
194

> <Conf_Id>
33

> <Delta U+W>
-0.526

> <U+W>
-55.418

> <U>
6.914

> <W>
-62.332

> <W(PB)>
-64.421

> <W(SA)>
2.090

> <Valence>
7.196

> <Coulomb>
-1.020

> <VdW>
0.738

> <VdW6>
-6.010

> <VdW12>
6.748

> <Bond>
0.126

> <Angle>
2.499

> <Pdih>
4.570

> <Idih>
0.001

> <Tether>
0.000

$$$$
VeraChem MOL file


 19 18  0  0  0  0  0  0  0  0999 V2000     
   22.5026   17.2394   22.8294 C   0  0  0  0  0  0  0  0  0  0  0  0
   22.7517   16.5271   21.8770 O   0  5  0  0  0  0  0  0  0  0  0  0
   23.3551   17.7471   23.5306 O   0  0  0  0  0  0  0  0  0  0  0  0
   21.0403   17.5260   23.1517 C   0  0  0  0  0  0  0  0  0  0  0  0
   20.9478   17.6442   24.2381 H   0  0  0  0  0  0  0  0  0  0  0  0
   20.4500   16.6457   22.8700 H   0  0  0  0  0  0  0  0  0  0  0  0
   20.4997   18.7844   22.4288 C   0  0  0  0  0  0  0  0  0  0  0  0
   21.1065   19.6550   22.7135 H   0  0  0  0  0  0  0  0  0  0  0  0
   20.6196   18.6509   21.3455 H   0  0  0  0  0  0  0  0  0  0  0  0
   19.0152   19.0489   22.7708 C   0  0  0  0  0  0  0  0  0  0  0  0
   18.9049   19.1081   23.8623 H   0  0  0  0  0  0  0  0  0  0  0  0
   18.4020   18.1989   22.4415 H   0  0  0  0  0  0  0  0  0  0  0  0
   18.4654   20.3540   22.1504 C   0  0  0  0  0  0  0  0  0  0  0  0
   17.4509   20.5272   22.5352 H   0  0  0  0  0  0  0  0  0  0  0  0
   19.0730   21.2074   22.4821 H   0  0  0  0  0  0  0  0  0  0  0  0
   18.4128   20.3223   20.6077 C   0  0  0  0  0  0  0  0  0  0  0  0
   17.8344   19.4597   20.2519 H   0  0  0  0  0  0  0  0  0  0  0  0
   17.9352   21.2319   20.2213 H   0  0  0  0  0  0  0  0  0  0  0  0
   19.4188   20.2655   20.1734 H   0  0  0  0  0  0  0  0  0  0  0  0
  1  2  1  0  0  0  0
  1  3  2  0  0  0  0
  1  4  1  0  0  0  0
  4  5  1  0  0  0  0
  4  6  1  0  0  0  0
  4  7  1  0  0  0  0
  7  8  1  0  0  0  0
  7  9  1  0  0  0  0
  7 10  1  0  0  0  0
 10 11  1  0  0  0  0
 10 12  1  0  0  0  0
 10 13  1  0  0  0  0
 13 14  1  0  0  0  0
 13 15  1  0  0  0  0
 13 16  1  0  0  0  0
 16 17  1  0  0  0  0
 16 18  1  0  0  0  0
 16 19  1  0  0  0  0
M  END
> <VConfSearch Rank>
195

> <Conf_Id>
42

> <Delta U+W>
-0.344

> <U+W>
-55.236

> <U>
7.244

> <W>
-62.479

> <W(PB)>
-64.610

> <W(SA)>
2.130

> <Valence>
7.174

> <Coulomb>
-0.669

> <VdW>
0.739

> <VdW6>
-5.969

> <VdW12>
6.708

> <Bond>
0.116

> <Angle>
2.481

> <Pdih>
4.576

> <Idih>
0.000

> <Tether>
0.000

$$$$
VeraChem MOL file


 19 18  0  0  0  0  0  0  0  0999 V2000     
   21.3937   21.8116   22.0806 C   0  0  0  0  0  0  0  0  0  0  0  0
   20.8105   22.5768   22.8226 O   0  5  0  0  0  0  0  0  0  0  0  0
   21.8744   22.1432   21.0152 O   0  0  0  0  0  0  0  0  0  0  0  0
   21.5130   20.3509   22.5011 C   0  0  0  0  0  0  0  0  0  0  0  0
   21.5750   20.3150   23.5955 H   0  0  0  0  0  0  0  0  0  0  0  0
   22.4600   19.9602   22.1097 H   0  0  0  0  0  0  0  0  0  0  0  0
   20.3304   19.4828   22.0049 C   0  0  0  0  0  0  0  0  0  0  0  0
   19.3934   19.9034   22.3933 H   0  0  0  0  0  0  0  0  0  0  0  0
   20.2758   19.5366   20.9088 H   0  0  0  0  0  0  0  0  0  0  0  0
   20.4755   18.0087   22.4483 C   0  0  0  0  0  0  0  0  0  0  0  0
   20.4806   17.9506   23.5454 H   0  0  0  0  0  0  0  0  0  0  0  0
   21.4497   17.6284   22.1118 H   0  0  0  0  0  0  0  0  0  0  0  0
   19.3683   17.0870   21.8870 C   0  0  0  0  0  0  0  0  0  0  0  0
   19.3638   17.1381   20.7894 H   0  0  0  0  0  0  0  0  0  0  0  0
   19.6092   16.0473   22.1481 H   0  0  0  0  0  0  0  0  0  0  0  0
   17.9617   17.4221   22.4284 C   0  0  0  0  0  0  0  0  0  0  0  0
   17.6293   18.4129   22.0944 H   0  0  0  0  0  0  0  0  0  0  0  0
   17.2281   16.6879   22.0710 H   0  0  0  0  0  0  0  0  0  0  0  0
   17.9490   17.4059   23.5260 H   0  0  0  0  0  0  0  0  0  0  0  0
  1  2  1  0  0  0  0
  1  3  2  0  0  0  0
  1  4  1  0  0  0  0
  4  5  1  0  0  0  0
  4  6  1  0  0  0  0
  4  7  1  0  0  0  0
  7  8  1  0  0  0  0
  7  9  1  0  0  0  0
  7 10  1  0  0  0  0
 10 11  1  0  0  0  0
 10 12  1  0  0  0  0
 10 13  1  0  0  0  0
 13 14  1  0  0  0  0
 13 15  1  0  0  0  0
 13 16  1  0  0  0  0
 16 17  1  0  0  0  0
 16 18  1  0  0  0  0
 16 19  1  0  0  0  0
M  END
> <VConfSearch Rank>
196

> <Conf_Id>
41

> <Delta U+W>
-0.361

> <U+W>
-55.252

> <U>
7.244

> <W>
-62.496

> <W(PB)>
-64.596

> <W(SA)>
2.099

> <Valence>
7.174

> <Coulomb>
-0.669

> <VdW>
0.739

> <VdW6>
-5.969

> <VdW12>
6.708

> <Bond>
0.116

> <Angle>
2.481

> <Pdih>
4.576

> <Idih>
0.000

> <Tether>
0.000

$$$$
VeraChem MOL file


 19 18  0  0  0  0  0  0  0  0999 V2000     
   18.3381   19.7703   20.0265 C   0  0  0  0  0  0  0  0  0  0  0  0
   18.2427   18.6971   19.4645 O   0  5  0  0  0  0  0  0  0  0  0  0
   17.3906   20.4969   20.2524 O   0  0  0  0  0  0  0  0  0  0  0  0
   19.7251   20.2433   20.4530 C   0  0  0  0  0  0  0  0  0  0  0  0
   19.8253   21.2893   20.1403 H   0  0  0  0  0  0  0  0  0  0  0  0
   20.4770   19.6719   19.8952 H   0  0  0  0  0  0  0  0  0  0  0  0
   19.9896   20.1310   21.9770 C   0  0  0  0  0  0  0  0  0  0  0  0
   20.9465   20.6178   22.2093 H   0  0  0  0  0  0  0  0  0  0  0  0
   19.2126   20.6841   22.5229 H   0  0  0  0  0  0  0  0  0  0  0  0
   20.0312   18.6662   22.4666 C   0  0  0  0  0  0  0  0  0  0  0  0
   20.8003   18.1144   21.9090 H   0  0  0  0  0  0  0  0  0  0  0  0
   19.0707   18.1769   22.2531 H   0  0  0  0  0  0  0  0  0  0  0  0
   20.3267   18.5774   23.9784 C   0  0  0  0  0  0  0  0  0  0  0  0
   21.2885   19.0616   24.1974 H   0  0  0  0  0  0  0  0  0  0  0  0
   19.5574   19.1266   24.5388 H   0  0  0  0  0  0  0  0  0  0  0  0
   20.3676   17.1147   24.4638 C   0  0  0  0  0  0  0  0  0  0  0  0
   21.1504   16.5493   23.9414 H   0  0  0  0  0  0  0  0  0  0  0  0
   20.5782   17.0700   25.5403 H   0  0  0  0  0  0  0  0  0  0  0  0
   19.4066   16.6147   24.2853 H   0  0  0  0  0  0  0  0  0  0  0  0
  1  2  1  0  0  0  0
  1  3  2  0  0  0  0
  1  4  1  0  0  0  0
  4  5  1  0  0  0  0
  4  6  1  0  0  0  0
  4  7  1  0  0  0  0
  7  8  1  0  0  0  0
  7  9  1  0  0  0  0
  7 10  1  0  0  0  0
 10 11  1  0  0  0  0
 10 12  1  0  0  0  0
 10 13  1  0  0  0  0
 13 14  1  0  0  0  0
 13 15  1  0  0  0  0
 13 16  1  0  0  0  0
 16 17  1  0  0  0  0
 16 18  1  0  0  0  0
 16 19  1  0  0  0  0
M  END
> <VConfSearch Rank>
197

> <Conf_Id>
36

> <Delta U+W>
-0.079

> <U+W>
-54.971

> <U>
8.266

> <W>
-63.237

> <W(PB)>
-65.340

> <W(SA)>
2.103

> <Valence>
6.935

> <Coulomb>
0.874

> <VdW>
0.457

> <VdW6>
-6.205

> <VdW12>
6.662

> <Bond>
0.107

> <Angle>
2.420

> <Pdih>
4.407

> <Idih>
0.001

> <Tether>
0.000

$$$$
VeraChem MOL file


 19 18  0  0  0  0  0  0  0  0999 V2000     
   18.7395   17.6331   20.2224 C   0  0  0  0  0  0  0  0  0  0  0  0
   18.1312   18.5755   19.7550 O   0  5  0  0  0  0  0  0  0  0  0  0
   18.2142   16.5830   20.5355 O   0  0  0  0  0  0  0  0  0  0  0  0
   20.2487   17.7655   20.4071 C   0  0  0  0  0  0  0  0  0  0  0  0
   20.6064   18.5952   19.7851 H   0  0  0  0  0  0  0  0  0  0  0  0
   20.7088   16.8519   20.0124 H   0  0  0  0  0  0  0  0  0  0  0  0
   20.6889   17.9722   21.8797 C   0  0  0  0  0  0  0  0  0  0  0  0
   20.2994   17.1491   22.4948 H   0  0  0  0  0  0  0  0  0  0  0  0
   21.7846   17.9173   21.9350 H   0  0  0  0  0  0  0  0  0  0  0  0
   20.2170   19.3256   22.4567 C   0  0  0  0  0  0  0  0  0  0  0  0
   19.1202   19.3813   22.4205 H   0  0  0  0  0  0  0  0  0  0  0  0
   20.5980   20.1443   21.8310 H   0  0  0  0  0  0  0  0  0  0  0  0
   20.6926   19.5235   23.9111 C   0  0  0  0  0  0  0  0  0  0  0  0
   20.3109   18.7070   24.5397 H   0  0  0  0  0  0  0  0  0  0  0  0
   21.7895   19.4729   23.9528 H   0  0  0  0  0  0  0  0  0  0  0  0
   20.2202   20.8746   24.4839 C   0  0  0  0  0  0  0  0  0  0  0  0
   19.1242   20.9397   24.4831 H   0  0  0  0  0  0  0  0  0  0  0  0
   20.5665   20.9987   25.5182 H   0  0  0  0  0  0  0  0  0  0  0  0
   20.6138   21.7113   23.8919 H   0  0  0  0  0  0  0  0  0  0  0  0
  1  2  1  0  0  0  0
  1  3  2  0  0  0  0
  1  4  1  0  0  0  0
  4  5  1  0  0  0  0
  4  6  1  0  0  0  0
  4  7  1  0  0  0  0
  7  8  1  0  0  0  0
  7  9  1  0  0  0  0
  7 10  1  0  0  0  0
 10 11  1  0  0  0  0
 10 12  1  0  0  0  0
 10 13  1  0  0  0  0
 13 14  1  0  0  0  0
 13 15  1  0  0  0  0
 13 16  1  0  0  0  0
 16 17  1  0  0  0  0
 16 18  1  0  0  0  0
 16 19  1  0  0  0  0
M  END
> <VConfSearch Rank>
198

> <Conf_Id>
35

> <Delta U+W>
-0.030

> <U+W>
-54.921

> <U>
8.267

> <W>
-63.188

> <W(PB)>
-65.294

> <W(SA)>
2.106

> <Valence>
6.935

> <Coulomb>
0.875

> <VdW>
0.457

> <VdW6>
-6.205

> <VdW12>
6.662

> <Bond>
0.107

> <Angle>
2.420

> <Pdih>
4.407

> <Idih>
0.001

> <Tether>
0.000

$$$$
VeraChem MOL file


 19 18  0  0  0  0  0  0  0  0999 V2000     
   21.6720   21.3237   22.0205 C   0  0  0  0  0  0  0  0  0  0  0  0
   22.1954   21.6815   23.0571 O   0  5  0  0  0  0  0  0  0  0  0  0
   21.0535   22.0702   21.2878 O   0  0  0  0  0  0  0  0  0  0  0  0
   21.8191   19.8618   21.6073 C   0  0  0  0  0  0  0  0  0  0  0  0
   22.8715   19.5871   21.7456 H   0  0  0  0  0  0  0  0  0  0  0  0
   21.6076   19.7774   20.5344 H   0  0  0  0  0  0  0  0  0  0  0  0
   20.9201   18.8840   22.4082 C   0  0  0  0  0  0  0  0  0  0  0  0
   21.2071   17.8566   22.1502 H   0  0  0  0  0  0  0  0  0  0  0  0
   21.1147   19.0078   23.4825 H   0  0  0  0  0  0  0  0  0  0  0  0
   19.4138   19.0912   22.1205 C   0  0  0  0  0  0  0  0  0  0  0  0
   19.2151   18.9292   21.0523 H   0  0  0  0  0  0  0  0  0  0  0  0
   19.1467   20.1360   22.3301 H   0  0  0  0  0  0  0  0  0  0  0  0
   18.4960   18.1752   22.9627 C   0  0  0  0  0  0  0  0  0  0  0  0
   18.6911   18.3365   24.0319 H   0  0  0  0  0  0  0  0  0  0  0  0
   17.4515   18.4691   22.7902 H   0  0  0  0  0  0  0  0  0  0  0  0
   18.6517   16.6763   22.6262 C   0  0  0  0  0  0  0  0  0  0  0  0
   19.6495   16.3068   22.8936 H   0  0  0  0  0  0  0  0  0  0  0  0
   17.9170   16.0801   23.1827 H   0  0  0  0  0  0  0  0  0  0  0  0
   18.4921   16.4954   21.5553 H   0  0  0  0  0  0  0  0  0  0  0  0
  1  2  1  0  0  0  0
  1  3  2  0  0  0  0
  1  4  1  0  0  0  0
  4  5  1  0  0  0  0
  4  6  1  0  0  0  0
  4  7  1  0  0  0  0
  7  8  1  0  0  0  0
  7  9  1  0  0  0  0
  7 10  1  0  0  0  0
 10 11  1  0  0  0  0
 10 12  1  0  0  0  0
 10 13  1  0  0  0  0
 13 14  1  0  0  0  0
 13 15  1  0  0  0  0
 13 16  1  0  0  0  0
 16 17  1  0  0  0  0
 16 18  1  0  0  0  0
 16 19  1  0  0  0  0
M  END
> <VConfSearch Rank>
199

> <Conf_Id>
74

> <Delta U+W>
0.797

> <U+W>
-54.095

> <U>
8.869

> <W>
-62.964

> <W(PB)>
-65.046

> <W(SA)>
2.082

> <Valence>
7.469

> <Coulomb>
0.762

> <VdW>
0.639

> <VdW6>
-6.782

> <VdW12>
7.421

> <Bond>
0.141

> <Angle>
2.667

> <Pdih>
4.660

> <Idih>
0.001

> <Tether>
0.000

$$$$
VeraChem MOL file


 19 18  0  0  0  0  0  0  0  0999 V2000     
   19.2673   17.2257   24.5769 C   0  0  0  0  0  0  0  0  0  0  0  0
   18.2348   17.1874   25.2163 O   0  5  0  0  0  0  0  0  0  0  0  0
   20.0519   16.3003   24.5113 O   0  0  0  0  0  0  0  0  0  0  0  0
   19.5859   18.4978   23.7995 C   0  0  0  0  0  0  0  0  0  0  0  0
   20.6754   18.6152   23.7836 H   0  0  0  0  0  0  0  0  0  0  0  0
   19.1740   19.3490   24.3546 H   0  0  0  0  0  0  0  0  0  0  0  0
   19.0206   18.4769   22.3557 C   0  0  0  0  0  0  0  0  0  0  0  0
   19.4685   17.6439   21.7979 H   0  0  0  0  0  0  0  0  0  0  0  0
   17.9432   18.2667   22.4020 H   0  0  0  0  0  0  0  0  0  0  0  0
   19.2306   19.8069   21.5890 C   0  0  0  0  0  0  0  0  0  0  0  0
   18.6883   20.6075   22.1104 H   0  0  0  0  0  0  0  0  0  0  0  0
   18.7640   19.7202   20.5983 H   0  0  0  0  0  0  0  0  0  0  0  0
   20.7066   20.2398   21.4106 C   0  0  0  0  0  0  0  0  0  0  0  0
   20.7275   21.1962   20.8703 H   0  0  0  0  0  0  0  0  0  0  0  0
   21.1658   20.4343   22.3889 H   0  0  0  0  0  0  0  0  0  0  0  0
   21.5555   19.2116   20.6323 C   0  0  0  0  0  0  0  0  0  0  0  0
   21.1022   18.9844   19.6587 H   0  0  0  0  0  0  0  0  0  0  0  0
   22.5648   19.6040   20.4528 H   0  0  0  0  0  0  0  0  0  0  0  0
   21.6582   18.2736   21.1926 H   0  0  0  0  0  0  0  0  0  0  0  0
  1  2  1  0  0  0  0
  1  3  2  0  0  0  0
  1  4  1  0  0  0  0
  4  5  1  0  0  0  0
  4  6  1  0  0  0  0
  4  7  1  0  0  0  0
  7  8  1  0  0  0  0
  7  9  1  0  0  0  0
  7 10  1  0  0  0  0
 10 11  1  0  0  0  0
 10 12  1  0  0  0  0
 10 13  1  0  0  0  0
 13 14  1  0  0  0  0
 13 15  1  0  0  0  0
 13 16  1  0  0  0  0
 16 17  1  0  0  0  0
 16 18  1  0  0  0  0
 16 19  1  0  0  0  0
M  END
> <VConfSearch Rank>
200

> <Conf_Id>
67

> <Delta U+W>
0.308

> <U+W>
-54.583

> <U>
8.219

> <W>
-62.802

> <W(PB)>
-64.859

> <W(SA)>
2.057

> <Valence>
7.609

> <Coulomb>
-0.089

> <VdW>
0.699

> <VdW6>
-6.924

> <VdW12>
7.623

> <Bond>
0.163

> <Angle>
2.870

> <Pdih>
4.576

> <Idih>
0.001

> <Tether>
0.000

$$$$
VeraChem MOL file


 19 18  0  0  0  0  0  0  0  0999 V2000     
   20.8100   17.2054   24.5220 C   0  0  0  0  0  0  0  0  0  0  0  0
   21.7521   16.4414   24.5939 O   0  5  0  0  0  0  0  0  0  0  0  0
   19.8127   17.1091   25.2093 O   0  0  0  0  0  0  0  0  0  0  0  0
   20.8751   18.3345   23.4997 C   0  0  0  0  0  0  0  0  0  0  0  0
   21.9233   18.6386   23.3936 H   0  0  0  0  0  0  0  0  0  0  0  0
   20.3276   19.1898   23.9119 H   0  0  0  0  0  0  0  0  0  0  0  0
   20.2931   17.9304   22.1204 C   0  0  0  0  0  0  0  0  0  0  0  0
   20.8002   17.0180   21.7776 H   0  0  0  0  0  0  0  0  0  0  0  0
   19.2335   17.6647   22.2325 H   0  0  0  0  0  0  0  0  0  0  0  0
   20.4576   19.0233   21.0345 C   0  0  0  0  0  0  0  0  0  0  0  0
   20.0610   18.6391   20.0848 H   0  0  0  0  0  0  0  0  0  0  0  0
   21.5288   19.1994   20.8665 H   0  0  0  0  0  0  0  0  0  0  0  0
   19.7742   20.3763   21.3512 C   0  0  0  0  0  0  0  0  0  0  0  0
   20.2281   20.8314   22.2414 H   0  0  0  0  0  0  0  0  0  0  0  0
   19.9713   21.0698   20.5222 H   0  0  0  0  0  0  0  0  0  0  0  0
   18.2474   20.2589   21.5476 C   0  0  0  0  0  0  0  0  0  0  0  0
   18.0044   19.6658   22.4383 H   0  0  0  0  0  0  0  0  0  0  0  0
   17.7992   21.2525   21.6771 H   0  0  0  0  0  0  0  0  0  0  0  0
   17.7746   19.7849   20.6776 H   0  0  0  0  0  0  0  0  0  0  0  0
  1  2  1  0  0  0  0
  1  3  2  0  0  0  0
  1  4  1  0  0  0  0
  4  5  1  0  0  0  0
  4  6  1  0  0  0  0
  4  7  1  0  0  0  0
  7  8  1  0  0  0  0
  7  9  1  0  0  0  0
  7 10  1  0  0  0  0
 10 11  1  0  0  0  0
 10 12  1  0  0  0  0
 10 13  1  0  0  0  0
 13 14  1  0  0  0  0
 13 15  1  0  0  0  0
 13 16  1  0  0  0  0
 16 17  1  0  0  0  0
 16 18  1  0  0  0  0
 16 19  1  0  0  0  0
M  END
> <VConfSearch Rank>
201

> <Conf_Id>
21

> <Delta U+W>
0.319

> <U+W>
-54.572

> <U>
8.220

> <W>
-62.792

> <W(PB)>
-64.830

> <W(SA)>
2.038

> <Valence>
7.609

> <Coulomb>
-0.088

> <VdW>
0.699

> <VdW6>
-6.924

> <VdW12>
7.623

> <Bond>
0.163

> <Angle>
2.870

> <Pdih>
4.576

> <Idih>
0.000

> <Tether>
0.000

$$$$
VeraChem MOL file


 19 18  0  0  0  0  0  0  0  0999 V2000     
   19.7480   21.8009   22.1838 C   0  0  0  0  0  0  0  0  0  0  0  0
   20.3697   22.6714   22.7601 O   0  5  0  0  0  0  0  0  0  0  0  0
   19.1537   21.9788   21.1391 O   0  0  0  0  0  0  0  0  0  0  0  0
   19.7283   20.4049   22.7960 C   0  0  0  0  0  0  0  0  0  0  0  0
   18.7676   19.9430   22.5478 H   0  0  0  0  0  0  0  0  0  0  0  0
   19.7577   20.5135   23.8867 H   0  0  0  0  0  0  0  0  0  0  0  0
   20.9118   19.5226   22.3180 C   0  0  0  0  0  0  0  0  0  0  0  0
   20.9185   19.4603   21.2211 H   0  0  0  0  0  0  0  0  0  0  0  0
   21.8455   20.0279   22.6012 H   0  0  0  0  0  0  0  0  0  0  0  0
   20.9105   18.1013   22.9361 C   0  0  0  0  0  0  0  0  0  0  0  0
   20.4464   18.1192   23.9316 H   0  0  0  0  0  0  0  0  0  0  0  0
   21.9541   17.7989   23.0986 H   0  0  0  0  0  0  0  0  0  0  0  0
   20.2431   17.0149   22.0573 C   0  0  0  0  0  0  0  0  0  0  0  0
   20.7712   16.9428   21.0965 H   0  0  0  0  0  0  0  0  0  0  0  0
   20.3696   16.0415   22.5510 H   0  0  0  0  0  0  0  0  0  0  0  0
   18.7399   17.2454   21.7986 C   0  0  0  0  0  0  0  0  0  0  0  0
   18.3020   16.3796   21.2854 H   0  0  0  0  0  0  0  0  0  0  0  0
   18.1955   17.3922   22.7404 H   0  0  0  0  0  0  0  0  0  0  0  0
   18.5786   18.1232   21.1604 H   0  0  0  0  0  0  0  0  0  0  0  0
  1  2  1  0  0  0  0
  1  3  2  0  0  0  0
  1  4  1  0  0  0  0
  4  5  1  0  0  0  0
  4  6  1  0  0  0  0
  4  7  1  0  0  0  0
  7  8  1  0  0  0  0
  7  9  1  0  0  0  0
  7 10  1  0  0  0  0
 10 11  1  0  0  0  0
 10 12  1  0  0  0  0
 10 13  1  0  0  0  0
 13 14  1  0  0  0  0
 13 15  1  0  0  0  0
 13 16  1  0  0  0  0
 16 17  1  0  0  0  0
 16 18  1  0  0  0  0
 16 19  1  0  0  0  0
M  END
> <VConfSearch Rank>
202

> <Conf_Id>
24

> <Delta U+W>
2.477

> <U+W>
-52.414

> <U>
10.422

> <W>
-62.836

> <W(PB)>
-64.906

> <W(SA)>
2.070

> <Valence>
9.628

> <Coulomb>
0.101

> <VdW>
0.693

> <VdW6>
-6.927

> <VdW12>
7.620

> <Bond>
0.173

> <Angle>
2.989

> <Pdih>
6.465

> <Idih>
0.001

> <Tether>
0.000

$$$$
VeraChem MOL file


 19 18  0  0  0  0  0  0  0  0999 V2000     
   21.0102   20.8408   20.8957 C   0  0  0  0  0  0  0  0  0  0  0  0
   21.5999   20.0582   20.1771 O   0  5  0  0  0  0  0  0  0  0  0  0
   20.6160   21.9281   20.5222 O   0  0  0  0  0  0  0  0  0  0  0  0
   20.7761   20.4527   22.3534 C   0  0  0  0  0  0  0  0  0  0  0  0
   21.0913   21.3030   22.9693 H   0  0  0  0  0  0  0  0  0  0  0  0
   21.4443   19.6217   22.6010 H   0  0  0  0  0  0  0  0  0  0  0  0
   19.2992   20.0993   22.6833 C   0  0  0  0  0  0  0  0  0  0  0  0
   19.1667   20.0331   23.7716 H   0  0  0  0  0  0  0  0  0  0  0  0
   18.6679   20.9359   22.3528 H   0  0  0  0  0  0  0  0  0  0  0  0
   18.7918   18.7958   22.0134 C   0  0  0  0  0  0  0  0  0  0  0  0
   19.3077   18.6278   21.0582 H   0  0  0  0  0  0  0  0  0  0  0  0
   17.7322   18.9338   21.7588 H   0  0  0  0  0  0  0  0  0  0  0  0
   18.8962   17.5309   22.9006 C   0  0  0  0  0  0  0  0  0  0  0  0
   18.3037   17.6715   23.8151 H   0  0  0  0  0  0  0  0  0  0  0  0
   18.4367   16.6900   22.3630 H   0  0  0  0  0  0  0  0  0  0  0  0
   20.3404   17.1435   23.2801 C   0  0  0  0  0  0  0  0  0  0  0  0
   20.7815   17.8812   23.9618 H   0  0  0  0  0  0  0  0  0  0  0  0
   20.3559   16.1716   23.7899 H   0  0  0  0  0  0  0  0  0  0  0  0
   20.9753   17.0689   22.3874 H   0  0  0  0  0  0  0  0  0  0  0  0
  1  2  1  0  0  0  0
  1  3  2  0  0  0  0
  1  4  1  0  0  0  0
  4  5  1  0  0  0  0
  4  6  1  0  0  0  0
  4  7  1  0  0  0  0
  7  8  1  0  0  0  0
  7  9  1  0  0  0  0
  7 10  1  0  0  0  0
 10 11  1  0  0  0  0
 10 12  1  0  0  0  0
 10 13  1  0  0  0  0
 13 14  1  0  0  0  0
 13 15  1  0  0  0  0
 13 16  1  0  0  0  0
 16 17  1  0  0  0  0
 16 18  1  0  0  0  0
 16 19  1  0  0  0  0
M  END
> <VConfSearch Rank>
203

> <Conf_Id>
4

> <Delta U+W>
3.753

> <U+W>
-51.138

> <U>
12.334

> <W>
-63.472

> <W(PB)>
-65.500

> <W(SA)>
2.028

> <Valence>
9.984

> <Coulomb>
1.767

> <VdW>
0.583

> <VdW6>
-7.767

> <VdW12>
8.349

> <Bond>
0.203

> <Angle>
3.191

> <Pdih>
6.589

> <Idih>
0.001

> <Tether>
0.000

$$$$
VeraChem MOL file


 19 18  0  0  0  0  0  0  0  0999 V2000     
   20.4364   21.4467   22.2085 C   0  0  0  0  0  0  0  0  0  0  0  0
   21.4922   22.0482   22.2306 O   0  5  0  0  0  0  0  0  0  0  0  0
   19.5358   21.7010   21.4332 O   0  0  0  0  0  0  0  0  0  0  0  0
   20.2220   20.3321   23.2293 C   0  0  0  0  0  0  0  0  0  0  0  0
   19.1501   20.1180   23.2867 H   0  0  0  0  0  0  0  0  0  0  0  0
   20.5156   20.7290   24.2081 H   0  0  0  0  0  0  0  0  0  0  0  0
   21.0347   19.0408   22.9342 C   0  0  0  0  0  0  0  0  0  0  0  0
   22.0904   19.3229   22.8188 H   0  0  0  0  0  0  0  0  0  0  0  0
   20.9950   18.3697   23.8027 H   0  0  0  0  0  0  0  0  0  0  0  0
   20.5793   18.2791   21.6622 C   0  0  0  0  0  0  0  0  0  0  0  0
   21.4689   17.8369   21.1933 H   0  0  0  0  0  0  0  0  0  0  0  0
   20.1691   18.9784   20.9209 H   0  0  0  0  0  0  0  0  0  0  0  0
   19.5717   17.1324   21.9221 C   0  0  0  0  0  0  0  0  0  0  0  0
   19.3837   16.6126   20.9726 H   0  0  0  0  0  0  0  0  0  0  0  0
   20.0228   16.3899   22.5947 H   0  0  0  0  0  0  0  0  0  0  0  0
   18.2217   17.5985   22.5051 C   0  0  0  0  0  0  0  0  0  0  0  0
   17.7824   18.3960   21.8914 H   0  0  0  0  0  0  0  0  0  0  0  0
   17.5092   16.7642   22.5382 H   0  0  0  0  0  0  0  0  0  0  0  0
   18.3411   17.9717   23.5297 H   0  0  0  0  0  0  0  0  0  0  0  0
  1  2  1  0  0  0  0
  1  3  2  0  0  0  0
  1  4  1  0  0  0  0
  4  5  1  0  0  0  0
  4  6  1  0  0  0  0
  4  7  1  0  0  0  0
  7  8  1  0  0  0  0
  7  9  1  0  0  0  0
  7 10  1  0  0  0  0
 10 11  1  0  0  0  0
 10 12  1  0  0  0  0
 10 13  1  0  0  0  0
 13 14  1  0  0  0  0
 13 15  1  0  0  0  0
 13 16  1  0  0  0  0
 16 17  1  0  0  0  0
 16 18  1  0  0  0  0
 16 19  1  0  0  0  0
M  END
> <VConfSearch Rank>
204

> <Conf_Id>
73

> <Delta U+W>
3.707

> <U+W>
-51.184

> <U>
12.334

> <W>
-63.519

> <W(PB)>
-65.541

> <W(SA)>
2.022

> <Valence>
9.984

> <Coulomb>
1.768

> <VdW>
0.583

> <VdW6>
-7.767

> <VdW12>
8.350

> <Bond>
0.203

> <Angle>
3.192

> <Pdih>
6.589

> <Idih>
0.001

> <Tether>
0.000

$$$$
VeraChem MOL file


 19 18  0  0  0  0  0  0  0  0999 V2000     
   21.2580   19.1118   20.2280 C   0  0  0  0  0  0  0  0  0  0  0  0
   20.4008   18.6830   19.4809 O   0  5  0  0  0  0  0  0  0  0  0  0
   22.0842   19.9393   19.8967 O   0  0  0  0  0  0  0  0  0  0  0  0
   21.3229   18.5599   21.6495 C   0  0  0  0  0  0  0  0  0  0  0  0
   22.3592   18.2538   21.8337 H   0  0  0  0  0  0  0  0  0  0  0  0
   20.7163   17.6485   21.7011 H   0  0  0  0  0  0  0  0  0  0  0  0
   20.8836   19.5706   22.7439 C   0  0  0  0  0  0  0  0  0  0  0  0
   21.0313   19.1191   23.7334 H   0  0  0  0  0  0  0  0  0  0  0  0
   21.5525   20.4414   22.7071 H   0  0  0  0  0  0  0  0  0  0  0  0
   19.4199   20.0641   22.6095 C   0  0  0  0  0  0  0  0  0  0  0  0
   19.3145   20.6208   21.6682 H   0  0  0  0  0  0  0  0  0  0  0  0
   19.2166   20.7866   23.4116 H   0  0  0  0  0  0  0  0  0  0  0  0
   18.3428   18.9527   22.6519 C   0  0  0  0  0  0  0  0  0  0  0  0
   17.3552   19.4185   22.5313 H   0  0  0  0  0  0  0  0  0  0  0  0
   18.4648   18.2762   21.7952 H   0  0  0  0  0  0  0  0  0  0  0  0
   18.3521   18.1408   23.9651 C   0  0  0  0  0  0  0  0  0  0  0  0
   19.2806   17.5659   24.0719 H   0  0  0  0  0  0  0  0  0  0  0  0
   18.2530   18.8016   24.8361 H   0  0  0  0  0  0  0  0  0  0  0  0
   17.5165   17.4294   23.9827 H   0  0  0  0  0  0  0  0  0  0  0  0
  1  2  1  0  0  0  0
  1  3  2  0  0  0  0
  1  4  1  0  0  0  0
  4  5  1  0  0  0  0
  4  6  1  0  0  0  0
  4  7  1  0  0  0  0
  7  8  1  0  0  0  0
  7  9  1  0  0  0  0
  7 10  1  0  0  0  0
 10 11  1  0  0  0  0
 10 12  1  0  0  0  0
 10 13  1  0  0  0  0
 13 14  1  0  0  0  0
 13 15  1  0  0  0  0
 13 16  1  0  0  0  0
 16 17  1  0  0  0  0
 16 18  1  0  0  0  0
 16 19  1  0  0  0  0
M  END
> <VConfSearch Rank>
205

> <Conf_Id>
56

> <Delta U+W>
1.735

> <U+W>
-53.156

> <U>
10.214

> <W>
-63.370

> <W(PB)>
-65.388

> <W(SA)>
2.018

> <Valence>
7.868

> <Coulomb>
1.968

> <VdW>
0.378

> <VdW6>
-8.067

> <VdW12>
8.445

> <Bond>
0.191

> <Angle>
3.117

> <Pdih>
4.559

> <Idih>
0.001

> <Tether>
0.000

$$$$
VeraChem MOL file


 19 18  0  0  0  0  0  0  0  0999 V2000     
   22.0677   20.8431   23.0130 C   0  0  0  0  0  0  0  0  0  0  0  0
   21.8537   21.8674   23.6307 O   0  5  0  0  0  0  0  0  0  0  0  0
   23.1233   20.5978   22.4637 O   0  0  0  0  0  0  0  0  0  0  0  0
   20.9430   19.8198   22.9034 C   0  0  0  0  0  0  0  0  0  0  0  0
   20.3358   19.8807   23.8144 H   0  0  0  0  0  0  0  0  0  0  0  0
   21.4015   18.8250   22.8777 H   0  0  0  0  0  0  0  0  0  0  0  0
   20.0549   20.0349   21.6520 C   0  0  0  0  0  0  0  0  0  0  0  0
   19.7253   21.0829   21.6309 H   0  0  0  0  0  0  0  0  0  0  0  0
   20.6615   19.8853   20.7481 H   0  0  0  0  0  0  0  0  0  0  0  0
   18.8019   19.1254   21.5937 C   0  0  0  0  0  0  0  0  0  0  0  0
   18.2312   19.4068   20.6981 H   0  0  0  0  0  0  0  0  0  0  0  0
   18.1422   19.3367   22.4464 H   0  0  0  0  0  0  0  0  0  0  0  0
   19.1064   17.6088   21.5140 C   0  0  0  0  0  0  0  0  0  0  0  0
   18.3520   17.1332   20.8721 H   0  0  0  0  0  0  0  0  0  0  0  0
   20.0749   17.4396   21.0235 H   0  0  0  0  0  0  0  0  0  0  0  0
   19.0721   16.9066   22.8896 C   0  0  0  0  0  0  0  0  0  0  0  0
   19.2761   15.8339   22.7777 H   0  0  0  0  0  0  0  0  0  0  0  0
   19.8186   17.3185   23.5779 H   0  0  0  0  0  0  0  0  0  0  0  0
   18.0847   17.0131   23.3575 H   0  0  0  0  0  0  0  0  0  0  0  0
  1  2  1  0  0  0  0
  1  3  2  0  0  0  0
  1  4  1  0  0  0  0
  4  5  1  0  0  0  0
  4  6  1  0  0  0  0
  4  7  1  0  0  0  0
  7  8  1  0  0  0  0
  7  9  1  0  0  0  0
  7 10  1  0  0  0  0
 10 11  1  0  0  0  0
 10 12  1  0  0  0  0
 10 13  1  0  0  0  0
 13 14  1  0  0  0  0
 13 15  1  0  0  0  0
 13 16  1  0  0  0  0
 16 17  1  0  0  0  0
 16 18  1  0  0  0  0
 16 19  1  0  0  0  0
M  END
> <VConfSearch Rank>
206

> <Conf_Id>
53

> <Delta U+W>
2.279

> <U+W>
-52.612

> <U>
10.231

> <W>
-62.843

> <W(PB)>
-64.893

> <W(SA)>
2.050

> <Valence>
9.644

> <Coulomb>
-0.164

> <VdW>
0.751

> <VdW6>
-6.881

> <VdW12>
7.631

> <Bond>
0.163

> <Angle>
2.998

> <Pdih>
6.482

> <Idih>
0.001

> <Tether>
0.000

$$$$
VeraChem MOL file


 19 18  0  0  0  0  0  0  0  0999 V2000     
   21.3423   17.7033   24.2378 C   0  0  0  0  0  0  0  0  0  0  0  0
   22.4844   18.1049   24.1325 O   0  5  0  0  0  0  0  0  0  0  0  0
   21.0365   16.5290   24.1696 O   0  0  0  0  0  0  0  0  0  0  0  0
   20.2455   18.7224   24.5413 C   0  0  0  0  0  0  0  0  0  0  0  0
   20.6969   19.7185   24.6241 H   0  0  0  0  0  0  0  0  0  0  0  0
   19.8573   18.4707   25.5351 H   0  0  0  0  0  0  0  0  0  0  0  0
   19.0652   18.7488   23.5297 C   0  0  0  0  0  0  0  0  0  0  0  0
   18.7521   17.7226   23.2924 H   0  0  0  0  0  0  0  0  0  0  0  0
   18.2053   19.2200   24.0248 H   0  0  0  0  0  0  0  0  0  0  0  0
   19.3458   19.5338   22.2245 C   0  0  0  0  0  0  0  0  0  0  0  0
   19.6512   20.5605   22.4687 H   0  0  0  0  0  0  0  0  0  0  0  0
   18.4033   19.6169   21.6660 H   0  0  0  0  0  0  0  0  0  0  0  0
   20.4064   18.8800   21.3117 C   0  0  0  0  0  0  0  0  0  0  0  0
   21.3897   18.9058   21.7984 H   0  0  0  0  0  0  0  0  0  0  0  0
   20.1561   17.8226   21.1481 H   0  0  0  0  0  0  0  0  0  0  0  0
   20.5050   19.6015   19.9525 C   0  0  0  0  0  0  0  0  0  0  0  0
   20.7798   20.6558   20.0873 H   0  0  0  0  0  0  0  0  0  0  0  0
   21.2683   19.1304   19.3197 H   0  0  0  0  0  0  0  0  0  0  0  0
   19.5483   19.5619   19.4155 H   0  0  0  0  0  0  0  0  0  0  0  0
  1  2  1  0  0  0  0
  1  3  2  0  0  0  0
  1  4  1  0  0  0  0
  4  5  1  0  0  0  0
  4  6  1  0  0  0  0
  4  7  1  0  0  0  0
  7  8  1  0  0  0  0
  7  9  1  0  0  0  0
  7 10  1  0  0  0  0
 10 11  1  0  0  0  0
 10 12  1  0  0  0  0
 10 13  1  0  0  0  0
 13 14  1  0  0  0  0
 13 15  1  0  0  0  0
 13 16  1  0  0  0  0
 16 17  1  0  0  0  0
 16 18  1  0  0  0  0
 16 19  1  0  0  0  0
M  END
> <VConfSearch Rank>
207

> <Conf_Id>
25

> <Delta U+W>
2.065

> <U+W>
-52.826

> <U>
10.967

> <W>
-63.794

> <W(PB)>
-65.830

> <W(SA)>
2.036

> <Valence>
8.609

> <Coulomb>
1.892

> <VdW>
0.467

> <VdW6>
-7.569

> <VdW12>
8.036

> <Bond>
0.170

> <Angle>
3.195

> <Pdih>
5.237

> <Idih>
0.007

> <Tether>
0.000

$$$$
VeraChem MOL file


 19 18  0  0  0  0  0  0  0  0999 V2000     
   18.4566   20.5909   22.7679 C   0  0  0  0  0  0  0  0  0  0  0  0
   18.3355   21.1719   21.7072 O   0  5  0  0  0  0  0  0  0  0  0  0
   18.7903   21.1416   23.7986 O   0  0  0  0  0  0  0  0  0  0  0  0
   18.1039   19.1058   22.8262 C   0  0  0  0  0  0  0  0  0  0  0  0
   17.0380   19.0322   22.5809 H   0  0  0  0  0  0  0  0  0  0  0  0
   18.2130   18.7534   23.8591 H   0  0  0  0  0  0  0  0  0  0  0  0
   18.9092   18.1935   21.8585 C   0  0  0  0  0  0  0  0  0  0  0  0
   18.3420   17.2633   21.7192 H   0  0  0  0  0  0  0  0  0  0  0  0
   18.9702   18.6615   20.8661 H   0  0  0  0  0  0  0  0  0  0  0  0
   20.3261   17.8118   22.3537 C   0  0  0  0  0  0  0  0  0  0  0  0
   20.7321   17.0499   21.6743 H   0  0  0  0  0  0  0  0  0  0  0  0
   20.2572   17.3381   23.3425 H   0  0  0  0  0  0  0  0  0  0  0  0
   21.3132   18.9982   22.4141 C   0  0  0  0  0  0  0  0  0  0  0  0
   21.3084   19.5359   21.4559 H   0  0  0  0  0  0  0  0  0  0  0  0
   20.9969   19.7126   23.1849 H   0  0  0  0  0  0  0  0  0  0  0  0
   22.7463   18.5259   22.7316 C   0  0  0  0  0  0  0  0  0  0  0  0
   23.4331   19.3809   22.7795 H   0  0  0  0  0  0  0  0  0  0  0  0
   22.7830   18.0070   23.6985 H   0  0  0  0  0  0  0  0  0  0  0  0
   23.1146   17.8385   21.9588 H   0  0  0  0  0  0  0  0  0  0  0  0
  1  2  1  0  0  0  0
  1  3  2  0  0  0  0
  1  4  1  0  0  0  0
  4  5  1  0  0  0  0
  4  6  1  0  0  0  0
  4  7  1  0  0  0  0
  7  8  1  0  0  0  0
  7  9  1  0  0  0  0
  7 10  1  0  0  0  0
 10 11  1  0  0  0  0
 10 12  1  0  0  0  0
 10 13  1  0  0  0  0
 13 14  1  0  0  0  0
 13 15  1  0  0  0  0
 13 16  1  0  0  0  0
 16 17  1  0  0  0  0
 16 18  1  0  0  0  0
 16 19  1  0  0  0  0
M  END
> <VConfSearch Rank>
208

> <Conf_Id>
52

> <Delta U+W>
2.070

> <U+W>
-52.822

> <U>
10.967

> <W>
-63.789

> <W(PB)>
-65.837

> <W(SA)>
2.048

> <Valence>
8.609

> <Coulomb>
1.892

> <VdW>
0.467

> <VdW6>
-7.569

> <VdW12>
8.035

> <Bond>
0.170

> <Angle>
3.196

> <Pdih>
5.237

> <Idih>
0.007

> <Tether>
0.000

$$$$
VeraChem MOL file


 19 18  0  0  0  0  0  0  0  0999 V2000     
   18.4286   17.8006   23.8075 C   0  0  0  0  0  0  0  0  0  0  0  0
   18.4820   16.6301   23.4830 O   0  5  0  0  0  0  0  0  0  0  0  0
   18.5214   18.1762   24.9595 O   0  0  0  0  0  0  0  0  0  0  0  0
   18.1033   18.8448   22.7384 C   0  0  0  0  0  0  0  0  0  0  0  0
   18.2436   19.8463   23.1626 H   0  0  0  0  0  0  0  0  0  0  0  0
   17.0321   18.7413   22.5304 H   0  0  0  0  0  0  0  0  0  0  0  0
   18.8891   18.7122   21.4027 C   0  0  0  0  0  0  0  0  0  0  0  0
   18.9700   17.6540   21.1180 H   0  0  0  0  0  0  0  0  0  0  0  0
   18.2929   19.1877   20.6122 H   0  0  0  0  0  0  0  0  0  0  0  0
   20.2920   19.3716   21.3882 C   0  0  0  0  0  0  0  0  0  0  0  0
   20.2014   20.4507   21.5736 H   0  0  0  0  0  0  0  0  0  0  0  0
   20.6888   19.2793   20.3678 H   0  0  0  0  0  0  0  0  0  0  0  0
   21.3202   18.7434   22.3598 C   0  0  0  0  0  0  0  0  0  0  0  0
   21.0334   17.7124   22.6090 H   0  0  0  0  0  0  0  0  0  0  0  0
   22.2919   18.6742   21.8517 H   0  0  0  0  0  0  0  0  0  0  0  0
   21.5101   19.5738   23.6473 C   0  0  0  0  0  0  0  0  0  0  0  0
   21.8929   20.5757   23.4140 H   0  0  0  0  0  0  0  0  0  0  0  0
   20.5665   19.6905   24.1930 H   0  0  0  0  0  0  0  0  0  0  0  0
   22.2285   19.0854   24.3182 H   0  0  0  0  0  0  0  0  0  0  0  0
  1  2  1  0  0  0  0
  1  3  2  0  0  0  0
  1  4  1  0  0  0  0
  4  5  1  0  0  0  0
  4  6  1  0  0  0  0
  4  7  1  0  0  0  0
  7  8  1  0  0  0  0
  7  9  1  0  0  0  0
  7 10  1  0  0  0  0
 10 11  1  0  0  0  0
 10 12  1  0  0  0  0
 10 13  1  0  0  0  0
 13 14  1  0  0  0  0
 13 15  1  0  0  0  0
 13 16  1  0  0  0  0
 16 17  1  0  0  0  0
 16 18  1  0  0  0  0
 16 19  1  0  0  0  0
M  END
> <VConfSearch Rank>
209

> <Conf_Id>
66

> <Delta U+W>
5.819

> <U+W>
-49.072

> <U>
15.324

> <W>
-64.396

> <W(PB)>
-66.382

> <W(SA)>
1.986

> <Valence>
11.748

> <Coulomb>
3.201

> <VdW>
0.375

> <VdW6>
-8.854

> <VdW12>
9.229

> <Bond>
0.216

> <Angle>
3.812

> <Pdih>
7.699

> <Idih>
0.022

> <Tether>
0.000

$$$$
VeraChem MOL file


 19 18  0  0  0  0  0  0  0  0999 V2000     
   21.1437   21.2463   19.9267 C   0  0  0  0  0  0  0  0  0  0  0  0
   21.9785   22.1232   19.8276 O   0  5  0  0  0  0  0  0  0  0  0  0
   20.3685   20.9642   19.0337 O   0  0  0  0  0  0  0  0  0  0  0  0
   21.0902   20.4796   21.2492 C   0  0  0  0  0  0  0  0  0  0  0  0
   20.9265   21.2139   22.0467 H   0  0  0  0  0  0  0  0  0  0  0  0
   22.0821   20.0425   21.4143 H   0  0  0  0  0  0  0  0  0  0  0  0
   20.0086   19.3696   21.3288 C   0  0  0  0  0  0  0  0  0  0  0  0
   19.0180   19.8130   21.1568 H   0  0  0  0  0  0  0  0  0  0  0  0
   20.1748   18.6404   20.5237 H   0  0  0  0  0  0  0  0  0  0  0  0
   20.0251   18.6487   22.6942 C   0  0  0  0  0  0  0  0  0  0  0  0
   19.8589   19.3795   23.4976 H   0  0  0  0  0  0  0  0  0  0  0  0
   21.0163   18.2062   22.8641 H   0  0  0  0  0  0  0  0  0  0  0  0
   18.9491   17.5457   22.7712 C   0  0  0  0  0  0  0  0  0  0  0  0
   17.9557   17.9846   22.6036 H   0  0  0  0  0  0  0  0  0  0  0  0
   19.1130   16.8114   21.9703 H   0  0  0  0  0  0  0  0  0  0  0  0
   18.9683   16.8282   24.1357 C   0  0  0  0  0  0  0  0  0  0  0  0
   18.7754   17.5346   24.9537 H   0  0  0  0  0  0  0  0  0  0  0  0
   18.1974   16.0475   24.1731 H   0  0  0  0  0  0  0  0  0  0  0  0
   19.9414   16.3525   24.3157 H   0  0  0  0  0  0  0  0  0  0  0  0
  1  2  1  0  0  0  0
  1  3  2  0  0  0  0
  1  4  1  0  0  0  0
  4  5  1  0  0  0  0
  4  6  1  0  0  0  0
  4  7  1  0  0  0  0
  7  8  1  0  0  0  0
  7  9  1  0  0  0  0
  7 10  1  0  0  0  0
 10 11  1  0  0  0  0
 10 12  1  0  0  0  0
 10 13  1  0  0  0  0
 13 14  1  0  0  0  0
 13 15  1  0  0  0  0
 13 16  1  0  0  0  0
 16 17  1  0  0  0  0
 16 18  1  0  0  0  0
 16 19  1  0  0  0  0
M  END
> <VConfSearch Rank>
210

> <Conf_Id>
0

> <Delta U+W>
0.000

> <U+W>
-54.891

> <U>
6.966

> <W>
-61.857

> <W(PB)>
-63.965

> <W(SA)>
2.108

> <Valence>
7.175

> <Coulomb>
-1.360

> <VdW>
1.151

> <VdW6>
-5.641

> <VdW12>
6.792

> <Bond>
0.119

> <Angle>
2.715

> <Pdih>
4.340

> <Idih>
0.000

> <Tether>
0.000

$$$$
VeraChem MOL file


 19 18  0  0  0  0  0  0  0  0999 V2000     
   18.0730   21.7344   21.6673 C   0  0  0  0  0  0  0  0  0  0  0  0
   18.5701   22.5582   20.9255 O   0  5  0  0  0  0  0  0  0  0  0  0
   16.8746   21.5862   21.8014 O   0  0  0  0  0  0  0  0  0  0  0  0
   19.0044   20.8225   22.4581 C   0  0  0  0  0  0  0  0  0  0  0  0
   18.5191   20.5844   23.4124 H   0  0  0  0  0  0  0  0  0  0  0  0
   19.9166   21.3853   22.6900 H   0  0  0  0  0  0  0  0  0  0  0  0
   19.3588   19.5198   21.6994 C   0  0  0  0  0  0  0  0  0  0  0  0
   18.4345   18.9743   21.4636 H   0  0  0  0  0  0  0  0  0  0  0  0
   19.8320   19.7754   20.7411 H   0  0  0  0  0  0  0  0  0  0  0  0
   20.3022   18.6149   22.5209 C   0  0  0  0  0  0  0  0  0  0  0  0
   19.8270   18.3623   23.4788 H   0  0  0  0  0  0  0  0  0  0  0  0
   21.2247   19.1634   22.7561 H   0  0  0  0  0  0  0  0  0  0  0  0
   20.6536   17.3179   21.7627 C   0  0  0  0  0  0  0  0  0  0  0  0
   19.7334   16.7654   21.5272 H   0  0  0  0  0  0  0  0  0  0  0  0
   21.1310   17.5664   20.8047 H   0  0  0  0  0  0  0  0  0  0  0  0
   21.5956   16.4168   22.5858 C   0  0  0  0  0  0  0  0  0  0  0  0
   21.8349   15.4996   22.0322 H   0  0  0  0  0  0  0  0  0  0  0  0
   22.5381   16.9338   22.8089 H   0  0  0  0  0  0  0  0  0  0  0  0
   21.1300   16.1268   23.5369 H   0  0  0  0  0  0  0  0  0  0  0  0
  1  2  1  0  0  0  0
  1  3  2  0  0  0  0
  1  4  1  0  0  0  0
  4  5  1  0  0  0  0
  4  6  1  0  0  0  0
  4  7  1  0  0  0  0
  7  8  1  0  0  0  0
  7  9  1  0  0  0  0
  7 10  1  0  0  0  0
 10 11  1  0  0  0  0
 10 12  1  0  0  0  0
 10 13  1  0  0  0  0
 13 14  1  0  0  0  0
 13 15  1  0  0  0  0
 13 16  1  0  0  0  0
 16 17  1  0  0  0  0
 16 18  1  0  0  0  0
 16 19  1  0  0  0  0
M  END
> <VConfSearch Rank>
211

> <Conf_Id>
18

> <Delta U+W>
-1.199

> <U+W>
-56.090

> <U>
5.975

> <W>
-62.066

> <W(PB)>
-64.219

> <W(SA)>
2.153

> <Valence>
6.673

> <Coulomb>
-1.307

> <VdW>
0.610

> <VdW6>
-5.351

> <VdW12>
5.961

> <Bond>
0.086

> <Angle>
2.253

> <Pdih>
4.333

> <Idih>
0.001

> <Tether>
0.000

$$$$
VeraChem MOL file


 19 18  0  0  0  0  0  0  0  0999 V2000     
   17.0613   17.7152   21.6156 C   0  0  0  0  0  0  0  0  0  0  0  0
   16.3560   17.2261   22.4756 O   0  5  0  0  0  0  0  0  0  0  0  0
   16.6442   18.0943   20.5393 O   0  0  0  0  0  0  0  0  0  0  0  0
   18.5476   17.8819   21.9117 C   0  0  0  0  0  0  0  0  0  0  0  0
   19.0911   17.7619   20.9678 H   0  0  0  0  0  0  0  0  0  0  0  0
   18.8569   17.0628   22.5720 H   0  0  0  0  0  0  0  0  0  0  0  0
   18.8801   19.2491   22.5639 C   0  0  0  0  0  0  0  0  0  0  0  0
   18.6068   20.0604   21.8751 H   0  0  0  0  0  0  0  0  0  0  0  0
   18.2521   19.3756   23.4567 H   0  0  0  0  0  0  0  0  0  0  0  0
   20.3640   19.3918   22.9775 C   0  0  0  0  0  0  0  0  0  0  0  0
   20.6317   18.5843   23.6727 H   0  0  0  0  0  0  0  0  0  0  0  0
   20.4821   20.3321   23.5332 H   0  0  0  0  0  0  0  0  0  0  0  0
   21.3387   19.3914   21.7786 C   0  0  0  0  0  0  0  0  0  0  0  0
   21.2918   18.4288   21.2526 H   0  0  0  0  0  0  0  0  0  0  0  0
   21.0407   20.1658   21.0583 H   0  0  0  0  0  0  0  0  0  0  0  0
   22.7907   19.6449   22.2310 C   0  0  0  0  0  0  0  0  0  0  0  0
   23.4709   19.6387   21.3693 H   0  0  0  0  0  0  0  0  0  0  0  0
   22.8833   20.6192   22.7286 H   0  0  0  0  0  0  0  0  0  0  0  0
   23.1245   18.8686   22.9320 H   0  0  0  0  0  0  0  0  0  0  0  0
  1  2  1  0  0  0  0
  1  3  2  0  0  0  0
  1  4  1  0  0  0  0
  4  5  1  0  0  0  0
  4  6  1  0  0  0  0
  4  7  1  0  0  0  0
  7  8  1  0  0  0  0
  7  9  1  0  0  0  0
  7 10  1  0  0  0  0
 10 11  1  0  0  0  0
 10 12  1  0  0  0  0
 10 13  1  0  0  0  0
 13 14  1  0  0  0  0
 13 15  1  0  0  0  0
 13 16  1  0  0  0  0
 16 17  1  0  0  0  0
 16 18  1  0  0  0  0
 16 19  1  0  0  0  0
M  END
> <VConfSearch Rank>
212

> <Conf_Id>
34

> <Delta U+W>
-0.563

> <U+W>
-55.455

> <U>
6.914

> <W>
-62.369

> <W(PB)>
-64.446

> <W(SA)>
2.077

> <Valence>
7.196

> <Coulomb>
-1.020

> <VdW>
0.738

> <VdW6>
-6.010

> <VdW12>
6.748

> <Bond>
0.126

> <Angle>
2.499

> <Pdih>
4.570

> <Idih>
0.001

> <Tether>
0.000

$$$$
VeraChem MOL file


 19 18  0  0  0  0  0  0  0  0999 V2000     
   18.3078   16.7454   23.8612 C   0  0  0  0  0  0  0  0  0  0  0  0
   17.5724   17.0277   24.7862 O   0  5  0  0  0  0  0  0  0  0  0  0
   18.7455   15.6287   23.6670 O   0  0  0  0  0  0  0  0  0  0  0  0
   18.7214   17.8580   22.9045 C   0  0  0  0  0  0  0  0  0  0  0  0
   17.8949   18.5757   22.8395 H   0  0  0  0  0  0  0  0  0  0  0  0
   18.8457   17.4138   21.9104 H   0  0  0  0  0  0  0  0  0  0  0  0
   20.0214   18.5783   23.3477 C   0  0  0  0  0  0  0  0  0  0  0  0
   19.8941   18.9313   24.3805 H   0  0  0  0  0  0  0  0  0  0  0  0
   20.8516   17.8588   23.3661 H   0  0  0  0  0  0  0  0  0  0  0  0
   20.3947   19.7848   22.4541 C   0  0  0  0  0  0  0  0  0  0  0  0
   21.2518   20.3019   22.9068 H   0  0  0  0  0  0  0  0  0  0  0  0
   19.5662   20.5062   22.4446 H   0  0  0  0  0  0  0  0  0  0  0  0
   20.7561   19.3876   21.0052 C   0  0  0  0  0  0  0  0  0  0  0  0
   21.5500   18.6281   21.0161 H   0  0  0  0  0  0  0  0  0  0  0  0
   19.8873   18.9365   20.5082 H   0  0  0  0  0  0  0  0  0  0  0  0
   21.2252   20.6065   20.1857 C   0  0  0  0  0  0  0  0  0  0  0  0
   20.4393   21.3714   20.1352 H   0  0  0  0  0  0  0  0  0  0  0  0
   22.1185   21.0613   20.6336 H   0  0  0  0  0  0  0  0  0  0  0  0
   21.4752   20.3091   19.1590 H   0  0  0  0  0  0  0  0  0  0  0  0
  1  2  1  0  0  0  0
  1  3  2  0  0  0  0
  1  4  1  0  0  0  0
  4  5  1  0  0  0  0
  4  6  1  0  0  0  0
  4  7  1  0  0  0  0
  7  8  1  0  0  0  0
  7  9  1  0  0  0  0
  7 10  1  0  0  0  0
 10 11  1  0  0  0  0
 10 12  1  0  0  0  0
 10 13  1  0  0  0  0
 13 14  1  0  0  0  0
 13 15  1  0  0  0  0
 13 16  1  0  0  0  0
 16 17  1  0  0  0  0
 16 18  1  0  0  0  0
 16 19  1  0  0  0  0
M  END
> <VConfSearch Rank>
213

> <Conf_Id>
33

> <Delta U+W>
-0.526

> <U+W>
-55.418

> <U>
6.914

> <W>
-62.332

> <W(PB)>
-64.421

> <W(SA)>
2.090

> <Valence>
7.196

> <Coulomb>
-1.020

> <VdW>
0.738

> <VdW6>
-6.010

> <VdW12>
6.748

> <Bond>
0.126

> <Angle>
2.499

> <Pdih>
4.570

> <Idih>
0.001

> <Tether>
0.000

$$$$
VeraChem MOL file


 19 18  0  0  0  0  0  0  0  0999 V2000     
   22.7760   19.8622   21.2475 C   0  0  0  0  0  0  0  0  0  0  0  0
   23.6317   19.2291   21.8333 O   0  5  0  0  0  0  0  0  0  0  0  0
   22.8778   20.2200   20.0908 O   0  0  0  0  0  0  0  0  0  0  0  0
   21.4967   20.2118   21.9996 C   0  0  0  0  0  0  0  0  0  0  0  0
   21.1330   21.1755   21.6233 H   0  0  0  0  0  0  0  0  0  0  0  0
   21.7503   20.3515   23.0574 H   0  0  0  0  0  0  0  0  0  0  0  0
   20.3974   19.1309   21.8528 C   0  0  0  0  0  0  0  0  0  0  0  0
   20.1613   18.9958   20.7883 H   0  0  0  0  0  0  0  0  0  0  0  0
   20.7901   18.1727   22.2180 H   0  0  0  0  0  0  0  0  0  0  0  0
   19.1140   19.5094   22.6277 C   0  0  0  0  0  0  0  0  0  0  0  0
   18.7776   20.5022   22.2988 H   0  0  0  0  0  0  0  0  0  0  0  0
   19.3403   19.5965   23.6992 H   0  0  0  0  0  0  0  0  0  0  0  0
   17.9554   18.5061   22.4239 C   0  0  0  0  0  0  0  0  0  0  0  0
   17.0533   18.9065   22.9067 H   0  0  0  0  0  0  0  0  0  0  0  0
   17.7224   18.4205   21.3535 H   0  0  0  0  0  0  0  0  0  0  0  0
   18.2502   17.1063   23.0048 C   0  0  0  0  0  0  0  0  0  0  0  0
   18.5146   17.1700   24.0684 H   0  0  0  0  0  0  0  0  0  0  0  0
   17.3678   16.4597   22.9142 H   0  0  0  0  0  0  0  0  0  0  0  0
   19.0759   16.6173   22.4730 H   0  0  0  0  0  0  0  0  0  0  0  0
  1  2  1  0  0  0  0
  1  3  2  0  0  0  0
  1  4  1  0  0  0  0
  4  5  1  0  0  0  0
  4  6  1  0  0  0  0
  4  7  1  0  0  0  0
  7  8  1  0  0  0  0
  7  9  1  0  0  0  0
  7 10  1  0  0  0  0
 10 11  1  0  0  0  0
 10 12  1  0  0  0  0
 10 13  1  0  0  0  0
 13 14  1  0  0  0  0
 13 15  1  0  0  0  0
 13 16  1  0  0  0  0
 16 17  1  0  0  0  0
 16 18  1  0  0  0  0
 16 19  1  0  0  0  0
M  END
> <VConfSearch Rank>
214

> <Conf_Id>
42

> <Delta U+W>
-0.344

> <U+W>
-55.236

> <U>
7.244

> <W>
-62.479

> <W(PB)>
-64.610

> <W(SA)>
2.130

> <Valence>
7.174

> <Coulomb>
-0.669

> <VdW>
0.739

> <VdW6>
-5.969

> <VdW12>
6.708

> <Bond>
0.116

> <Angle>
2.481

> <Pdih>
4.576

> <Idih>
0.000

> <Tether>
0.000

$$$$
VeraChem MOL file


 19 18  0  0  0  0  0  0  0  0999 V2000     
   20.2999   15.9813   23.3454 C   0  0  0  0  0  0  0  0  0  0  0  0
   21.4534   15.7472   23.6469 O   0  5  0  0  0  0  0  0  0  0  0  0
   19.5447   15.1512   22.8799 O   0  0  0  0  0  0  0  0  0  0  0  0
   19.7766   17.3993   23.5455 C   0  0  0  0  0  0  0  0  0  0  0  0
   20.2857   17.8311   24.4156 H   0  0  0  0  0  0  0  0  0  0  0  0
   18.7098   17.3370   23.7919 H   0  0  0  0  0  0  0  0  0  0  0  0
   19.9870   18.2997   22.3031 C   0  0  0  0  0  0  0  0  0  0  0  0
   21.0583   18.3317   22.0647 H   0  0  0  0  0  0  0  0  0  0  0  0
   19.4796   17.8494   21.4387 H   0  0  0  0  0  0  0  0  0  0  0  0
   19.4509   19.7313   22.5351 C   0  0  0  0  0  0  0  0  0  0  0  0
   19.9927   20.1993   23.3684 H   0  0  0  0  0  0  0  0  0  0  0  0
   18.3976   19.6732   22.8420 H   0  0  0  0  0  0  0  0  0  0  0  0
   19.5484   20.6336   21.2833 C   0  0  0  0  0  0  0  0  0  0  0  0
   19.0028   20.1714   20.4491 H   0  0  0  0  0  0  0  0  0  0  0  0
   19.0429   21.5859   21.4950 H   0  0  0  0  0  0  0  0  0  0  0  0
   21.0021   20.9276   20.8539 C   0  0  0  0  0  0  0  0  0  0  0  0
   21.5142   20.0157   20.5222 H   0  0  0  0  0  0  0  0  0  0  0  0
   21.0188   21.6401   20.0191 H   0  0  0  0  0  0  0  0  0  0  0  0
   21.5759   21.3636   21.6820 H   0  0  0  0  0  0  0  0  0  0  0  0
  1  2  1  0  0  0  0
  1  3  2  0  0  0  0
  1  4  1  0  0  0  0
  4  5  1  0  0  0  0
  4  6  1  0  0  0  0
  4  7  1  0  0  0  0
  7  8  1  0  0  0  0
  7  9  1  0  0  0  0
  7 10  1  0  0  0  0
 10 11  1  0  0  0  0
 10 12  1  0  0  0  0
 10 13  1  0  0  0  0
 13 14  1  0  0  0  0
 13 15  1  0  0  0  0
 13 16  1  0  0  0  0
 16 17  1  0  0  0  0
 16 18  1  0  0  0  0
 16 19  1  0  0  0  0
M  END
> <VConfSearch Rank>
215

> <Conf_Id>
41

> <Delta U+W>
-0.361

> <U+W>
-55.252

> <U>
7.244

> <W>
-62.496

> <W(PB)>
-64.596

> <W(SA)>
2.099

> <Valence>
7.174

> <Coulomb>
-0.669

> <VdW>
0.739

> <VdW6>
-5.969

> <VdW12>
6.708

> <Bond>
0.116

> <Angle>
2.481

> <Pdih>
4.576

> <Idih>
0.000

> <Tether>
0.000

$$$$
VeraChem MOL file


 19 18  0  0  0  0  0  0  0  0999 V2000     
   18.4853   21.4076   23.0661 C   0  0  0  0  0  0  0  0  0  0  0  0
   18.9722   21.5969   24.1633 O   0  5  0  0  0  0  0  0  0  0  0  0
   18.4503   22.2511   22.1921 O   0  0  0  0  0  0  0  0  0  0  0  0
   17.8637   20.0444   22.7755 C   0  0  0  0  0  0  0  0  0  0  0  0
   16.8891   20.2218   22.3056 H   0  0  0  0  0  0  0  0  0  0  0  0
   17.6690   19.5376   23.7285 H   0  0  0  0  0  0  0  0  0  0  0  0
   18.7251   19.1409   21.8552 C   0  0  0  0  0  0  0  0  0  0  0  0
   18.1445   18.2473   21.5887 H   0  0  0  0  0  0  0  0  0  0  0  0
   18.9357   19.6728   20.9169 H   0  0  0  0  0  0  0  0  0  0  0  0
   20.0507   18.7074   22.5201 C   0  0  0  0  0  0  0  0  0  0  0  0
   19.8354   18.1878   23.4638 H   0  0  0  0  0  0  0  0  0  0  0  0
   20.6453   19.5958   22.7744 H   0  0  0  0  0  0  0  0  0  0  0  0
   20.8763   17.7844   21.5996 C   0  0  0  0  0  0  0  0  0  0  0  0
   20.2880   16.8919   21.3452 H   0  0  0  0  0  0  0  0  0  0  0  0
   21.0952   18.3027   20.6557 H   0  0  0  0  0  0  0  0  0  0  0  0
   22.1982   17.3536   22.2658 C   0  0  0  0  0  0  0  0  0  0  0  0
   22.0078   16.8049   23.1976 H   0  0  0  0  0  0  0  0  0  0  0  0
   22.7726   16.6986   21.5979 H   0  0  0  0  0  0  0  0  0  0  0  0
   22.8210   18.2262   22.5030 H   0  0  0  0  0  0  0  0  0  0  0  0
  1  2  1  0  0  0  0
  1  3  2  0  0  0  0
  1  4  1  0  0  0  0
  4  5  1  0  0  0  0
  4  6  1  0  0  0  0
  4  7  1  0  0  0  0
  7  8  1  0  0  0  0
  7  9  1  0  0  0  0
  7 10  1  0  0  0  0
 10 11  1  0  0  0  0
 10 12  1  0  0  0  0
 10 13  1  0  0  0  0
 13 14  1  0  0  0  0
 13 15  1  0  0  0  0
 13 16  1  0  0  0  0
 16 17  1  0  0  0  0
 16 18  1  0  0  0  0
 16 19  1  0  0  0  0
M  END
> <VConfSearch Rank>
216

> <Conf_Id>
36

> <Delta U+W>
-0.079

> <U+W>
-54.971

> <U>
8.266

> <W>
-63.237

> <W(PB)>
-65.340

> <W(SA)>
2.103

> <Valence>
6.935

> <Coulomb>
0.874

> <VdW>
0.457

> <VdW6>
-6.205

> <VdW12>
6.662

> <Bond>
0.107

> <Angle>
2.420

> <Pdih>
4.407

> <Idih>
0.001

> <Tether>
0.000

$$$$
VeraChem MOL file


 19 18  0  0  0  0  0  0  0  0999 V2000     
   17.9412   19.5344   20.6024 C   0  0  0  0  0  0  0  0  0  0  0  0
   17.3422   20.3420   21.2847 O   0  5  0  0  0  0  0  0  0  0  0  0
   17.4178   18.5594   20.1004 O   0  0  0  0  0  0  0  0  0  0  0  0
   19.4272   19.7669   20.3427 C   0  0  0  0  0  0  0  0  0  0  0  0
   19.6604   20.8168   20.5579 H   0  0  0  0  0  0  0  0  0  0  0  0
   19.6001   19.6168   19.2705 H   0  0  0  0  0  0  0  0  0  0  0  0
   20.3634   18.8336   21.1536 C   0  0  0  0  0  0  0  0  0  0  0  0
   20.0991   17.7866   20.9497 H   0  0  0  0  0  0  0  0  0  0  0  0
   21.3953   18.9730   20.8039 H   0  0  0  0  0  0  0  0  0  0  0  0
   20.3000   19.1030   22.6737 C   0  0  0  0  0  0  0  0  0  0  0  0
   19.2736   18.9489   23.0345 H   0  0  0  0  0  0  0  0  0  0  0  0
   20.5522   20.1539   22.8711 H   0  0  0  0  0  0  0  0  0  0  0  0
   21.2618   18.1856   23.4571 C   0  0  0  0  0  0  0  0  0  0  0  0
   21.0102   17.1336   23.2632 H   0  0  0  0  0  0  0  0  0  0  0  0
   22.2908   18.3385   23.1033 H   0  0  0  0  0  0  0  0  0  0  0  0
   21.1961   18.4569   24.9733 C   0  0  0  0  0  0  0  0  0  0  0  0
   20.1838   18.2811   25.3601 H   0  0  0  0  0  0  0  0  0  0  0  0
   21.8855   17.7960   25.5148 H   0  0  0  0  0  0  0  0  0  0  0  0
   21.4739   19.4948   25.1990 H   0  0  0  0  0  0  0  0  0  0  0  0
  1  2  1  0  0  0  0
  1  3  2  0  0  0  0
  1  4  1  0  0  0  0
  4  5  1  0  0  0  0
  4  6  1  0  0  0  0
  4  7  1  0  0  0  0
  7  8  1  0  0  0  0
  7  9  1  0  0  0  0
  7 10  1  0  0  0  0
 10 11  1  0  0  0  0
 10 12  1  0  0  0  0
 10 13  1  0  0  0  0
 13 14  1  0  0  0  0
 13 15  1  0  0  0  0
 13 16  1  0  0  0  0
 16 17  1  0  0  0  0
 16 18  1  0  0  0  0
 16 19  1  0  0  0  0
M  END
> <VConfSearch Rank>
217

> <Conf_Id>
35

> <Delta U+W>
-0.030

> <U+W>
-54.921

> <U>
8.267

> <W>
-63.188

> <W(PB)>
-65.294

> <W(SA)>
2.106

> <Valence>
6.935

> <Coulomb>
0.875

> <VdW>
0.457

> <VdW6>
-6.205

> <VdW12>
6.662

> <Bond>
0.107

> <Angle>
2.420

> <Pdih>
4.407

> <Idih>
0.001

> <Tether>
0.000

$$$$
VeraChem MOL file


 19 18  0  0  0  0  0  0  0  0999 V2000     
   20.7246   17.1216   24.5574 C   0  0  0  0  0  0  0  0  0  0  0  0
   21.6969   16.4204   24.3577 O   0  5  0  0  0  0  0  0  0  0  0  0
   19.6721   16.7012   24.9956 O   0  0  0  0  0  0  0  0  0  0  0  0
   20.8410   18.6143   24.2615 C   0  0  0  0  0  0  0  0  0  0  0  0
   21.7903   18.9594   24.6880 H   0  0  0  0  0  0  0  0  0  0  0  0
   20.0423   19.1415   24.7973 H   0  0  0  0  0  0  0  0  0  0  0  0
   20.7946   18.9660   22.7515 C   0  0  0  0  0  0  0  0  0  0  0  0
   21.0386   20.0295   22.6341 H   0  0  0  0  0  0  0  0  0  0  0  0
   21.5742   18.4009   22.2222 H   0  0  0  0  0  0  0  0  0  0  0  0
   19.4136   18.6760   22.1163 C   0  0  0  0  0  0  0  0  0  0  0  0
   18.6410   19.2711   22.6220 H   0  0  0  0  0  0  0  0  0  0  0  0
   19.1527   17.6222   22.2854 H   0  0  0  0  0  0  0  0  0  0  0  0
   19.3670   18.9517   20.5956 C   0  0  0  0  0  0  0  0  0  0  0  0
   20.1374   18.3560   20.0868 H   0  0  0  0  0  0  0  0  0  0  0  0
   18.3998   18.6065   20.2049 H   0  0  0  0  0  0  0  0  0  0  0  0
   19.5427   20.4434   20.2382 C   0  0  0  0  0  0  0  0  0  0  0  0
   20.5439   20.8044   20.5044 H   0  0  0  0  0  0  0  0  0  0  0  0
   19.4106   20.5974   19.1594 H   0  0  0  0  0  0  0  0  0  0  0  0
   18.8022   21.0626   20.7610 H   0  0  0  0  0  0  0  0  0  0  0  0
  1  2  1  0  0  0  0
  1  3  2  0  0  0  0
  1  4  1  0  0  0  0
  4  5  1  0  0  0  0
  4  6  1  0  0  0  0
  4  7  1  0  0  0  0
  7  8  1  0  0  0  0
  7  9  1  0  0  0  0
  7 10  1  0  0  0  0
 10 11  1  0  0  0  0
 10 12  1  0  0  0  0
 10 13  1  0  0  0  0
 13 14  1  0  0  0  0
 13 15  1  0  0  0  0
 13 16  1  0  0  0  0
 16 17  1  0  0  0  0
 16 18  1  0  0  0  0
 16 19  1  0  0  0  0
M  END
> <VConfSearch Rank>
218

> <Conf_Id>
74

> <Delta U+W>
0.797

> <U+W>
-54.095

> <U>
8.869

> <W>
-62.964

> <W(PB)>
-65.046

> <W(SA)>
2.082

> <Valence>
7.469

> <Coulomb>
0.762

> <VdW>
0.639

> <VdW6>
-6.782

> <VdW12>
7.421

> <Bond>
0.141

> <Angle>
2.667

> <Pdih>
4.660

> <Idih>
0.001

> <Tether>
0.000

$$$$
VeraChem MOL file


 19 18  0  0  0  0  0  0  0  0999 V2000     
   22.4927   20.0835   21.3347 C   0  0  0  0  0  0  0  0  0  0  0  0
   22.6731   21.0708   20.6498 O   0  5  0  0  0  0  0  0  0  0  0  0
   23.3369   19.6128   22.0709 O   0  0  0  0  0  0  0  0  0  0  0  0
   21.1260   19.4100   21.2812 C   0  0  0  0  0  0  0  0  0  0  0  0
   21.2771   18.3356   21.4361 H   0  0  0  0  0  0  0  0  0  0  0  0
   20.7209   19.5402   20.2706 H   0  0  0  0  0  0  0  0  0  0  0  0
   20.1357   19.9764   22.3315 C   0  0  0  0  0  0  0  0  0  0  0  0
   20.5337   19.8064   23.3407 H   0  0  0  0  0  0  0  0  0  0  0  0
   20.0766   21.0666   22.2082 H   0  0  0  0  0  0  0  0  0  0  0  0
   18.7066   19.3891   22.2152 C   0  0  0  0  0  0  0  0  0  0  0  0
   18.2896   19.6594   21.2355 H   0  0  0  0  0  0  0  0  0  0  0  0
   18.0641   19.8745   22.9624 H   0  0  0  0  0  0  0  0  0  0  0  0
   18.6077   17.8539   22.3921 C   0  0  0  0  0  0  0  0  0  0  0  0
   17.5569   17.5556   22.2746 H   0  0  0  0  0  0  0  0  0  0  0  0
   19.1589   17.3435   21.5912 H   0  0  0  0  0  0  0  0  0  0  0  0
   19.1123   17.3630   23.7660 C   0  0  0  0  0  0  0  0  0  0  0  0
   18.5901   17.8775   24.5831 H   0  0  0  0  0  0  0  0  0  0  0  0
   18.9364   16.2852   23.8772 H   0  0  0  0  0  0  0  0  0  0  0  0
   20.1896   17.5376   23.8808 H   0  0  0  0  0  0  0  0  0  0  0  0
  1  2  1  0  0  0  0
  1  3  2  0  0  0  0
  1  4  1  0  0  0  0
  4  5  1  0  0  0  0
  4  6  1  0  0  0  0
  4  7  1  0  0  0  0
  7  8  1  0  0  0  0
  7  9  1  0  0  0  0
  7 10  1  0  0  0  0
 10 11  1  0  0  0  0
 10 12  1  0  0  0  0
 10 13  1  0  0  0  0
 13 14  1  0  0  0  0
 13 15  1  0  0  0  0
 13 16  1  0  0  0  0
 16 17  1  0  0  0  0
 16 18  1  0  0  0  0
 16 19  1  0  0  0  0
M  END
> <VConfSearch Rank>
219

> <Conf_Id>
67

> <Delta U+W>
0.308

> <U+W>
-54.583

> <U>
8.219

> <W>
-62.802

> <W(PB)>
-64.859

> <W(SA)>
2.057

> <Valence>
7.609

> <Coulomb>
-0.089

> <VdW>
0.699

> <VdW6>
-6.924

> <VdW12>
7.623

> <Bond>
0.163

> <Angle>
2.870

> <Pdih>
4.576

> <Idih>
0.001

> <Tether>
0.000

$$$$
VeraChem MOL file


 19 18  0  0  0  0  0  0  0  0999 V2000     
   17.2966   19.0893   21.1397 C   0  0  0  0  0  0  0  0  0  0  0  0
   16.2258   18.7975   21.6345 O   0  5  0  0  0  0  0  0  0  0  0  0
   17.4936   19.1332   19.9416 O   0  0  0  0  0  0  0  0  0  0  0  0
   18.4612   19.3979   22.0739 C   0  0  0  0  0  0  0  0  0  0  0  0
   18.0566   19.8604   22.9821 H   0  0  0  0  0  0  0  0  0  0  0  0
   19.0946   20.1449   21.5820 H   0  0  0  0  0  0  0  0  0  0  0  0
   19.2891   18.1384   22.4382 C   0  0  0  0  0  0  0  0  0  0  0  0
   18.6103   17.3757   22.8441 H   0  0  0  0  0  0  0  0  0  0  0  0
   19.7205   17.7059   21.5257 H   0  0  0  0  0  0  0  0  0  0  0  0
   20.4041   18.4100   23.4792 C   0  0  0  0  0  0  0  0  0  0  0  0
   20.9082   17.4619   23.7112 H   0  0  0  0  0  0  0  0  0  0  0  0
   19.9409   18.7445   24.4175 H   0  0  0  0  0  0  0  0  0  0  0  0
   21.4679   19.4504   23.0506 C   0  0  0  0  0  0  0  0  0  0  0  0
   21.0019   20.4351   22.9137 H   0  0  0  0  0  0  0  0  0  0  0  0
   22.1911   19.5684   23.8692 H   0  0  0  0  0  0  0  0  0  0  0  0
   22.2303   19.0526   21.7684 C   0  0  0  0  0  0  0  0  0  0  0  0
   21.5633   19.0350   20.8972 H   0  0  0  0  0  0  0  0  0  0  0  0
   23.0319   19.7726   21.5591 H   0  0  0  0  0  0  0  0  0  0  0  0
   22.6861   18.0596   21.8744 H   0  0  0  0  0  0  0  0  0  0  0  0
  1  2  1  0  0  0  0
  1  3  2  0  0  0  0
  1  4  1  0  0  0  0
  4  5  1  0  0  0  0
  4  6  1  0  0  0  0
  4  7  1  0  0  0  0
  7  8  1  0  0  0  0
  7  9  1  0  0  0  0
  7 10  1  0  0  0  0
 10 11  1  0  0  0  0
 10 12  1  0  0  0  0
 10 13  1  0  0  0  0
 13 14  1  0  0  0  0
 13 15  1  0  0  0  0
 13 16  1  0  0  0  0
 16 17  1  0  0  0  0
 16 18  1  0  0  0  0
 16 19  1  0  0  0  0
M  END
> <VConfSearch Rank>
220

> <Conf_Id>
21

> <Delta U+W>
0.319

> <U+W>
-54.572

> <U>
8.220

> <W>
-62.792

> <W(PB)>
-64.830

> <W(SA)>
2.038

> <Valence>
7.609

> <Coulomb>
-0.088

> <VdW>
0.699

> <VdW6>
-6.924

> <VdW12>
7.623

> <Bond>
0.163

> <Angle>
2.870

> <Pdih>
4.576

> <Idih>
0.000

> <Tether>
0.000

$$$$
VeraChem MOL file


 19 18  0  0  0  0  0  0  0  0999 V2000     
   22.6450   20.0229   22.6069 C   0  0  0  0  0  0  0  0  0  0  0  0
   23.0297   21.0092   23.2033 O   0  5  0  0  0  0  0  0  0  0  0  0
   23.3638   19.0845   22.3257 O   0  0  0  0  0  0  0  0  0  0  0  0
   21.1759   19.9514   22.2061 C   0  0  0  0  0  0  0  0  0  0  0  0
   21.1098   19.3830   21.2731 H   0  0  0  0  0  0  0  0  0  0  0  0
   20.8360   20.9699   21.9839 H   0  0  0  0  0  0  0  0  0  0  0  0
   20.2826   19.3218   23.3076 C   0  0  0  0  0  0  0  0  0  0  0  0
   20.6568   18.3235   23.5734 H   0  0  0  0  0  0  0  0  0  0  0  0
   20.3803   19.9360   24.2134 H   0  0  0  0  0  0  0  0  0  0  0  0
   18.7842   19.2472   22.9187 C   0  0  0  0  0  0  0  0  0  0  0  0
   18.5272   20.0666   22.2336 H   0  0  0  0  0  0  0  0  0  0  0  0
   18.1875   19.4177   23.8252 H   0  0  0  0  0  0  0  0  0  0  0  0
   18.3392   17.8914   22.3173 C   0  0  0  0  0  0  0  0  0  0  0  0
   18.5184   17.0888   23.0460 H   0  0  0  0  0  0  0  0  0  0  0  0
   17.2529   17.9221   22.1554 H   0  0  0  0  0  0  0  0  0  0  0  0
   19.0272   17.5342   20.9836 C   0  0  0  0  0  0  0  0  0  0  0  0
   18.5751   16.6338   20.5480 H   0  0  0  0  0  0  0  0  0  0  0  0
   18.9256   18.3501   20.2564 H   0  0  0  0  0  0  0  0  0  0  0  0
   20.0946   17.3283   21.1320 H   0  0  0  0  0  0  0  0  0  0  0  0
  1  2  1  0  0  0  0
  1  3  2  0  0  0  0
  1  4  1  0  0  0  0
  4  5  1  0  0  0  0
  4  6  1  0  0  0  0
  4  7  1  0  0  0  0
  7  8  1  0  0  0  0
  7  9  1  0  0  0  0
  7 10  1  0  0  0  0
 10 11  1  0  0  0  0
 10 12  1  0  0  0  0
 10 13  1  0  0  0  0
 13 14  1  0  0  0  0
 13 15  1  0  0  0  0
 13 16  1  0  0  0  0
 16 17  1  0  0  0  0
 16 18  1  0  0  0  0
 16 19  1  0  0  0  0
M  END
> <VConfSearch Rank>
221

> <Conf_Id>
24

> <Delta U+W>
2.477

> <U+W>
-52.414

> <U>
10.422

> <W>
-62.836

> <W(PB)>
-64.906

> <W(SA)>
2.070

> <Valence>
9.628

> <Coulomb>
0.101

> <VdW>
0.693

> <VdW6>
-6.927

> <VdW12>
7.620

> <Bond>
0.173

> <Angle>
2.989

> <Pdih>
6.465

> <Idih>
0.001

> <Tether>
0.000

$$$$
VeraChem MOL file


 19 18  0  0  0  0  0  0  0  0999 V2000     
   21.9772   18.0884   21.1917 C   0  0  0  0  0  0  0  0  0  0  0  0
   22.1075   17.1111   21.9020 O   0  5  0  0  0  0  0  0  0  0  0  0
   22.2984   18.1135   20.0198 O   0  0  0  0  0  0  0  0  0  0  0  0
   21.4071   19.3630   21.8087 C   0  0  0  0  0  0  0  0  0  0  0  0
   22.0713   20.1866   21.5217 H   0  0  0  0  0  0  0  0  0  0  0  0
   21.4681   19.2764   22.8982 H   0  0  0  0  0  0  0  0  0  0  0  0
   19.9575   19.6905   21.3546 C   0  0  0  0  0  0  0  0  0  0  0  0
   19.6909   20.7091   21.6670 H   0  0  0  0  0  0  0  0  0  0  0  0
   19.9392   19.6974   20.2559 H   0  0  0  0  0  0  0  0  0  0  0  0
   18.8890   18.6892   21.8656 C   0  0  0  0  0  0  0  0  0  0  0  0
   19.3264   17.6891   21.9891 H   0  0  0  0  0  0  0  0  0  0  0  0
   18.1210   18.5839   21.0872 H   0  0  0  0  0  0  0  0  0  0  0  0
   18.1734   19.1184   23.1701 C   0  0  0  0  0  0  0  0  0  0  0  0
   17.6622   20.0780   23.0122 H   0  0  0  0  0  0  0  0  0  0  0  0
   17.3869   18.3843   23.3931 H   0  0  0  0  0  0  0  0  0  0  0  0
   19.1056   19.2297   24.3941 C   0  0  0  0  0  0  0  0  0  0  0  0
   19.8036   20.0689   24.2846 H   0  0  0  0  0  0  0  0  0  0  0  0
   18.5215   19.4026   25.3072 H   0  0  0  0  0  0  0  0  0  0  0  0
   19.6861   18.3079   24.5318 H   0  0  0  0  0  0  0  0  0  0  0  0
  1  2  1  0  0  0  0
  1  3  2  0  0  0  0
  1  4  1  0  0  0  0
  4  5  1  0  0  0  0
  4  6  1  0  0  0  0
  4  7  1  0  0  0  0
  7  8  1  0  0  0  0
  7  9  1  0  0  0  0
  7 10  1  0  0  0  0
 10 11  1  0  0  0  0
 10 12  1  0  0  0  0
 10 13  1  0  0  0  0
 13 14  1  0  0  0  0
 13 15  1  0  0  0  0
 13 16  1  0  0  0  0
 16 17  1  0  0  0  0
 16 18  1  0  0  0  0
 16 19  1  0  0  0  0
M  END
> <VConfSearch Rank>
222

> <Conf_Id>
4

> <Delta U+W>
3.753

> <U+W>
-51.138

> <U>
12.334

> <W>
-63.472

> <W(PB)>
-65.500

> <W(SA)>
2.028

> <Valence>
9.984

> <Coulomb>
1.767

> <VdW>
0.583

> <VdW6>
-7.767

> <VdW12>
8.349

> <Bond>
0.203

> <Angle>
3.191

> <Pdih>
6.589

> <Idih>
0.001

> <Tether>
0.000

$$$$
VeraChem MOL file


 19 18  0  0  0  0  0  0  0  0999 V2000     
   22.4650   18.5816   22.8995 C   0  0  0  0  0  0  0  0  0  0  0  0
   23.3715   19.3898   22.9455 O   0  5  0  0  0  0  0  0  0  0  0  0
   22.3357   17.6729   23.6960 O   0  0  0  0  0  0  0  0  0  0  0  0
   21.4532   18.6995   21.7626 C   0  0  0  0  0  0  0  0  0  0  0  0
   20.9147   17.7501   21.6798 H   0  0  0  0  0  0  0  0  0  0  0  0
   22.0229   18.8192   20.8336 H   0  0  0  0  0  0  0  0  0  0  0  0
   20.4663   19.8899   21.9166 C   0  0  0  0  0  0  0  0  0  0  0  0
   21.0576   20.8043   22.0644 H   0  0  0  0  0  0  0  0  0  0  0  0
   19.9121   20.0372   20.9799 H   0  0  0  0  0  0  0  0  0  0  0  0
   19.4708   19.7427   23.0968 C   0  0  0  0  0  0  0  0  0  0  0  0
   19.2900   20.7417   23.5165 H   0  0  0  0  0  0  0  0  0  0  0  0
   19.9209   19.1559   23.9092 H   0  0  0  0  0  0  0  0  0  0  0  0
   18.0957   19.1442   22.7109 C   0  0  0  0  0  0  0  0  0  0  0  0
   17.4472   19.1627   23.5976 H   0  0  0  0  0  0  0  0  0  0  0  0
   17.6109   19.7857   21.9622 H   0  0  0  0  0  0  0  0  0  0  0  0
   18.1637   17.6976   22.1795 C   0  0  0  0  0  0  0  0  0  0  0  0
   18.7103   17.0479   22.8756 H   0  0  0  0  0  0  0  0  0  0  0  0
   17.1536   17.2869   22.0539 H   0  0  0  0  0  0  0  0  0  0  0  0
   18.6601   17.6584   21.2021 H   0  0  0  0  0  0  0  0  0  0  0  0
  1  2  1  0  0  0  0
  1  3  2  0  0  0  0
  1  4  1  0  0  0  0
  4  5  1  0  0  0  0
  4  6  1  0  0  0  0
  4  7  1  0  0  0  0
  7  8  1  0  0  0  0
  7  9  1  0  0  0  0
  7 10  1  0  0  0  0
 10 11  1  0  0  0  0
 10 12  1  0  0  0  0
 10 13  1  0  0  0  0
 13 14  1  0  0  0  0
 13 15  1  0  0  0  0
 13 16  1  0  0  0  0
 16 17  1  0  0  0  0
 16 18  1  0  0  0  0
 16 19  1  0  0  0  0
M  END
> <VConfSearch Rank>
223

> <Conf_Id>
73

> <Delta U+W>
3.707

> <U+W>
-51.184

> <U>
12.334

> <W>
-63.519

> <W(PB)>
-65.541

> <W(SA)>
2.022

> <Valence>
9.984

> <Coulomb>
1.768

> <VdW>
0.583

> <VdW6>
-7.767

> <VdW12>
8.350

> <Bond>
0.203

> <Angle>
3.192

> <Pdih>
6.589

> <Idih>
0.001

> <Tether>
0.000

$$$$
VeraChem MOL file


 19 18  0  0  0  0  0  0  0  0999 V2000     
   19.1499   16.5347   22.5449 C   0  0  0  0  0  0  0  0  0  0  0  0
   20.2174   16.1091   22.9401 O   0  5  0  0  0  0  0  0  0  0  0  0
   18.0775   16.0684   22.8759 O   0  0  0  0  0  0  0  0  0  0  0  0
   19.1543   17.6962   21.5548 C   0  0  0  0  0  0  0  0  0  0  0  0
   18.5137   17.4096   20.7127 H   0  0  0  0  0  0  0  0  0  0  0  0
   20.1666   17.8096   21.1500 H   0  0  0  0  0  0  0  0  0  0  0  0
   18.6505   19.0396   22.1495 C   0  0  0  0  0  0  0  0  0  0  0  0
   18.6166   19.7965   21.3554 H   0  0  0  0  0  0  0  0  0  0  0  0
   17.6126   18.9082   22.4852 H   0  0  0  0  0  0  0  0  0  0  0  0
   19.4926   19.5694   23.3388 C   0  0  0  0  0  0  0  0  0  0  0  0
   19.4200   18.8590   24.1737 H   0  0  0  0  0  0  0  0  0  0  0  0
   19.0440   20.5051   23.6990 H   0  0  0  0  0  0  0  0  0  0  0  0
   20.9888   19.8186   23.0280 C   0  0  0  0  0  0  0  0  0  0  0  0
   21.4815   20.1731   23.9437 H   0  0  0  0  0  0  0  0  0  0  0  0
   21.4822   18.8730   22.7658 H   0  0  0  0  0  0  0  0  0  0  0  0
   21.2168   20.8561   21.9076 C   0  0  0  0  0  0  0  0  0  0  0  0
   20.8390   20.4919   20.9440 H   0  0  0  0  0  0  0  0  0  0  0  0
   20.7126   21.8030   22.1406 H   0  0  0  0  0  0  0  0  0  0  0  0
   22.2881   21.0631   21.7882 H   0  0  0  0  0  0  0  0  0  0  0  0
  1  2  1  0  0  0  0
  1  3  2  0  0  0  0
  1  4  1  0  0  0  0
  4  5  1  0  0  0  0
  4  6  1  0  0  0  0
  4  7  1  0  0  0  0
  7  8  1  0  0  0  0
  7  9  1  0  0  0  0
  7 10  1  0  0  0  0
 10 11  1  0  0  0  0
 10 12  1  0  0  0  0
 10 13  1  0  0  0  0
 13 14  1  0  0  0  0
 13 15  1  0  0  0  0
 13 16  1  0  0  0  0
 16 17  1  0  0  0  0
 16 18  1  0  0  0  0
 16 19  1  0  0  0  0
M  END
> <VConfSearch Rank>
224

> <Conf_Id>
56

> <Delta U+W>
1.735

> <U+W>
-53.156

> <U>
10.214

> <W>
-63.370

> <W(PB)>
-65.388

> <W(SA)>
2.018

> <Valence>
7.868

> <Coulomb>
1.968

> <VdW>
0.378

> <VdW6>
-8.067

> <VdW12>
8.445

> <Bond>
0.191

> <Angle>
3.117

> <Pdih>
4.559

> <Idih>
0.001

> <Tether>
0.000

$$$$
VeraChem MOL file


 19 18  0  0  0  0  0  0  0  0999 V2000     
   22.6880   17.9325   21.9822 C   0  0  0  0  0  0  0  0  0  0  0  0
   23.3510   17.5252   22.9155 O   0  5  0  0  0  0  0  0  0  0  0  0
   23.1451   18.1500   20.8776 O   0  0  0  0  0  0  0  0  0  0  0  0
   21.2065   18.2058   22.2161 C   0  0  0  0  0  0  0  0  0  0  0  0
   20.8449   17.5014   22.9746 H   0  0  0  0  0  0  0  0  0  0  0  0
   20.6776   17.9861   21.2821 H   0  0  0  0  0  0  0  0  0  0  0  0
   20.9276   19.6634   22.6619 C   0  0  0  0  0  0  0  0  0  0  0  0
   21.5782   19.9006   23.5150 H   0  0  0  0  0  0  0  0  0  0  0  0
   21.2171   20.3501   21.8545 H   0  0  0  0  0  0  0  0  0  0  0  0
   19.4592   19.9355   23.0743 C   0  0  0  0  0  0  0  0  0  0  0  0
   19.4005   20.9774   23.4177 H   0  0  0  0  0  0  0  0  0  0  0  0
   19.1910   19.3194   23.9435 H   0  0  0  0  0  0  0  0  0  0  0  0
   18.4222   19.7431   21.9400 C   0  0  0  0  0  0  0  0  0  0  0  0
   17.6309   20.4964   22.0570 H   0  0  0  0  0  0  0  0  0  0  0  0
   18.8857   19.9366   20.9627 H   0  0  0  0  0  0  0  0  0  0  0  0
   17.7574   18.3486   21.9513 C   0  0  0  0  0  0  0  0  0  0  0  0
   17.0204   18.2686   21.1418 H   0  0  0  0  0  0  0  0  0  0  0  0
   18.4900   17.5450   21.8166 H   0  0  0  0  0  0  0  0  0  0  0  0
   17.2336   18.1738   22.9000 H   0  0  0  0  0  0  0  0  0  0  0  0
  1  2  1  0  0  0  0
  1  3  2  0  0  0  0
  1  4  1  0  0  0  0
  4  5  1  0  0  0  0
  4  6  1  0  0  0  0
  4  7  1  0  0  0  0
  7  8  1  0  0  0  0
  7  9  1  0  0  0  0
  7 10  1  0  0  0  0
 10 11  1  0  0  0  0
 10 12  1  0  0  0  0
 10 13  1  0  0  0  0
 13 14  1  0  0  0  0
 13 15  1  0  0  0  0
 13 16  1  0  0  0  0
 16 17  1  0  0  0  0
 16 18  1  0  0  0  0
 16 19  1  0  0  0  0
M  END
> <VConfSearch Rank>
225

> <Conf_Id>
53

> <Delta U+W>
2.279

> <U+W>
-52.612

> <U>
10.231

> <W>
-62.843

> <W(PB)>
-64.893

> <W(SA)>
2.050

> <Valence>
9.644

> <Coulomb>
-0.164

> <VdW>
0.751

> <VdW6>
-6.881

> <VdW12>
7.631

> <Bond>
0.163

> <Angle>
2.998

> <Pdih>
6.482

> <Idih>
0.001

> <Tether>
0.000

$$$$
VeraChem MOL file


 19 18  0  0  0  0  0  0  0  0999 V2000     
   18.8189   19.8708   24.2627 C   0  0  0  0  0  0  0  0  0  0  0  0
   19.6221   20.5154   24.9078 O   0  5  0  0  0  0  0  0  0  0  0  0
   18.1244   18.9954   24.7409 O   0  0  0  0  0  0  0  0  0  0  0  0
   18.6239   20.2289   22.7906 C   0  0  0  0  0  0  0  0  0  0  0  0
   19.2824   21.0687   22.5374 H   0  0  0  0  0  0  0  0  0  0  0  0
   17.5958   20.5974   22.6965 H   0  0  0  0  0  0  0  0  0  0  0  0
   18.8349   19.0588   21.7889 C   0  0  0  0  0  0  0  0  0  0  0  0
   18.3363   18.1529   22.1606 H   0  0  0  0  0  0  0  0  0  0  0  0
   18.3266   19.3200   20.8509 H   0  0  0  0  0  0  0  0  0  0  0  0
   20.3150   18.7504   21.4526 C   0  0  0  0  0  0  0  0  0  0  0  0
   20.8054   19.6580   21.0750 H   0  0  0  0  0  0  0  0  0  0  0  0
   20.3343   18.0238   20.6288 H   0  0  0  0  0  0  0  0  0  0  0  0
   21.1240   18.1778   22.6372 C   0  0  0  0  0  0  0  0  0  0  0  0
   21.2315   18.9373   23.4221 H   0  0  0  0  0  0  0  0  0  0  0  0
   20.5844   17.3300   23.0816 H   0  0  0  0  0  0  0  0  0  0  0  0
   22.5277   17.7186   22.1938 C   0  0  0  0  0  0  0  0  0  0  0  0
   23.0979   18.5550   21.7689 H   0  0  0  0  0  0  0  0  0  0  0  0
   23.0922   17.3227   23.0480 H   0  0  0  0  0  0  0  0  0  0  0  0
   22.4618   16.9275   21.4354 H   0  0  0  0  0  0  0  0  0  0  0  0
  1  2  1  0  0  0  0
  1  3  2  0  0  0  0
  1  4  1  0  0  0  0
  4  5  1  0  0  0  0
  4  6  1  0  0  0  0
  4  7  1  0  0  0  0
  7  8  1  0  0  0  0
  7  9  1  0  0  0  0
  7 10  1  0  0  0  0
 10 11  1  0  0  0  0
 10 12  1  0  0  0  0
 10 13  1  0  0  0  0
 13 14  1  0  0  0  0
 13 15  1  0  0  0  0
 13 16  1  0  0  0  0
 16 17  1  0  0  0  0
 16 18  1  0  0  0  0
 16 19  1  0  0  0  0
M  END
> <VConfSearch Rank>
226

> <Conf_Id>
25

> <Delta U+W>
2.065

> <U+W>
-52.826

> <U>
10.967

> <W>
-63.794

> <W(PB)>
-65.830

> <W(SA)>
2.036

> <Valence>
8.609

> <Coulomb>
1.892

> <VdW>
0.467

> <VdW6>
-7.569

> <VdW12>
8.036

> <Bond>
0.170

> <Angle>
3.195

> <Pdih>
5.237

> <Idih>
0.007

> <Tether>
0.000

$$$$
VeraChem MOL file


 19 18  0  0  0  0  0  0  0  0999 V2000     
   22.1147   18.4395   23.8025 C   0  0  0  0  0  0  0  0  0  0  0  0
   21.8654   18.6533   24.9727 O   0  5  0  0  0  0  0  0  0  0  0  0
   22.9769   19.0306   23.1828 O   0  0  0  0  0  0  0  0  0  0  0  0
   21.3542   17.3219   23.0911 C   0  0  0  0  0  0  0  0  0  0  0  0
   21.6130   16.3928   23.6120 H   0  0  0  0  0  0  0  0  0  0  0  0
   21.7372   17.2248   22.0680 H   0  0  0  0  0  0  0  0  0  0  0  0
   19.8074   17.4776   23.0741 C   0  0  0  0  0  0  0  0  0  0  0  0
   19.3695   16.4882   22.8847 H   0  0  0  0  0  0  0  0  0  0  0  0
   19.4504   17.7806   24.0682 H   0  0  0  0  0  0  0  0  0  0  0  0
   19.2639   18.4477   21.9960 C   0  0  0  0  0  0  0  0  0  0  0  0
   18.1692   18.3570   21.9749 H   0  0  0  0  0  0  0  0  0  0  0  0
   19.6185   18.1349   21.0044 H   0  0  0  0  0  0  0  0  0  0  0  0
   19.6339   19.9278   22.2365 C   0  0  0  0  0  0  0  0  0  0  0  0
   19.3716   20.2151   23.2641 H   0  0  0  0  0  0  0  0  0  0  0  0
   20.7173   20.0674   22.1305 H   0  0  0  0  0  0  0  0  0  0  0  0
   18.9126   20.8598   21.2420 C   0  0  0  0  0  0  0  0  0  0  0  0
   19.1926   21.9061   21.4205 H   0  0  0  0  0  0  0  0  0  0  0  0
   19.1786   20.6095   20.2066 H   0  0  0  0  0  0  0  0  0  0  0  0
   17.8227   20.7784   21.3458 H   0  0  0  0  0  0  0  0  0  0  0  0
  1  2  1  0  0  0  0
  1  3  2  0  0  0  0
  1  4  1  0  0  0  0
  4  5  1  0  0  0  0
  4  6  1  0  0  0  0
  4  7  1  0  0  0  0
  7  8  1  0  0  0  0
  7  9  1  0  0  0  0
  7 10  1  0  0  0  0
 10 11  1  0  0  0  0
 10 12  1  0  0  0  0
 10 13  1  0  0  0  0
 13 14  1  0  0  0  0
 13 15  1  0  0  0  0
 13 16  1  0  0  0  0
 16 17  1  0  0  0  0
 16 18  1  0  0  0  0
 16 19  1  0  0  0  0
M  END
> <VConfSearch Rank>
227

> <Conf_Id>
52

> <Delta U+W>
2.070

> <U+W>
-52.822

> <U>
10.967

> <W>
-63.789

> <W(PB)>
-65.837

> <W(SA)>
2.048

> <Valence>
8.609

> <Coulomb>
1.892

> <VdW>
0.467

> <VdW6>
-7.569

> <VdW12>
8.035

> <Bond>
0.170

> <Angle>
3.196

> <Pdih>
5.237

> <Idih>
0.007

> <Tether>
0.000

$$$$
VeraChem MOL file


 19 18  0  0  0  0  0  0  0  0999 V2000     
   19.2353   20.3997   23.9977 C   0  0  0  0  0  0  0  0  0  0  0  0
   18.3749   21.0725   23.4636 O   0  5  0  0  0  0  0  0  0  0  0  0
   19.1003   19.8970   25.0958 O   0  0  0  0  0  0  0  0  0  0  0  0
   20.6008   20.2804   23.3191 C   0  0  0  0  0  0  0  0  0  0  0  0
   21.1976   19.5269   23.8469 H   0  0  0  0  0  0  0  0  0  0  0  0
   21.1021   21.2422   23.4769 H   0  0  0  0  0  0  0  0  0  0  0  0
   20.5735   19.9728   21.7947 C   0  0  0  0  0  0  0  0  0  0  0  0
   19.7770   20.5530   21.3087 H   0  0  0  0  0  0  0  0  0  0  0  0
   21.5140   20.3375   21.3603 H   0  0  0  0  0  0  0  0  0  0  0  0
   20.4383   18.4744   21.4210 C   0  0  0  0  0  0  0  0  0  0  0  0
   21.2903   17.9090   21.8229 H   0  0  0  0  0  0  0  0  0  0  0  0
   20.5224   18.3986   20.3282 H   0  0  0  0  0  0  0  0  0  0  0  0
   19.1051   17.8120   21.8452 C   0  0  0  0  0  0  0  0  0  0  0  0
   18.3245   18.5730   21.9821 H   0  0  0  0  0  0  0  0  0  0  0  0
   18.7568   17.1624   21.0304 H   0  0  0  0  0  0  0  0  0  0  0  0
   19.2446   16.9511   23.1190 C   0  0  0  0  0  0  0  0  0  0  0  0
   19.9504   16.1259   22.9582 H   0  0  0  0  0  0  0  0  0  0  0  0
   19.6049   17.5443   23.9675 H   0  0  0  0  0  0  0  0  0  0  0  0
   18.2759   16.5175   23.3988 H   0  0  0  0  0  0  0  0  0  0  0  0
  1  2  1  0  0  0  0
  1  3  2  0  0  0  0
  1  4  1  0  0  0  0
  4  5  1  0  0  0  0
  4  6  1  0  0  0  0
  4  7  1  0  0  0  0
  7  8  1  0  0  0  0
  7  9  1  0  0  0  0
  7 10  1  0  0  0  0
 10 11  1  0  0  0  0
 10 12  1  0  0  0  0
 10 13  1  0  0  0  0
 13 14  1  0  0  0  0
 13 15  1  0  0  0  0
 13 16  1  0  0  0  0
 16 17  1  0  0  0  0
 16 18  1  0  0  0  0
 16 19  1  0  0  0  0
M  END
> <VConfSearch Rank>
228

> <Conf_Id>
66

> <Delta U+W>
5.819

> <U+W>
-49.072

> <U>
15.324

> <W>
-64.396

> <W(PB)>
-66.382

> <W(SA)>
1.986

> <Valence>
11.748

> <Coulomb>
3.201

> <VdW>
0.375

> <VdW6>
-8.854

> <VdW12>
9.229

> <Bond>
0.216

> <Angle>
3.812

> <Pdih>
7.699

> <Idih>
0.022

> <Tether>
0.000

$$$$
VeraChem MOL file


 19 18  0  0  0  0  0  0  0  0999 V2000     
   20.3938   17.5641   25.2475 C   0  0  0  0  0  0  0  0  0  0  0  0
   19.9815   16.6683   25.9569 O   0  5  0  0  0  0  0  0  0  0  0  0
   21.2489   18.3519   25.6030 O   0  0  0  0  0  0  0  0  0  0  0  0
   19.7889   17.6804   23.8474 C   0  0  0  0  0  0  0  0  0  0  0  0
   18.7054   17.7964   23.9677 H   0  0  0  0  0  0  0  0  0  0  0  0
   19.9546   16.7233   23.3389 H   0  0  0  0  0  0  0  0  0  0  0  0
   20.3467   18.8389   22.9783 C   0  0  0  0  0  0  0  0  0  0  0  0
   20.1828   19.7943   23.4959 H   0  0  0  0  0  0  0  0  0  0  0  0
   21.4333   18.7201   22.8665 H   0  0  0  0  0  0  0  0  0  0  0  0
   19.6827   18.8824   21.5849 C   0  0  0  0  0  0  0  0  0  0  0  0
   18.5964   19.0011   21.6990 H   0  0  0  0  0  0  0  0  0  0  0  0
   19.8477   17.9263   21.0693 H   0  0  0  0  0  0  0  0  0  0  0  0
   20.2385   20.0348   20.7226 C   0  0  0  0  0  0  0  0  0  0  0  0
   20.0737   20.9932   21.2342 H   0  0  0  0  0  0  0  0  0  0  0  0
   21.3248   19.9186   20.6044 H   0  0  0  0  0  0  0  0  0  0  0  0
   19.5734   20.0752   19.3323 C   0  0  0  0  0  0  0  0  0  0  0  0
   18.4889   20.2225   19.4198 H   0  0  0  0  0  0  0  0  0  0  0  0
   19.9801   20.9000   18.7328 H   0  0  0  0  0  0  0  0  0  0  0  0
   19.7494   19.1397   18.7853 H   0  0  0  0  0  0  0  0  0  0  0  0
  1  2  1  0  0  0  0
  1  3  2  0  0  0  0
  1  4  1  0  0  0  0
  4  5  1  0  0  0  0
  4  6  1  0  0  0  0
  4  7  1  0  0  0  0
  7  8  1  0  0  0  0
  7  9  1  0  0  0  0
  7 10  1  0  0  0  0
 10 11  1  0  0  0  0
 10 12  1  0  0  0  0
 10 13  1  0  0  0  0
 13 14  1  0  0  0  0
 13 15  1  0  0  0  0
 13 16  1  0  0  0  0
 16 17  1  0  0  0  0
 16 18  1  0  0  0  0
 16 19  1  0  0  0  0
M  END
> <VConfSearch Rank>
229

> <Conf_Id>
0

> <Delta U+W>
0.000

> <U+W>
-54.891

> <U>
6.966

> <W>
-61.857

> <W(PB)>
-63.965

> <W(SA)>
2.108

> <Valence>
7.175

> <Coulomb>
-1.360

> <VdW>
1.151

> <VdW6>
-5.641

> <VdW12>
6.792

> <Bond>
0.119

> <Angle>
2.715

> <Pdih>
4.340

> <Idih>
0.000

> <Tether>
0.000

$$$$
VeraChem MOL file


 19 18  0  0  0  0  0  0  0  0999 V2000     
   19.4428   22.2565   22.6088 C   0  0  0  0  0  0  0  0  0  0  0  0
   18.2845   22.5913   22.7580 O   0  5  0  0  0  0  0  0  0  0  0  0
   20.3825   22.8459   23.1046 O   0  0  0  0  0  0  0  0  0  0  0  0
   19.7318   21.0166   21.7700 C   0  0  0  0  0  0  0  0  0  0  0  0
   20.6977   21.1603   21.2708 H   0  0  0  0  0  0  0  0  0  0  0  0
   18.9683   20.9502   20.9855 H   0  0  0  0  0  0  0  0  0  0  0  0
   19.7519   19.7142   22.6075 C   0  0  0  0  0  0  0  0  0  0  0  0
   20.5122   19.8016   23.3961 H   0  0  0  0  0  0  0  0  0  0  0  0
   18.7828   19.5916   23.1109 H   0  0  0  0  0  0  0  0  0  0  0  0
   20.0462   18.4746   21.7355 C   0  0  0  0  0  0  0  0  0  0  0  0
   21.0149   18.6009   21.2327 H   0  0  0  0  0  0  0  0  0  0  0  0
   19.2851   18.3908   20.9475 H   0  0  0  0  0  0  0  0  0  0  0  0
   20.0656   17.1787   22.5725 C   0  0  0  0  0  0  0  0  0  0  0  0
   20.8271   17.2580   23.3608 H   0  0  0  0  0  0  0  0  0  0  0  0
   19.0975   17.0479   23.0756 H   0  0  0  0  0  0  0  0  0  0  0  0
   20.3598   15.9431   21.6987 C   0  0  0  0  0  0  0  0  0  0  0  0
   20.3700   15.0309   22.3095 H   0  0  0  0  0  0  0  0  0  0  0  0
   19.5951   15.8213   20.9204 H   0  0  0  0  0  0  0  0  0  0  0  0
   21.3377   16.0331   21.2076 H   0  0  0  0  0  0  0  0  0  0  0  0
  1  2  1  0  0  0  0
  1  3  2  0  0  0  0
  1  4  1  0  0  0  0
  4  5  1  0  0  0  0
  4  6  1  0  0  0  0
  4  7  1  0  0  0  0
  7  8  1  0  0  0  0
  7  9  1  0  0  0  0
  7 10  1  0  0  0  0
 10 11  1  0  0  0  0
 10 12  1  0  0  0  0
 10 13  1  0  0  0  0
 13 14  1  0  0  0  0
 13 15  1  0  0  0  0
 13 16  1  0  0  0  0
 16 17  1  0  0  0  0
 16 18  1  0  0  0  0
 16 19  1  0  0  0  0
M  END
> <VConfSearch Rank>
230

> <Conf_Id>
18

> <Delta U+W>
-1.199

> <U+W>
-56.090

> <U>
5.975

> <W>
-62.066

> <W(PB)>
-64.219

> <W(SA)>
2.153

> <Valence>
6.673

> <Coulomb>
-1.307

> <VdW>
0.610

> <VdW6>
-5.351

> <VdW12>
5.961

> <Bond>
0.086

> <Angle>
2.253

> <Pdih>
4.333

> <Idih>
0.001

> <Tether>
0.000

$$$$
VeraChem MOL file


 19 18  0  0  0  0  0  0  0  0999 V2000     
   22.3830   20.7274   23.3295 C   0  0  0  0  0  0  0  0  0  0  0  0
   22.9351   20.5185   24.3914 O   0  5  0  0  0  0  0  0  0  0  0  0
   22.8588   21.4154   22.4483 O   0  0  0  0  0  0  0  0  0  0  0  0
   21.0286   20.0730   23.0809 C   0  0  0  0  0  0  0  0  0  0  0  0
   20.4426   20.7494   22.4485 H   0  0  0  0  0  0  0  0  0  0  0  0
   20.5076   19.9930   24.0425 H   0  0  0  0  0  0  0  0  0  0  0  0
   21.1497   18.6749   22.4205 C   0  0  0  0  0  0  0  0  0  0  0  0
   21.6330   18.7735   21.4387 H   0  0  0  0  0  0  0  0  0  0  0  0
   21.8163   18.0524   23.0332 H   0  0  0  0  0  0  0  0  0  0  0  0
   19.7942   17.9454   22.2654 C   0  0  0  0  0  0  0  0  0  0  0  0
   19.3176   17.8410   23.2497 H   0  0  0  0  0  0  0  0  0  0  0  0
   19.9864   16.9261   21.9034 H   0  0  0  0  0  0  0  0  0  0  0  0
   18.8253   18.6503   21.2897 C   0  0  0  0  0  0  0  0  0  0  0  0
   18.5596   19.6446   21.6720 H   0  0  0  0  0  0  0  0  0  0  0  0
   19.3199   18.8007   20.3201 H   0  0  0  0  0  0  0  0  0  0  0  0
   17.5352   17.8312   21.0846 C   0  0  0  0  0  0  0  0  0  0  0  0
   16.8565   18.3458   20.3920 H   0  0  0  0  0  0  0  0  0  0  0  0
   17.7601   16.8416   20.6657 H   0  0  0  0  0  0  0  0  0  0  0  0
   17.0053   17.6889   22.0356 H   0  0  0  0  0  0  0  0  0  0  0  0
  1  2  1  0  0  0  0
  1  3  2  0  0  0  0
  1  4  1  0  0  0  0
  4  5  1  0  0  0  0
  4  6  1  0  0  0  0
  4  7  1  0  0  0  0
  7  8  1  0  0  0  0
  7  9  1  0  0  0  0
  7 10  1  0  0  0  0
 10 11  1  0  0  0  0
 10 12  1  0  0  0  0
 10 13  1  0  0  0  0
 13 14  1  0  0  0  0
 13 15  1  0  0  0  0
 13 16  1  0  0  0  0
 16 17  1  0  0  0  0
 16 18  1  0  0  0  0
 16 19  1  0  0  0  0
M  END
> <VConfSearch Rank>
231

> <Conf_Id>
34

> <Delta U+W>
-0.563

> <U+W>
-55.455

> <U>
6.914

> <W>
-62.369

> <W(PB)>
-64.446

> <W(SA)>
2.077

> <Valence>
7.196

> <Coulomb>
-1.020

> <VdW>
0.738

> <VdW6>
-6.010

> <VdW12>
6.748

> <Bond>
0.126

> <Angle>
2.499

> <Pdih>
4.570

> <Idih>
0.001

> <Tether>
0.000

$$$$
VeraChem MOL file


 19 18  0  0  0  0  0  0  0  0999 V2000     
   20.8296   21.9243   21.4245 C   0  0  0  0  0  0  0  0  0  0  0  0
   20.2483   22.6010   20.5996 O   0  5  0  0  0  0  0  0  0  0  0  0
   21.9556   22.1605   21.8150 O   0  0  0  0  0  0  0  0  0  0  0  0
   20.1150   20.6992   21.9839 C   0  0  0  0  0  0  0  0  0  0  0  0
   19.0399   20.9138   22.0079 H   0  0  0  0  0  0  0  0  0  0  0  0
   20.4435   20.5663   23.0208 H   0  0  0  0  0  0  0  0  0  0  0  0
   20.3859   19.4162   21.1559 C   0  0  0  0  0  0  0  0  0  0  0  0
   20.1309   19.6143   20.1056 H   0  0  0  0  0  0  0  0  0  0  0  0
   21.4601   19.1864   21.1761 H   0  0  0  0  0  0  0  0  0  0  0  0
   19.5790   18.1875   21.6385 C   0  0  0  0  0  0  0  0  0  0  0  0
   19.7400   17.3642   20.9291 H   0  0  0  0  0  0  0  0  0  0  0  0
   18.5051   18.4176   21.6090 H   0  0  0  0  0  0  0  0  0  0  0  0
   19.9713   17.7130   23.0557 C   0  0  0  0  0  0  0  0  0  0  0  0
   21.0541   17.5317   23.0995 H   0  0  0  0  0  0  0  0  0  0  0  0
   19.7469   18.4953   23.7927 H   0  0  0  0  0  0  0  0  0  0  0  0
   19.2204   16.4248   23.4481 C   0  0  0  0  0  0  0  0  0  0  0  0
   18.1343   16.5855   23.4393 H   0  0  0  0  0  0  0  0  0  0  0  0
   19.4519   15.6074   22.7528 H   0  0  0  0  0  0  0  0  0  0  0  0
   19.5072   16.1023   24.4575 H   0  0  0  0  0  0  0  0  0  0  0  0
  1  2  1  0  0  0  0
  1  3  2  0  0  0  0
  1  4  1  0  0  0  0
  4  5  1  0  0  0  0
  4  6  1  0  0  0  0
  4  7  1  0  0  0  0
  7  8  1  0  0  0  0
  7  9  1  0  0  0  0
  7 10  1  0  0  0  0
 10 11  1  0  0  0  0
 10 12  1  0  0  0  0
 10 13  1  0  0  0  0
 13 14  1  0  0  0  0
 13 15  1  0  0  0  0
 13 16  1  0  0  0  0
 16 17  1  0  0  0  0
 16 18  1  0  0  0  0
 16 19  1  0  0  0  0
M  END
> <VConfSearch Rank>
232

> <Conf_Id>
33

> <Delta U+W>
-0.526

> <U+W>
-55.418

> <U>
6.914

> <W>
-62.332

> <W(PB)>
-64.421

> <W(SA)>
2.090

> <Valence>
7.196

> <Coulomb>
-1.020

> <VdW>
0.738

> <VdW6>
-6.010

> <VdW12>
6.748

> <Bond>
0.126

> <Angle>
2.499

> <Pdih>
4.570

> <Idih>
0.001

> <Tether>
0.000

$$$$
VeraChem MOL file


 19 18  0  0  0  0  0  0  0  0999 V2000     
   17.8334   20.1831   20.1748 C   0  0  0  0  0  0  0  0  0  0  0  0
   16.8797   19.4395   20.0576 O   0  5  0  0  0  0  0  0  0  0  0  0
   17.7521   21.3943   20.1244 O   0  0  0  0  0  0  0  0  0  0  0  0
   19.2052   19.5628   20.4160 C   0  0  0  0  0  0  0  0  0  0  0  0
   19.9577   20.2072   19.9458 H   0  0  0  0  0  0  0  0  0  0  0  0
   19.2378   18.5959   19.8994 H   0  0  0  0  0  0  0  0  0  0  0  0
   19.5255   19.3754   21.9196 C   0  0  0  0  0  0  0  0  0  0  0  0
   19.4795   20.3502   22.4244 H   0  0  0  0  0  0  0  0  0  0  0  0
   18.7499   18.7435   22.3720 H   0  0  0  0  0  0  0  0  0  0  0  0
   20.9195   18.7421   22.1342 C   0  0  0  0  0  0  0  0  0  0  0  0
   21.6724   19.3500   21.6140 H   0  0  0  0  0  0  0  0  0  0  0  0
   20.9493   17.7462   21.6712 H   0  0  0  0  0  0  0  0  0  0  0  0
   21.3211   18.6320   23.6232 C   0  0  0  0  0  0  0  0  0  0  0  0
   22.3621   18.2857   23.6830 H   0  0  0  0  0  0  0  0  0  0  0  0
   21.2979   19.6271   24.0886 H   0  0  0  0  0  0  0  0  0  0  0  0
   20.4281   17.6620   24.4267 C   0  0  0  0  0  0  0  0  0  0  0  0
   20.4124   16.6670   23.9631 H   0  0  0  0  0  0  0  0  0  0  0  0
   20.8065   17.5515   25.4511 H   0  0  0  0  0  0  0  0  0  0  0  0
   19.3959   18.0282   24.4919 H   0  0  0  0  0  0  0  0  0  0  0  0
  1  2  1  0  0  0  0
  1  3  2  0  0  0  0
  1  4  1  0  0  0  0
  4  5  1  0  0  0  0
  4  6  1  0  0  0  0
  4  7  1  0  0  0  0
  7  8  1  0  0  0  0
  7  9  1  0  0  0  0
  7 10  1  0  0  0  0
 10 11  1  0  0  0  0
 10 12  1  0  0  0  0
 10 13  1  0  0  0  0
 13 14  1  0  0  0  0
 13 15  1  0  0  0  0
 13 16  1  0  0  0  0
 16 17  1  0  0  0  0
 16 18  1  0  0  0  0
 16 19  1  0  0  0  0
M  END
> <VConfSearch Rank>
233

> <Conf_Id>
42

> <Delta U+W>
-0.344

> <U+W>
-55.236

> <U>
7.244

> <W>
-62.479

> <W(PB)>
-64.610

> <W(SA)>
2.130

> <Valence>
7.174

> <Coulomb>
-0.669

> <VdW>
0.739

> <VdW6>
-5.969

> <VdW12>
6.708

> <Bond>
0.116

> <Angle>
2.481

> <Pdih>
4.576

> <Idih>
0.000

> <Tether>
0.000

$$$$
VeraChem MOL file


 19 18  0  0  0  0  0  0  0  0999 V2000     
   19.0218   18.7081   25.2214 C   0  0  0  0  0  0  0  0  0  0  0  0
   19.2098   19.7569   25.8052 O   0  5  0  0  0  0  0  0  0  0  0  0
   19.1015   17.6186   25.7534 O   0  0  0  0  0  0  0  0  0  0  0  0
   18.6853   18.7610   23.7353 C   0  0  0  0  0  0  0  0  0  0  0  0
   18.1193   19.6811   23.5464 H   0  0  0  0  0  0  0  0  0  0  0  0
   18.0211   17.9189   23.5064 H   0  0  0  0  0  0  0  0  0  0  0  0
   19.9418   18.7123   22.8312 C   0  0  0  0  0  0  0  0  0  0  0  0
   20.5992   19.5525   23.0910 H   0  0  0  0  0  0  0  0  0  0  0  0
   20.5025   17.7905   23.0387 H   0  0  0  0  0  0  0  0  0  0  0  0
   19.5714   18.7711   21.3312 C   0  0  0  0  0  0  0  0  0  0  0  0
   19.0538   19.7156   21.1141 H   0  0  0  0  0  0  0  0  0  0  0  0
   18.8578   17.9663   21.1074 H   0  0  0  0  0  0  0  0  0  0  0  0
   20.7902   18.6217   20.3917 C   0  0  0  0  0  0  0  0  0  0  0  0
   21.3074   17.6753   20.6021 H   0  0  0  0  0  0  0  0  0  0  0  0
   20.4306   18.5551   19.3556 H   0  0  0  0  0  0  0  0  0  0  0  0
   21.7895   19.7941   20.4963 C   0  0  0  0  0  0  0  0  0  0  0  0
   22.2629   19.8301   21.4854 H   0  0  0  0  0  0  0  0  0  0  0  0
   22.5873   19.6859   19.7502 H   0  0  0  0  0  0  0  0  0  0  0  0
   21.2884   20.7545   20.3185 H   0  0  0  0  0  0  0  0  0  0  0  0
  1  2  1  0  0  0  0
  1  3  2  0  0  0  0
  1  4  1  0  0  0  0
  4  5  1  0  0  0  0
  4  6  1  0  0  0  0
  4  7  1  0  0  0  0
  7  8  1  0  0  0  0
  7  9  1  0  0  0  0
  7 10  1  0  0  0  0
 10 11  1  0  0  0  0
 10 12  1  0  0  0  0
 10 13  1  0  0  0  0
 13 14  1  0  0  0  0
 13 15  1  0  0  0  0
 13 16  1  0  0  0  0
 16 17  1  0  0  0  0
 16 18  1  0  0  0  0
 16 19  1  0  0  0  0
M  END
> <VConfSearch Rank>
234

> <Conf_Id>
41

> <Delta U+W>
-0.361

> <U+W>
-55.252

> <U>
7.244

> <W>
-62.496

> <W(PB)>
-64.596

> <W(SA)>
2.099

> <Valence>
7.174

> <Coulomb>
-0.669

> <VdW>
0.739

> <VdW6>
-5.969

> <VdW12>
6.708

> <Bond>
0.116

> <Angle>
2.481

> <Pdih>
4.576

> <Idih>
0.000

> <Tether>
0.000

$$$$
VeraChem MOL file


 19 18  0  0  0  0  0  0  0  0999 V2000     
   19.3514   16.5548   20.8998 C   0  0  0  0  0  0  0  0  0  0  0  0
   18.3316   16.8574   20.3123 O   0  5  0  0  0  0  0  0  0  0  0  0
   20.3297   16.0879   20.3507 O   0  0  0  0  0  0  0  0  0  0  0  0
   19.4004   16.7504   22.4126 C   0  0  0  0  0  0  0  0  0  0  0  0
   19.8153   15.8339   22.8485 H   0  0  0  0  0  0  0  0  0  0  0  0
   18.3739   16.8435   22.7874 H   0  0  0  0  0  0  0  0  0  0  0  0
   20.2477   17.9681   22.8648 C   0  0  0  0  0  0  0  0  0  0  0  0
   20.3417   17.9501   23.9590 H   0  0  0  0  0  0  0  0  0  0  0  0
   21.2645   17.8750   22.4583 H   0  0  0  0  0  0  0  0  0  0  0  0
   19.6311   19.3160   22.4287 C   0  0  0  0  0  0  0  0  0  0  0  0
   18.6103   19.3985   22.8265 H   0  0  0  0  0  0  0  0  0  0  0  0
   19.5494   19.3488   21.3334 H   0  0  0  0  0  0  0  0  0  0  0  0
   20.4731   20.5136   22.9159 C   0  0  0  0  0  0  0  0  0  0  0  0
   20.5547   20.4884   24.0114 H   0  0  0  0  0  0  0  0  0  0  0  0
   21.4941   20.4348   22.5174 H   0  0  0  0  0  0  0  0  0  0  0  0
   19.8552   21.8569   22.4793 C   0  0  0  0  0  0  0  0  0  0  0  0
   18.8441   21.9761   22.8903 H   0  0  0  0  0  0  0  0  0  0  0  0
   20.4664   22.6972   22.8335 H   0  0  0  0  0  0  0  0  0  0  0  0
   19.7904   21.9222   21.3853 H   0  0  0  0  0  0  0  0  0  0  0  0
  1  2  1  0  0  0  0
  1  3  2  0  0  0  0
  1  4  1  0  0  0  0
  4  5  1  0  0  0  0
  4  6  1  0  0  0  0
  4  7  1  0  0  0  0
  7  8  1  0  0  0  0
  7  9  1  0  0  0  0
  7 10  1  0  0  0  0
 10 11  1  0  0  0  0
 10 12  1  0  0  0  0
 10 13  1  0  0  0  0
 13 14  1  0  0  0  0
 13 15  1  0  0  0  0
 13 16  1  0  0  0  0
 16 17  1  0  0  0  0
 16 18  1  0  0  0  0
 16 19  1  0  0  0  0
M  END
> <VConfSearch Rank>
235

> <Conf_Id>
36

> <Delta U+W>
-0.079

> <U+W>
-54.971

> <U>
8.266

> <W>
-63.237

> <W(PB)>
-65.340

> <W(SA)>
2.103

> <Valence>
6.935

> <Coulomb>
0.874

> <VdW>
0.457

> <VdW6>
-6.205

> <VdW12>
6.662

> <Bond>
0.107

> <Angle>
2.420

> <Pdih>
4.407

> <Idih>
0.001

> <Tether>
0.000

$$$$
VeraChem MOL file


 19 18  0  0  0  0  0  0  0  0999 V2000     
   21.2588   21.2827   21.1056 C   0  0  0  0  0  0  0  0  0  0  0  0
   22.4032   21.2033   21.5062 O   0  5  0  0  0  0  0  0  0  0  0  0
   20.5809   22.2865   21.2033 O   0  0  0  0  0  0  0  0  0  0  0  0
   20.6445   20.0636   20.4231 C   0  0  0  0  0  0  0  0  0  0  0  0
   21.4535   19.3910   20.1128 H   0  0  0  0  0  0  0  0  0  0  0  0
   20.1537   20.4131   19.5071 H   0  0  0  0  0  0  0  0  0  0  0  0
   19.6193   19.2986   21.3000 C   0  0  0  0  0  0  0  0  0  0  0  0
   18.8312   19.9914   21.6264 H   0  0  0  0  0  0  0  0  0  0  0  0
   19.1302   18.5293   20.6872 H   0  0  0  0  0  0  0  0  0  0  0  0
   20.2717   18.6305   22.5310 C   0  0  0  0  0  0  0  0  0  0  0  0
   20.7488   19.3961   23.1584 H   0  0  0  0  0  0  0  0  0  0  0  0
   21.0674   17.9490   22.2002 H   0  0  0  0  0  0  0  0  0  0  0  0
   19.2397   17.8496   23.3710 C   0  0  0  0  0  0  0  0  0  0  0  0
   18.4438   18.5295   23.7052 H   0  0  0  0  0  0  0  0  0  0  0  0
   18.7621   17.0794   22.7496 H   0  0  0  0  0  0  0  0  0  0  0  0
   19.8937   17.1842   24.5984 C   0  0  0  0  0  0  0  0  0  0  0  0
   20.3527   17.9355   25.2543 H   0  0  0  0  0  0  0  0  0  0  0  0
   19.1461   16.6339   25.1844 H   0  0  0  0  0  0  0  0  0  0  0  0
   20.6734   16.4747   24.2916 H   0  0  0  0  0  0  0  0  0  0  0  0
  1  2  1  0  0  0  0
  1  3  2  0  0  0  0
  1  4  1  0  0  0  0
  4  5  1  0  0  0  0
  4  6  1  0  0  0  0
  4  7  1  0  0  0  0
  7  8  1  0  0  0  0
  7  9  1  0  0  0  0
  7 10  1  0  0  0  0
 10 11  1  0  0  0  0
 10 12  1  0  0  0  0
 10 13  1  0  0  0  0
 13 14  1  0  0  0  0
 13 15  1  0  0  0  0
 13 16  1  0  0  0  0
 16 17  1  0  0  0  0
 16 18  1  0  0  0  0
 16 19  1  0  0  0  0
M  END
> <VConfSearch Rank>
236

> <Conf_Id>
35

> <Delta U+W>
-0.030

> <U+W>
-54.921

> <U>
8.267

> <W>
-63.188

> <W(PB)>
-65.294

> <W(SA)>
2.106

> <Valence>
6.935

> <Coulomb>
0.875

> <VdW>
0.457

> <VdW6>
-6.205

> <VdW12>
6.662

> <Bond>
0.107

> <Angle>
2.420

> <Pdih>
4.407

> <Idih>
0.001

> <Tether>
0.000

$$$$
VeraChem MOL file


 19 18  0  0  0  0  0  0  0  0999 V2000     
   17.7809   17.1728   22.8987 C   0  0  0  0  0  0  0  0  0  0  0  0
   16.8684   17.7657   23.4398 O   0  5  0  0  0  0  0  0  0  0  0  0
   18.2154   16.1077   23.2902 O   0  0  0  0  0  0  0  0  0  0  0  0
   18.3986   17.7907   21.6473 C   0  0  0  0  0  0  0  0  0  0  0  0
   17.5741   18.1159   21.0019 H   0  0  0  0  0  0  0  0  0  0  0  0
   18.9400   17.0090   21.1007 H   0  0  0  0  0  0  0  0  0  0  0  0
   19.3372   18.9923   21.9317 C   0  0  0  0  0  0  0  0  0  0  0  0
   19.6048   19.4591   20.9752 H   0  0  0  0  0  0  0  0  0  0  0  0
   18.7932   19.7493   22.5134 H   0  0  0  0  0  0  0  0  0  0  0  0
   20.6232   18.5760   22.6851 C   0  0  0  0  0  0  0  0  0  0  0  0
   21.1851   17.8478   22.0845 H   0  0  0  0  0  0  0  0  0  0  0  0
   20.3460   18.0616   23.6155 H   0  0  0  0  0  0  0  0  0  0  0  0
   21.5392   19.7694   23.0424 C   0  0  0  0  0  0  0  0  0  0  0  0
   20.9804   20.4986   23.6452 H   0  0  0  0  0  0  0  0  0  0  0  0
   22.3593   19.4059   23.6770 H   0  0  0  0  0  0  0  0  0  0  0  0
   22.1421   20.4702   21.8057 C   0  0  0  0  0  0  0  0  0  0  0  0
   21.3652   20.9529   21.1998 H   0  0  0  0  0  0  0  0  0  0  0  0
   22.8531   21.2476   22.1141 H   0  0  0  0  0  0  0  0  0  0  0  0
   22.6793   19.7535   21.1709 H   0  0  0  0  0  0  0  0  0  0  0  0
  1  2  1  0  0  0  0
  1  3  2  0  0  0  0
  1  4  1  0  0  0  0
  4  5  1  0  0  0  0
  4  6  1  0  0  0  0
  4  7  1  0  0  0  0
  7  8  1  0  0  0  0
  7  9  1  0  0  0  0
  7 10  1  0  0  0  0
 10 11  1  0  0  0  0
 10 12  1  0  0  0  0
 10 13  1  0  0  0  0
 13 14  1  0  0  0  0
 13 15  1  0  0  0  0
 13 16  1  0  0  0  0
 16 17  1  0  0  0  0
 16 18  1  0  0  0  0
 16 19  1  0  0  0  0
M  END
> <VConfSearch Rank>
237

> <Conf_Id>
74

> <Delta U+W>
0.797

> <U+W>
-54.095

> <U>
8.869

> <W>
-62.964

> <W(PB)>
-65.046

> <W(SA)>
2.082

> <Valence>
7.469

> <Coulomb>
0.762

> <VdW>
0.639

> <VdW6>
-6.782

> <VdW12>
7.421

> <Bond>
0.141

> <Angle>
2.667

> <Pdih>
4.660

> <Idih>
0.001

> <Tether>
0.000

$$$$
VeraChem MOL file


 19 18  0  0  0  0  0  0  0  0999 V2000     
   21.5381   20.9463   23.7436 C   0  0  0  0  0  0  0  0  0  0  0  0
   21.4482   21.3056   24.9008 O   0  5  0  0  0  0  0  0  0  0  0  0
   22.5450   21.0760   23.0759 O   0  0  0  0  0  0  0  0  0  0  0  0
   20.3274   20.2793   23.1006 C   0  0  0  0  0  0  0  0  0  0  0  0
   20.3300   20.5383   22.0356 H   0  0  0  0  0  0  0  0  0  0  0  0
   19.4232   20.7168   23.5405 H   0  0  0  0  0  0  0  0  0  0  0  0
   20.3210   18.7397   23.2854 C   0  0  0  0  0  0  0  0  0  0  0  0
   21.2111   18.3089   22.8081 H   0  0  0  0  0  0  0  0  0  0  0  0
   20.4112   18.5130   24.3566 H   0  0  0  0  0  0  0  0  0  0  0  0
   19.0406   18.0562   22.7431 C   0  0  0  0  0  0  0  0  0  0  0  0
   18.1734   18.4280   23.3056 H   0  0  0  0  0  0  0  0  0  0  0  0
   19.0996   16.9796   22.9536 H   0  0  0  0  0  0  0  0  0  0  0  0
   18.7759   18.2562   21.2305 C   0  0  0  0  0  0  0  0  0  0  0  0
   17.8407   17.7426   20.9685 H   0  0  0  0  0  0  0  0  0  0  0  0
   18.6093   19.3193   21.0119 H   0  0  0  0  0  0  0  0  0  0  0  0
   19.9090   17.7118   20.3343 C   0  0  0  0  0  0  0  0  0  0  0  0
   20.1086   16.6546   20.5520 H   0  0  0  0  0  0  0  0  0  0  0  0
   19.6336   17.7934   19.2749 H   0  0  0  0  0  0  0  0  0  0  0  0
   20.8389   18.2759   20.4804 H   0  0  0  0  0  0  0  0  0  0  0  0
  1  2  1  0  0  0  0
  1  3  2  0  0  0  0
  1  4  1  0  0  0  0
  4  5  1  0  0  0  0
  4  6  1  0  0  0  0
  4  7  1  0  0  0  0
  7  8  1  0  0  0  0
  7  9  1  0  0  0  0
  7 10  1  0  0  0  0
 10 11  1  0  0  0  0
 10 12  1  0  0  0  0
 10 13  1  0  0  0  0
 13 14  1  0  0  0  0
 13 15  1  0  0  0  0
 13 16  1  0  0  0  0
 16 17  1  0  0  0  0
 16 18  1  0  0  0  0
 16 19  1  0  0  0  0
M  END
> <VConfSearch Rank>
238

> <Conf_Id>
67

> <Delta U+W>
0.308

> <U+W>
-54.583

> <U>
8.219

> <W>
-62.802

> <W(PB)>
-64.859

> <W(SA)>
2.057

> <Valence>
7.609

> <Coulomb>
-0.089

> <VdW>
0.699

> <VdW6>
-6.924

> <VdW12>
7.623

> <Bond>
0.163

> <Angle>
2.870

> <Pdih>
4.576

> <Idih>
0.001

> <Tether>
0.000

$$$$
VeraChem MOL file


 19 18  0  0  0  0  0  0  0  0999 V2000     
   22.5147   17.5380   22.7962 C   0  0  0  0  0  0  0  0  0  0  0  0
   23.6264   17.7904   22.3757 O   0  5  0  0  0  0  0  0  0  0  0  0
   22.1771   16.4374   23.1851 O   0  0  0  0  0  0  0  0  0  0  0  0
   21.4816   18.6589   22.8185 C   0  0  0  0  0  0  0  0  0  0  0  0
   22.0077   19.6040   22.9987 H   0  0  0  0  0  0  0  0  0  0  0  0
   20.8197   18.4858   23.6746 H   0  0  0  0  0  0  0  0  0  0  0  0
   20.6608   18.7455   21.5058 C   0  0  0  0  0  0  0  0  0  0  0  0
   21.3568   18.8268   20.6596 H   0  0  0  0  0  0  0  0  0  0  0  0
   20.1086   17.8083   21.3554 H   0  0  0  0  0  0  0  0  0  0  0  0
   19.6885   19.9511   21.4617 C   0  0  0  0  0  0  0  0  0  0  0  0
   19.1837   19.9613   20.4861 H   0  0  0  0  0  0  0  0  0  0  0  0
   20.2719   20.8806   21.5109 H   0  0  0  0  0  0  0  0  0  0  0  0
   18.6171   19.9760   22.5795 C   0  0  0  0  0  0  0  0  0  0  0  0
   19.0968   20.0714   23.5626 H   0  0  0  0  0  0  0  0  0  0  0  0
   18.0017   20.8773   22.4537 H   0  0  0  0  0  0  0  0  0  0  0  0
   17.6934   18.7390   22.5688 C   0  0  0  0  0  0  0  0  0  0  0  0
   18.2503   17.8236   22.8059 H   0  0  0  0  0  0  0  0  0  0  0  0
   16.8976   18.8473   23.3169 H   0  0  0  0  0  0  0  0  0  0  0  0
   17.2200   18.6106   21.5868 H   0  0  0  0  0  0  0  0  0  0  0  0
  1  2  1  0  0  0  0
  1  3  2  0  0  0  0
  1  4  1  0  0  0  0
  4  5  1  0  0  0  0
  4  6  1  0  0  0  0
  4  7  1  0  0  0  0
  7  8  1  0  0  0  0
  7  9  1  0  0  0  0
  7 10  1  0  0  0  0
 10 11  1  0  0  0  0
 10 12  1  0  0  0  0
 10 13  1  0  0  0  0
 13 14  1  0  0  0  0
 13 15  1  0  0  0  0
 13 16  1  0  0  0  0
 16 17  1  0  0  0  0
 16 18  1  0  0  0  0
 16 19  1  0  0  0  0
M  END
> <VConfSearch Rank>
239

> <Conf_Id>
21

> <Delta U+W>
0.319

> <U+W>
-54.572

> <U>
8.220

> <W>
-62.792

> <W(PB)>
-64.830

> <W(SA)>
2.038

> <Valence>
7.609

> <Coulomb>
-0.088

> <VdW>
0.699

> <VdW6>
-6.924

> <VdW12>
7.623

> <Bond>
0.163

> <Angle>
2.870

> <Pdih>
4.576

> <Idih>
0.000

> <Tether>
0.000

$$$$
VeraChem MOL file


 19 18  0  0  0  0  0  0  0  0999 V2000     
   22.7454   19.3355   21.5595 C   0  0  0  0  0  0  0  0  0  0  0  0
   23.7544   19.3631   22.2360 O   0  5  0  0  0  0  0  0  0  0  0  0
   22.7412   19.0966   20.3682 O   0  0  0  0  0  0  0  0  0  0  0  0
   21.4102   19.5971   22.2471 C   0  0  0  0  0  0  0  0  0  0  0  0
   20.7498   20.0851   21.5236 H   0  0  0  0  0  0  0  0  0  0  0  0
   21.5822   20.3156   23.0574 H   0  0  0  0  0  0  0  0  0  0  0  0
   20.7620   18.3052   22.8116 C   0  0  0  0  0  0  0  0  0  0  0  0
   20.6424   17.5613   22.0119 H   0  0  0  0  0  0  0  0  0  0  0  0
   21.4613   17.8654   23.5361 H   0  0  0  0  0  0  0  0  0  0  0  0
   19.4062   18.5542   23.5200 C   0  0  0  0  0  0  0  0  0  0  0  0
   19.3839   19.5619   23.9567 H   0  0  0  0  0  0  0  0  0  0  0  0
   19.3316   17.8596   24.3679 H   0  0  0  0  0  0  0  0  0  0  0  0
   18.1603   18.3335   22.6272 C   0  0  0  0  0  0  0  0  0  0  0  0
   18.1445   17.2955   22.2671 H   0  0  0  0  0  0  0  0  0  0  0  0
   17.2615   18.4572   23.2470 H   0  0  0  0  0  0  0  0  0  0  0  0
   18.0660   19.2938   21.4236 C   0  0  0  0  0  0  0  0  0  0  0  0
   17.1024   19.1736   20.9119 H   0  0  0  0  0  0  0  0  0  0  0  0
   18.1504   20.3397   21.7459 H   0  0  0  0  0  0  0  0  0  0  0  0
   18.8563   19.0882   20.6909 H   0  0  0  0  0  0  0  0  0  0  0  0
  1  2  1  0  0  0  0
  1  3  2  0  0  0  0
  1  4  1  0  0  0  0
  4  5  1  0  0  0  0
  4  6  1  0  0  0  0
  4  7  1  0  0  0  0
  7  8  1  0  0  0  0
  7  9  1  0  0  0  0
  7 10  1  0  0  0  0
 10 11  1  0  0  0  0
 10 12  1  0  0  0  0
 10 13  1  0  0  0  0
 13 14  1  0  0  0  0
 13 15  1  0  0  0  0
 13 16  1  0  0  0  0
 16 17  1  0  0  0  0
 16 18  1  0  0  0  0
 16 19  1  0  0  0  0
M  END
> <VConfSearch Rank>
240

> <Conf_Id>
24

> <Delta U+W>
2.477

> <U+W>
-52.414

> <U>
10.422

> <W>
-62.836

> <W(PB)>
-64.906

> <W(SA)>
2.070

> <Valence>
9.628

> <Coulomb>
0.101

> <VdW>
0.693

> <VdW6>
-6.927

> <VdW12>
7.620

> <Bond>
0.173

> <Angle>
2.989

> <Pdih>
6.465

> <Idih>
0.001

> <Tether>
0.000

$$$$
VeraChem MOL file


 19 18  0  0  0  0  0  0  0  0999 V2000     
   17.9920   17.7283   23.6430 C   0  0  0  0  0  0  0  0  0  0  0  0
   17.6421   17.0642   22.6874 O   0  5  0  0  0  0  0  0  0  0  0  0
   17.9199   17.3398   24.7923 O   0  0  0  0  0  0  0  0  0  0  0  0
   18.5237   19.1370   23.3920 C   0  0  0  0  0  0  0  0  0  0  0  0
   17.9998   19.8084   24.0823 H   0  0  0  0  0  0  0  0  0  0  0  0
   18.2349   19.4400   22.3806 H   0  0  0  0  0  0  0  0  0  0  0  0
   20.0569   19.2798   23.6015 C   0  0  0  0  0  0  0  0  0  0  0  0
   20.3342   20.3425   23.6073 H   0  0  0  0  0  0  0  0  0  0  0  0
   20.2996   18.8991   24.6034 H   0  0  0  0  0  0  0  0  0  0  0  0
   20.9154   18.5200   22.5570 C   0  0  0  0  0  0  0  0  0  0  0  0
   20.3838   17.6286   22.1968 H   0  0  0  0  0  0  0  0  0  0  0  0
   21.8152   18.1451   23.0635 H   0  0  0  0  0  0  0  0  0  0  0  0
   21.3813   19.3793   21.3560 C   0  0  0  0  0  0  0  0  0  0  0  0
   21.9888   20.2205   21.7175 H   0  0  0  0  0  0  0  0  0  0  0  0
   22.0448   18.7688   20.7281 H   0  0  0  0  0  0  0  0  0  0  0  0
   20.2307   19.9171   20.4806 C   0  0  0  0  0  0  0  0  0  0  0  0
   19.6389   20.6657   21.0215 H   0  0  0  0  0  0  0  0  0  0  0  0
   20.6279   20.3991   19.5780 H   0  0  0  0  0  0  0  0  0  0  0  0
   19.5630   19.1044   20.1656 H   0  0  0  0  0  0  0  0  0  0  0  0
  1  2  1  0  0  0  0
  1  3  2  0  0  0  0
  1  4  1  0  0  0  0
  4  5  1  0  0  0  0
  4  6  1  0  0  0  0
  4  7  1  0  0  0  0
  7  8  1  0  0  0  0
  7  9  1  0  0  0  0
  7 10  1  0  0  0  0
 10 11  1  0  0  0  0
 10 12  1  0  0  0  0
 10 13  1  0  0  0  0
 13 14  1  0  0  0  0
 13 15  1  0  0  0  0
 13 16  1  0  0  0  0
 16 17  1  0  0  0  0
 16 18  1  0  0  0  0
 16 19  1  0  0  0  0
M  END
> <VConfSearch Rank>
241

> <Conf_Id>
4

> <Delta U+W>
3.753

> <U+W>
-51.138

> <U>
12.334

> <W>
-63.472

> <W(PB)>
-65.500

> <W(SA)>
2.028

> <Valence>
9.984

> <Coulomb>
1.767

> <VdW>
0.583

> <VdW6>
-7.767

> <VdW12>
8.349

> <Bond>
0.203

> <Angle>
3.191

> <Pdih>
6.589

> <Idih>
0.001

> <Tether>
0.000

$$$$
VeraChem MOL file


 19 18  0  0  0  0  0  0  0  0999 V2000     
   20.5002   20.8414   20.7743 C   0  0  0  0  0  0  0  0  0  0  0  0
   21.3419   20.9198   19.9011 O   0  5  0  0  0  0  0  0  0  0  0  0
   19.3630   21.2508   20.6482 O   0  0  0  0  0  0  0  0  0  0  0  0
   20.9044   20.2216   22.1095 C   0  0  0  0  0  0  0  0  0  0  0  0
   20.1619   20.5067   22.8615 H   0  0  0  0  0  0  0  0  0  0  0  0
   21.8500   20.6879   22.4096 H   0  0  0  0  0  0  0  0  0  0  0  0
   21.0857   18.6790   22.0603 C   0  0  0  0  0  0  0  0  0  0  0  0
   21.7861   18.4451   21.2465 H   0  0  0  0  0  0  0  0  0  0  0  0
   21.5690   18.3316   22.9833 H   0  0  0  0  0  0  0  0  0  0  0  0
   19.7702   17.8907   21.8290 C   0  0  0  0  0  0  0  0  0  0  0  0
   20.0045   17.0092   21.2167 H   0  0  0  0  0  0  0  0  0  0  0  0
   19.0638   18.4862   21.2347 H   0  0  0  0  0  0  0  0  0  0  0  0
   19.0819   17.3892   23.1223 C   0  0  0  0  0  0  0  0  0  0  0  0
   18.2134   16.7784   22.8398 H   0  0  0  0  0  0  0  0  0  0  0  0
   19.7629   16.7213   23.6677 H   0  0  0  0  0  0  0  0  0  0  0  0
   18.6075   18.5163   24.0626 C   0  0  0  0  0  0  0  0  0  0  0  0
   17.9839   19.2418   23.5238 H   0  0  0  0  0  0  0  0  0  0  0  0
   18.0123   18.1033   24.8872 H   0  0  0  0  0  0  0  0  0  0  0  0
   19.4595   19.0478   24.5041 H   0  0  0  0  0  0  0  0  0  0  0  0
  1  2  1  0  0  0  0
  1  3  2  0  0  0  0
  1  4  1  0  0  0  0
  4  5  1  0  0  0  0
  4  6  1  0  0  0  0
  4  7  1  0  0  0  0
  7  8  1  0  0  0  0
  7  9  1  0  0  0  0
  7 10  1  0  0  0  0
 10 11  1  0  0  0  0
 10 12  1  0  0  0  0
 10 13  1  0  0  0  0
 13 14  1  0  0  0  0
 13 15  1  0  0  0  0
 13 16  1  0  0  0  0
 16 17  1  0  0  0  0
 16 18  1  0  0  0  0
 16 19  1  0  0  0  0
M  END
> <VConfSearch Rank>
242

> <Conf_Id>
73

> <Delta U+W>
3.707

> <U+W>
-51.184

> <U>
12.334

> <W>
-63.519

> <W(PB)>
-65.541

> <W(SA)>
2.022

> <Valence>
9.984

> <Coulomb>
1.768

> <VdW>
0.583

> <VdW6>
-7.767

> <VdW12>
8.350

> <Bond>
0.203

> <Angle>
3.192

> <Pdih>
6.589

> <Idih>
0.001

> <Tether>
0.000

$$$$
VeraChem MOL file


 19 18  0  0  0  0  0  0  0  0999 V2000     
   19.9569   18.7933   19.8206 C   0  0  0  0  0  0  0  0  0  0  0  0
   21.1523   18.9813   19.7100 O   0  5  0  0  0  0  0  0  0  0  0  0
   19.3254   18.0462   19.0993 O   0  0  0  0  0  0  0  0  0  0  0  0
   19.1995   19.5593   20.9018 C   0  0  0  0  0  0  0  0  0  0  0  0
   18.3329   20.0293   20.4225 H   0  0  0  0  0  0  0  0  0  0  0  0
   19.8343   20.3760   21.2645 H   0  0  0  0  0  0  0  0  0  0  0  0
   18.7163   18.6769   22.0850 C   0  0  0  0  0  0  0  0  0  0  0  0
   18.1213   19.2901   22.7740 H   0  0  0  0  0  0  0  0  0  0  0  0
   18.0317   17.9108   21.6956 H   0  0  0  0  0  0  0  0  0  0  0  0
   19.8557   17.9725   22.8658 C   0  0  0  0  0  0  0  0  0  0  0  0
   20.3683   17.2695   22.1949 H   0  0  0  0  0  0  0  0  0  0  0  0
   19.4111   17.3600   23.6619 H   0  0  0  0  0  0  0  0  0  0  0  0
   20.9092   18.9189   23.4916 C   0  0  0  0  0  0  0  0  0  0  0  0
   21.6686   18.3090   23.9999 H   0  0  0  0  0  0  0  0  0  0  0  0
   21.4405   19.4669   22.7018 H   0  0  0  0  0  0  0  0  0  0  0  0
   20.3104   19.9152   24.5077 C   0  0  0  0  0  0  0  0  0  0  0  0
   19.6279   20.6216   24.0187 H   0  0  0  0  0  0  0  0  0  0  0  0
   19.7559   19.3879   25.2948 H   0  0  0  0  0  0  0  0  0  0  0  0
   21.1063   20.4994   24.9873 H   0  0  0  0  0  0  0  0  0  0  0  0
  1  2  1  0  0  0  0
  1  3  2  0  0  0  0
  1  4  1  0  0  0  0
  4  5  1  0  0  0  0
  4  6  1  0  0  0  0
  4  7  1  0  0  0  0
  7  8  1  0  0  0  0
  7  9  1  0  0  0  0
  7 10  1  0  0  0  0
 10 11  1  0  0  0  0
 10 12  1  0  0  0  0
 10 13  1  0  0  0  0
 13 14  1  0  0  0  0
 13 15  1  0  0  0  0
 13 16  1  0  0  0  0
 16 17  1  0  0  0  0
 16 18  1  0  0  0  0
 16 19  1  0  0  0  0
M  END
> <VConfSearch Rank>
243

> <Conf_Id>
56

> <Delta U+W>
1.735

> <U+W>
-53.156

> <U>
10.214

> <W>
-63.370

> <W(PB)>
-65.388

> <W(SA)>
2.018

> <Valence>
7.868

> <Coulomb>
1.968

> <VdW>
0.378

> <VdW6>
-8.067

> <VdW12>
8.445

> <Bond>
0.191

> <Angle>
3.117

> <Pdih>
4.559

> <Idih>
0.001

> <Tether>
0.000

$$$$
VeraChem MOL file


 19 18  0  0  0  0  0  0  0  0999 V2000     
   20.2555   21.7877   22.9396 C   0  0  0  0  0  0  0  0  0  0  0  0
   20.8067   22.5803   22.2019 O   0  5  0  0  0  0  0  0  0  0  0  0
   19.9556   22.0371   24.0904 O   0  0  0  0  0  0  0  0  0  0  0  0
   19.9425   20.3973   22.3982 C   0  0  0  0  0  0  0  0  0  0  0  0
   19.7462   20.4857   21.3230 H   0  0  0  0  0  0  0  0  0  0  0  0
   19.0174   20.0562   22.8761 H   0  0  0  0  0  0  0  0  0  0  0  0
   21.0851   19.3822   22.6529 C   0  0  0  0  0  0  0  0  0  0  0  0
   22.0273   19.8149   22.2888 H   0  0  0  0  0  0  0  0  0  0  0  0
   21.2095   19.2419   23.7355 H   0  0  0  0  0  0  0  0  0  0  0  0
   20.8813   18.0063   21.9703 C   0  0  0  0  0  0  0  0  0  0  0  0
   21.7732   17.3994   22.1782 H   0  0  0  0  0  0  0  0  0  0  0  0
   20.8507   18.1274   20.8788 H   0  0  0  0  0  0  0  0  0  0  0  0
   19.6392   17.2199   22.4577 C   0  0  0  0  0  0  0  0  0  0  0  0
   19.8848   16.1489   22.4696 H   0  0  0  0  0  0  0  0  0  0  0  0
   19.4001   17.4897   23.4956 H   0  0  0  0  0  0  0  0  0  0  0  0
   18.4010   17.4142   21.5545 C   0  0  0  0  0  0  0  0  0  0  0  0
   17.5552   16.8245   21.9312 H   0  0  0  0  0  0  0  0  0  0  0  0
   18.0851   18.4627   21.5133 H   0  0  0  0  0  0  0  0  0  0  0  0
   18.6103   17.0830   20.5290 H   0  0  0  0  0  0  0  0  0  0  0  0
  1  2  1  0  0  0  0
  1  3  2  0  0  0  0
  1  4  1  0  0  0  0
  4  5  1  0  0  0  0
  4  6  1  0  0  0  0
  4  7  1  0  0  0  0
  7  8  1  0  0  0  0
  7  9  1  0  0  0  0
  7 10  1  0  0  0  0
 10 11  1  0  0  0  0
 10 12  1  0  0  0  0
 10 13  1  0  0  0  0
 13 14  1  0  0  0  0
 13 15  1  0  0  0  0
 13 16  1  0  0  0  0
 16 17  1  0  0  0  0
 16 18  1  0  0  0  0
 16 19  1  0  0  0  0
M  END
> <VConfSearch Rank>
244

> <Conf_Id>
53

> <Delta U+W>
2.279

> <U+W>
-52.612

> <U>
10.231

> <W>
-62.843

> <W(PB)>
-64.893

> <W(SA)>
2.050

> <Valence>
9.644

> <Coulomb>
-0.164

> <VdW>
0.751

> <VdW6>
-6.881

> <VdW12>
7.631

> <Bond>
0.163

> <Angle>
2.998

> <Pdih>
6.482

> <Idih>
0.001

> <Tether>
0.000

$$$$
VeraChem MOL file


 19 18  0  0  0  0  0  0  0  0999 V2000     
   18.9821   19.8037   20.5888 C   0  0  0  0  0  0  0  0  0  0  0  0
   18.7846   20.9616   20.9003 O   0  5  0  0  0  0  0  0  0  0  0  0
   18.0940   19.0308   20.2868 O   0  0  0  0  0  0  0  0  0  0  0  0
   20.4275   19.3167   20.5055 C   0  0  0  0  0  0  0  0  0  0  0  0
   21.0989   20.1476   20.7538 H   0  0  0  0  0  0  0  0  0  0  0  0
   20.6097   19.0704   19.4530 H   0  0  0  0  0  0  0  0  0  0  0  0
   20.7614   18.0753   21.3799 C   0  0  0  0  0  0  0  0  0  0  0  0
   19.9665   17.3230   21.2816 H   0  0  0  0  0  0  0  0  0  0  0  0
   21.6697   17.6096   20.9742 H   0  0  0  0  0  0  0  0  0  0  0  0
   21.0182   18.3844   22.8757 C   0  0  0  0  0  0  0  0  0  0  0  0
   21.8185   19.1314   22.9669 H   0  0  0  0  0  0  0  0  0  0  0  0
   21.3940   17.4697   23.3543 H   0  0  0  0  0  0  0  0  0  0  0  0
   19.7676   18.8671   23.6429 C   0  0  0  0  0  0  0  0  0  0  0  0
   19.4510   19.8486   23.2677 H   0  0  0  0  0  0  0  0  0  0  0  0
   18.9338   18.1725   23.4705 H   0  0  0  0  0  0  0  0  0  0  0  0
   20.0405   18.9774   25.1566 C   0  0  0  0  0  0  0  0  0  0  0  0
   20.8541   19.6866   25.3576 H   0  0  0  0  0  0  0  0  0  0  0  0
   19.1454   19.3295   25.6857 H   0  0  0  0  0  0  0  0  0  0  0  0
   20.3219   18.0035   25.5779 H   0  0  0  0  0  0  0  0  0  0  0  0
  1  2  1  0  0  0  0
  1  3  2  0  0  0  0
  1  4  1  0  0  0  0
  4  5  1  0  0  0  0
  4  6  1  0  0  0  0
  4  7  1  0  0  0  0
  7  8  1  0  0  0  0
  7  9  1  0  0  0  0
  7 10  1  0  0  0  0
 10 11  1  0  0  0  0
 10 12  1  0  0  0  0
 10 13  1  0  0  0  0
 13 14  1  0  0  0  0
 13 15  1  0  0  0  0
 13 16  1  0  0  0  0
 16 17  1  0  0  0  0
 16 18  1  0  0  0  0
 16 19  1  0  0  0  0
M  END
> <VConfSearch Rank>
245

> <Conf_Id>
25

> <Delta U+W>
2.065

> <U+W>
-52.826

> <U>
10.967

> <W>
-63.794

> <W(PB)>
-65.830

> <W(SA)>
2.036

> <Valence>
8.609

> <Coulomb>
1.892

> <VdW>
0.467

> <VdW6>
-7.569

> <VdW12>
8.036

> <Bond>
0.170

> <Angle>
3.195

> <Pdih>
5.237

> <Idih>
0.007

> <Tether>
0.000

$$$$
VeraChem MOL file


 19 18  0  0  0  0  0  0  0  0999 V2000     
   21.8968   20.1131   21.4664 C   0  0  0  0  0  0  0  0  0  0  0  0
   22.5460   20.6531   22.3405 O   0  5  0  0  0  0  0  0  0  0  0  0
   21.3298   20.7218   20.5805 O   0  0  0  0  0  0  0  0  0  0  0  0
   21.8476   18.5866   21.4371 C   0  0  0  0  0  0  0  0  0  0  0  0
   22.8778   18.2479   21.2775 H   0  0  0  0  0  0  0  0  0  0  0  0
   21.2724   18.2648   20.5604 H   0  0  0  0  0  0  0  0  0  0  0  0
   21.2887   17.9154   22.7233 C   0  0  0  0  0  0  0  0  0  0  0  0
   21.6349   16.8732   22.7394 H   0  0  0  0  0  0  0  0  0  0  0  0
   21.7228   18.3917   23.6134 H   0  0  0  0  0  0  0  0  0  0  0  0
   19.7436   17.9003   22.8293 C   0  0  0  0  0  0  0  0  0  0  0  0
   19.4656   17.2713   23.6861 H   0  0  0  0  0  0  0  0  0  0  0  0
   19.3166   17.4166   21.9401 H   0  0  0  0  0  0  0  0  0  0  0  0
   19.1112   19.2972   23.0144 C   0  0  0  0  0  0  0  0  0  0  0  0
   19.6071   19.8240   23.8414 H   0  0  0  0  0  0  0  0  0  0  0  0
   19.2628   19.9021   22.1113 H   0  0  0  0  0  0  0  0  0  0  0  0
   17.5989   19.2000   23.2999 C   0  0  0  0  0  0  0  0  0  0  0  0
   17.1635   20.2004   23.4203 H   0  0  0  0  0  0  0  0  0  0  0  0
   17.0755   18.6994   22.4748 H   0  0  0  0  0  0  0  0  0  0  0  0
   17.4078   18.6343   24.2212 H   0  0  0  0  0  0  0  0  0  0  0  0
  1  2  1  0  0  0  0
  1  3  2  0  0  0  0
  1  4  1  0  0  0  0
  4  5  1  0  0  0  0
  4  6  1  0  0  0  0
  4  7  1  0  0  0  0
  7  8  1  0  0  0  0
  7  9  1  0  0  0  0
  7 10  1  0  0  0  0
 10 11  1  0  0  0  0
 10 12  1  0  0  0  0
 10 13  1  0  0  0  0
 13 14  1  0  0  0  0
 13 15  1  0  0  0  0
 13 16  1  0  0  0  0
 16 17  1  0  0  0  0
 16 18  1  0  0  0  0
 16 19  1  0  0  0  0
M  END
> <VConfSearch Rank>
246

> <Conf_Id>
52

> <Delta U+W>
2.070

> <U+W>
-52.822

> <U>
10.967

> <W>
-63.789

> <W(PB)>
-65.837

> <W(SA)>
2.048

> <Valence>
8.609

> <Coulomb>
1.892

> <VdW>
0.467

> <VdW6>
-7.569

> <VdW12>
8.035

> <Bond>
0.170

> <Angle>
3.196

> <Pdih>
5.237

> <Idih>
0.007

> <Tether>
0.000

$$$$
VeraChem MOL file


 19 18  0  0  0  0  0  0  0  0999 V2000     
   18.3539   19.4722   21.1775 C   0  0  0  0  0  0  0  0  0  0  0  0
   17.4458   18.6654   21.2293 O   0  5  0  0  0  0  0  0  0  0  0  0
   18.1826   20.6724   21.2602 O   0  0  0  0  0  0  0  0  0  0  0  0
   19.7651   18.9705   20.8676 C   0  0  0  0  0  0  0  0  0  0  0  0
   20.4759   19.7936   21.0078 H   0  0  0  0  0  0  0  0  0  0  0  0
   19.7728   18.7303   19.7982 H   0  0  0  0  0  0  0  0  0  0  0  0
   20.2282   17.7188   21.6664 C   0  0  0  0  0  0  0  0  0  0  0  0
   19.4032   16.9975   21.7458 H   0  0  0  0  0  0  0  0  0  0  0  0
   21.0083   17.2145   21.0804 H   0  0  0  0  0  0  0  0  0  0  0  0
   20.8148   18.0067   23.0722 C   0  0  0  0  0  0  0  0  0  0  0  0
   21.7025   18.6481   22.9842 H   0  0  0  0  0  0  0  0  0  0  0  0
   21.1784   17.0531   23.4790 H   0  0  0  0  0  0  0  0  0  0  0  0
   19.8143   18.6095   24.0878 C   0  0  0  0  0  0  0  0  0  0  0  0
   18.7814   18.3766   23.7940 H   0  0  0  0  0  0  0  0  0  0  0  0
   19.9680   18.1300   25.0643 H   0  0  0  0  0  0  0  0  0  0  0  0
   19.9906   20.1325   24.2680 C   0  0  0  0  0  0  0  0  0  0  0  0
   20.9896   20.3674   24.6574 H   0  0  0  0  0  0  0  0  0  0  0  0
   19.8627   20.6668   23.3194 H   0  0  0  0  0  0  0  0  0  0  0  0
   19.2506   20.5246   24.9774 H   0  0  0  0  0  0  0  0  0  0  0  0
  1  2  1  0  0  0  0
  1  3  2  0  0  0  0
  1  4  1  0  0  0  0
  4  5  1  0  0  0  0
  4  6  1  0  0  0  0
  4  7  1  0  0  0  0
  7  8  1  0  0  0  0
  7  9  1  0  0  0  0
  7 10  1  0  0  0  0
 10 11  1  0  0  0  0
 10 12  1  0  0  0  0
 10 13  1  0  0  0  0
 13 14  1  0  0  0  0
 13 15  1  0  0  0  0
 13 16  1  0  0  0  0
 16 17  1  0  0  0  0
 16 18  1  0  0  0  0
 16 19  1  0  0  0  0
M  END
> <VConfSearch Rank>
247

> <Conf_Id>
66

> <Delta U+W>
5.819

> <U+W>
-49.072

> <U>
15.324

> <W>
-64.396

> <W(PB)>
-66.382

> <W(SA)>
1.986

> <Valence>
11.748

> <Coulomb>
3.201

> <VdW>
0.375

> <VdW6>
-8.854

> <VdW12>
9.229

> <Bond>
0.216

> <Angle>
3.812

> <Pdih>
7.699

> <Idih>
0.022

> <Tether>
0.000

$$$$
VeraChem MOL file


 19 18  0  0  0  0  0  0  0  0999 V2000     
   17.7376   16.3641   22.5792 C   0  0  0  0  0  0  0  0  0  0  0  0
   16.5808   16.1632   22.8908 O   0  5  0  0  0  0  0  0  0  0  0  0
   18.5131   15.4714   22.2964 O   0  0  0  0  0  0  0  0  0  0  0  0
   18.2107   17.8184   22.5508 C   0  0  0  0  0  0  0  0  0  0  0  0
   18.0363   18.2386   23.5484 H   0  0  0  0  0  0  0  0  0  0  0  0
   17.5590   18.3609   21.8558 H   0  0  0  0  0  0  0  0  0  0  0  0
   19.6948   18.0251   22.1472 C   0  0  0  0  0  0  0  0  0  0  0  0
   20.3421   17.4745   22.8438 H   0  0  0  0  0  0  0  0  0  0  0  0
   19.8642   17.5968   21.1495 H   0  0  0  0  0  0  0  0  0  0  0  0
   20.0864   19.5188   22.1446 C   0  0  0  0  0  0  0  0  0  0  0  0
   19.9161   19.9450   23.1428 H   0  0  0  0  0  0  0  0  0  0  0  0
   19.4381   20.0674   21.4476 H   0  0  0  0  0  0  0  0  0  0  0  0
   21.5622   19.7221   21.7431 C   0  0  0  0  0  0  0  0  0  0  0  0
   22.2142   19.1763   22.4392 H   0  0  0  0  0  0  0  0  0  0  0  0
   21.7361   19.2987   20.7441 H   0  0  0  0  0  0  0  0  0  0  0  0
   21.9497   21.2143   21.7417 C   0  0  0  0  0  0  0  0  0  0  0  0
   21.8152   21.6560   22.7378 H   0  0  0  0  0  0  0  0  0  0  0  0
   23.0016   21.3405   21.4542 H   0  0  0  0  0  0  0  0  0  0  0  0
   21.3336   21.7794   21.0300 H   0  0  0  0  0  0  0  0  0  0  0  0
  1  2  1  0  0  0  0
  1  3  2  0  0  0  0
  1  4  1  0  0  0  0
  4  5  1  0  0  0  0
  4  6  1  0  0  0  0
  4  7  1  0  0  0  0
  7  8  1  0  0  0  0
  7  9  1  0  0  0  0
  7 10  1  0  0  0  0
 10 11  1  0  0  0  0
 10 12  1  0  0  0  0
 10 13  1  0  0  0  0
 13 14  1  0  0  0  0
 13 15  1  0  0  0  0
 13 16  1  0  0  0  0
 16 17  1  0  0  0  0
 16 18  1  0  0  0  0
 16 19  1  0  0  0  0
M  END
> <VConfSearch Rank>
248

> <Conf_Id>
0

> <Delta U+W>
0.000

> <U+W>
-54.891

> <U>
6.966

> <W>
-61.857

> <W(PB)>
-63.965

> <W(SA)>
2.108

> <Valence>
7.175

> <Coulomb>
-1.360

> <VdW>
1.151

> <VdW6>
-5.641

> <VdW12>
6.792

> <Bond>
0.119

> <Angle>
2.715

> <Pdih>
4.340

> <Idih>
0.000

> <Tether>
0.000

$$$$
VeraChem MOL file


 19 18  0  0  0  0  0  0  0  0999 V2000     
   18.3861   21.6911   23.3759 C   0  0  0  0  0  0  0  0  0  0  0  0
   19.1323   22.5972   23.6894 O   0  5  0  0  0  0  0  0  0  0  0  0
   17.2478   21.8612   22.9868 O   0  0  0  0  0  0  0  0  0  0  0  0
   18.9142   20.2631   23.4555 C   0  0  0  0  0  0  0  0  0  0  0  0
   18.0753   19.6030   23.7070 H   0  0  0  0  0  0  0  0  0  0  0  0
   19.6287   20.2097   24.2857 H   0  0  0  0  0  0  0  0  0  0  0  0
   19.5864   19.7955   22.1411 C   0  0  0  0  0  0  0  0  0  0  0  0
   18.8621   19.8669   21.3178 H   0  0  0  0  0  0  0  0  0  0  0  0
   20.4156   20.4737   21.8965 H   0  0  0  0  0  0  0  0  0  0  0  0
   20.1122   18.3478   22.2480 C   0  0  0  0  0  0  0  0  0  0  0  0
   19.2812   17.6724   22.4940 H   0  0  0  0  0  0  0  0  0  0  0  0
   20.8350   18.2794   23.0726 H   0  0  0  0  0  0  0  0  0  0  0  0
   20.7813   17.8846   20.9372 C   0  0  0  0  0  0  0  0  0  0  0  0
   20.0607   17.9498   20.1101 H   0  0  0  0  0  0  0  0  0  0  0  0
   21.6144   18.5566   20.6887 H   0  0  0  0  0  0  0  0  0  0  0  0
   21.3049   16.4387   21.0474 C   0  0  0  0  0  0  0  0  0  0  0  0
   21.7773   16.1257   20.1072 H   0  0  0  0  0  0  0  0  0  0  0  0
   22.0517   16.3514   21.8475 H   0  0  0  0  0  0  0  0  0  0  0  0
   20.4864   15.7400   21.2645 H   0  0  0  0  0  0  0  0  0  0  0  0
  1  2  1  0  0  0  0
  1  3  2  0  0  0  0
  1  4  1  0  0  0  0
  4  5  1  0  0  0  0
  4  6  1  0  0  0  0
  4  7  1  0  0  0  0
  7  8  1  0  0  0  0
  7  9  1  0  0  0  0
  7 10  1  0  0  0  0
 10 11  1  0  0  0  0
 10 12  1  0  0  0  0
 10 13  1  0  0  0  0
 13 14  1  0  0  0  0
 13 15  1  0  0  0  0
 13 16  1  0  0  0  0
 16 17  1  0  0  0  0
 16 18  1  0  0  0  0
 16 19  1  0  0  0  0
M  END
> <VConfSearch Rank>
249

> <Conf_Id>
18

> <Delta U+W>
-1.199

> <U+W>
-56.090

> <U>
5.975

> <W>
-62.066

> <W(PB)>
-64.219

> <W(SA)>
2.153

> <Valence>
6.673

> <Coulomb>
-1.307

> <VdW>
0.610

> <VdW6>
-5.351

> <VdW12>
5.961

> <Bond>
0.086

> <Angle>
2.253

> <Pdih>
4.333

> <Idih>
0.001

> <Tether>
0.000

$$$$
VeraChem MOL file


 19 18  0  0  0  0  0  0  0  0999 V2000     
   21.9367   17.2969   20.2154 C   0  0  0  0  0  0  0  0  0  0  0  0
   21.5527   16.6995   19.2295 O   0  5  0  0  0  0  0  0  0  0  0  0
   23.0938   17.6196   20.3977 O   0  0  0  0  0  0  0  0  0  0  0  0
   20.9065   17.6812   21.2715 C   0  0  0  0  0  0  0  0  0  0  0  0
   21.4034   17.6529   22.2477 H   0  0  0  0  0  0  0  0  0  0  0  0
   20.1256   16.9113   21.2811 H   0  0  0  0  0  0  0  0  0  0  0  0
   20.2787   19.0764   21.0178 C   0  0  0  0  0  0  0  0  0  0  0  0
   21.0638   19.8442   21.0546 H   0  0  0  0  0  0  0  0  0  0  0  0
   19.8704   19.0989   19.9979 H   0  0  0  0  0  0  0  0  0  0  0  0
   19.1489   19.4355   22.0119 C   0  0  0  0  0  0  0  0  0  0  0  0
   18.3617   18.6705   21.9666 H   0  0  0  0  0  0  0  0  0  0  0  0
   18.6858   20.3776   21.6877 H   0  0  0  0  0  0  0  0  0  0  0  0
   19.6394   19.5926   23.4687 C   0  0  0  0  0  0  0  0  0  0  0  0
   20.0379   18.6389   23.8390 H   0  0  0  0  0  0  0  0  0  0  0  0
   20.4615   20.3205   23.5067 H   0  0  0  0  0  0  0  0  0  0  0  0
   18.5020   20.0561   24.4008 C   0  0  0  0  0  0  0  0  0  0  0  0
   18.8649   20.1600   25.4316 H   0  0  0  0  0  0  0  0  0  0  0  0
   18.1040   21.0284   24.0822 H   0  0  0  0  0  0  0  0  0  0  0  0
   17.6769   19.3318   24.4033 H   0  0  0  0  0  0  0  0  0  0  0  0
  1  2  1  0  0  0  0
  1  3  2  0  0  0  0
  1  4  1  0  0  0  0
  4  5  1  0  0  0  0
  4  6  1  0  0  0  0
  4  7  1  0  0  0  0
  7  8  1  0  0  0  0
  7  9  1  0  0  0  0
  7 10  1  0  0  0  0
 10 11  1  0  0  0  0
 10 12  1  0  0  0  0
 10 13  1  0  0  0  0
 13 14  1  0  0  0  0
 13 15  1  0  0  0  0
 13 16  1  0  0  0  0
 16 17  1  0  0  0  0
 16 18  1  0  0  0  0
 16 19  1  0  0  0  0
M  END
> <VConfSearch Rank>
250

> <Conf_Id>
34

> <Delta U+W>
-0.563

> <U+W>
-55.455

> <U>
6.914

> <W>
-62.369

> <W(PB)>
-64.446

> <W(SA)>
2.077

> <Valence>
7.196

> <Coulomb>
-1.020

> <VdW>
0.738

> <VdW6>
-6.010

> <VdW12>
6.748

> <Bond>
0.126

> <Angle>
2.499

> <Pdih>
4.570

> <Idih>
0.001

> <Tether>
0.000

$$$$
VeraChem MOL file


 19 18  0  0  0  0  0  0  0  0999 V2000     
   21.5667   17.9339   19.5743 C   0  0  0  0  0  0  0  0  0  0  0  0
   22.2436   16.9255   19.5404 O   0  5  0  0  0  0  0  0  0  0  0  0
   21.6617   18.8349   18.7647 O   0  0  0  0  0  0  0  0  0  0  0  0
   20.5584   18.0868   20.7076 C   0  0  0  0  0  0  0  0  0  0  0  0
   20.1925   17.0882   20.9746 H   0  0  0  0  0  0  0  0  0  0  0  0
   19.7044   18.6534   20.3198 H   0  0  0  0  0  0  0  0  0  0  0  0
   21.1584   18.7874   21.9544 C   0  0  0  0  0  0  0  0  0  0  0  0
   22.0639   18.2458   22.2613 H   0  0  0  0  0  0  0  0  0  0  0  0
   21.4807   19.8028   21.6852 H   0  0  0  0  0  0  0  0  0  0  0  0
   20.1863   18.8487   23.1563 C   0  0  0  0  0  0  0  0  0  0  0  0
   20.7291   19.2489   24.0236 H   0  0  0  0  0  0  0  0  0  0  0  0
   19.8727   17.8315   23.4284 H   0  0  0  0  0  0  0  0  0  0  0  0
   18.9410   19.7254   22.8952 C   0  0  0  0  0  0  0  0  0  0  0  0
   19.2544   20.7282   22.5737 H   0  0  0  0  0  0  0  0  0  0  0  0
   18.3422   19.2995   22.0795 H   0  0  0  0  0  0  0  0  0  0  0  0
   18.0596   19.8440   24.1547 C   0  0  0  0  0  0  0  0  0  0  0  0
   17.7090   18.8567   24.4828 H   0  0  0  0  0  0  0  0  0  0  0  0
   18.6160   20.3030   24.9824 H   0  0  0  0  0  0  0  0  0  0  0  0
   17.1784   20.4667   23.9527 H   0  0  0  0  0  0  0  0  0  0  0  0
  1  2  1  0  0  0  0
  1  3  2  0  0  0  0
  1  4  1  0  0  0  0
  4  5  1  0  0  0  0
  4  6  1  0  0  0  0
  4  7  1  0  0  0  0
  7  8  1  0  0  0  0
  7  9  1  0  0  0  0
  7 10  1  0  0  0  0
 10 11  1  0  0  0  0
 10 12  1  0  0  0  0
 10 13  1  0  0  0  0
 13 14  1  0  0  0  0
 13 15  1  0  0  0  0
 13 16  1  0  0  0  0
 16 17  1  0  0  0  0
 16 18  1  0  0  0  0
 16 19  1  0  0  0  0
M  END
> <VConfSearch Rank>
251

> <Conf_Id>
33

> <Delta U+W>
-0.526

> <U+W>
-55.418

> <U>
6.914

> <W>
-62.332

> <W(PB)>
-64.421

> <W(SA)>
2.090

> <Valence>
7.196

> <Coulomb>
-1.020

> <VdW>
0.738

> <VdW6>
-6.010

> <VdW12>
6.748

> <Bond>
0.126

> <Angle>
2.499

> <Pdih>
4.570

> <Idih>
0.001

> <Tether>
0.000

$$$$
VeraChem MOL file


 19 18  0  0  0  0  0  0  0  0999 V2000     
   18.9343   17.7938   19.4509 C   0  0  0  0  0  0  0  0  0  0  0  0
   17.8055   17.3573   19.5580 O   0  5  0  0  0  0  0  0  0  0  0  0
   19.3536   18.3351   18.4472 O   0  0  0  0  0  0  0  0  0  0  0  0
   19.8707   17.6713   20.6478 C   0  0  0  0  0  0  0  0  0  0  0  0
   20.8930   17.5507   20.2695 H   0  0  0  0  0  0  0  0  0  0  0  0
   19.6146   16.7523   21.1886 H   0  0  0  0  0  0  0  0  0  0  0  0
   19.7931   18.8901   21.6003 C   0  0  0  0  0  0  0  0  0  0  0  0
   20.0428   19.8030   21.0422 H   0  0  0  0  0  0  0  0  0  0  0  0
   18.7586   19.0018   21.9509 H   0  0  0  0  0  0  0  0  0  0  0  0
   20.7495   18.7375   22.8056 C   0  0  0  0  0  0  0  0  0  0  0  0
   21.7671   18.5555   22.4338 H   0  0  0  0  0  0  0  0  0  0  0  0
   20.4689   17.8515   23.3914 H   0  0  0  0  0  0  0  0  0  0  0  0
   20.7784   19.9787   23.7272 C   0  0  0  0  0  0  0  0  0  0  0  0
   21.5625   19.8377   24.4839 H   0  0  0  0  0  0  0  0  0  0  0  0
   21.0642   20.8662   23.1458 H   0  0  0  0  0  0  0  0  0  0  0  0
   19.4362   20.2380   24.4449 C   0  0  0  0  0  0  0  0  0  0  0  0
   19.1153   19.3530   25.0098 H   0  0  0  0  0  0  0  0  0  0  0  0
   19.5338   21.0726   25.1513 H   0  0  0  0  0  0  0  0  0  0  0  0
   18.6440   20.4978   23.7318 H   0  0  0  0  0  0  0  0  0  0  0  0
  1  2  1  0  0  0  0
  1  3  2  0  0  0  0
  1  4  1  0  0  0  0
  4  5  1  0  0  0  0
  4  6  1  0  0  0  0
  4  7  1  0  0  0  0
  7  8  1  0  0  0  0
  7  9  1  0  0  0  0
  7 10  1  0  0  0  0
 10 11  1  0  0  0  0
 10 12  1  0  0  0  0
 10 13  1  0  0  0  0
 13 14  1  0  0  0  0
 13 15  1  0  0  0  0
 13 16  1  0  0  0  0
 16 17  1  0  0  0  0
 16 18  1  0  0  0  0
 16 19  1  0  0  0  0
M  END
> <VConfSearch Rank>
252

> <Conf_Id>
42

> <Delta U+W>
-0.344

> <U+W>
-55.236

> <U>
7.244

> <W>
-62.479

> <W(PB)>
-64.610

> <W(SA)>
2.130

> <Valence>
7.174

> <Coulomb>
-0.669

> <VdW>
0.739

> <VdW6>
-5.969

> <VdW12>
6.708

> <Bond>
0.116

> <Angle>
2.481

> <Pdih>
4.576

> <Idih>
0.000

> <Tether>
0.000

$$$$
VeraChem MOL file


 19 18  0  0  0  0  0  0  0  0999 V2000     
   20.1104   19.6180   19.1401 C   0  0  0  0  0  0  0  0  0  0  0  0
   21.0725   19.0898   18.6189 O   0  5  0  0  0  0  0  0  0  0  0  0
   19.6712   20.6991   18.8014 O   0  0  0  0  0  0  0  0  0  0  0  0
   19.4278   18.8929   20.2946 C   0  0  0  0  0  0  0  0  0  0  0  0
   19.5194   17.8139   20.1214 H   0  0  0  0  0  0  0  0  0  0  0  0
   18.3590   19.1364   20.2653 H   0  0  0  0  0  0  0  0  0  0  0  0
   20.0234   19.2642   21.6751 C   0  0  0  0  0  0  0  0  0  0  0  0
   21.0960   19.0293   21.6742 H   0  0  0  0  0  0  0  0  0  0  0  0
   19.9328   20.3482   21.8296 H   0  0  0  0  0  0  0  0  0  0  0  0
   19.3155   18.5123   22.8259 C   0  0  0  0  0  0  0  0  0  0  0  0
   19.4482   17.4293   22.6977 H   0  0  0  0  0  0  0  0  0  0  0  0
   18.2351   18.7029   22.7662 H   0  0  0  0  0  0  0  0  0  0  0  0
   19.8110   18.9313   24.2293 C   0  0  0  0  0  0  0  0  0  0  0  0
   19.6746   20.0133   24.3634 H   0  0  0  0  0  0  0  0  0  0  0  0
   19.1812   18.4431   24.9858 H   0  0  0  0  0  0  0  0  0  0  0  0
   21.2853   18.5569   24.4935 C   0  0  0  0  0  0  0  0  0  0  0  0
   21.9642   19.1112   23.8335 H   0  0  0  0  0  0  0  0  0  0  0  0
   21.5618   18.7942   25.5290 H   0  0  0  0  0  0  0  0  0  0  0  0
   21.4522   17.4832   24.3369 H   0  0  0  0  0  0  0  0  0  0  0  0
  1  2  1  0  0  0  0
  1  3  2  0  0  0  0
  1  4  1  0  0  0  0
  4  5  1  0  0  0  0
  4  6  1  0  0  0  0
  4  7  1  0  0  0  0
  7  8  1  0  0  0  0
  7  9  1  0  0  0  0
  7 10  1  0  0  0  0
 10 11  1  0  0  0  0
 10 12  1  0  0  0  0
 10 13  1  0  0  0  0
 13 14  1  0  0  0  0
 13 15  1  0  0  0  0
 13 16  1  0  0  0  0
 16 17  1  0  0  0  0
 16 18  1  0  0  0  0
 16 19  1  0  0  0  0
M  END
> <VConfSearch Rank>
253

> <Conf_Id>
41

> <Delta U+W>
-0.361

> <U+W>
-55.252

> <U>
7.244

> <W>
-62.496

> <W(PB)>
-64.596

> <W(SA)>
2.099

> <Valence>
7.174

> <Coulomb>
-0.669

> <VdW>
0.739

> <VdW6>
-5.969

> <VdW12>
6.708

> <Bond>
0.116

> <Angle>
2.481

> <Pdih>
4.576

> <Idih>
0.000

> <Tether>
0.000

$$$$
VeraChem MOL file


 19 18  0  0  0  0  0  0  0  0999 V2000     
   17.9136   18.0357   20.4340 C   0  0  0  0  0  0  0  0  0  0  0  0
   17.7247   19.0568   19.8030 O   0  5  0  0  0  0  0  0  0  0  0  0
   18.1906   16.9699   19.9201 O   0  0  0  0  0  0  0  0  0  0  0  0
   17.7742   18.0872   21.9530 C   0  0  0  0  0  0  0  0  0  0  0  0
   17.1675   17.2256   22.2559 H   0  0  0  0  0  0  0  0  0  0  0  0
   17.2060   18.9858   22.2224 H   0  0  0  0  0  0  0  0  0  0  0  0
   19.1261   18.0610   22.7124 C   0  0  0  0  0  0  0  0  0  0  0  0
   18.9284   17.9605   23.7882 H   0  0  0  0  0  0  0  0  0  0  0  0
   19.6957   17.1709   22.4109 H   0  0  0  0  0  0  0  0  0  0  0  0
   19.9707   19.3311   22.4662 C   0  0  0  0  0  0  0  0  0  0  0  0
   19.3922   20.2188   22.7569 H   0  0  0  0  0  0  0  0  0  0  0  0
   20.1872   19.4297   21.3935 H   0  0  0  0  0  0  0  0  0  0  0  0
   21.2960   19.2977   23.2556 C   0  0  0  0  0  0  0  0  0  0  0  0
   21.0855   19.2034   24.3300 H   0  0  0  0  0  0  0  0  0  0  0  0
   21.8777   18.4120   22.9650 H   0  0  0  0  0  0  0  0  0  0  0  0
   22.1363   20.5663   23.0080 C   0  0  0  0  0  0  0  0  0  0  0  0
   21.5900   21.4663   23.3194 H   0  0  0  0  0  0  0  0  0  0  0  0
   23.0748   20.5258   23.5762 H   0  0  0  0  0  0  0  0  0  0  0  0
   22.3881   20.6690   21.9443 H   0  0  0  0  0  0  0  0  0  0  0  0
  1  2  1  0  0  0  0
  1  3  2  0  0  0  0
  1  4  1  0  0  0  0
  4  5  1  0  0  0  0
  4  6  1  0  0  0  0
  4  7  1  0  0  0  0
  7  8  1  0  0  0  0
  7  9  1  0  0  0  0
  7 10  1  0  0  0  0
 10 11  1  0  0  0  0
 10 12  1  0  0  0  0
 10 13  1  0  0  0  0
 13 14  1  0  0  0  0
 13 15  1  0  0  0  0
 13 16  1  0  0  0  0
 16 17  1  0  0  0  0
 16 18  1  0  0  0  0
 16 19  1  0  0  0  0
M  END
> <VConfSearch Rank>
254

> <Conf_Id>
36

> <Delta U+W>
-0.079

> <U+W>
-54.971

> <U>
8.266

> <W>
-63.237

> <W(PB)>
-65.340

> <W(SA)>
2.103

> <Valence>
6.935

> <Coulomb>
0.874

> <VdW>
0.457

> <VdW6>
-6.205

> <VdW12>
6.662

> <Bond>
0.107

> <Angle>
2.420

> <Pdih>
4.407

> <Idih>
0.001

> <Tether>
0.000

$$$$
VeraChem MOL file


 19 18  0  0  0  0  0  0  0  0999 V2000     
   22.1575   20.4483   20.9631 C   0  0  0  0  0  0  0  0  0  0  0  0
   21.5729   20.6772   19.9227 O   0  5  0  0  0  0  0  0  0  0  0  0
   23.2726   19.9682   21.0155 O   0  0  0  0  0  0  0  0  0  0  0  0
   21.4641   20.8019   22.2759 C   0  0  0  0  0  0  0  0  0  0  0  0
   20.6555   21.5122   22.0649 H   0  0  0  0  0  0  0  0  0  0  0  0
   22.1945   21.3292   22.9008 H   0  0  0  0  0  0  0  0  0  0  0  0
   20.9115   19.5759   23.0484 C   0  0  0  0  0  0  0  0  0  0  0  0
   21.7265   18.8609   23.2272 H   0  0  0  0  0  0  0  0  0  0  0  0
   20.5582   19.9059   24.0347 H   0  0  0  0  0  0  0  0  0  0  0  0
   19.7547   18.8750   22.3015 C   0  0  0  0  0  0  0  0  0  0  0  0
   20.1050   18.5266   21.3200 H   0  0  0  0  0  0  0  0  0  0  0  0
   18.9482   19.5969   22.1136 H   0  0  0  0  0  0  0  0  0  0  0  0
   19.1999   17.6784   23.1020 C   0  0  0  0  0  0  0  0  0  0  0  0
   20.0041   16.9534   23.2893 H   0  0  0  0  0  0  0  0  0  0  0  0
   18.8440   18.0216   24.0833 H   0  0  0  0  0  0  0  0  0  0  0  0
   18.0459   16.9812   22.3542 C   0  0  0  0  0  0  0  0  0  0  0  0
   18.3823   16.6000   21.3811 H   0  0  0  0  0  0  0  0  0  0  0  0
   17.6638   16.1330   22.9369 H   0  0  0  0  0  0  0  0  0  0  0  0
   17.2137   17.6760   22.1810 H   0  0  0  0  0  0  0  0  0  0  0  0
  1  2  1  0  0  0  0
  1  3  2  0  0  0  0
  1  4  1  0  0  0  0
  4  5  1  0  0  0  0
  4  6  1  0  0  0  0
  4  7  1  0  0  0  0
  7  8  1  0  0  0  0
  7  9  1  0  0  0  0
  7 10  1  0  0  0  0
 10 11  1  0  0  0  0
 10 12  1  0  0  0  0
 10 13  1  0  0  0  0
 13 14  1  0  0  0  0
 13 15  1  0  0  0  0
 13 16  1  0  0  0  0
 16 17  1  0  0  0  0
 16 18  1  0  0  0  0
 16 19  1  0  0  0  0
M  END
> <VConfSearch Rank>
255

> <Conf_Id>
35

> <Delta U+W>
-0.030

> <U+W>
-54.921

> <U>
8.267

> <W>
-63.188

> <W(PB)>
-65.294

> <W(SA)>
2.106

> <Valence>
6.935

> <Coulomb>
0.875

> <VdW>
0.457

> <VdW6>
-6.205

> <VdW12>
6.662

> <Bond>
0.107

> <Angle>
2.420

> <Pdih>
4.407

> <Idih>
0.001

> <Tether>
0.000

$$$$
VeraChem MOL file


 19 18  0  0  0  0  0  0  0  0999 V2000     
   20.1907   18.0273   25.1055 C   0  0  0  0  0  0  0  0  0  0  0  0
   20.2661   16.8217   25.2379 O   0  5  0  0  0  0  0  0  0  0  0  0
   19.4092   18.7232   25.7234 O   0  0  0  0  0  0  0  0  0  0  0  0
   21.1448   18.7048   24.1256 C   0  0  0  0  0  0  0  0  0  0  0  0
   22.1449   18.2928   24.3051 H   0  0  0  0  0  0  0  0  0  0  0  0
   21.1942   19.7737   24.3663 H   0  0  0  0  0  0  0  0  0  0  0  0
   20.7651   18.5092   22.6346 C   0  0  0  0  0  0  0  0  0  0  0  0
   21.5837   18.8945   22.0134 H   0  0  0  0  0  0  0  0  0  0  0  0
   20.6808   17.4352   22.4184 H   0  0  0  0  0  0  0  0  0  0  0  0
   19.4457   19.2252   22.2588 C   0  0  0  0  0  0  0  0  0  0  0  0
   19.5454   20.3042   22.4396 H   0  0  0  0  0  0  0  0  0  0  0  0
   18.6428   18.8733   22.9210 H   0  0  0  0  0  0  0  0  0  0  0  0
   19.0110   18.9834   20.7948 C   0  0  0  0  0  0  0  0  0  0  0  0
   18.9084   17.9049   20.6115 H   0  0  0  0  0  0  0  0  0  0  0  0
   18.0133   19.4194   20.6473 H   0  0  0  0  0  0  0  0  0  0  0  0
   19.9785   19.5970   19.7596 C   0  0  0  0  0  0  0  0  0  0  0  0
   20.9603   19.1083   19.7894 H   0  0  0  0  0  0  0  0  0  0  0  0
   19.5793   19.4780   18.7440 H   0  0  0  0  0  0  0  0  0  0  0  0
   20.1213   20.6699   19.9429 H   0  0  0  0  0  0  0  0  0  0  0  0
  1  2  1  0  0  0  0
  1  3  2  0  0  0  0
  1  4  1  0  0  0  0
  4  5  1  0  0  0  0
  4  6  1  0  0  0  0
  4  7  1  0  0  0  0
  7  8  1  0  0  0  0
  7  9  1  0  0  0  0
  7 10  1  0  0  0  0
 10 11  1  0  0  0  0
 10 12  1  0  0  0  0
 10 13  1  0  0  0  0
 13 14  1  0  0  0  0
 13 15  1  0  0  0  0
 13 16  1  0  0  0  0
 16 17  1  0  0  0  0
 16 18  1  0  0  0  0
 16 19  1  0  0  0  0
M  END
> <VConfSearch Rank>
256

> <Conf_Id>
74

> <Delta U+W>
0.797

> <U+W>
-54.095

> <U>
8.869

> <W>
-62.964

> <W(PB)>
-65.046

> <W(SA)>
2.082

> <Valence>
7.469

> <Coulomb>
0.762

> <VdW>
0.639

> <VdW6>
-6.782

> <VdW12>
7.421

> <Bond>
0.141

> <Angle>
2.667

> <Pdih>
4.660

> <Idih>
0.001

> <Tether>
0.000

$$$$
VeraChem MOL file


 19 18  0  0  0  0  0  0  0  0999 V2000     
   19.6104   21.8261   22.5391 C   0  0  0  0  0  0  0  0  0  0  0  0
   19.9905   22.5806   23.4125 O   0  5  0  0  0  0  0  0  0  0  0  0
   19.3452   22.1855   21.4091 O   0  0  0  0  0  0  0  0  0  0  0  0
   19.4774   20.3450   22.8748 C   0  0  0  0  0  0  0  0  0  0  0  0
   18.6514   19.9406   22.2788 H   0  0  0  0  0  0  0  0  0  0  0  0
   19.1913   20.2587   23.9298 H   0  0  0  0  0  0  0  0  0  0  0  0
   20.7810   19.5490   22.6073 C   0  0  0  0  0  0  0  0  0  0  0  0
   21.0368   19.6108   21.5412 H   0  0  0  0  0  0  0  0  0  0  0  0
   21.6067   20.0337   23.1462 H   0  0  0  0  0  0  0  0  0  0  0  0
   20.7042   18.0670   23.0530 C   0  0  0  0  0  0  0  0  0  0  0  0
   20.5496   18.0300   24.1399 H   0  0  0  0  0  0  0  0  0  0  0  0
   21.6779   17.5927   22.8690 H   0  0  0  0  0  0  0  0  0  0  0  0
   19.6006   17.2271   22.3641 C   0  0  0  0  0  0  0  0  0  0  0  0
   19.6344   16.2063   22.7690 H   0  0  0  0  0  0  0  0  0  0  0  0
   18.6084   17.6218   22.6198 H   0  0  0  0  0  0  0  0  0  0  0  0
   19.7536   17.1575   20.8294 C   0  0  0  0  0  0  0  0  0  0  0  0
   20.7483   16.7865   20.5501 H   0  0  0  0  0  0  0  0  0  0  0  0
   19.0058   16.4789   20.3992 H   0  0  0  0  0  0  0  0  0  0  0  0
   19.6113   18.1437   20.3695 H   0  0  0  0  0  0  0  0  0  0  0  0
  1  2  1  0  0  0  0
  1  3  2  0  0  0  0
  1  4  1  0  0  0  0
  4  5  1  0  0  0  0
  4  6  1  0  0  0  0
  4  7  1  0  0  0  0
  7  8  1  0  0  0  0
  7  9  1  0  0  0  0
  7 10  1  0  0  0  0
 10 11  1  0  0  0  0
 10 12  1  0  0  0  0
 10 13  1  0  0  0  0
 13 14  1  0  0  0  0
 13 15  1  0  0  0  0
 13 16  1  0  0  0  0
 16 17  1  0  0  0  0
 16 18  1  0  0  0  0
 16 19  1  0  0  0  0
M  END
> <VConfSearch Rank>
257

> <Conf_Id>
67

> <Delta U+W>
0.308

> <U+W>
-54.583

> <U>
8.219

> <W>
-62.802

> <W(PB)>
-64.859

> <W(SA)>
2.057

> <Valence>
7.609

> <Coulomb>
-0.089

> <VdW>
0.699

> <VdW6>
-6.924

> <VdW12>
7.623

> <Bond>
0.163

> <Angle>
2.870

> <Pdih>
4.576

> <Idih>
0.001

> <Tether>
0.000

$$$$
VeraChem MOL file


 19 18  0  0  0  0  0  0  0  0999 V2000     
   19.8138   21.7405   21.4939 C   0  0  0  0  0  0  0  0  0  0  0  0
   20.4803   22.3493   20.6805 O   0  5  0  0  0  0  0  0  0  0  0  0
   19.2133   22.2744   22.4053 O   0  0  0  0  0  0  0  0  0  0  0  0
   19.7433   20.2222   21.3753 C   0  0  0  0  0  0  0  0  0  0  0  0
   19.8080   19.9597   20.3127 H   0  0  0  0  0  0  0  0  0  0  0  0
   18.7560   19.9053   21.7301 H   0  0  0  0  0  0  0  0  0  0  0  0
   20.8632   19.5049   22.1727 C   0  0  0  0  0  0  0  0  0  0  0  0
   21.8348   19.9103   21.8583 H   0  0  0  0  0  0  0  0  0  0  0  0
   20.7654   19.7445   23.2399 H   0  0  0  0  0  0  0  0  0  0  0  0
   20.8812   17.9689   21.9699 C   0  0  0  0  0  0  0  0  0  0  0  0
   21.7270   17.5491   22.5313 H   0  0  0  0  0  0  0  0  0  0  0  0
   21.0822   17.7521   20.9119 H   0  0  0  0  0  0  0  0  0  0  0  0
   19.5860   17.2323   22.3916 C   0  0  0  0  0  0  0  0  0  0  0  0
   18.7429   17.5615   21.7700 H   0  0  0  0  0  0  0  0  0  0  0  0
   19.7119   16.1600   22.1886 H   0  0  0  0  0  0  0  0  0  0  0  0
   19.2359   17.4171   23.8838 C   0  0  0  0  0  0  0  0  0  0  0  0
   18.9884   18.4622   24.1089 H   0  0  0  0  0  0  0  0  0  0  0  0
   18.3661   16.8040   24.1531 H   0  0  0  0  0  0  0  0  0  0  0  0
   20.0746   17.1152   24.5245 H   0  0  0  0  0  0  0  0  0  0  0  0
  1  2  1  0  0  0  0
  1  3  2  0  0  0  0
  1  4  1  0  0  0  0
  4  5  1  0  0  0  0
  4  6  1  0  0  0  0
  4  7  1  0  0  0  0
  7  8  1  0  0  0  0
  7  9  1  0  0  0  0
  7 10  1  0  0  0  0
 10 11  1  0  0  0  0
 10 12  1  0  0  0  0
 10 13  1  0  0  0  0
 13 14  1  0  0  0  0
 13 15  1  0  0  0  0
 13 16  1  0  0  0  0
 16 17  1  0  0  0  0
 16 18  1  0  0  0  0
 16 19  1  0  0  0  0
M  END
> <VConfSearch Rank>
258

> <Conf_Id>
21

> <Delta U+W>
0.319

> <U+W>
-54.572

> <U>
8.220

> <W>
-62.792

> <W(PB)>
-64.830

> <W(SA)>
2.038

> <Valence>
7.609

> <Coulomb>
-0.088

> <VdW>
0.699

> <VdW6>
-6.924

> <VdW12>
7.623

> <Bond>
0.163

> <Angle>
2.870

> <Pdih>
4.576

> <Idih>
0.000

> <Tether>
0.000

$$$$
VeraChem MOL file


 19 18  0  0  0  0  0  0  0  0999 V2000     
   20.9018   21.6612   22.4627 C   0  0  0  0  0  0  0  0  0  0  0  0
   20.4122   22.6290   23.0105 O   0  5  0  0  0  0  0  0  0  0  0  0
   22.0808   21.5719   22.1832 O   0  0  0  0  0  0  0  0  0  0  0  0
   19.9897   20.4875   22.1243 C   0  0  0  0  0  0  0  0  0  0  0  0
   20.3727   20.0162   21.2138 H   0  0  0  0  0  0  0  0  0  0  0  0
   18.9980   20.8884   21.8832 H   0  0  0  0  0  0  0  0  0  0  0  0
   19.8798   19.4591   23.2811 C   0  0  0  0  0  0  0  0  0  0  0  0
   20.8788   19.0995   23.5638 H   0  0  0  0  0  0  0  0  0  0  0  0
   19.4828   19.9828   24.1617 H   0  0  0  0  0  0  0  0  0  0  0  0
   18.9508   18.2619   22.9560 C   0  0  0  0  0  0  0  0  0  0  0  0
   18.1627   18.5705   22.2556 H   0  0  0  0  0  0  0  0  0  0  0  0
   18.4321   17.9717   23.8800 H   0  0  0  0  0  0  0  0  0  0  0  0
   19.6792   17.0060   22.4176 C   0  0  0  0  0  0  0  0  0  0  0  0
   20.4037   16.6521   23.1641 H   0  0  0  0  0  0  0  0  0  0  0  0
   18.9421   16.2000   22.2990 H   0  0  0  0  0  0  0  0  0  0  0  0
   20.3977   17.2202   21.0694 C   0  0  0  0  0  0  0  0  0  0  0  0
   20.7785   16.2664   20.6820 H   0  0  0  0  0  0  0  0  0  0  0  0
   19.7142   17.6413   20.3207 H   0  0  0  0  0  0  0  0  0  0  0  0
   21.2545   17.8964   21.1810 H   0  0  0  0  0  0  0  0  0  0  0  0
  1  2  1  0  0  0  0
  1  3  2  0  0  0  0
  1  4  1  0  0  0  0
  4  5  1  0  0  0  0
  4  6  1  0  0  0  0
  4  7  1  0  0  0  0
  7  8  1  0  0  0  0
  7  9  1  0  0  0  0
  7 10  1  0  0  0  0
 10 11  1  0  0  0  0
 10 12  1  0  0  0  0
 10 13  1  0  0  0  0
 13 14  1  0  0  0  0
 13 15  1  0  0  0  0
 13 16  1  0  0  0  0
 16 17  1  0  0  0  0
 16 18  1  0  0  0  0
 16 19  1  0  0  0  0
M  END
> <VConfSearch Rank>
259

> <Conf_Id>
24

> <Delta U+W>
2.477

> <U+W>
-52.414

> <U>
10.422

> <W>
-62.836

> <W(PB)>
-64.906

> <W(SA)>
2.070

> <Valence>
9.628

> <Coulomb>
0.101

> <VdW>
0.693

> <VdW6>
-6.927

> <VdW12>
7.620

> <Bond>
0.173

> <Angle>
2.989

> <Pdih>
6.465

> <Idih>
0.001

> <Tether>
0.000

$$$$
VeraChem MOL file


 19 18  0  0  0  0  0  0  0  0999 V2000     
   22.4802   19.0062   22.4691 C   0  0  0  0  0  0  0  0  0  0  0  0
   22.6370   18.6462   21.3191 O   0  5  0  0  0  0  0  0  0  0  0  0
   23.2692   19.7140   23.0638 O   0  0  0  0  0  0  0  0  0  0  0  0
   21.2419   18.5216   23.2187 C   0  0  0  0  0  0  0  0  0  0  0  0
   21.5804   18.1360   24.1875 H   0  0  0  0  0  0  0  0  0  0  0  0
   20.8189   17.6717   22.6737 H   0  0  0  0  0  0  0  0  0  0  0  0
   20.1722   19.6247   23.4506 C   0  0  0  0  0  0  0  0  0  0  0  0
   19.4167   19.2664   24.1626 H   0  0  0  0  0  0  0  0  0  0  0  0
   20.6646   20.4782   23.9371 H   0  0  0  0  0  0  0  0  0  0  0  0
   19.4781   20.1204   22.1552 C   0  0  0  0  0  0  0  0  0  0  0  0
   20.1601   20.0394   21.2978 H   0  0  0  0  0  0  0  0  0  0  0  0
   19.2702   21.1930   22.2694 H   0  0  0  0  0  0  0  0  0  0  0  0
   18.1364   19.4181   21.8322 C   0  0  0  0  0  0  0  0  0  0  0  0
   17.4276   19.5793   22.6561 H   0  0  0  0  0  0  0  0  0  0  0  0
   17.6954   19.8999   20.9488 H   0  0  0  0  0  0  0  0  0  0  0  0
   18.2660   17.9059   21.5562 C   0  0  0  0  0  0  0  0  0  0  0  0
   18.5428   17.3601   22.4666 H   0  0  0  0  0  0  0  0  0  0  0  0
   17.3106   17.4968   21.2032 H   0  0  0  0  0  0  0  0  0  0  0  0
   19.0243   17.7099   20.7868 H   0  0  0  0  0  0  0  0  0  0  0  0
  1  2  1  0  0  0  0
  1  3  2  0  0  0  0
  1  4  1  0  0  0  0
  4  5  1  0  0  0  0
  4  6  1  0  0  0  0
  4  7  1  0  0  0  0
  7  8  1  0  0  0  0
  7  9  1  0  0  0  0
  7 10  1  0  0  0  0
 10 11  1  0  0  0  0
 10 12  1  0  0  0  0
 10 13  1  0  0  0  0
 13 14  1  0  0  0  0
 13 15  1  0  0  0  0
 13 16  1  0  0  0  0
 16 17  1  0  0  0  0
 16 18  1  0  0  0  0
 16 19  1  0  0  0  0
M  END
> <VConfSearch Rank>
260

> <Conf_Id>
4

> <Delta U+W>
3.753

> <U+W>
-51.138

> <U>
12.334

> <W>
-63.472

> <W(PB)>
-65.500

> <W(SA)>
2.028

> <Valence>
9.984

> <Coulomb>
1.767

> <VdW>
0.583

> <VdW6>
-7.767

> <VdW12>
8.349

> <Bond>
0.203

> <Angle>
3.191

> <Pdih>
6.589

> <Idih>
0.001

> <Tether>
0.000

$$$$
VeraChem MOL file


 19 18  0  0  0  0  0  0  0  0999 V2000     
   21.9519   17.6417   21.3651 C   0  0  0  0  0  0  0  0  0  0  0  0
   22.0165   16.9003   20.4043 O   0  5  0  0  0  0  0  0  0  0  0  0
   22.7781   18.4994   21.6070 O   0  0  0  0  0  0  0  0  0  0  0  0
   20.7854   17.4640   22.3336 C   0  0  0  0  0  0  0  0  0  0  0  0
   21.0365   17.9675   23.2726 H   0  0  0  0  0  0  0  0  0  0  0  0
   20.7136   16.3940   22.5608 H   0  0  0  0  0  0  0  0  0  0  0  0
   19.4225   17.9637   21.7789 C   0  0  0  0  0  0  0  0  0  0  0  0
   19.2537   17.4799   20.8068 H   0  0  0  0  0  0  0  0  0  0  0  0
   18.6077   17.6224   22.4313 H   0  0  0  0  0  0  0  0  0  0  0  0
   19.3362   19.5011   21.5934 C   0  0  0  0  0  0  0  0  0  0  0  0
   18.7203   19.7031   20.7064 H   0  0  0  0  0  0  0  0  0  0  0  0
   20.3273   19.9181   21.3683 H   0  0  0  0  0  0  0  0  0  0  0  0
   18.7007   20.2606   22.7838 C   0  0  0  0  0  0  0  0  0  0  0  0
   18.6140   21.3219   22.5130 H   0  0  0  0  0  0  0  0  0  0  0  0
   17.6755   19.9004   22.9465 H   0  0  0  0  0  0  0  0  0  0  0  0
   19.4974   20.1508   24.1002 C   0  0  0  0  0  0  0  0  0  0  0  0
   20.5473   20.4343   23.9494 H   0  0  0  0  0  0  0  0  0  0  0  0
   19.0723   20.8159   24.8629 H   0  0  0  0  0  0  0  0  0  0  0  0
   19.4651   19.1290   24.4979 H   0  0  0  0  0  0  0  0  0  0  0  0
  1  2  1  0  0  0  0
  1  3  2  0  0  0  0
  1  4  1  0  0  0  0
  4  5  1  0  0  0  0
  4  6  1  0  0  0  0
  4  7  1  0  0  0  0
  7  8  1  0  0  0  0
  7  9  1  0  0  0  0
  7 10  1  0  0  0  0
 10 11  1  0  0  0  0
 10 12  1  0  0  0  0
 10 13  1  0  0  0  0
 13 14  1  0  0  0  0
 13 15  1  0  0  0  0
 13 16  1  0  0  0  0
 16 17  1  0  0  0  0
 16 18  1  0  0  0  0
 16 19  1  0  0  0  0
M  END
> <VConfSearch Rank>
261

> <Conf_Id>
73

> <Delta U+W>
3.707

> <U+W>
-51.184

> <U>
12.334

> <W>
-63.519

> <W(PB)>
-65.541

> <W(SA)>
2.022

> <Valence>
9.984

> <Coulomb>
1.768

> <VdW>
0.583

> <VdW6>
-7.767

> <VdW12>
8.350

> <Bond>
0.203

> <Angle>
3.192

> <Pdih>
6.589

> <Idih>
0.001

> <Tether>
0.000

$$$$
VeraChem MOL file


 19 18  0  0  0  0  0  0  0  0999 V2000     
   22.1451   18.4729   23.4508 C   0  0  0  0  0  0  0  0  0  0  0  0
   21.7730   17.5319   24.1238 O   0  5  0  0  0  0  0  0  0  0  0  0
   23.2473   18.5407   22.9433 O   0  0  0  0  0  0  0  0  0  0  0  0
   21.1908   19.6482   23.2576 C   0  0  0  0  0  0  0  0  0  0  0  0
   21.7424   20.5614   23.5098 H   0  0  0  0  0  0  0  0  0  0  0  0
   20.3778   19.5651   23.9879 H   0  0  0  0  0  0  0  0  0  0  0  0
   20.6209   19.7735   21.8182 C   0  0  0  0  0  0  0  0  0  0  0  0
   20.0078   20.6814   21.7498 H   0  0  0  0  0  0  0  0  0  0  0  0
   21.4568   19.9210   21.1207 H   0  0  0  0  0  0  0  0  0  0  0  0
   19.7935   18.5494   21.3482 C   0  0  0  0  0  0  0  0  0  0  0  0
   20.4494   17.6690   21.3045 H   0  0  0  0  0  0  0  0  0  0  0  0
   19.4569   18.7262   20.3176 H   0  0  0  0  0  0  0  0  0  0  0  0
   18.5637   18.2087   22.2250 C   0  0  0  0  0  0  0  0  0  0  0  0
   18.0710   17.3207   21.8060 H   0  0  0  0  0  0  0  0  0  0  0  0
   18.8876   17.9262   23.2358 H   0  0  0  0  0  0  0  0  0  0  0  0
   17.5337   19.3560   22.3072 C   0  0  0  0  0  0  0  0  0  0  0  0
   17.9503   20.2296   22.8241 H   0  0  0  0  0  0  0  0  0  0  0  0
   17.2129   19.6683   21.3049 H   0  0  0  0  0  0  0  0  0  0  0  0
   16.6436   19.0338   22.8627 H   0  0  0  0  0  0  0  0  0  0  0  0
  1  2  1  0  0  0  0
  1  3  2  0  0  0  0
  1  4  1  0  0  0  0
  4  5  1  0  0  0  0
  4  6  1  0  0  0  0
  4  7  1  0  0  0  0
  7  8  1  0  0  0  0
  7  9  1  0  0  0  0
  7 10  1  0  0  0  0
 10 11  1  0  0  0  0
 10 12  1  0  0  0  0
 10 13  1  0  0  0  0
 13 14  1  0  0  0  0
 13 15  1  0  0  0  0
 13 16  1  0  0  0  0
 16 17  1  0  0  0  0
 16 18  1  0  0  0  0
 16 19  1  0  0  0  0
M  END
> <VConfSearch Rank>
262

> <Conf_Id>
56

> <Delta U+W>
1.735

> <U+W>
-53.156

> <U>
10.214

> <W>
-63.370

> <W(PB)>
-65.388

> <W(SA)>
2.018

> <Valence>
7.868

> <Coulomb>
1.968

> <VdW>
0.378

> <VdW6>
-8.067

> <VdW12>
8.445

> <Bond>
0.191

> <Angle>
3.117

> <Pdih>
4.559

> <Idih>
0.001

> <Tether>
0.000

$$$$
VeraChem MOL file


 19 18  0  0  0  0  0  0  0  0999 V2000     
   22.8556   18.8467   21.8822 C   0  0  0  0  0  0  0  0  0  0  0  0
   23.5434   17.9140   22.2474 O   0  5  0  0  0  0  0  0  0  0  0  0
   23.3094   19.9071   21.4999 O   0  0  0  0  0  0  0  0  0  0  0  0
   21.3403   18.6851   21.9264 C   0  0  0  0  0  0  0  0  0  0  0  0
   21.1040   17.6299   21.7442 H   0  0  0  0  0  0  0  0  0  0  0  0
   20.9208   19.2657   21.0973 H   0  0  0  0  0  0  0  0  0  0  0  0
   20.7259   19.1475   23.2716 C   0  0  0  0  0  0  0  0  0  0  0  0
   21.2642   18.6533   24.0922 H   0  0  0  0  0  0  0  0  0  0  0  0
   20.8983   20.2254   23.3963 H   0  0  0  0  0  0  0  0  0  0  0  0
   19.2145   18.8419   23.4223 C   0  0  0  0  0  0  0  0  0  0  0  0
   18.9110   19.1649   24.4276 H   0  0  0  0  0  0  0  0  0  0  0  0
   19.0441   17.7569   23.3935 H   0  0  0  0  0  0  0  0  0  0  0  0
   18.3042   19.5552   22.3919 C   0  0  0  0  0  0  0  0  0  0  0  0
   17.3619   19.8284   22.8866 H   0  0  0  0  0  0  0  0  0  0  0  0
   18.7631   20.4991   22.0668 H   0  0  0  0  0  0  0  0  0  0  0  0
   17.9621   18.6761   21.1685 C   0  0  0  0  0  0  0  0  0  0  0  0
   17.3029   19.2188   20.4787 H   0  0  0  0  0  0  0  0  0  0  0  0
   18.8592   18.3827   20.6118 H   0  0  0  0  0  0  0  0  0  0  0  0
   17.4418   17.7608   21.4791 H   0  0  0  0  0  0  0  0  0  0  0  0
  1  2  1  0  0  0  0
  1  3  2  0  0  0  0
  1  4  1  0  0  0  0
  4  5  1  0  0  0  0
  4  6  1  0  0  0  0
  4  7  1  0  0  0  0
  7  8  1  0  0  0  0
  7  9  1  0  0  0  0
  7 10  1  0  0  0  0
 10 11  1  0  0  0  0
 10 12  1  0  0  0  0
 10 13  1  0  0  0  0
 13 14  1  0  0  0  0
 13 15  1  0  0  0  0
 13 16  1  0  0  0  0
 16 17  1  0  0  0  0
 16 18  1  0  0  0  0
 16 19  1  0  0  0  0
M  END
> <VConfSearch Rank>
263

> <Conf_Id>
53

> <Delta U+W>
2.279

> <U+W>
-52.612

> <U>
10.231

> <W>
-62.843

> <W(PB)>
-64.893

> <W(SA)>
2.050

> <Valence>
9.644

> <Coulomb>
-0.164

> <VdW>
0.751

> <VdW6>
-6.881

> <VdW12>
7.631

> <Bond>
0.163

> <Angle>
2.998

> <Pdih>
6.482

> <Idih>
0.001

> <Tether>
0.000

$$$$
VeraChem MOL file


 19 18  0  0  0  0  0  0  0  0999 V2000     
   19.6990   21.0678   23.4802 C   0  0  0  0  0  0  0  0  0  0  0  0
   19.7545   20.8515   24.6747 O   0  5  0  0  0  0  0  0  0  0  0  0
   18.7232   21.5390   22.9297 O   0  0  0  0  0  0  0  0  0  0  0  0
   20.9463   20.7982   22.6406 C   0  0  0  0  0  0  0  0  0  0  0  0
   21.7453   20.4312   23.2962 H   0  0  0  0  0  0  0  0  0  0  0  0
   21.2767   21.7709   22.2581 H   0  0  0  0  0  0  0  0  0  0  0  0
   20.7439   19.8269   21.4436 C   0  0  0  0  0  0  0  0  0  0  0  0
   19.8177   20.0793   20.9088 H   0  0  0  0  0  0  0  0  0  0  0  0
   21.5607   19.9955   20.7288 H   0  0  0  0  0  0  0  0  0  0  0  0
   20.7483   18.3242   21.8183 C   0  0  0  0  0  0  0  0  0  0  0  0
   21.6797   18.0773   22.3460 H   0  0  0  0  0  0  0  0  0  0  0  0
   20.7565   17.7397   20.8881 H   0  0  0  0  0  0  0  0  0  0  0  0
   19.5371   17.8837   22.6695 C   0  0  0  0  0  0  0  0  0  0  0  0
   19.5802   18.3563   23.6591 H   0  0  0  0  0  0  0  0  0  0  0  0
   18.6054   18.2191   22.1932 H   0  0  0  0  0  0  0  0  0  0  0  0
   19.4999   16.3528   22.8505 C   0  0  0  0  0  0  0  0  0  0  0  0
   20.4104   15.9947   23.3487 H   0  0  0  0  0  0  0  0  0  0  0  0
   18.6390   16.0573   23.4642 H   0  0  0  0  0  0  0  0  0  0  0  0
   19.4158   15.8438   21.8814 H   0  0  0  0  0  0  0  0  0  0  0  0
  1  2  1  0  0  0  0
  1  3  2  0  0  0  0
  1  4  1  0  0  0  0
  4  5  1  0  0  0  0
  4  6  1  0  0  0  0
  4  7  1  0  0  0  0
  7  8  1  0  0  0  0
  7  9  1  0  0  0  0
  7 10  1  0  0  0  0
 10 11  1  0  0  0  0
 10 12  1  0  0  0  0
 10 13  1  0  0  0  0
 13 14  1  0  0  0  0
 13 15  1  0  0  0  0
 13 16  1  0  0  0  0
 16 17  1  0  0  0  0
 16 18  1  0  0  0  0
 16 19  1  0  0  0  0
M  END
> <VConfSearch Rank>
264

> <Conf_Id>
25

> <Delta U+W>
2.065

> <U+W>
-52.826

> <U>
10.967

> <W>
-63.794

> <W(PB)>
-65.830

> <W(SA)>
2.036

> <Valence>
8.609

> <Coulomb>
1.892

> <VdW>
0.467

> <VdW6>
-7.569

> <VdW12>
8.036

> <Bond>
0.170

> <Angle>
3.195

> <Pdih>
5.237

> <Idih>
0.007

> <Tether>
0.000

$$$$
VeraChem MOL file


 19 18  0  0  0  0  0  0  0  0999 V2000     
   18.2271   18.6816   24.0094 C   0  0  0  0  0  0  0  0  0  0  0  0
   18.1983   19.6788   24.7037 O   0  5  0  0  0  0  0  0  0  0  0  0
   18.3245   17.5563   24.4578 O   0  0  0  0  0  0  0  0  0  0  0  0
   18.0620   18.8436   22.4995 C   0  0  0  0  0  0  0  0  0  0  0  0
   17.0651   19.2714   22.3425 H   0  0  0  0  0  0  0  0  0  0  0  0
   18.0543   17.8510   22.0328 H   0  0  0  0  0  0  0  0  0  0  0  0
   19.1169   19.7541   21.8100 C   0  0  0  0  0  0  0  0  0  0  0  0
   18.7014   20.0862   20.8490 H   0  0  0  0  0  0  0  0  0  0  0  0
   19.2703   20.6658   22.4039 H   0  0  0  0  0  0  0  0  0  0  0  0
   20.4772   19.0711   21.5244 C   0  0  0  0  0  0  0  0  0  0  0  0
   21.0772   19.7502   20.9033 H   0  0  0  0  0  0  0  0  0  0  0  0
   20.3173   18.1648   20.9245 H   0  0  0  0  0  0  0  0  0  0  0  0
   21.2836   18.7180   22.7935 C   0  0  0  0  0  0  0  0  0  0  0  0
   21.3584   19.5999   23.4447 H   0  0  0  0  0  0  0  0  0  0  0  0
   20.7635   17.9392   23.3658 H   0  0  0  0  0  0  0  0  0  0  0  0
   22.6989   18.2161   22.4428 C   0  0  0  0  0  0  0  0  0  0  0  0
   23.2552   17.9615   23.3543 H   0  0  0  0  0  0  0  0  0  0  0  0
   22.6516   17.3183   21.8126 H   0  0  0  0  0  0  0  0  0  0  0  0
   23.2667   18.9851   21.9030 H   0  0  0  0  0  0  0  0  0  0  0  0
  1  2  1  0  0  0  0
  1  3  2  0  0  0  0
  1  4  1  0  0  0  0
  4  5  1  0  0  0  0
  4  6  1  0  0  0  0
  4  7  1  0  0  0  0
  7  8  1  0  0  0  0
  7  9  1  0  0  0  0
  7 10  1  0  0  0  0
 10 11  1  0  0  0  0
 10 12  1  0  0  0  0
 10 13  1  0  0  0  0
 13 14  1  0  0  0  0
 13 15  1  0  0  0  0
 13 16  1  0  0  0  0
 16 17  1  0  0  0  0
 16 18  1  0  0  0  0
 16 19  1  0  0  0  0
M  END
> <VConfSearch Rank>
265

> <Conf_Id>
52

> <Delta U+W>
2.070

> <U+W>
-52.822

> <U>
10.967

> <W>
-63.789

> <W(PB)>
-65.837

> <W(SA)>
2.048

> <Valence>
8.609

> <Coulomb>
1.892

> <VdW>
0.467

> <VdW6>
-7.569

> <VdW12>
8.035

> <Bond>
0.170

> <Angle>
3.196

> <Pdih>
5.237

> <Idih>
0.007

> <Tether>
0.000

$$$$
VeraChem MOL file


 19 18  0  0  0  0  0  0  0  0999 V2000     
   19.7823   20.4866   21.1838 C   0  0  0  0  0  0  0  0  0  0  0  0
   18.6261   20.6371   20.8393 O   0  5  0  0  0  0  0  0  0  0  0  0
   20.4799   21.3964   21.5867 O   0  0  0  0  0  0  0  0  0  0  0  0
   20.4355   19.1180   20.9850 C   0  0  0  0  0  0  0  0  0  0  0  0
   21.4134   19.1132   21.4812 H   0  0  0  0  0  0  0  0  0  0  0  0
   20.6305   19.0290   19.9102 H   0  0  0  0  0  0  0  0  0  0  0  0
   19.5935   17.8939   21.4455 C   0  0  0  0  0  0  0  0  0  0  0  0
   18.5404   18.0361   21.1664 H   0  0  0  0  0  0  0  0  0  0  0  0
   19.9353   17.0173   20.8788 H   0  0  0  0  0  0  0  0  0  0  0  0
   19.6978   17.5439   22.9521 C   0  0  0  0  0  0  0  0  0  0  0  0
   20.7381   17.3029   23.2102 H   0  0  0  0  0  0  0  0  0  0  0  0
   19.1306   16.6172   23.1149 H   0  0  0  0  0  0  0  0  0  0  0  0
   19.1407   18.6210   23.9140 C   0  0  0  0  0  0  0  0  0  0  0  0
   18.4193   19.2655   23.3929 H   0  0  0  0  0  0  0  0  0  0  0  0
   18.5792   18.1233   24.7167 H   0  0  0  0  0  0  0  0  0  0  0  0
   20.2514   19.4742   24.5632 C   0  0  0  0  0  0  0  0  0  0  0  0
   20.9208   18.8498   25.1691 H   0  0  0  0  0  0  0  0  0  0  0  0
   20.8581   19.9864   23.8074 H   0  0  0  0  0  0  0  0  0  0  0  0
   19.8160   20.2385   25.2197 H   0  0  0  0  0  0  0  0  0  0  0  0
  1  2  1  0  0  0  0
  1  3  2  0  0  0  0
  1  4  1  0  0  0  0
  4  5  1  0  0  0  0
  4  6  1  0  0  0  0
  4  7  1  0  0  0  0
  7  8  1  0  0  0  0
  7  9  1  0  0  0  0
  7 10  1  0  0  0  0
 10 11  1  0  0  0  0
 10 12  1  0  0  0  0
 10 13  1  0  0  0  0
 13 14  1  0  0  0  0
 13 15  1  0  0  0  0
 13 16  1  0  0  0  0
 16 17  1  0  0  0  0
 16 18  1  0  0  0  0
 16 19  1  0  0  0  0
M  END
> <VConfSearch Rank>
266

> <Conf_Id>
66

> <Delta U+W>
5.819

> <U+W>
-49.072

> <U>
15.324

> <W>
-64.396

> <W(PB)>
-66.382

> <W(SA)>
1.986

> <Valence>
11.748

> <Coulomb>
3.201

> <VdW>
0.375

> <VdW6>
-8.854

> <VdW12>
9.229

> <Bond>
0.216

> <Angle>
3.812

> <Pdih>
7.699

> <Idih>
0.022

> <Tether>
0.000

$$$$
VeraChem MOL file


 19 18  0  0  0  0  0  0  0  0999 V2000     
   21.9733   21.4466   21.0085 C   0  0  0  0  0  0  0  0  0  0  0  0
   22.5278   21.8436   20.0033 O   0  5  0  0  0  0  0  0  0  0  0  0
   22.0408   22.0249   22.0759 O   0  0  0  0  0  0  0  0  0  0  0  0
   21.1601   20.1561   20.8940 C   0  0  0  0  0  0  0  0  0  0  0  0
   21.8376   19.3735   20.5327 H   0  0  0  0  0  0  0  0  0  0  0  0
   20.4059   20.3128   20.1138 H   0  0  0  0  0  0  0  0  0  0  0  0
   20.4703   19.6887   22.2033 C   0  0  0  0  0  0  0  0  0  0  0  0
   21.2305   19.5392   22.9824 H   0  0  0  0  0  0  0  0  0  0  0  0
   19.7974   20.4795   22.5630 H   0  0  0  0  0  0  0  0  0  0  0  0
   19.6733   18.3823   21.9975 C   0  0  0  0  0  0  0  0  0  0  0  0
   20.3478   17.5932   21.6377 H   0  0  0  0  0  0  0  0  0  0  0  0
   18.9139   18.5341   21.2181 H   0  0  0  0  0  0  0  0  0  0  0  0
   18.9884   17.9194   23.3002 C   0  0  0  0  0  0  0  0  0  0  0  0
   19.7450   17.7647   24.0819 H   0  0  0  0  0  0  0  0  0  0  0  0
   18.3112   18.7053   23.6623 H   0  0  0  0  0  0  0  0  0  0  0  0
   18.1937   16.6149   23.0911 C   0  0  0  0  0  0  0  0  0  0  0  0
   18.8530   15.8023   22.7586 H   0  0  0  0  0  0  0  0  0  0  0  0
   17.7135   16.3003   24.0268 H   0  0  0  0  0  0  0  0  0  0  0  0
   17.4084   16.7501   22.3359 H   0  0  0  0  0  0  0  0  0  0  0  0
  1  2  1  0  0  0  0
  1  3  2  0  0  0  0
  1  4  1  0  0  0  0
  4  5  1  0  0  0  0
  4  6  1  0  0  0  0
  4  7  1  0  0  0  0
  7  8  1  0  0  0  0
  7  9  1  0  0  0  0
  7 10  1  0  0  0  0
 10 11  1  0  0  0  0
 10 12  1  0  0  0  0
 10 13  1  0  0  0  0
 13 14  1  0  0  0  0
 13 15  1  0  0  0  0
 13 16  1  0  0  0  0
 16 17  1  0  0  0  0
 16 18  1  0  0  0  0
 16 19  1  0  0  0  0
M  END
> <VConfSearch Rank>
267

> <Conf_Id>
0

> <Delta U+W>
0.000

> <U+W>
-54.891

> <U>
6.966

> <W>
-61.857

> <W(PB)>
-63.965

> <W(SA)>
2.108

> <Valence>
7.175

> <Coulomb>
-1.360

> <VdW>
1.151

> <VdW6>
-5.641

> <VdW12>
6.792

> <Bond>
0.119

> <Angle>
2.715

> <Pdih>
4.340

> <Idih>
0.000

> <Tether>
0.000

$$$$
VeraChem MOL file


 19 18  0  0  0  0  0  0  0  0999 V2000     
   16.6887   19.9345   21.9622 C   0  0  0  0  0  0  0  0  0  0  0  0
   16.5184   21.1348   22.0428 O   0  5  0  0  0  0  0  0  0  0  0  0
   15.9550   19.1912   21.3415 O   0  0  0  0  0  0  0  0  0  0  0  0
   17.9015   19.3307   22.6615 C   0  0  0  0  0  0  0  0  0  0  0  0
   17.6377   18.3172   22.9871 H   0  0  0  0  0  0  0  0  0  0  0  0
   18.1024   19.9193   23.5647 H   0  0  0  0  0  0  0  0  0  0  0  0
   19.1593   19.2913   21.7589 C   0  0  0  0  0  0  0  0  0  0  0  0
   18.9380   18.7093   20.8534 H   0  0  0  0  0  0  0  0  0  0  0  0
   19.4026   20.3115   21.4310 H   0  0  0  0  0  0  0  0  0  0  0  0
   20.3721   18.6762   22.4898 C   0  0  0  0  0  0  0  0  0  0  0  0
   20.1253   17.6569   22.8175 H   0  0  0  0  0  0  0  0  0  0  0  0
   20.5900   19.2594   23.3951 H   0  0  0  0  0  0  0  0  0  0  0  0
   21.6236   18.6382   21.5883 C   0  0  0  0  0  0  0  0  0  0  0  0
   21.4102   18.0539   20.6824 H   0  0  0  0  0  0  0  0  0  0  0  0
   21.8750   19.6563   21.2600 H   0  0  0  0  0  0  0  0  0  0  0  0
   22.8326   18.0233   22.3213 C   0  0  0  0  0  0  0  0  0  0  0  0
   23.7132   18.0041   21.6661 H   0  0  0  0  0  0  0  0  0  0  0  0
   23.0881   18.6069   23.2155 H   0  0  0  0  0  0  0  0  0  0  0  0
   22.6199   16.9925   22.6336 H   0  0  0  0  0  0  0  0  0  0  0  0
  1  2  1  0  0  0  0
  1  3  2  0  0  0  0
  1  4  1  0  0  0  0
  4  5  1  0  0  0  0
  4  6  1  0  0  0  0
  4  7  1  0  0  0  0
  7  8  1  0  0  0  0
  7  9  1  0  0  0  0
  7 10  1  0  0  0  0
 10 11  1  0  0  0  0
 10 12  1  0  0  0  0
 10 13  1  0  0  0  0
 13 14  1  0  0  0  0
 13 15  1  0  0  0  0
 13 16  1  0  0  0  0
 16 17  1  0  0  0  0
 16 18  1  0  0  0  0
 16 19  1  0  0  0  0
M  END
> <VConfSearch Rank>
268

> <Conf_Id>
18

> <Delta U+W>
-1.199

> <U+W>
-56.090

> <U>
5.975

> <W>
-62.066

> <W(PB)>
-64.219

> <W(SA)>
2.153

> <Valence>
6.673

> <Coulomb>
-1.307

> <VdW>
0.610

> <VdW6>
-5.351

> <VdW12>
5.961

> <Bond>
0.086

> <Angle>
2.253

> <Pdih>
4.333

> <Idih>
0.001

> <Tether>
0.000

$$$$
VeraChem MOL file


 19 18  0  0  0  0  0  0  0  0999 V2000     
   18.6596   21.8144   21.7437 C   0  0  0  0  0  0  0  0  0  0  0  0
   18.9869   22.5761   20.8555 O   0  5  0  0  0  0  0  0  0  0  0  0
   17.6123   21.9029   22.3533 O   0  0  0  0  0  0  0  0  0  0  0  0
   19.6053   20.6723   22.0980 C   0  0  0  0  0  0  0  0  0  0  0  0
   19.5032   20.4757   23.1712 H   0  0  0  0  0  0  0  0  0  0  0  0
   20.6326   21.0154   21.9262 H   0  0  0  0  0  0  0  0  0  0  0  0
   19.3269   19.3860   21.2777 C   0  0  0  0  0  0  0  0  0  0  0  0
   18.3108   19.0268   21.4919 H   0  0  0  0  0  0  0  0  0  0  0  0
   19.3475   19.6385   20.2085 H   0  0  0  0  0  0  0  0  0  0  0  0
   20.3479   18.2533   21.5391 C   0  0  0  0  0  0  0  0  0  0  0  0
   21.3617   18.6129   21.3159 H   0  0  0  0  0  0  0  0  0  0  0  0
   20.1469   17.4337   20.8357 H   0  0  0  0  0  0  0  0  0  0  0  0
   20.2968   17.7010   22.9813 C   0  0  0  0  0  0  0  0  0  0  0  0
   20.5695   18.4869   23.6977 H   0  0  0  0  0  0  0  0  0  0  0  0
   19.2715   17.3883   23.2224 H   0  0  0  0  0  0  0  0  0  0  0  0
   21.2526   16.5047   23.1621 C   0  0  0  0  0  0  0  0  0  0  0  0
   21.2073   16.1257   24.1914 H   0  0  0  0  0  0  0  0  0  0  0  0
   20.9851   15.6819   22.4862 H   0  0  0  0  0  0  0  0  0  0  0  0
   22.2903   16.7965   22.9536 H   0  0  0  0  0  0  0  0  0  0  0  0
  1  2  1  0  0  0  0
  1  3  2  0  0  0  0
  1  4  1  0  0  0  0
  4  5  1  0  0  0  0
  4  6  1  0  0  0  0
  4  7  1  0  0  0  0
  7  8  1  0  0  0  0
  7  9  1  0  0  0  0
  7 10  1  0  0  0  0
 10 11  1  0  0  0  0
 10 12  1  0  0  0  0
 10 13  1  0  0  0  0
 13 14  1  0  0  0  0
 13 15  1  0  0  0  0
 13 16  1  0  0  0  0
 16 17  1  0  0  0  0
 16 18  1  0  0  0  0
 16 19  1  0  0  0  0
M  END
> <VConfSearch Rank>
269

> <Conf_Id>
34

> <Delta U+W>
-0.563

> <U+W>
-55.455

> <U>
6.914

> <W>
-62.369

> <W(PB)>
-64.446

> <W(SA)>
2.077

> <Valence>
7.196

> <Coulomb>
-1.020

> <VdW>
0.738

> <VdW6>
-6.010

> <VdW12>
6.748

> <Bond>
0.126

> <Angle>
2.499

> <Pdih>
4.570

> <Idih>
0.001

> <Tether>
0.000

$$$$
VeraChem MOL file


 19 18  0  0  0  0  0  0  0  0999 V2000     
   18.8364   20.3241   19.5274 C   0  0  0  0  0  0  0  0  0  0  0  0
   19.3804   20.2532   18.4433 O   0  5  0  0  0  0  0  0  0  0  0  0
   18.0070   21.1661   19.8096 O   0  0  0  0  0  0  0  0  0  0  0  0
   19.2322   19.3148   20.5993 C   0  0  0  0  0  0  0  0  0  0  0  0
   19.4951   18.3743   20.1006 H   0  0  0  0  0  0  0  0  0  0  0  0
   18.3479   19.1199   21.2164 H   0  0  0  0  0  0  0  0  0  0  0  0
   20.4141   19.8034   21.4765 C   0  0  0  0  0  0  0  0  0  0  0  0
   21.2516   20.0760   20.8194 H   0  0  0  0  0  0  0  0  0  0  0  0
   20.1235   20.7216   22.0054 H   0  0  0  0  0  0  0  0  0  0  0  0
   20.9062   18.7471   22.4941 C   0  0  0  0  0  0  0  0  0  0  0  0
   21.8118   19.1304   22.9840 H   0  0  0  0  0  0  0  0  0  0  0  0
   21.2040   17.8335   21.9615 H   0  0  0  0  0  0  0  0  0  0  0  0
   19.8585   18.4013   23.5758 C   0  0  0  0  0  0  0  0  0  0  0  0
   19.5227   19.3211   24.0742 H   0  0  0  0  0  0  0  0  0  0  0  0
   18.9732   17.9453   23.1135 H   0  0  0  0  0  0  0  0  0  0  0  0
   20.4314   17.4296   24.6270 C   0  0  0  0  0  0  0  0  0  0  0  0
   20.7502   16.4889   24.1592 H   0  0  0  0  0  0  0  0  0  0  0  0
   21.2977   17.8694   25.1383 H   0  0  0  0  0  0  0  0  0  0  0  0
   19.6751   17.1914   25.3862 H   0  0  0  0  0  0  0  0  0  0  0  0
  1  2  1  0  0  0  0
  1  3  2  0  0  0  0
  1  4  1  0  0  0  0
  4  5  1  0  0  0  0
  4  6  1  0  0  0  0
  4  7  1  0  0  0  0
  7  8  1  0  0  0  0
  7  9  1  0  0  0  0
  7 10  1  0  0  0  0
 10 11  1  0  0  0  0
 10 12  1  0  0  0  0
 10 13  1  0  0  0  0
 13 14  1  0  0  0  0
 13 15  1  0  0  0  0
 13 16  1  0  0  0  0
 16 17  1  0  0  0  0
 16 18  1  0  0  0  0
 16 19  1  0  0  0  0
M  END
> <VConfSearch Rank>
270

> <Conf_Id>
33

> <Delta U+W>
-0.526

> <U+W>
-55.418

> <U>
6.914

> <W>
-62.332

> <W(PB)>
-64.421

> <W(SA)>
2.090

> <Valence>
7.196

> <Coulomb>
-1.020

> <VdW>
0.738

> <VdW6>
-6.010

> <VdW12>
6.748

> <Bond>
0.126

> <Angle>
2.499

> <Pdih>
4.570

> <Idih>
0.001

> <Tether>
0.000

$$$$
VeraChem MOL file


 19 18  0  0  0  0  0  0  0  0999 V2000     
   17.8592   16.5759   21.7864 C   0  0  0  0  0  0  0  0  0  0  0  0
   16.8479   16.7757   22.4296 O   0  5  0  0  0  0  0  0  0  0  0  0
   17.8684   16.0335   20.6992 O   0  0  0  0  0  0  0  0  0  0  0  0
   19.1876   17.0473   22.3674 C   0  0  0  0  0  0  0  0  0  0  0  0
   19.9693   16.3527   22.0372 H   0  0  0  0  0  0  0  0  0  0  0  0
   19.1277   16.9724   23.4599 H   0  0  0  0  0  0  0  0  0  0  0  0
   19.5473   18.4949   21.9508 C   0  0  0  0  0  0  0  0  0  0  0  0
   19.5941   18.5558   20.8548 H   0  0  0  0  0  0  0  0  0  0  0  0
   18.7429   19.1682   22.2750 H   0  0  0  0  0  0  0  0  0  0  0  0
   20.8960   18.9474   22.5565 C   0  0  0  0  0  0  0  0  0  0  0  0
   21.6735   18.2221   22.2798 H   0  0  0  0  0  0  0  0  0  0  0  0
   20.8330   18.9333   23.6532 H   0  0  0  0  0  0  0  0  0  0  0  0
   21.3420   20.3499   22.0824 C   0  0  0  0  0  0  0  0  0  0  0  0
   22.3552   20.5441   22.4605 H   0  0  0  0  0  0  0  0  0  0  0  0
   21.4116   20.3664   20.9859 H   0  0  0  0  0  0  0  0  0  0  0  0
   20.4077   21.4822   22.5607 C   0  0  0  0  0  0  0  0  0  0  0  0
   20.2995   21.4673   23.6530 H   0  0  0  0  0  0  0  0  0  0  0  0
   20.8137   22.4611   22.2747 H   0  0  0  0  0  0  0  0  0  0  0  0
   19.4095   21.3936   22.1141 H   0  0  0  0  0  0  0  0  0  0  0  0
  1  2  1  0  0  0  0
  1  3  2  0  0  0  0
  1  4  1  0  0  0  0
  4  5  1  0  0  0  0
  4  6  1  0  0  0  0
  4  7  1  0  0  0  0
  7  8  1  0  0  0  0
  7  9  1  0  0  0  0
  7 10  1  0  0  0  0
 10 11  1  0  0  0  0
 10 12  1  0  0  0  0
 10 13  1  0  0  0  0
 13 14  1  0  0  0  0
 13 15  1  0  0  0  0
 13 16  1  0  0  0  0
 16 17  1  0  0  0  0
 16 18  1  0  0  0  0
 16 19  1  0  0  0  0
M  END
> <VConfSearch Rank>
271

> <Conf_Id>
42

> <Delta U+W>
-0.344

> <U+W>
-55.236

> <U>
7.244

> <W>
-62.479

> <W(PB)>
-64.610

> <W(SA)>
2.130

> <Valence>
7.174

> <Coulomb>
-0.669

> <VdW>
0.739

> <VdW6>
-5.969

> <VdW12>
6.708

> <Bond>
0.116

> <Angle>
2.481

> <Pdih>
4.576

> <Idih>
0.000

> <Tether>
0.000

$$$$
VeraChem MOL file


 19 18  0  0  0  0  0  0  0  0999 V2000     
   21.8005   21.5024   21.5628 C   0  0  0  0  0  0  0  0  0  0  0  0
   21.2888   22.4884   22.0551 O   0  5  0  0  0  0  0  0  0  0  0  0
   22.3891   21.5098   20.4999 O   0  0  0  0  0  0  0  0  0  0  0  0
   21.6819   20.1794   22.3111 C   0  0  0  0  0  0  0  0  0  0  0  0
   21.6701   20.3955   23.3863 H   0  0  0  0  0  0  0  0  0  0  0  0
   22.5851   19.5913   22.1085 H   0  0  0  0  0  0  0  0  0  0  0  0
   20.4195   19.3745   21.9149 C   0  0  0  0  0  0  0  0  0  0  0  0
   19.5307   19.9893   22.1088 H   0  0  0  0  0  0  0  0  0  0  0  0
   20.4412   19.1742   20.8348 H   0  0  0  0  0  0  0  0  0  0  0  0
   20.3229   18.0407   22.6910 C   0  0  0  0  0  0  0  0  0  0  0  0
   20.2516   18.2432   23.7684 H   0  0  0  0  0  0  0  0  0  0  0  0
   21.2512   17.4722   22.5417 H   0  0  0  0  0  0  0  0  0  0  0  0
   19.1314   17.1592   22.2507 C   0  0  0  0  0  0  0  0  0  0  0  0
   19.2022   16.9497   21.1744 H   0  0  0  0  0  0  0  0  0  0  0  0
   19.2033   16.1888   22.7611 H   0  0  0  0  0  0  0  0  0  0  0  0
   17.7570   17.7869   22.5683 C   0  0  0  0  0  0  0  0  0  0  0  0
   17.5921   18.7045   21.9899 H   0  0  0  0  0  0  0  0  0  0  0  0
   16.9488   17.0873   22.3187 H   0  0  0  0  0  0  0  0  0  0  0  0
   17.6741   18.0321   23.6352 H   0  0  0  0  0  0  0  0  0  0  0  0
  1  2  1  0  0  0  0
  1  3  2  0  0  0  0
  1  4  1  0  0  0  0
  4  5  1  0  0  0  0
  4  6  1  0  0  0  0
  4  7  1  0  0  0  0
  7  8  1  0  0  0  0
  7  9  1  0  0  0  0
  7 10  1  0  0  0  0
 10 11  1  0  0  0  0
 10 12  1  0  0  0  0
 10 13  1  0  0  0  0
 13 14  1  0  0  0  0
 13 15  1  0  0  0  0
 13 16  1  0  0  0  0
 16 17  1  0  0  0  0
 16 18  1  0  0  0  0
 16 19  1  0  0  0  0
M  END
> <VConfSearch Rank>
272

> <Conf_Id>
41

> <Delta U+W>
-0.361

> <U+W>
-55.252

> <U>
7.244

> <W>
-62.496

> <W(PB)>
-64.596

> <W(SA)>
2.099

> <Valence>
7.174

> <Coulomb>
-0.669

> <VdW>
0.739

> <VdW6>
-5.969

> <VdW12>
6.708

> <Bond>
0.116

> <Angle>
2.481

> <Pdih>
4.576

> <Idih>
0.000

> <Tether>
0.000

$$$$
VeraChem MOL file


 19 18  0  0  0  0  0  0  0  0999 V2000     
   17.2257   17.7929   22.4786 C   0  0  0  0  0  0  0  0  0  0  0  0
   17.4548   16.8756   23.2418 O   0  5  0  0  0  0  0  0  0  0  0  0
   16.3123   18.5802   22.6294 O   0  0  0  0  0  0  0  0  0  0  0  0
   18.1187   17.9538   21.2514 C   0  0  0  0  0  0  0  0  0  0  0  0
   17.4629   18.1137   20.3873 H   0  0  0  0  0  0  0  0  0  0  0  0
   18.6484   17.0093   21.0772 H   0  0  0  0  0  0  0  0  0  0  0  0
   19.1312   19.1238   21.3562 C   0  0  0  0  0  0  0  0  0  0  0  0
   19.6293   19.2518   20.3856 H   0  0  0  0  0  0  0  0  0  0  0  0
   18.5885   20.0576   21.5590 H   0  0  0  0  0  0  0  0  0  0  0  0
   20.1980   18.8904   22.4492 C   0  0  0  0  0  0  0  0  0  0  0  0
   20.7287   17.9494   22.2493 H   0  0  0  0  0  0  0  0  0  0  0  0
   19.7084   18.7782   23.4266 H   0  0  0  0  0  0  0  0  0  0  0  0
   21.2124   20.0511   22.5144 C   0  0  0  0  0  0  0  0  0  0  0  0
   21.7084   20.1653   21.5406 H   0  0  0  0  0  0  0  0  0  0  0  0
   20.6844   20.9933   22.7167 H   0  0  0  0  0  0  0  0  0  0  0  0
   22.2755   19.8152   23.6059 C   0  0  0  0  0  0  0  0  0  0  0  0
   22.8406   18.8942   23.4111 H   0  0  0  0  0  0  0  0  0  0  0  0
   22.9880   20.6497   23.6388 H   0  0  0  0  0  0  0  0  0  0  0  0
   21.8091   19.7283   24.5960 H   0  0  0  0  0  0  0  0  0  0  0  0
  1  2  1  0  0  0  0
  1  3  2  0  0  0  0
  1  4  1  0  0  0  0
  4  5  1  0  0  0  0
  4  6  1  0  0  0  0
  4  7  1  0  0  0  0
  7  8  1  0  0  0  0
  7  9  1  0  0  0  0
  7 10  1  0  0  0  0
 10 11  1  0  0  0  0
 10 12  1  0  0  0  0
 10 13  1  0  0  0  0
 13 14  1  0  0  0  0
 13 15  1  0  0  0  0
 13 16  1  0  0  0  0
 16 17  1  0  0  0  0
 16 18  1  0  0  0  0
 16 19  1  0  0  0  0
M  END
> <VConfSearch Rank>
273

> <Conf_Id>
36

> <Delta U+W>
-0.079

> <U+W>
-54.971

> <U>
8.266

> <W>
-63.237

> <W(PB)>
-65.340

> <W(SA)>
2.103

> <Valence>
6.935

> <Coulomb>
0.874

> <VdW>
0.457

> <VdW6>
-6.205

> <VdW12>
6.662

> <Bond>
0.107

> <Angle>
2.420

> <Pdih>
4.407

> <Idih>
0.001

> <Tether>
0.000

$$$$
VeraChem MOL file


 19 18  0  0  0  0  0  0  0  0999 V2000     
   17.3685   18.3628   22.7549 C   0  0  0  0  0  0  0  0  0  0  0  0
   17.4226   17.8682   23.8635 O   0  5  0  0  0  0  0  0  0  0  0  0
   16.8142   17.8359   21.8105 O   0  0  0  0  0  0  0  0  0  0  0  0
   18.0123   19.7298   22.5399 C   0  0  0  0  0  0  0  0  0  0  0  0
   18.1561   20.2070   23.5169 H   0  0  0  0  0  0  0  0  0  0  0  0
   17.2941   20.3474   21.9878 H   0  0  0  0  0  0  0  0  0  0  0  0
   19.3552   19.6805   21.7656 C   0  0  0  0  0  0  0  0  0  0  0  0
   19.2014   19.1747   20.8022 H   0  0  0  0  0  0  0  0  0  0  0  0
   19.6724   20.7070   21.5368 H   0  0  0  0  0  0  0  0  0  0  0  0
   20.4727   18.9670   22.5589 C   0  0  0  0  0  0  0  0  0  0  0  0
   20.1699   17.9335   22.7770 H   0  0  0  0  0  0  0  0  0  0  0  0
   20.6136   19.4682   23.5263 H   0  0  0  0  0  0  0  0  0  0  0  0
   21.8067   18.9575   21.7836 C   0  0  0  0  0  0  0  0  0  0  0  0
   21.6691   18.4545   20.8163 H   0  0  0  0  0  0  0  0  0  0  0  0
   22.1168   19.9890   21.5662 H   0  0  0  0  0  0  0  0  0  0  0  0
   22.9196   18.2449   22.5777 C   0  0  0  0  0  0  0  0  0  0  0  0
   22.6490   17.2006   22.7821 H   0  0  0  0  0  0  0  0  0  0  0  0
   23.8604   18.2468   22.0120 H   0  0  0  0  0  0  0  0  0  0  0  0
   23.1000   18.7465   23.5375 H   0  0  0  0  0  0  0  0  0  0  0  0
  1  2  1  0  0  0  0
  1  3  2  0  0  0  0
  1  4  1  0  0  0  0
  4  5  1  0  0  0  0
  4  6  1  0  0  0  0
  4  7  1  0  0  0  0
  7  8  1  0  0  0  0
  7  9  1  0  0  0  0
  7 10  1  0  0  0  0
 10 11  1  0  0  0  0
 10 12  1  0  0  0  0
 10 13  1  0  0  0  0
 13 14  1  0  0  0  0
 13 15  1  0  0  0  0
 13 16  1  0  0  0  0
 16 17  1  0  0  0  0
 16 18  1  0  0  0  0
 16 19  1  0  0  0  0
M  END
> <VConfSearch Rank>
274

> <Conf_Id>
35

> <Delta U+W>
-0.030

> <U+W>
-54.921

> <U>
8.267

> <W>
-63.188

> <W(PB)>
-65.294

> <W(SA)>
2.106

> <Valence>
6.935

> <Coulomb>
0.875

> <VdW>
0.457

> <VdW6>
-6.205

> <VdW12>
6.662

> <Bond>
0.107

> <Angle>
2.420

> <Pdih>
4.407

> <Idih>
0.001

> <Tether>
0.000

$$$$
VeraChem MOL file


 19 18  0  0  0  0  0  0  0  0999 V2000     
   17.1988   19.1827   21.9085 C   0  0  0  0  0  0  0  0  0  0  0  0
   16.6774   18.2045   21.4105 O   0  5  0  0  0  0  0  0  0  0  0  0
   17.0069   20.3176   21.5190 O   0  0  0  0  0  0  0  0  0  0  0  0
   18.1278   18.9741   23.1014 C   0  0  0  0  0  0  0  0  0  0  0  0
   17.6272   18.2818   23.7887 H   0  0  0  0  0  0  0  0  0  0  0  0
   18.2350   19.9272   23.6335 H   0  0  0  0  0  0  0  0  0  0  0  0
   19.5234   18.4111   22.7262 C   0  0  0  0  0  0  0  0  0  0  0  0
   20.0547   18.1527   23.6510 H   0  0  0  0  0  0  0  0  0  0  0  0
   19.3991   17.4776   22.1600 H   0  0  0  0  0  0  0  0  0  0  0  0
   20.3674   19.4147   21.9045 C   0  0  0  0  0  0  0  0  0  0  0  0
   20.5230   20.3325   22.4878 H   0  0  0  0  0  0  0  0  0  0  0  0
   19.8055   19.7094   21.0076 H   0  0  0  0  0  0  0  0  0  0  0  0
   21.7345   18.8467   21.4582 C   0  0  0  0  0  0  0  0  0  0  0  0
   21.5820   17.9295   20.8727 H   0  0  0  0  0  0  0  0  0  0  0  0
   22.2126   19.5698   20.7831 H   0  0  0  0  0  0  0  0  0  0  0  0
   22.6916   18.5589   22.6352 C   0  0  0  0  0  0  0  0  0  0  0  0
   22.3090   17.7546   23.2758 H   0  0  0  0  0  0  0  0  0  0  0  0
   23.6753   18.2461   22.2619 H   0  0  0  0  0  0  0  0  0  0  0  0
   22.8342   19.4546   23.2537 H   0  0  0  0  0  0  0  0  0  0  0  0
  1  2  1  0  0  0  0
  1  3  2  0  0  0  0
  1  4  1  0  0  0  0
  4  5  1  0  0  0  0
  4  6  1  0  0  0  0
  4  7  1  0  0  0  0
  7  8  1  0  0  0  0
  7  9  1  0  0  0  0
  7 10  1  0  0  0  0
 10 11  1  0  0  0  0
 10 12  1  0  0  0  0
 10 13  1  0  0  0  0
 13 14  1  0  0  0  0
 13 15  1  0  0  0  0
 13 16  1  0  0  0  0
 16 17  1  0  0  0  0
 16 18  1  0  0  0  0
 16 19  1  0  0  0  0
M  END
> <VConfSearch Rank>
275

> <Conf_Id>
74

> <Delta U+W>
0.797

> <U+W>
-54.095

> <U>
8.869

> <W>
-62.964

> <W(PB)>
-65.046

> <W(SA)>
2.082

> <Valence>
7.469

> <Coulomb>
0.762

> <VdW>
0.639

> <VdW6>
-6.782

> <VdW12>
7.421

> <Bond>
0.141

> <Angle>
2.667

> <Pdih>
4.660

> <Idih>
0.001

> <Tether>
0.000

$$$$
VeraChem MOL file


 19 18  0  0  0  0  0  0  0  0999 V2000     
   21.3864   17.8583   24.6368 C   0  0  0  0  0  0  0  0  0  0  0  0
   22.3494   18.3065   25.2268 O   0  5  0  0  0  0  0  0  0  0  0  0
   20.5888   17.0907   25.1377 O   0  0  0  0  0  0  0  0  0  0  0  0
   21.1566   18.2980   23.1952 C   0  0  0  0  0  0  0  0  0  0  0  0
   20.6888   17.4625   22.6620 H   0  0  0  0  0  0  0  0  0  0  0  0
   22.1348   18.4738   22.7321 H   0  0  0  0  0  0  0  0  0  0  0  0
   20.2776   19.5710   23.0884 C   0  0  0  0  0  0  0  0  0  0  0  0
   19.2881   19.3714   23.5207 H   0  0  0  0  0  0  0  0  0  0  0  0
   20.7252   20.3612   23.7068 H   0  0  0  0  0  0  0  0  0  0  0  0
   20.1304   20.1023   21.6404 C   0  0  0  0  0  0  0  0  0  0  0  0
   21.1215   20.3915   21.2651 H   0  0  0  0  0  0  0  0  0  0  0  0
   19.5337   21.0244   21.6622 H   0  0  0  0  0  0  0  0  0  0  0  0
   19.4870   19.1137   20.6370 C   0  0  0  0  0  0  0  0  0  0  0  0
   19.4500   19.5931   19.6491 H   0  0  0  0  0  0  0  0  0  0  0  0
   20.1221   18.2257   20.5193 H   0  0  0  0  0  0  0  0  0  0  0  0
   18.0585   18.6832   21.0335 C   0  0  0  0  0  0  0  0  0  0  0  0
   17.4108   19.5575   21.1791 H   0  0  0  0  0  0  0  0  0  0  0  0
   17.6134   18.0590   20.2480 H   0  0  0  0  0  0  0  0  0  0  0  0
   18.0616   18.0977   21.9616 H   0  0  0  0  0  0  0  0  0  0  0  0
  1  2  1  0  0  0  0
  1  3  2  0  0  0  0
  1  4  1  0  0  0  0
  4  5  1  0  0  0  0
  4  6  1  0  0  0  0
  4  7  1  0  0  0  0
  7  8  1  0  0  0  0
  7  9  1  0  0  0  0
  7 10  1  0  0  0  0
 10 11  1  0  0  0  0
 10 12  1  0  0  0  0
 10 13  1  0  0  0  0
 13 14  1  0  0  0  0
 13 15  1  0  0  0  0
 13 16  1  0  0  0  0
 16 17  1  0  0  0  0
 16 18  1  0  0  0  0
 16 19  1  0  0  0  0
M  END
> <VConfSearch Rank>
276

> <Conf_Id>
67

> <Delta U+W>
0.308

> <U+W>
-54.583

> <U>
8.219

> <W>
-62.802

> <W(PB)>
-64.859

> <W(SA)>
2.057

> <Valence>
7.609

> <Coulomb>
-0.089

> <VdW>
0.699

> <VdW6>
-6.924

> <VdW12>
7.623

> <Bond>
0.163

> <Angle>
2.870

> <Pdih>
4.576

> <Idih>
0.001

> <Tether>
0.000

$$$$
VeraChem MOL file


 19 18  0  0  0  0  0  0  0  0999 V2000     
   20.0956   16.3160   23.6240 C   0  0  0  0  0  0  0  0  0  0  0  0
   19.3689   15.3518   23.4871 O   0  5  0  0  0  0  0  0  0  0  0  0
   20.7673   16.5157   24.6166 O   0  0  0  0  0  0  0  0  0  0  0  0
   20.1525   17.3406   22.4966 C   0  0  0  0  0  0  0  0  0  0  0  0
   20.0038   16.8120   21.5474 H   0  0  0  0  0  0  0  0  0  0  0  0
   21.1638   17.7626   22.4799 H   0  0  0  0  0  0  0  0  0  0  0  0
   19.0968   18.4655   22.6534 C   0  0  0  0  0  0  0  0  0  0  0  0
   18.1046   18.0055   22.7590 H   0  0  0  0  0  0  0  0  0  0  0  0
   19.2787   19.0122   23.5882 H   0  0  0  0  0  0  0  0  0  0  0  0
   19.0588   19.4502   21.4578 C   0  0  0  0  0  0  0  0  0  0  0  0
   18.2586   20.1829   21.6299 H   0  0  0  0  0  0  0  0  0  0  0  0
   18.7746   18.8984   20.5514 H   0  0  0  0  0  0  0  0  0  0  0  0
   20.3811   20.2085   21.1851 C   0  0  0  0  0  0  0  0  0  0  0  0
   21.1736   19.5011   20.9074 H   0  0  0  0  0  0  0  0  0  0  0  0
   20.2368   20.8600   20.3123 H   0  0  0  0  0  0  0  0  0  0  0  0
   20.8479   21.0717   22.3769 C   0  0  0  0  0  0  0  0  0  0  0  0
   21.1151   20.4487   23.2399 H   0  0  0  0  0  0  0  0  0  0  0  0
   21.7344   21.6580   22.1027 H   0  0  0  0  0  0  0  0  0  0  0  0
   20.0613   21.7719   22.6868 H   0  0  0  0  0  0  0  0  0  0  0  0
  1  2  1  0  0  0  0
  1  3  2  0  0  0  0
  1  4  1  0  0  0  0
  4  5  1  0  0  0  0
  4  6  1  0  0  0  0
  4  7  1  0  0  0  0
  7  8  1  0  0  0  0
  7  9  1  0  0  0  0
  7 10  1  0  0  0  0
 10 11  1  0  0  0  0
 10 12  1  0  0  0  0
 10 13  1  0  0  0  0
 13 14  1  0  0  0  0
 13 15  1  0  0  0  0
 13 16  1  0  0  0  0
 16 17  1  0  0  0  0
 16 18  1  0  0  0  0
 16 19  1  0  0  0  0
M  END
> <VConfSearch Rank>
277

> <Conf_Id>
21

> <Delta U+W>
0.319

> <U+W>
-54.572

> <U>
8.220

> <W>
-62.792

> <W(PB)>
-64.830

> <W(SA)>
2.038

> <Valence>
7.609

> <Coulomb>
-0.088

> <VdW>
0.699

> <VdW6>
-6.924

> <VdW12>
7.623

> <Bond>
0.163

> <Angle>
2.870

> <Pdih>
4.576

> <Idih>
0.000

> <Tether>
0.000

$$$$
VeraChem MOL file


 19 18  0  0  0  0  0  0  0  0999 V2000     
   19.1792   21.2191   20.7596 C   0  0  0  0  0  0  0  0  0  0  0  0
   19.7474   21.7940   19.8523 O   0  5  0  0  0  0  0  0  0  0  0  0
   17.9782   21.2655   20.9371 O   0  0  0  0  0  0  0  0  0  0  0  0
   20.0176   20.3789   21.7163 C   0  0  0  0  0  0  0  0  0  0  0  0
   19.5417   20.4163   22.7011 H   0  0  0  0  0  0  0  0  0  0  0  0
   20.9983   20.8589   21.8173 H   0  0  0  0  0  0  0  0  0  0  0  0
   20.1905   18.9138   21.2353 C   0  0  0  0  0  0  0  0  0  0  0  0
   19.2075   18.4490   21.0772 H   0  0  0  0  0  0  0  0  0  0  0  0
   20.6795   18.9369   20.2516 H   0  0  0  0  0  0  0  0  0  0  0  0
   21.0460   18.0469   22.1937 C   0  0  0  0  0  0  0  0  0  0  0  0
   21.7813   18.6718   22.7186 H   0  0  0  0  0  0  0  0  0  0  0  0
   21.6316   17.3432   21.5863 H   0  0  0  0  0  0  0  0  0  0  0  0
   20.2308   17.2141   23.2134 C   0  0  0  0  0  0  0  0  0  0  0  0
   19.5612   16.5278   22.6769 H   0  0  0  0  0  0  0  0  0  0  0  0
   20.9266   16.5821   23.7823 H   0  0  0  0  0  0  0  0  0  0  0  0
   19.4073   18.0596   24.2067 C   0  0  0  0  0  0  0  0  0  0  0  0
   18.9617   17.4186   24.9784 H   0  0  0  0  0  0  0  0  0  0  0  0
   20.0382   18.8049   24.7081 H   0  0  0  0  0  0  0  0  0  0  0  0
   18.5872   18.5808   23.6972 H   0  0  0  0  0  0  0  0  0  0  0  0
  1  2  1  0  0  0  0
  1  3  2  0  0  0  0
  1  4  1  0  0  0  0
  4  5  1  0  0  0  0
  4  6  1  0  0  0  0
  4  7  1  0  0  0  0
  7  8  1  0  0  0  0
  7  9  1  0  0  0  0
  7 10  1  0  0  0  0
 10 11  1  0  0  0  0
 10 12  1  0  0  0  0
 10 13  1  0  0  0  0
 13 14  1  0  0  0  0
 13 15  1  0  0  0  0
 13 16  1  0  0  0  0
 16 17  1  0  0  0  0
 16 18  1  0  0  0  0
 16 19  1  0  0  0  0
M  END
> <VConfSearch Rank>
278

> <Conf_Id>
24

> <Delta U+W>
2.477

> <U+W>
-52.414

> <U>
10.422

> <W>
-62.836

> <W(PB)>
-64.906

> <W(SA)>
2.070

> <Valence>
9.628

> <Coulomb>
0.101

> <VdW>
0.693

> <VdW6>
-6.927

> <VdW12>
7.620

> <Bond>
0.173

> <Angle>
2.989

> <Pdih>
6.465

> <Idih>
0.001

> <Tether>
0.000

$$$$
VeraChem MOL file


 19 18  0  0  0  0  0  0  0  0999 V2000     
   22.2089   18.7761   21.2731 C   0  0  0  0  0  0  0  0  0  0  0  0
   22.8547   19.2336   22.1953 O   0  5  0  0  0  0  0  0  0  0  0  0
   22.6322   17.9262   20.5144 O   0  0  0  0  0  0  0  0  0  0  0  0
   20.8013   19.3166   21.0346 C   0  0  0  0  0  0  0  0  0  0  0  0
   20.7242   19.5591   19.9683 H   0  0  0  0  0  0  0  0  0  0  0  0
   20.6971   20.2606   21.5789 H   0  0  0  0  0  0  0  0  0  0  0  0
   19.6700   18.3227   21.4183 C   0  0  0  0  0  0  0  0  0  0  0  0
   18.7080   18.6879   21.0343 H   0  0  0  0  0  0  0  0  0  0  0  0
   19.8614   17.3734   20.8990 H   0  0  0  0  0  0  0  0  0  0  0  0
   19.5556   18.0454   22.9400 C   0  0  0  0  0  0  0  0  0  0  0  0
   20.5378   18.1377   23.4231 H   0  0  0  0  0  0  0  0  0  0  0  0
   19.2559   16.9970   23.0735 H   0  0  0  0  0  0  0  0  0  0  0  0
   18.5173   18.9239   23.6802 C   0  0  0  0  0  0  0  0  0  0  0  0
   17.5200   18.7588   23.2496 H   0  0  0  0  0  0  0  0  0  0  0  0
   18.4600   18.5890   24.7251 H   0  0  0  0  0  0  0  0  0  0  0  0
   18.8398   20.4323   23.6627 C   0  0  0  0  0  0  0  0  0  0  0  0
   18.7408   20.8461   22.6516 H   0  0  0  0  0  0  0  0  0  0  0  0
   18.1467   20.9808   24.3135 H   0  0  0  0  0  0  0  0  0  0  0  0
   19.8611   20.6205   24.0190 H   0  0  0  0  0  0  0  0  0  0  0  0
  1  2  1  0  0  0  0
  1  3  2  0  0  0  0
  1  4  1  0  0  0  0
  4  5  1  0  0  0  0
  4  6  1  0  0  0  0
  4  7  1  0  0  0  0
  7  8  1  0  0  0  0
  7  9  1  0  0  0  0
  7 10  1  0  0  0  0
 10 11  1  0  0  0  0
 10 12  1  0  0  0  0
 10 13  1  0  0  0  0
 13 14  1  0  0  0  0
 13 15  1  0  0  0  0
 13 16  1  0  0  0  0
 16 17  1  0  0  0  0
 16 18  1  0  0  0  0
 16 19  1  0  0  0  0
M  END
> <VConfSearch Rank>
279

> <Conf_Id>
4

> <Delta U+W>
3.753

> <U+W>
-51.138

> <U>
12.334

> <W>
-63.472

> <W(PB)>
-65.500

> <W(SA)>
2.028

> <Valence>
9.984

> <Coulomb>
1.767

> <VdW>
0.583

> <VdW6>
-7.767

> <VdW12>
8.349

> <Bond>
0.203

> <Angle>
3.191

> <Pdih>
6.589

> <Idih>
0.001

> <Tether>
0.000

$$$$
VeraChem MOL file


 19 18  0  0  0  0  0  0  0  0999 V2000     
   21.6534   17.0115   22.9088 C   0  0  0  0  0  0  0  0  0  0  0  0
   21.7078   15.8616   22.5191 O   0  5  0  0  0  0  0  0  0  0  0  0
   22.6233   17.7393   22.9880 O   0  0  0  0  0  0  0  0  0  0  0  0
   20.2979   17.5585   23.3490 C   0  0  0  0  0  0  0  0  0  0  0  0
   20.4670   18.4583   23.9490 H   0  0  0  0  0  0  0  0  0  0  0  0
   19.8507   16.8144   24.0184 H   0  0  0  0  0  0  0  0  0  0  0  0
   19.3213   17.8453   22.1748 C   0  0  0  0  0  0  0  0  0  0  0  0
   19.2418   16.9323   21.5685 H   0  0  0  0  0  0  0  0  0  0  0  0
   18.3133   18.0355   22.5672 H   0  0  0  0  0  0  0  0  0  0  0  0
   19.7561   19.0178   21.2573 C   0  0  0  0  0  0  0  0  0  0  0  0
   19.4547   18.7756   20.2291 H   0  0  0  0  0  0  0  0  0  0  0  0
   20.8512   19.1027   21.2339 H   0  0  0  0  0  0  0  0  0  0  0  0
   19.1270   20.3864   21.6165 C   0  0  0  0  0  0  0  0  0  0  0  0
   19.4353   21.1204   20.8593 H   0  0  0  0  0  0  0  0  0  0  0  0
   18.0324   20.3183   21.5505 H   0  0  0  0  0  0  0  0  0  0  0  0
   19.5244   20.9178   23.0091 C   0  0  0  0  0  0  0  0  0  0  0  0
   20.6156   20.9262   23.1304 H   0  0  0  0  0  0  0  0  0  0  0  0
   19.1596   21.9438   23.1471 H   0  0  0  0  0  0  0  0  0  0  0  0
   19.0891   20.3025   23.8061 H   0  0  0  0  0  0  0  0  0  0  0  0
  1  2  1  0  0  0  0
  1  3  2  0  0  0  0
  1  4  1  0  0  0  0
  4  5  1  0  0  0  0
  4  6  1  0  0  0  0
  4  7  1  0  0  0  0
  7  8  1  0  0  0  0
  7  9  1  0  0  0  0
  7 10  1  0  0  0  0
 10 11  1  0  0  0  0
 10 12  1  0  0  0  0
 10 13  1  0  0  0  0
 13 14  1  0  0  0  0
 13 15  1  0  0  0  0
 13 16  1  0  0  0  0
 16 17  1  0  0  0  0
 16 18  1  0  0  0  0
 16 19  1  0  0  0  0
M  END
> <VConfSearch Rank>
280

> <Conf_Id>
73

> <Delta U+W>
3.707

> <U+W>
-51.184

> <U>
12.334

> <W>
-63.519

> <W(PB)>
-65.541

> <W(SA)>
2.022

> <Valence>
9.984

> <Coulomb>
1.768

> <VdW>
0.583

> <VdW6>
-7.767

> <VdW12>
8.350

> <Bond>
0.203

> <Angle>
3.192

> <Pdih>
6.589

> <Idih>
0.001

> <Tether>
0.000

$$$$
VeraChem MOL file


 19 18  0  0  0  0  0  0  0  0999 V2000     
   20.3507   16.4920   22.6055 C   0  0  0  0  0  0  0  0  0  0  0  0
   21.4857   16.5344   22.1736 O   0  5  0  0  0  0  0  0  0  0  0  0
   19.9904   15.7181   23.4708 O   0  0  0  0  0  0  0  0  0  0  0  0
   19.3121   17.4379   22.0089 C   0  0  0  0  0  0  0  0  0  0  0  0
   18.4410   16.8331   21.7315 H   0  0  0  0  0  0  0  0  0  0  0  0
   19.7102   17.8545   21.0765 H   0  0  0  0  0  0  0  0  0  0  0  0
   18.8639   18.5749   22.9672 C   0  0  0  0  0  0  0  0  0  0  0  0
   18.0674   19.1588   22.4881 H   0  0  0  0  0  0  0  0  0  0  0  0
   18.4108   18.1235   23.8606 H   0  0  0  0  0  0  0  0  0  0  0  0
   20.0065   19.5221   23.4159 C   0  0  0  0  0  0  0  0  0  0  0  0
   20.7390   18.9482   23.9999 H   0  0  0  0  0  0  0  0  0  0  0  0
   19.5930   20.2719   24.1039 H   0  0  0  0  0  0  0  0  0  0  0  0
   20.7480   20.2506   22.2684 C   0  0  0  0  0  0  0  0  0  0  0  0
   21.5399   20.8745   22.7047 H   0  0  0  0  0  0  0  0  0  0  0  0
   21.2579   19.5205   21.6254 H   0  0  0  0  0  0  0  0  0  0  0  0
   19.8246   21.1455   21.4138 C   0  0  0  0  0  0  0  0  0  0  0  0
   19.0846   20.5477   20.8670 H   0  0  0  0  0  0  0  0  0  0  0  0
   19.2883   21.8691   22.0414 H   0  0  0  0  0  0  0  0  0  0  0  0
   20.4106   21.7069   20.6747 H   0  0  0  0  0  0  0  0  0  0  0  0
  1  2  1  0  0  0  0
  1  3  2  0  0  0  0
  1  4  1  0  0  0  0
  4  5  1  0  0  0  0
  4  6  1  0  0  0  0
  4  7  1  0  0  0  0
  7  8  1  0  0  0  0
  7  9  1  0  0  0  0
  7 10  1  0  0  0  0
 10 11  1  0  0  0  0
 10 12  1  0  0  0  0
 10 13  1  0  0  0  0
 13 14  1  0  0  0  0
 13 15  1  0  0  0  0
 13 16  1  0  0  0  0
 16 17  1  0  0  0  0
 16 18  1  0  0  0  0
 16 19  1  0  0  0  0
M  END
> <VConfSearch Rank>
281

> <Conf_Id>
56

> <Delta U+W>
1.735

> <U+W>
-53.156

> <U>
10.214

> <W>
-63.370

> <W(PB)>
-65.388

> <W(SA)>
2.018

> <Valence>
7.868

> <Coulomb>
1.968

> <VdW>
0.378

> <VdW6>
-8.067

> <VdW12>
8.445

> <Bond>
0.191

> <Angle>
3.117

> <Pdih>
4.559

> <Idih>
0.001

> <Tether>
0.000

$$$$
VeraChem MOL file


 19 18  0  0  0  0  0  0  0  0999 V2000     
   17.9585   20.2005   20.5461 C   0  0  0  0  0  0  0  0  0  0  0  0
   17.1225   19.5661   19.9338 O   0  5  0  0  0  0  0  0  0  0  0  0
   18.1847   21.3783   20.3507 O   0  0  0  0  0  0  0  0  0  0  0  0
   18.7834   19.4736   21.6023 C   0  0  0  0  0  0  0  0  0  0  0  0
   18.1602   18.6838   22.0383 H   0  0  0  0  0  0  0  0  0  0  0  0
   19.0107   20.1922   22.3976 H   0  0  0  0  0  0  0  0  0  0  0  0
   20.0921   18.8707   21.0324 C   0  0  0  0  0  0  0  0  0  0  0  0
   19.8450   18.2674   20.1478 H   0  0  0  0  0  0  0  0  0  0  0  0
   20.7406   19.6838   20.6783 H   0  0  0  0  0  0  0  0  0  0  0  0
   20.8731   17.9800   22.0309 C   0  0  0  0  0  0  0  0  0  0  0  0
   21.7433   17.5721   21.4986 H   0  0  0  0  0  0  0  0  0  0  0  0
   20.2646   17.1113   22.3175 H   0  0  0  0  0  0  0  0  0  0  0  0
   21.3832   18.7176   23.2938 C   0  0  0  0  0  0  0  0  0  0  0  0
   22.3597   18.2988   23.5738 H   0  0  0  0  0  0  0  0  0  0  0  0
   21.5589   19.7790   23.0706 H   0  0  0  0  0  0  0  0  0  0  0  0
   20.4381   18.5743   24.5075 C   0  0  0  0  0  0  0  0  0  0  0  0
   20.8513   19.0981   25.3791 H   0  0  0  0  0  0  0  0  0  0  0  0
   19.4461   18.9934   24.3052 H   0  0  0  0  0  0  0  0  0  0  0  0
   20.3106   17.5186   24.7801 H   0  0  0  0  0  0  0  0  0  0  0  0
  1  2  1  0  0  0  0
  1  3  2  0  0  0  0
  1  4  1  0  0  0  0
  4  5  1  0  0  0  0
  4  6  1  0  0  0  0
  4  7  1  0  0  0  0
  7  8  1  0  0  0  0
  7  9  1  0  0  0  0
  7 10  1  0  0  0  0
 10 11  1  0  0  0  0
 10 12  1  0  0  0  0
 10 13  1  0  0  0  0
 13 14  1  0  0  0  0
 13 15  1  0  0  0  0
 13 16  1  0  0  0  0
 16 17  1  0  0  0  0
 16 18  1  0  0  0  0
 16 19  1  0  0  0  0
M  END
> <VConfSearch Rank>
282

> <Conf_Id>
53

> <Delta U+W>
2.279

> <U+W>
-52.612

> <U>
10.231

> <W>
-62.843

> <W(PB)>
-64.893

> <W(SA)>
2.050

> <Valence>
9.644

> <Coulomb>
-0.164

> <VdW>
0.751

> <VdW6>
-6.881

> <VdW12>
7.631

> <Bond>
0.163

> <Angle>
2.998

> <Pdih>
6.482

> <Idih>
0.001

> <Tether>
0.000

$$$$
VeraChem MOL file


 19 18  0  0  0  0  0  0  0  0999 V2000     
   21.4451   17.4411   23.9383 C   0  0  0  0  0  0  0  0  0  0  0  0
   22.5109   17.3437   23.3627 O   0  5  0  0  0  0  0  0  0  0  0  0
   20.7525   16.4862   24.2311 O   0  0  0  0  0  0  0  0  0  0  0  0
   20.9880   18.8310   24.3775 C   0  0  0  0  0  0  0  0  0  0  0  0
   21.7485   19.5655   24.0856 H   0  0  0  0  0  0  0  0  0  0  0  0
   20.9697   18.8175   25.4734 H   0  0  0  0  0  0  0  0  0  0  0  0
   19.5904   19.2666   23.8541 C   0  0  0  0  0  0  0  0  0  0  0  0
   18.8750   18.4397   23.9634 H   0  0  0  0  0  0  0  0  0  0  0  0
   19.2217   20.0724   24.5032 H   0  0  0  0  0  0  0  0  0  0  0  0
   19.5769   19.7917   22.3971 C   0  0  0  0  0  0  0  0  0  0  0  0
   20.2887   20.6225   22.2968 H   0  0  0  0  0  0  0  0  0  0  0  0
   18.5822   20.2114   22.1940 H   0  0  0  0  0  0  0  0  0  0  0  0
   19.8855   18.7128   21.3359 C   0  0  0  0  0  0  0  0  0  0  0  0
   20.9238   18.3718   21.4361 H   0  0  0  0  0  0  0  0  0  0  0  0
   19.2422   17.8367   21.4974 H   0  0  0  0  0  0  0  0  0  0  0  0
   19.6741   19.2495   19.9058 C   0  0  0  0  0  0  0  0  0  0  0  0
   20.3256   20.1112   19.7101 H   0  0  0  0  0  0  0  0  0  0  0  0
   19.9056   18.4740   19.1641 H   0  0  0  0  0  0  0  0  0  0  0  0
   18.6334   19.5641   19.7533 H   0  0  0  0  0  0  0  0  0  0  0  0
  1  2  1  0  0  0  0
  1  3  2  0  0  0  0
  1  4  1  0  0  0  0
  4  5  1  0  0  0  0
  4  6  1  0  0  0  0
  4  7  1  0  0  0  0
  7  8  1  0  0  0  0
  7  9  1  0  0  0  0
  7 10  1  0  0  0  0
 10 11  1  0  0  0  0
 10 12  1  0  0  0  0
 10 13  1  0  0  0  0
 13 14  1  0  0  0  0
 13 15  1  0  0  0  0
 13 16  1  0  0  0  0
 16 17  1  0  0  0  0
 16 18  1  0  0  0  0
 16 19  1  0  0  0  0
M  END
> <VConfSearch Rank>
283

> <Conf_Id>
25

> <Delta U+W>
2.065

> <U+W>
-52.826

> <U>
10.967

> <W>
-63.794

> <W(PB)>
-65.830

> <W(SA)>
2.036

> <Valence>
8.609

> <Coulomb>
1.892

> <VdW>
0.467

> <VdW6>
-7.569

> <VdW12>
8.036

> <Bond>
0.170

> <Angle>
3.195

> <Pdih>
5.237

> <Idih>
0.007

> <Tether>
0.000

$$$$
VeraChem MOL file


 19 18  0  0  0  0  0  0  0  0999 V2000     
   19.1781   21.0302   22.9696 C   0  0  0  0  0  0  0  0  0  0  0  0
   19.9832   21.8755   22.6313 O   0  5  0  0  0  0  0  0  0  0  0  0
   18.7607   20.9198   24.1056 O   0  0  0  0  0  0  0  0  0  0  0  0
   18.6069   20.1024   21.8989 C   0  0  0  0  0  0  0  0  0  0  0  0
   18.0674   20.7430   21.1917 H   0  0  0  0  0  0  0  0  0  0  0  0
   17.8597   19.4443   22.3587 H   0  0  0  0  0  0  0  0  0  0  0  0
   19.6573   19.2620   21.1194 C   0  0  0  0  0  0  0  0  0  0  0  0
   19.1987   18.9377   20.1755 H   0  0  0  0  0  0  0  0  0  0  0  0
   20.5104   19.8953   20.8389 H   0  0  0  0  0  0  0  0  0  0  0  0
   20.1561   17.9966   21.8602 C   0  0  0  0  0  0  0  0  0  0  0  0
   20.7643   17.4077   21.1599 H   0  0  0  0  0  0  0  0  0  0  0  0
   19.2992   17.3648   22.1312 H   0  0  0  0  0  0  0  0  0  0  0  0
   20.9997   18.2950   23.1191 C   0  0  0  0  0  0  0  0  0  0  0  0
   21.7986   19.0077   22.8717 H   0  0  0  0  0  0  0  0  0  0  0  0
   20.3750   18.7669   23.8881 H   0  0  0  0  0  0  0  0  0  0  0  0
   21.6200   17.0092   23.7021 C   0  0  0  0  0  0  0  0  0  0  0  0
   22.2087   17.2373   24.6001 H   0  0  0  0  0  0  0  0  0  0  0  0
   20.8396   16.2894   23.9818 H   0  0  0  0  0  0  0  0  0  0  0  0
   22.2858   16.5281   22.9737 H   0  0  0  0  0  0  0  0  0  0  0  0
  1  2  1  0  0  0  0
  1  3  2  0  0  0  0
  1  4  1  0  0  0  0
  4  5  1  0  0  0  0
  4  6  1  0  0  0  0
  4  7  1  0  0  0  0
  7  8  1  0  0  0  0
  7  9  1  0  0  0  0
  7 10  1  0  0  0  0
 10 11  1  0  0  0  0
 10 12  1  0  0  0  0
 10 13  1  0  0  0  0
 13 14  1  0  0  0  0
 13 15  1  0  0  0  0
 13 16  1  0  0  0  0
 16 17  1  0  0  0  0
 16 18  1  0  0  0  0
 16 19  1  0  0  0  0
M  END
> <VConfSearch Rank>
284

> <Conf_Id>
52

> <Delta U+W>
2.070

> <U+W>
-52.822

> <U>
10.967

> <W>
-63.789

> <W(PB)>
-65.837

> <W(SA)>
2.048

> <Valence>
8.609

> <Coulomb>
1.892

> <VdW>
0.467

> <VdW6>
-7.569

> <VdW12>
8.035

> <Bond>
0.170

> <Angle>
3.196

> <Pdih>
5.237

> <Idih>
0.007

> <Tether>
0.000

$$$$
VeraChem MOL file


 19 18  0  0  0  0  0  0  0  0999 V2000     
   20.1051   19.9614   24.4431 C   0  0  0  0  0  0  0  0  0  0  0  0
   19.7668   21.1131   24.2502 O   0  5  0  0  0  0  0  0  0  0  0  0
   19.6795   19.2880   25.3607 O   0  0  0  0  0  0  0  0  0  0  0  0
   21.2115   19.3653   23.5713 C   0  0  0  0  0  0  0  0  0  0  0  0
   21.2850   18.2898   23.7728 H   0  0  0  0  0  0  0  0  0  0  0  0
   22.1480   19.8133   23.9225 H   0  0  0  0  0  0  0  0  0  0  0  0
   21.0770   19.6173   22.0423 C   0  0  0  0  0  0  0  0  0  0  0  0
   20.7404   20.6471   21.8596 H   0  0  0  0  0  0  0  0  0  0  0  0
   22.0800   19.5497   21.6000 H   0  0  0  0  0  0  0  0  0  0  0  0
   20.1647   18.6210   21.2818 C   0  0  0  0  0  0  0  0  0  0  0  0
   20.5590   17.6003   21.3811 H   0  0  0  0  0  0  0  0  0  0  0  0
   20.2338   18.8618   20.2121 H   0  0  0  0  0  0  0  0  0  0  0  0
   18.6711   18.6621   21.6859 C   0  0  0  0  0  0  0  0  0  0  0  0
   18.4232   19.6302   22.1429 H   0  0  0  0  0  0  0  0  0  0  0  0
   18.0561   18.5881   20.7785 H   0  0  0  0  0  0  0  0  0  0  0  0
   18.2754   17.5061   22.6294 C   0  0  0  0  0  0  0  0  0  0  0  0
   18.4265   16.5342   22.1422 H   0  0  0  0  0  0  0  0  0  0  0  0
   18.8687   17.5187   23.5511 H   0  0  0  0  0  0  0  0  0  0  0  0
   17.2170   17.5827   22.9096 H   0  0  0  0  0  0  0  0  0  0  0  0
  1  2  1  0  0  0  0
  1  3  2  0  0  0  0
  1  4  1  0  0  0  0
  4  5  1  0  0  0  0
  4  6  1  0  0  0  0
  4  7  1  0  0  0  0
  7  8  1  0  0  0  0
  7  9  1  0  0  0  0
  7 10  1  0  0  0  0
 10 11  1  0  0  0  0
 10 12  1  0  0  0  0
 10 13  1  0  0  0  0
 13 14  1  0  0  0  0
 13 15  1  0  0  0  0
 13 16  1  0  0  0  0
 16 17  1  0  0  0  0
 16 18  1  0  0  0  0
 16 19  1  0  0  0  0
M  END
> <VConfSearch Rank>
285

> <Conf_Id>
66

> <Delta U+W>
5.819

> <U+W>
-49.072

> <U>
15.324

> <W>
-64.396

> <W(PB)>
-66.382

> <W(SA)>
1.986

> <Valence>
11.748

> <Coulomb>
3.201

> <VdW>
0.375

> <VdW6>
-8.854

> <VdW12>
9.229

> <Bond>
0.216

> <Angle>
3.812

> <Pdih>
7.699

> <Idih>
0.022

> <Tether>
0.000

$$$$
VeraChem MOL file


 19 18  0  0  0  0  0  0  0  0999 V2000     
   16.6537   18.6771   21.3684 C   0  0  0  0  0  0  0  0  0  0  0  0
   15.7783   17.8562   21.1803 O   0  5  0  0  0  0  0  0  0  0  0  0
   16.4636   19.8762   21.3044 O   0  0  0  0  0  0  0  0  0  0  0  0
   18.0495   18.1460   21.6989 C   0  0  0  0  0  0  0  0  0  0  0  0
   18.3532   17.4894   20.8751 H   0  0  0  0  0  0  0  0  0  0  0  0
   17.9574   17.5177   22.5926 H   0  0  0  0  0  0  0  0  0  0  0  0
   19.1341   19.2315   21.9309 C   0  0  0  0  0  0  0  0  0  0  0  0
   19.2174   19.8610   21.0342 H   0  0  0  0  0  0  0  0  0  0  0  0
   18.8211   19.8894   22.7535 H   0  0  0  0  0  0  0  0  0  0  0  0
   20.5088   18.6089   22.2581 C   0  0  0  0  0  0  0  0  0  0  0  0
   20.8197   17.9514   21.4346 H   0  0  0  0  0  0  0  0  0  0  0  0
   20.4232   17.9798   23.1548 H   0  0  0  0  0  0  0  0  0  0  0  0
   21.5855   19.6896   22.4884 C   0  0  0  0  0  0  0  0  0  0  0  0
   21.6755   20.3199   21.5927 H   0  0  0  0  0  0  0  0  0  0  0  0
   21.2791   20.3482   23.3129 H   0  0  0  0  0  0  0  0  0  0  0  0
   22.9565   19.0644   22.8146 C   0  0  0  0  0  0  0  0  0  0  0  0
   23.3023   18.4247   21.9920 H   0  0  0  0  0  0  0  0  0  0  0  0
   23.7099   19.8466   22.9753 H   0  0  0  0  0  0  0  0  0  0  0  0
   22.9029   18.4533   23.7251 H   0  0  0  0  0  0  0  0  0  0  0  0
  1  2  1  0  0  0  0
  1  3  2  0  0  0  0
  1  4  1  0  0  0  0
  4  5  1  0  0  0  0
  4  6  1  0  0  0  0
  4  7  1  0  0  0  0
  7  8  1  0  0  0  0
  7  9  1  0  0  0  0
  7 10  1  0  0  0  0
 10 11  1  0  0  0  0
 10 12  1  0  0  0  0
 10 13  1  0  0  0  0
 13 14  1  0  0  0  0
 13 15  1  0  0  0  0
 13 16  1  0  0  0  0
 16 17  1  0  0  0  0
 16 18  1  0  0  0  0
 16 19  1  0  0  0  0
M  END
> <VConfSearch Rank>
286

> <Conf_Id>
0

> <Delta U+W>
0.000

> <U+W>
-54.891

> <U>
6.966

> <W>
-61.857

> <W(PB)>
-63.965

> <W(SA)>
2.108

> <Valence>
7.175

> <Coulomb>
-1.360

> <VdW>
1.151

> <VdW6>
-5.641

> <VdW12>
6.792

> <Bond>
0.119

> <Angle>
2.715

> <Pdih>
4.340

> <Idih>
0.000

> <Tether>
0.000

$$$$
VeraChem MOL file


 19 18  0  0  0  0  0  0  0  0999 V2000     
   21.7595   18.3661   19.3455 C   0  0  0  0  0  0  0  0  0  0  0  0
   22.9594   18.2990   19.5245 O   0  5  0  0  0  0  0  0  0  0  0  0
   21.1770   17.7701   18.4613 O   0  0  0  0  0  0  0  0  0  0  0  0
   20.9368   19.2294   20.2952 C   0  0  0  0  0  0  0  0  0  0  0  0
   20.0890   19.6407   19.7342 H   0  0  0  0  0  0  0  0  0  0  0  0
   21.5580   20.0763   20.6108 H   0  0  0  0  0  0  0  0  0  0  0  0
   20.4299   18.4485   21.5327 C   0  0  0  0  0  0  0  0  0  0  0  0
   19.8204   17.5969   21.1997 H   0  0  0  0  0  0  0  0  0  0  0  0
   21.2896   18.0324   22.0763 H   0  0  0  0  0  0  0  0  0  0  0  0
   19.6006   19.3445   22.4777 C   0  0  0  0  0  0  0  0  0  0  0  0
   18.7428   19.7600   21.9310 H   0  0  0  0  0  0  0  0  0  0  0  0
   20.2122   20.1954   22.8078 H   0  0  0  0  0  0  0  0  0  0  0  0
   19.0969   18.5639   23.7095 C   0  0  0  0  0  0  0  0  0  0  0  0
   18.4830   17.7128   23.3834 H   0  0  0  0  0  0  0  0  0  0  0  0
   19.9523   18.1483   24.2601 H   0  0  0  0  0  0  0  0  0  0  0  0
   18.2692   19.4615   24.6508 C   0  0  0  0  0  0  0  0  0  0  0  0
   17.9192   18.8908   25.5208 H   0  0  0  0  0  0  0  0  0  0  0  0
   18.8691   20.3048   25.0175 H   0  0  0  0  0  0  0  0  0  0  0  0
   17.3888   19.8660   24.1342 H   0  0  0  0  0  0  0  0  0  0  0  0
  1  2  1  0  0  0  0
  1  3  2  0  0  0  0
  1  4  1  0  0  0  0
  4  5  1  0  0  0  0
  4  6  1  0  0  0  0
  4  7  1  0  0  0  0
  7  8  1  0  0  0  0
  7  9  1  0  0  0  0
  7 10  1  0  0  0  0
 10 11  1  0  0  0  0
 10 12  1  0  0  0  0
 10 13  1  0  0  0  0
 13 14  1  0  0  0  0
 13 15  1  0  0  0  0
 13 16  1  0  0  0  0
 16 17  1  0  0  0  0
 16 18  1  0  0  0  0
 16 19  1  0  0  0  0
M  END
> <VConfSearch Rank>
287

> <Conf_Id>
18

> <Delta U+W>
-1.199

> <U+W>
-56.090

> <U>
5.975

> <W>
-62.066

> <W(PB)>
-64.219

> <W(SA)>
2.153

> <Valence>
6.673

> <Coulomb>
-1.307

> <VdW>
0.610

> <VdW6>
-5.351

> <VdW12>
5.961

> <Bond>
0.086

> <Angle>
2.253

> <Pdih>
4.333

> <Idih>
0.001

> <Tether>
0.000

$$$$
VeraChem MOL file


 19 18  0  0  0  0  0  0  0  0999 V2000     
   22.7263   17.7925   23.4245 C   0  0  0  0  0  0  0  0  0  0  0  0
   22.7940   17.2091   24.4882 O   0  5  0  0  0  0  0  0  0  0  0  0
   23.5918   17.7409   22.5733 O   0  0  0  0  0  0  0  0  0  0  0  0
   21.4775   18.6172   23.1335 C   0  0  0  0  0  0  0  0  0  0  0  0
   21.7778   19.4693   22.5134 H   0  0  0  0  0  0  0  0  0  0  0  0
   21.1069   19.0204   24.0836 H   0  0  0  0  0  0  0  0  0  0  0  0
   20.3655   17.7952   22.4315 C   0  0  0  0  0  0  0  0  0  0  0  0
   20.7334   17.4339   21.4612 H   0  0  0  0  0  0  0  0  0  0  0  0
   20.1536   16.9017   23.0350 H   0  0  0  0  0  0  0  0  0  0  0  0
   19.0485   18.5819   22.2315 C   0  0  0  0  0  0  0  0  0  0  0  0
   18.6789   18.9344   23.2042 H   0  0  0  0  0  0  0  0  0  0  0  0
   18.2869   17.8932   21.8407 H   0  0  0  0  0  0  0  0  0  0  0  0
   19.1882   19.7777   21.2629 C   0  0  0  0  0  0  0  0  0  0  0  0
   19.8897   20.5165   21.6721 H   0  0  0  0  0  0  0  0  0  0  0  0
   19.6058   19.4335   20.3067 H   0  0  0  0  0  0  0  0  0  0  0  0
   17.8298   20.4624   21.0112 C   0  0  0  0  0  0  0  0  0  0  0  0
   17.9459   21.3108   20.3243 H   0  0  0  0  0  0  0  0  0  0  0  0
   17.1126   19.7611   20.5651 H   0  0  0  0  0  0  0  0  0  0  0  0
   17.4016   20.8412   21.9486 H   0  0  0  0  0  0  0  0  0  0  0  0
  1  2  1  0  0  0  0
  1  3  2  0  0  0  0
  1  4  1  0  0  0  0
  4  5  1  0  0  0  0
  4  6  1  0  0  0  0
  4  7  1  0  0  0  0
  7  8  1  0  0  0  0
  7  9  1  0  0  0  0
  7 10  1  0  0  0  0
 10 11  1  0  0  0  0
 10 12  1  0  0  0  0
 10 13  1  0  0  0  0
 13 14  1  0  0  0  0
 13 15  1  0  0  0  0
 13 16  1  0  0  0  0
 16 17  1  0  0  0  0
 16 18  1  0  0  0  0
 16 19  1  0  0  0  0
M  END
> <VConfSearch Rank>
288

> <Conf_Id>
34

> <Delta U+W>
-0.563

> <U+W>
-55.455

> <U>
6.914

> <W>
-62.369

> <W(PB)>
-64.446

> <W(SA)>
2.077

> <Valence>
7.196

> <Coulomb>
-1.020

> <VdW>
0.738

> <VdW6>
-6.010

> <VdW12>
6.748

> <Bond>
0.126

> <Angle>
2.499

> <Pdih>
4.570

> <Idih>
0.001

> <Tether>
0.000

$$$$
VeraChem MOL file


 19 18  0  0  0  0  0  0  0  0999 V2000     
   17.0462   20.2166   21.9163 C   0  0  0  0  0  0  0  0  0  0  0  0
   16.6624   20.8138   20.9302 O   0  5  0  0  0  0  0  0  0  0  0  0
   16.5176   20.3089   23.0064 O   0  0  0  0  0  0  0  0  0  0  0  0
   18.2716   19.3193   21.7833 C   0  0  0  0  0  0  0  0  0  0  0  0
   18.2819   18.9056   20.7678 H   0  0  0  0  0  0  0  0  0  0  0  0
   18.1463   18.4792   22.4757 H   0  0  0  0  0  0  0  0  0  0  0  0
   19.5987   20.0694   22.0686 C   0  0  0  0  0  0  0  0  0  0  0  0
   19.6486   20.9558   21.4210 H   0  0  0  0  0  0  0  0  0  0  0  0
   19.5953   20.4408   23.1027 H   0  0  0  0  0  0  0  0  0  0  0  0
   20.8602   19.2071   21.8266 C   0  0  0  0  0  0  0  0  0  0  0  0
   21.7463   19.8474   21.9359 H   0  0  0  0  0  0  0  0  0  0  0  0
   20.8648   18.8445   20.7895 H   0  0  0  0  0  0  0  0  0  0  0  0
   20.9822   18.0111   22.7972 C   0  0  0  0  0  0  0  0  0  0  0  0
   20.9263   18.3684   23.8347 H   0  0  0  0  0  0  0  0  0  0  0  0
   20.1437   17.3176   22.6509 H   0  0  0  0  0  0  0  0  0  0  0  0
   22.3057   17.2478   22.5894 C   0  0  0  0  0  0  0  0  0  0  0  0
   22.3759   16.8553   21.5665 H   0  0  0  0  0  0  0  0  0  0  0  0
   23.1692   17.9026   22.7656 H   0  0  0  0  0  0  0  0  0  0  0  0
   22.3763   16.4001   23.2834 H   0  0  0  0  0  0  0  0  0  0  0  0
  1  2  1  0  0  0  0
  1  3  2  0  0  0  0
  1  4  1  0  0  0  0
  4  5  1  0  0  0  0
  4  6  1  0  0  0  0
  4  7  1  0  0  0  0
  7  8  1  0  0  0  0
  7  9  1  0  0  0  0
  7 10  1  0  0  0  0
 10 11  1  0  0  0  0
 10 12  1  0  0  0  0
 10 13  1  0  0  0  0
 13 14  1  0  0  0  0
 13 15  1  0  0  0  0
 13 16  1  0  0  0  0
 16 17  1  0  0  0  0
 16 18  1  0  0  0  0
 16 19  1  0  0  0  0
M  END
> <VConfSearch Rank>
289

> <Conf_Id>
33

> <Delta U+W>
-0.526

> <U+W>
-55.418

> <U>
6.914

> <W>
-62.332

> <W(PB)>
-64.421

> <W(SA)>
2.090

> <Valence>
7.196

> <Coulomb>
-1.020

> <VdW>
0.738

> <VdW6>
-6.010

> <VdW12>
6.748

> <Bond>
0.126

> <Angle>
2.499

> <Pdih>
4.570

> <Idih>
0.001

> <Tether>
0.000

$$$$
VeraChem MOL file


 19 18  0  0  0  0  0  0  0  0999 V2000     
   19.2537   21.3875   24.1606 C   0  0  0  0  0  0  0  0  0  0  0  0
   19.5779   22.4308   23.6290 O   0  5  0  0  0  0  0  0  0  0  0  0
   18.2882   21.2758   24.8897 O   0  0  0  0  0  0  0  0  0  0  0  0
   20.0945   20.1462   23.8837 C   0  0  0  0  0  0  0  0  0  0  0  0
   20.0749   19.5146   24.7801 H   0  0  0  0  0  0  0  0  0  0  0  0
   21.1333   20.4643   23.7339 H   0  0  0  0  0  0  0  0  0  0  0  0
   19.5993   19.3453   22.6541 C   0  0  0  0  0  0  0  0  0  0  0  0
   18.5555   19.0422   22.8151 H   0  0  0  0  0  0  0  0  0  0  0  0
   19.6101   20.0022   21.7744 H   0  0  0  0  0  0  0  0  0  0  0  0
   20.4714   18.0951   22.3950 C   0  0  0  0  0  0  0  0  0  0  0  0
   20.5059   17.4874   23.3096 H   0  0  0  0  0  0  0  0  0  0  0  0
   21.5054   18.4017   22.1855 H   0  0  0  0  0  0  0  0  0  0  0  0
   19.9497   17.2119   21.2381 C   0  0  0  0  0  0  0  0  0  0  0  0
   20.5506   16.2929   21.1977 H   0  0  0  0  0  0  0  0  0  0  0  0
   18.9174   16.8986   21.4466 H   0  0  0  0  0  0  0  0  0  0  0  0
   20.0132   17.9080   19.8615 C   0  0  0  0  0  0  0  0  0  0  0  0
   21.0313   18.2563   19.6439 H   0  0  0  0  0  0  0  0  0  0  0  0
   19.7168   17.2123   19.0658 H   0  0  0  0  0  0  0  0  0  0  0  0
   19.3369   18.7707   19.8170 H   0  0  0  0  0  0  0  0  0  0  0  0
  1  2  1  0  0  0  0
  1  3  2  0  0  0  0
  1  4  1  0  0  0  0
  4  5  1  0  0  0  0
  4  6  1  0  0  0  0
  4  7  1  0  0  0  0
  7  8  1  0  0  0  0
  7  9  1  0  0  0  0
  7 10  1  0  0  0  0
 10 11  1  0  0  0  0
 10 12  1  0  0  0  0
 10 13  1  0  0  0  0
 13 14  1  0  0  0  0
 13 15  1  0  0  0  0
 13 16  1  0  0  0  0
 16 17  1  0  0  0  0
 16 18  1  0  0  0  0
 16 19  1  0  0  0  0
M  END
> <VConfSearch Rank>
290

> <Conf_Id>
42

> <Delta U+W>
-0.344

> <U+W>
-55.236

> <U>
7.244

> <W>
-62.479

> <W(PB)>
-64.610

> <W(SA)>
2.130

> <Valence>
7.174

> <Coulomb>
-0.669

> <VdW>
0.739

> <VdW6>
-5.969

> <VdW12>
6.708

> <Bond>
0.116

> <Angle>
2.481

> <Pdih>
4.576

> <Idih>
0.000

> <Tether>
0.000

$$$$
VeraChem MOL file


 19 18  0  0  0  0  0  0  0  0999 V2000     
   21.7534   17.7705   24.6461 C   0  0  0  0  0  0  0  0  0  0  0  0
   21.3488   18.2313   25.6950 O   0  5  0  0  0  0  0  0  0  0  0  0
   22.9211   17.5132   24.4306 O   0  0  0  0  0  0  0  0  0  0  0  0
   20.7429   17.5183   23.5327 C   0  0  0  0  0  0  0  0  0  0  0  0
   19.7857   17.2489   23.9953 H   0  0  0  0  0  0  0  0  0  0  0  0
   21.0808   16.6483   22.9567 H   0  0  0  0  0  0  0  0  0  0  0  0
   20.5588   18.7396   22.5984 C   0  0  0  0  0  0  0  0  0  0  0  0
   20.2390   19.6014   23.1990 H   0  0  0  0  0  0  0  0  0  0  0  0
   21.5269   19.0028   22.1504 H   0  0  0  0  0  0  0  0  0  0  0  0
   19.5270   18.4573   21.4821 C   0  0  0  0  0  0  0  0  0  0  0  0
   18.5468   18.2423   21.9293 H   0  0  0  0  0  0  0  0  0  0  0  0
   19.8270   17.5507   20.9389 H   0  0  0  0  0  0  0  0  0  0  0  0
   19.3891   19.6149   20.4665 C   0  0  0  0  0  0  0  0  0  0  0  0
   20.3667   19.8292   20.0128 H   0  0  0  0  0  0  0  0  0  0  0  0
   18.7319   19.2897   19.6482 H   0  0  0  0  0  0  0  0  0  0  0  0
   18.8099   20.9052   21.0858 C   0  0  0  0  0  0  0  0  0  0  0  0
   19.4911   21.3323   21.8324 H   0  0  0  0  0  0  0  0  0  0  0  0
   18.6495   21.6648   20.3098 H   0  0  0  0  0  0  0  0  0  0  0  0
   17.8451   20.7092   21.5714 H   0  0  0  0  0  0  0  0  0  0  0  0
  1  2  1  0  0  0  0
  1  3  2  0  0  0  0
  1  4  1  0  0  0  0
  4  5  1  0  0  0  0
  4  6  1  0  0  0  0
  4  7  1  0  0  0  0
  7  8  1  0  0  0  0
  7  9  1  0  0  0  0
  7 10  1  0  0  0  0
 10 11  1  0  0  0  0
 10 12  1  0  0  0  0
 10 13  1  0  0  0  0
 13 14  1  0  0  0  0
 13 15  1  0  0  0  0
 13 16  1  0  0  0  0
 16 17  1  0  0  0  0
 16 18  1  0  0  0  0
 16 19  1  0  0  0  0
M  END
> <VConfSearch Rank>
291

> <Conf_Id>
41

> <Delta U+W>
-0.361

> <U+W>
-55.252

> <U>
7.244

> <W>
-62.496

> <W(PB)>
-64.596

> <W(SA)>
2.099

> <Valence>
7.174

> <Coulomb>
-0.669

> <VdW>
0.739

> <VdW6>
-5.969

> <VdW12>
6.708

> <Bond>
0.116

> <Angle>
2.481

> <Pdih>
4.576

> <Idih>
0.000

> <Tether>
0.000

$$$$
VeraChem MOL file


 19 18  0  0  0  0  0  0  0  0999 V2000     
   17.4633   18.0947   23.6941 C   0  0  0  0  0  0  0  0  0  0  0  0
   16.7395   17.8940   22.7389 O   0  5  0  0  0  0  0  0  0  0  0  0
   17.6552   17.2795   24.5746 O   0  0  0  0  0  0  0  0  0  0  0  0
   18.1525   19.4517   23.8076 C   0  0  0  0  0  0  0  0  0  0  0  0
   18.0175   19.8029   24.8374 H   0  0  0  0  0  0  0  0  0  0  0  0
   17.6309   20.1650   23.1580 H   0  0  0  0  0  0  0  0  0  0  0  0
   19.6647   19.4225   23.4648 C   0  0  0  0  0  0  0  0  0  0  0  0
   20.1036   20.4001   23.7059 H   0  0  0  0  0  0  0  0  0  0  0  0
   20.1684   18.6834   24.1034 H   0  0  0  0  0  0  0  0  0  0  0  0
   19.9309   19.0974   21.9779 C   0  0  0  0  0  0  0  0  0  0  0  0
   19.4148   19.8311   21.3436 H   0  0  0  0  0  0  0  0  0  0  0  0
   19.5095   18.1127   21.7330 H   0  0  0  0  0  0  0  0  0  0  0  0
   21.4392   19.1048   21.6528 C   0  0  0  0  0  0  0  0  0  0  0  0
   21.8654   20.0890   21.8919 H   0  0  0  0  0  0  0  0  0  0  0  0
   21.9576   18.3700   22.2842 H   0  0  0  0  0  0  0  0  0  0  0  0
   21.7015   18.7803   20.1686 C   0  0  0  0  0  0  0  0  0  0  0  0
   21.2197   19.5185   19.5141 H   0  0  0  0  0  0  0  0  0  0  0  0
   22.7782   18.7893   19.9550 H   0  0  0  0  0  0  0  0  0  0  0  0
   21.3126   17.7868   19.9093 H   0  0  0  0  0  0  0  0  0  0  0  0
  1  2  1  0  0  0  0
  1  3  2  0  0  0  0
  1  4  1  0  0  0  0
  4  5  1  0  0  0  0
  4  6  1  0  0  0  0
  4  7  1  0  0  0  0
  7  8  1  0  0  0  0
  7  9  1  0  0  0  0
  7 10  1  0  0  0  0
 10 11  1  0  0  0  0
 10 12  1  0  0  0  0
 10 13  1  0  0  0  0
 13 14  1  0  0  0  0
 13 15  1  0  0  0  0
 13 16  1  0  0  0  0
 16 17  1  0  0  0  0
 16 18  1  0  0  0  0
 16 19  1  0  0  0  0
M  END
> <VConfSearch Rank>
292

> <Conf_Id>
36

> <Delta U+W>
-0.079

> <U+W>
-54.971

> <U>
8.266

> <W>
-63.237

> <W(PB)>
-65.340

> <W(SA)>
2.103

> <Valence>
6.935

> <Coulomb>
0.874

> <VdW>
0.457

> <VdW6>
-6.205

> <VdW12>
6.662

> <Bond>
0.107

> <Angle>
2.420

> <Pdih>
4.407

> <Idih>
0.001

> <Tether>
0.000

$$$$
VeraChem MOL file


 19 18  0  0  0  0  0  0  0  0999 V2000     
   21.9687   17.0836   21.1743 C   0  0  0  0  0  0  0  0  0  0  0  0
   21.2181   16.1466   20.9871 O   0  5  0  0  0  0  0  0  0  0  0  0
   23.0347   16.9859   21.7496 O   0  0  0  0  0  0  0  0  0  0  0  0
   21.5627   18.4544   20.6400 C   0  0  0  0  0  0  0  0  0  0  0  0
   20.7844   18.3176   19.8795 H   0  0  0  0  0  0  0  0  0  0  0  0
   22.4349   18.8785   20.1286 H   0  0  0  0  0  0  0  0  0  0  0  0
   21.0746   19.4393   21.7340 C   0  0  0  0  0  0  0  0  0  0  0  0
   21.8529   19.5440   22.5028 H   0  0  0  0  0  0  0  0  0  0  0  0
   20.9386   20.4323   21.2844 H   0  0  0  0  0  0  0  0  0  0  0  0
   19.7490   18.9908   22.3888 C   0  0  0  0  0  0  0  0  0  0  0  0
   19.8816   18.0051   22.8559 H   0  0  0  0  0  0  0  0  0  0  0  0
   18.9779   18.8750   21.6148 H   0  0  0  0  0  0  0  0  0  0  0  0
   19.2662   20.0005   23.4509 C   0  0  0  0  0  0  0  0  0  0  0  0
   20.0347   20.1165   24.2278 H   0  0  0  0  0  0  0  0  0  0  0  0
   19.1277   20.9876   22.9885 H   0  0  0  0  0  0  0  0  0  0  0  0
   17.9434   19.5502   24.1024 C   0  0  0  0  0  0  0  0  0  0  0  0
   18.0616   18.5787   24.5999 H   0  0  0  0  0  0  0  0  0  0  0  0
   17.6150   20.2788   24.8549 H   0  0  0  0  0  0  0  0  0  0  0  0
   17.1479   19.4563   23.3515 H   0  0  0  0  0  0  0  0  0  0  0  0
  1  2  1  0  0  0  0
  1  3  2  0  0  0  0
  1  4  1  0  0  0  0
  4  5  1  0  0  0  0
  4  6  1  0  0  0  0
  4  7  1  0  0  0  0
  7  8  1  0  0  0  0
  7  9  1  0  0  0  0
  7 10  1  0  0  0  0
 10 11  1  0  0  0  0
 10 12  1  0  0  0  0
 10 13  1  0  0  0  0
 13 14  1  0  0  0  0
 13 15  1  0  0  0  0
 13 16  1  0  0  0  0
 16 17  1  0  0  0  0
 16 18  1  0  0  0  0
 16 19  1  0  0  0  0
M  END
> <VConfSearch Rank>
293

> <Conf_Id>
35

> <Delta U+W>
-0.030

> <U+W>
-54.921

> <U>
8.267

> <W>
-63.188

> <W(PB)>
-65.294

> <W(SA)>
2.106

> <Valence>
6.935

> <Coulomb>
0.875

> <VdW>
0.457

> <VdW6>
-6.205

> <VdW12>
6.662

> <Bond>
0.107

> <Angle>
2.420

> <Pdih>
4.407

> <Idih>
0.001

> <Tether>
0.000

$$$$
VeraChem MOL file


 19 18  0  0  0  0  0  0  0  0999 V2000     
   22.6066   19.7971   23.4760 C   0  0  0  0  0  0  0  0  0  0  0  0
   22.4812   20.2504   24.5965 O   0  5  0  0  0  0  0  0  0  0  0  0
   23.2308   20.3517   22.5931 O   0  0  0  0  0  0  0  0  0  0  0  0
   21.9629   18.4476   23.1695 C   0  0  0  0  0  0  0  0  0  0  0  0
   22.2033   17.7742   24.0007 H   0  0  0  0  0  0  0  0  0  0  0  0
   22.4371   18.0280   22.2740 H   0  0  0  0  0  0  0  0  0  0  0  0
   20.4245   18.5081   22.9816 C   0  0  0  0  0  0  0  0  0  0  0  0
   20.0406   17.4818   22.9210 H   0  0  0  0  0  0  0  0  0  0  0  0
   19.9671   18.9664   23.8693 H   0  0  0  0  0  0  0  0  0  0  0  0
   20.0115   19.2936   21.7138 C   0  0  0  0  0  0  0  0  0  0  0  0
   20.4382   18.8113   20.8239 H   0  0  0  0  0  0  0  0  0  0  0  0
   20.4447   20.3023   21.7571 H   0  0  0  0  0  0  0  0  0  0  0  0
   18.4802   19.4277   21.5461 C   0  0  0  0  0  0  0  0  0  0  0  0
   18.0507   19.9118   22.4341 H   0  0  0  0  0  0  0  0  0  0  0  0
   18.2763   20.0969   20.6988 H   0  0  0  0  0  0  0  0  0  0  0  0
   17.7714   18.0792   21.2950 C   0  0  0  0  0  0  0  0  0  0  0  0
   17.8479   17.4174   22.1667 H   0  0  0  0  0  0  0  0  0  0  0  0
   16.7044   18.2387   21.0923 H   0  0  0  0  0  0  0  0  0  0  0  0
   18.2061   17.5619   20.4298 H   0  0  0  0  0  0  0  0  0  0  0  0
  1  2  1  0  0  0  0
  1  3  2  0  0  0  0
  1  4  1  0  0  0  0
  4  5  1  0  0  0  0
  4  6  1  0  0  0  0
  4  7  1  0  0  0  0
  7  8  1  0  0  0  0
  7  9  1  0  0  0  0
  7 10  1  0  0  0  0
 10 11  1  0  0  0  0
 10 12  1  0  0  0  0
 10 13  1  0  0  0  0
 13 14  1  0  0  0  0
 13 15  1  0  0  0  0
 13 16  1  0  0  0  0
 16 17  1  0  0  0  0
 16 18  1  0  0  0  0
 16 19  1  0  0  0  0
M  END
> <VConfSearch Rank>
294

> <Conf_Id>
74

> <Delta U+W>
0.797

> <U+W>
-54.095

> <U>
8.869

> <W>
-62.964

> <W(PB)>
-65.046

> <W(SA)>
2.082

> <Valence>
7.469

> <Coulomb>
0.762

> <VdW>
0.639

> <VdW6>
-6.782

> <VdW12>
7.421

> <Bond>
0.141

> <Angle>
2.667

> <Pdih>
4.660

> <Idih>
0.001

> <Tether>
0.000

$$$$
VeraChem MOL file


 19 18  0  0  0  0  0  0  0  0999 V2000     
   19.5653   21.6497   23.3066 C   0  0  0  0  0  0  0  0  0  0  0  0
   19.1826   22.6394   22.7146 O   0  5  0  0  0  0  0  0  0  0  0  0
   19.4760   21.5102   24.5103 O   0  0  0  0  0  0  0  0  0  0  0  0
   20.1734   20.5136   22.4920 C   0  0  0  0  0  0  0  0  0  0  0  0
   20.9348   20.0281   23.1130 H   0  0  0  0  0  0  0  0  0  0  0  0
   20.6875   20.9507   21.6277 H   0  0  0  0  0  0  0  0  0  0  0  0
   19.1175   19.4806   22.0202 C   0  0  0  0  0  0  0  0  0  0  0  0
   18.6363   19.0220   22.8943 H   0  0  0  0  0  0  0  0  0  0  0  0
   18.3220   20.0118   21.4796 H   0  0  0  0  0  0  0  0  0  0  0  0
   19.6962   18.3833   21.0921 C   0  0  0  0  0  0  0  0  0  0  0  0
   20.0801   18.8565   20.1780 H   0  0  0  0  0  0  0  0  0  0  0  0
   18.8774   17.7248   20.7715 H   0  0  0  0  0  0  0  0  0  0  0  0
   20.8196   17.5179   21.7142 C   0  0  0  0  0  0  0  0  0  0  0  0
   21.1576   16.7911   20.9627 H   0  0  0  0  0  0  0  0  0  0  0  0
   21.6931   18.1408   21.9476 H   0  0  0  0  0  0  0  0  0  0  0  0
   20.3729   16.7529   22.9785 C   0  0  0  0  0  0  0  0  0  0  0  0
   19.4855   16.1399   22.7739 H   0  0  0  0  0  0  0  0  0  0  0  0
   21.1723   16.0860   23.3266 H   0  0  0  0  0  0  0  0  0  0  0  0
   20.1346   17.4424   23.7983 H   0  0  0  0  0  0  0  0  0  0  0  0
  1  2  1  0  0  0  0
  1  3  2  0  0  0  0
  1  4  1  0  0  0  0
  4  5  1  0  0  0  0
  4  6  1  0  0  0  0
  4  7  1  0  0  0  0
  7  8  1  0  0  0  0
  7  9  1  0  0  0  0
  7 10  1  0  0  0  0
 10 11  1  0  0  0  0
 10 12  1  0  0  0  0
 10 13  1  0  0  0  0
 13 14  1  0  0  0  0
 13 15  1  0  0  0  0
 13 16  1  0  0  0  0
 16 17  1  0  0  0  0
 16 18  1  0  0  0  0
 16 19  1  0  0  0  0
M  END
> <VConfSearch Rank>
295

> <Conf_Id>
67

> <Delta U+W>
0.308

> <U+W>
-54.583

> <U>
8.219

> <W>
-62.802

> <W(PB)>
-64.859

> <W(SA)>
2.057

> <Valence>
7.609

> <Coulomb>
-0.089

> <VdW>
0.699

> <VdW6>
-6.924

> <VdW12>
7.623

> <Bond>
0.163

> <Angle>
2.870

> <Pdih>
4.576

> <Idih>
0.001

> <Tether>
0.000

$$$$
VeraChem MOL file


 19 18  0  0  0  0  0  0  0  0999 V2000     
   20.3119   18.0738   25.0841 C   0  0  0  0  0  0  0  0  0  0  0  0
   20.5519   18.7413   26.0706 O   0  5  0  0  0  0  0  0  0  0  0  0
   20.5493   16.8849   25.0030 O   0  0  0  0  0  0  0  0  0  0  0  0
   19.6975   18.7706   23.8753 C   0  0  0  0  0  0  0  0  0  0  0  0
   19.0574   19.5833   24.2389 H   0  0  0  0  0  0  0  0  0  0  0  0
   19.0493   18.0475   23.3671 H   0  0  0  0  0  0  0  0  0  0  0  0
   20.7637   19.3266   22.8962 C   0  0  0  0  0  0  0  0  0  0  0  0
   21.4515   19.9755   23.4557 H   0  0  0  0  0  0  0  0  0  0  0  0
   21.3738   18.4997   22.5094 H   0  0  0  0  0  0  0  0  0  0  0  0
   20.1625   20.1409   21.7231 C   0  0  0  0  0  0  0  0  0  0  0  0
   20.9843   20.5322   21.1080 H   0  0  0  0  0  0  0  0  0  0  0  0
   19.6431   21.0195   22.1293 H   0  0  0  0  0  0  0  0  0  0  0  0
   19.1832   19.3607   20.8119 C   0  0  0  0  0  0  0  0  0  0  0  0
   18.2998   19.0483   21.3842 H   0  0  0  0  0  0  0  0  0  0  0  0
   18.8143   20.0410   20.0321 H   0  0  0  0  0  0  0  0  0  0  0  0
   19.8261   18.1315   20.1344 C   0  0  0  0  0  0  0  0  0  0  0  0
   20.1068   17.3703   20.8734 H   0  0  0  0  0  0  0  0  0  0  0  0
   19.1221   17.6685   19.4310 H   0  0  0  0  0  0  0  0  0  0  0  0
   20.7259   18.4173   19.5744 H   0  0  0  0  0  0  0  0  0  0  0  0
  1  2  1  0  0  0  0
  1  3  2  0  0  0  0
  1  4  1  0  0  0  0
  4  5  1  0  0  0  0
  4  6  1  0  0  0  0
  4  7  1  0  0  0  0
  7  8  1  0  0  0  0
  7  9  1  0  0  0  0
  7 10  1  0  0  0  0
 10 11  1  0  0  0  0
 10 12  1  0  0  0  0
 10 13  1  0  0  0  0
 13 14  1  0  0  0  0
 13 15  1  0  0  0  0
 13 16  1  0  0  0  0
 16 17  1  0  0  0  0
 16 18  1  0  0  0  0
 16 19  1  0  0  0  0
M  END
> <VConfSearch Rank>
296

> <Conf_Id>
21

> <Delta U+W>
0.319

> <U+W>
-54.572

> <U>
8.220

> <W>
-62.792

> <W(PB)>
-64.830

> <W(SA)>
2.038

> <Valence>
7.609

> <Coulomb>
-0.088

> <VdW>
0.699

> <VdW6>
-6.924

> <VdW12>
7.623

> <Bond>
0.163

> <Angle>
2.870

> <Pdih>
4.576

> <Idih>
0.000

> <Tether>
0.000

$$$$
VeraChem MOL file


 19 18  0  0  0  0  0  0  0  0999 V2000     
   20.4068   17.1362   24.5607 C   0  0  0  0  0  0  0  0  0  0  0  0
   19.9633   16.0261   24.7786 O   0  5  0  0  0  0  0  0  0  0  0  0
   21.4259   17.5639   25.0653 O   0  0  0  0  0  0  0  0  0  0  0  0
   19.6526   18.0342   23.5866 C   0  0  0  0  0  0  0  0  0  0  0  0
   19.7921   19.0708   23.9087 H   0  0  0  0  0  0  0  0  0  0  0  0
   18.5830   17.8121   23.6807 H   0  0  0  0  0  0  0  0  0  0  0  0
   20.1078   17.8409   22.1158 C   0  0  0  0  0  0  0  0  0  0  0  0
   21.1906   18.0060   22.0300 H   0  0  0  0  0  0  0  0  0  0  0  0
   19.9364   16.7899   21.8448 H   0  0  0  0  0  0  0  0  0  0  0  0
   19.3463   18.7422   21.1109 C   0  0  0  0  0  0  0  0  0  0  0  0
   18.3315   18.9486   21.4775 H   0  0  0  0  0  0  0  0  0  0  0  0
   19.2174   18.1785   20.1768 H   0  0  0  0  0  0  0  0  0  0  0  0
   20.0648   20.0680   20.7587 C   0  0  0  0  0  0  0  0  0  0  0  0
   21.0434   19.8485   20.3099 H   0  0  0  0  0  0  0  0  0  0  0  0
   19.4812   20.5853   19.9847 H   0  0  0  0  0  0  0  0  0  0  0  0
   20.2535   21.0229   21.9554 C   0  0  0  0  0  0  0  0  0  0  0  0
   20.6461   21.9901   21.6159 H   0  0  0  0  0  0  0  0  0  0  0  0
   19.3006   21.2053   22.4687 H   0  0  0  0  0  0  0  0  0  0  0  0
   20.9685   20.6128   22.6796 H   0  0  0  0  0  0  0  0  0  0  0  0
  1  2  1  0  0  0  0
  1  3  2  0  0  0  0
  1  4  1  0  0  0  0
  4  5  1  0  0  0  0
  4  6  1  0  0  0  0
  4  7  1  0  0  0  0
  7  8  1  0  0  0  0
  7  9  1  0  0  0  0
  7 10  1  0  0  0  0
 10 11  1  0  0  0  0
 10 12  1  0  0  0  0
 10 13  1  0  0  0  0
 13 14  1  0  0  0  0
 13 15  1  0  0  0  0
 13 16  1  0  0  0  0
 16 17  1  0  0  0  0
 16 18  1  0  0  0  0
 16 19  1  0  0  0  0
M  END
> <VConfSearch Rank>
297

> <Conf_Id>
24

> <Delta U+W>
2.477

> <U+W>
-52.414

> <U>
10.422

> <W>
-62.836

> <W(PB)>
-64.906

> <W(SA)>
2.070

> <Valence>
9.628

> <Coulomb>
0.101

> <VdW>
0.693

> <VdW6>
-6.927

> <VdW12>
7.620

> <Bond>
0.173

> <Angle>
2.989

> <Pdih>
6.465

> <Idih>
0.001

> <Tether>
0.000

$$$$
VeraChem MOL file


 19 18  0  0  0  0  0  0  0  0999 V2000     
   17.8279   18.7493   23.9943 C   0  0  0  0  0  0  0  0  0  0  0  0
   18.4532   18.8425   25.0321 O   0  5  0  0  0  0  0  0  0  0  0  0
   16.6713   19.1026   23.8741 O   0  0  0  0  0  0  0  0  0  0  0  0
   18.5200   18.1289   22.7834 C   0  0  0  0  0  0  0  0  0  0  0  0
   17.8390   17.3742   22.3729 H   0  0  0  0  0  0  0  0  0  0  0  0
   19.4090   17.5929   23.1308 H   0  0  0  0  0  0  0  0  0  0  0  0
   18.8834   19.1516   21.6712 C   0  0  0  0  0  0  0  0  0  0  0  0
   19.1838   18.6184   20.7593 H   0  0  0  0  0  0  0  0  0  0  0  0
   17.9720   19.7071   21.4097 H   0  0  0  0  0  0  0  0  0  0  0  0
   19.9872   20.1641   22.0738 C   0  0  0  0  0  0  0  0  0  0  0  0
   19.9585   20.3552   23.1552 H   0  0  0  0  0  0  0  0  0  0  0  0
   19.7576   21.1262   21.5957 H   0  0  0  0  0  0  0  0  0  0  0  0
   21.4199   19.7618   21.6456 C   0  0  0  0  0  0  0  0  0  0  0  0
   21.4635   19.6598   20.5525 H   0  0  0  0  0  0  0  0  0  0  0  0
   22.1036   20.5817   21.9051 H   0  0  0  0  0  0  0  0  0  0  0  0
   21.9340   18.4642   22.3024 C   0  0  0  0  0  0  0  0  0  0  0  0
   21.3820   17.5899   21.9359 H   0  0  0  0  0  0  0  0  0  0  0  0
   22.9945   18.3083   22.0661 H   0  0  0  0  0  0  0  0  0  0  0  0
   21.8325   18.5091   23.3947 H   0  0  0  0  0  0  0  0  0  0  0  0
  1  2  1  0  0  0  0
  1  3  2  0  0  0  0
  1  4  1  0  0  0  0
  4  5  1  0  0  0  0
  4  6  1  0  0  0  0
  4  7  1  0  0  0  0
  7  8  1  0  0  0  0
  7  9  1  0  0  0  0
  7 10  1  0  0  0  0
 10 11  1  0  0  0  0
 10 12  1  0  0  0  0
 10 13  1  0  0  0  0
 13 14  1  0  0  0  0
 13 15  1  0  0  0  0
 13 16  1  0  0  0  0
 16 17  1  0  0  0  0
 16 18  1  0  0  0  0
 16 19  1  0  0  0  0
M  END
> <VConfSearch Rank>
298

> <Conf_Id>
4

> <Delta U+W>
3.753

> <U+W>
-51.138

> <U>
12.334

> <W>
-63.472

> <W(PB)>
-65.500

> <W(SA)>
2.028

> <Valence>
9.984

> <Coulomb>
1.767

> <VdW>
0.583

> <VdW6>
-7.767

> <VdW12>
8.349

> <Bond>
0.203

> <Angle>
3.191

> <Pdih>
6.589

> <Idih>
0.001

> <Tether>
0.000

$$$$
VeraChem MOL file


 19 18  0  0  0  0  0  0  0  0999 V2000     
   18.7640   18.9014   20.0783 C   0  0  0  0  0  0  0  0  0  0  0  0
   19.1712   19.2589   18.9904 O   0  5  0  0  0  0  0  0  0  0  0  0
   18.1139   17.8895   20.2516 O   0  0  0  0  0  0  0  0  0  0  0  0
   19.0618   19.7880   21.2847 C   0  0  0  0  0  0  0  0  0  0  0  0
   18.3823   19.5073   22.0957 H   0  0  0  0  0  0  0  0  0  0  0  0
   18.8055   20.8157   21.0021 H   0  0  0  0  0  0  0  0  0  0  0  0
   20.5424   19.7388   21.7542 C   0  0  0  0  0  0  0  0  0  0  0  0
   21.1809   19.9606   20.8878 H   0  0  0  0  0  0  0  0  0  0  0  0
   20.7293   20.5417   22.4800 H   0  0  0  0  0  0  0  0  0  0  0  0
   20.9739   18.3766   22.3571 C   0  0  0  0  0  0  0  0  0  0  0  0
   22.0226   18.1994   22.0821 H   0  0  0  0  0  0  0  0  0  0  0  0
   20.4041   17.5557   21.9006 H   0  0  0  0  0  0  0  0  0  0  0  0
   20.8771   18.2936   23.9003 C   0  0  0  0  0  0  0  0  0  0  0  0
   21.2821   17.3244   24.2227 H   0  0  0  0  0  0  0  0  0  0  0  0
   21.5204   19.0611   24.3524 H   0  0  0  0  0  0  0  0  0  0  0  0
   19.4434   18.4370   24.4514 C   0  0  0  0  0  0  0  0  0  0  0  0
   18.7610   17.7301   23.9614 H   0  0  0  0  0  0  0  0  0  0  0  0
   19.4247   18.2347   25.5300 H   0  0  0  0  0  0  0  0  0  0  0  0
   19.0612   19.4539   24.2994 H   0  0  0  0  0  0  0  0  0  0  0  0
  1  2  1  0  0  0  0
  1  3  2  0  0  0  0
  1  4  1  0  0  0  0
  4  5  1  0  0  0  0
  4  6  1  0  0  0  0
  4  7  1  0  0  0  0
  7  8  1  0  0  0  0
  7  9  1  0  0  0  0
  7 10  1  0  0  0  0
 10 11  1  0  0  0  0
 10 12  1  0  0  0  0
 10 13  1  0  0  0  0
 13 14  1  0  0  0  0
 13 15  1  0  0  0  0
 13 16  1  0  0  0  0
 16 17  1  0  0  0  0
 16 18  1  0  0  0  0
 16 19  1  0  0  0  0
M  END
> <VConfSearch Rank>
299

> <Conf_Id>
73

> <Delta U+W>
3.707

> <U+W>
-51.184

> <U>
12.334

> <W>
-63.519

> <W(PB)>
-65.541

> <W(SA)>
2.022

> <Valence>
9.984

> <Coulomb>
1.768

> <VdW>
0.583

> <VdW6>
-7.767

> <VdW12>
8.350

> <Bond>
0.203

> <Angle>
3.192

> <Pdih>
6.589

> <Idih>
0.001

> <Tether>
0.000

$$$$
VeraChem MOL file


 19 18  0  0  0  0  0  0  0  0999 V2000     
   22.2616   18.7411   21.5066 C   0  0  0  0  0  0  0  0  0  0  0  0
   22.3932   17.5725   21.8132 O   0  5  0  0  0  0  0  0  0  0  0  0
   22.7668   19.2366   20.5185 O   0  0  0  0  0  0  0  0  0  0  0  0
   21.4455   19.6445   22.4270 C   0  0  0  0  0  0  0  0  0  0  0  0
   22.0529   20.5330   22.6348 H   0  0  0  0  0  0  0  0  0  0  0  0
   21.3043   19.1339   23.3865 H   0  0  0  0  0  0  0  0  0  0  0  0
   20.0780   20.0839   21.8361 C   0  0  0  0  0  0  0  0  0  0  0  0
   19.5942   20.7861   22.5274 H   0  0  0  0  0  0  0  0  0  0  0  0
   20.2597   20.6485   20.9113 H   0  0  0  0  0  0  0  0  0  0  0  0
   19.1109   18.9138   21.5205 C   0  0  0  0  0  0  0  0  0  0  0  0
   19.5546   18.2836   20.7376 H   0  0  0  0  0  0  0  0  0  0  0  0
   18.1883   19.3257   21.0893 H   0  0  0  0  0  0  0  0  0  0  0  0
   18.7426   18.0185   22.7288 C   0  0  0  0  0  0  0  0  0  0  0  0
   18.0716   17.2211   22.3811 H   0  0  0  0  0  0  0  0  0  0  0  0
   19.6398   17.5133   23.1113 H   0  0  0  0  0  0  0  0  0  0  0  0
   18.0481   18.7888   23.8724 C   0  0  0  0  0  0  0  0  0  0  0  0
   18.7251   19.5227   24.3274 H   0  0  0  0  0  0  0  0  0  0  0  0
   17.1597   19.3193   23.5058 H   0  0  0  0  0  0  0  0  0  0  0  0
   17.7279   18.0971   24.6622 H   0  0  0  0  0  0  0  0  0  0  0  0
  1  2  1  0  0  0  0
  1  3  2  0  0  0  0
  1  4  1  0  0  0  0
  4  5  1  0  0  0  0
  4  6  1  0  0  0  0
  4  7  1  0  0  0  0
  7  8  1  0  0  0  0
  7  9  1  0  0  0  0
  7 10  1  0  0  0  0
 10 11  1  0  0  0  0
 10 12  1  0  0  0  0
 10 13  1  0  0  0  0
 13 14  1  0  0  0  0
 13 15  1  0  0  0  0
 13 16  1  0  0  0  0
 16 17  1  0  0  0  0
 16 18  1  0  0  0  0
 16 19  1  0  0  0  0
M  END
> <VConfSearch Rank>
300

> <Conf_Id>
56

> <Delta U+W>
1.735

> <U+W>
-53.156

> <U>
10.214

> <W>
-63.370

> <W(PB)>
-65.388

> <W(SA)>
2.018

> <Valence>
7.868

> <Coulomb>
1.968

> <VdW>
0.378

> <VdW6>
-8.067

> <VdW12>
8.445

> <Bond>
0.191

> <Angle>
3.117

> <Pdih>
4.559

> <Idih>
0.001

> <Tether>
0.000

$$$$
VeraChem MOL file


 19 18  0  0  0  0  0  0  0  0999 V2000     
   19.2154   21.7701   22.5514 C   0  0  0  0  0  0  0  0  0  0  0  0
   19.8349   22.5541   23.2427 O   0  5  0  0  0  0  0  0  0  0  0  0
   18.1293   22.0155   22.0652 O   0  0  0  0  0  0  0  0  0  0  0  0
   19.8248   20.3957   22.2982 C   0  0  0  0  0  0  0  0  0  0  0  0
   20.9161   20.5019   22.2921 H   0  0  0  0  0  0  0  0  0  0  0  0
   19.5182   20.0770   21.2957 H   0  0  0  0  0  0  0  0  0  0  0  0
   19.3943   19.3443   23.3518 C   0  0  0  0  0  0  0  0  0  0  0  0
   19.5844   19.7529   24.3540 H   0  0  0  0  0  0  0  0  0  0  0  0
   18.3088   19.1883   23.2844 H   0  0  0  0  0  0  0  0  0  0  0  0
   20.1238   17.9828   23.2308 C   0  0  0  0  0  0  0  0  0  0  0  0
   19.7758   17.3473   24.0567 H   0  0  0  0  0  0  0  0  0  0  0  0
   21.2023   18.1168   23.3916 H   0  0  0  0  0  0  0  0  0  0  0  0
   19.8692   17.2282   21.9023 C   0  0  0  0  0  0  0  0  0  0  0  0
   19.8326   16.1504   22.1129 H   0  0  0  0  0  0  0  0  0  0  0  0
   18.8835   17.4935   21.4959 H   0  0  0  0  0  0  0  0  0  0  0  0
   20.9682   17.4693   20.8436 C   0  0  0  0  0  0  0  0  0  0  0  0
   20.7516   16.9009   19.9299 H   0  0  0  0  0  0  0  0  0  0  0  0
   21.0460   18.5271   20.5683 H   0  0  0  0  0  0  0  0  0  0  0  0
   21.9477   17.1435   21.2169 H   0  0  0  0  0  0  0  0  0  0  0  0
  1  2  1  0  0  0  0
  1  3  2  0  0  0  0
  1  4  1  0  0  0  0
  4  5  1  0  0  0  0
  4  6  1  0  0  0  0
  4  7  1  0  0  0  0
  7  8  1  0  0  0  0
  7  9  1  0  0  0  0
  7 10  1  0  0  0  0
 10 11  1  0  0  0  0
 10 12  1  0  0  0  0
 10 13  1  0  0  0  0
 13 14  1  0  0  0  0
 13 15  1  0  0  0  0
 13 16  1  0  0  0  0
 16 17  1  0  0  0  0
 16 18  1  0  0  0  0
 16 19  1  0  0  0  0
M  END
> <VConfSearch Rank>
301

> <Conf_Id>
53

> <Delta U+W>
2.279

> <U+W>
-52.612

> <U>
10.231

> <W>
-62.843

> <W(PB)>
-64.893

> <W(SA)>
2.050

> <Valence>
9.644

> <Coulomb>
-0.164

> <VdW>
0.751

> <VdW6>
-6.881

> <VdW12>
7.631

> <Bond>
0.163

> <Angle>
2.998

> <Pdih>
6.482

> <Idih>
0.001

> <Tether>
0.000

$$$$
VeraChem MOL file


 19 18  0  0  0  0  0  0  0  0999 V2000     
   17.9223   18.0887   22.1034 C   0  0  0  0  0  0  0  0  0  0  0  0
   17.3226   19.0809   21.7392 O   0  5  0  0  0  0  0  0  0  0  0  0
   17.5840   17.4137   23.0559 O   0  0  0  0  0  0  0  0  0  0  0  0
   19.1221   17.6285   21.2775 C   0  0  0  0  0  0  0  0  0  0  0  0
   19.2554   18.3122   20.4303 H   0  0  0  0  0  0  0  0  0  0  0  0
   18.8498   16.6546   20.8544 H   0  0  0  0  0  0  0  0  0  0  0  0
   20.4542   17.4823   22.0657 C   0  0  0  0  0  0  0  0  0  0  0  0
   20.2701   16.9710   23.0208 H   0  0  0  0  0  0  0  0  0  0  0  0
   21.1166   16.8204   21.4917 H   0  0  0  0  0  0  0  0  0  0  0  0
   21.2126   18.8101   22.3115 C   0  0  0  0  0  0  0  0  0  0  0  0
   21.3996   19.3123   21.3525 H   0  0  0  0  0  0  0  0  0  0  0  0
   22.1990   18.5681   22.7304 H   0  0  0  0  0  0  0  0  0  0  0  0
   20.4904   19.7795   23.2729 C   0  0  0  0  0  0  0  0  0  0  0  0
   19.5602   20.1401   22.8158 H   0  0  0  0  0  0  0  0  0  0  0  0
   20.2118   19.2508   24.1951 H   0  0  0  0  0  0  0  0  0  0  0  0
   21.3756   20.9926   23.6231 C   0  0  0  0  0  0  0  0  0  0  0  0
   21.6471   21.5538   22.7193 H   0  0  0  0  0  0  0  0  0  0  0  0
   20.8451   21.6753   24.2995 H   0  0  0  0  0  0  0  0  0  0  0  0
   22.3010   20.6742   24.1206 H   0  0  0  0  0  0  0  0  0  0  0  0
  1  2  1  0  0  0  0
  1  3  2  0  0  0  0
  1  4  1  0  0  0  0
  4  5  1  0  0  0  0
  4  6  1  0  0  0  0
  4  7  1  0  0  0  0
  7  8  1  0  0  0  0
  7  9  1  0  0  0  0
  7 10  1  0  0  0  0
 10 11  1  0  0  0  0
 10 12  1  0  0  0  0
 10 13  1  0  0  0  0
 13 14  1  0  0  0  0
 13 15  1  0  0  0  0
 13 16  1  0  0  0  0
 16 17  1  0  0  0  0
 16 18  1  0  0  0  0
 16 19  1  0  0  0  0
M  END
> <VConfSearch Rank>
302

> <Conf_Id>
25

> <Delta U+W>
2.065

> <U+W>
-52.826

> <U>
10.967

> <W>
-63.794

> <W(PB)>
-65.830

> <W(SA)>
2.036

> <Valence>
8.609

> <Coulomb>
1.892

> <VdW>
0.467

> <VdW6>
-7.569

> <VdW12>
8.036

> <Bond>
0.170

> <Angle>
3.195

> <Pdih>
5.237

> <Idih>
0.007

> <Tether>
0.000

$$$$
VeraChem MOL file


 19 18  0  0  0  0  0  0  0  0999 V2000     
   19.5134   17.3875   20.6709 C   0  0  0  0  0  0  0  0  0  0  0  0
   18.3308   17.5347   20.4320 O   0  5  0  0  0  0  0  0  0  0  0  0
   20.0047   16.3223   20.9884 O   0  0  0  0  0  0  0  0  0  0  0  0
   20.4438   18.5863   20.4955 C   0  0  0  0  0  0  0  0  0  0  0  0
   20.3990   18.8586   19.4347 H   0  0  0  0  0  0  0  0  0  0  0  0
   21.4748   18.2698   20.6948 H   0  0  0  0  0  0  0  0  0  0  0  0
   20.0885   19.8336   21.3529 C   0  0  0  0  0  0  0  0  0  0  0  0
   20.5648   20.7089   20.8909 H   0  0  0  0  0  0  0  0  0  0  0  0
   19.0066   20.0212   21.3110 H   0  0  0  0  0  0  0  0  0  0  0  0
   20.5589   19.7642   22.8268 C   0  0  0  0  0  0  0  0  0  0  0  0
   20.3956   20.7494   23.2847 H   0  0  0  0  0  0  0  0  0  0  0  0
   21.6420   19.5838   22.8613 H   0  0  0  0  0  0  0  0  0  0  0  0
   19.8279   18.6979   23.6719 C   0  0  0  0  0  0  0  0  0  0  0  0
   18.7411   18.8135   23.5584 H   0  0  0  0  0  0  0  0  0  0  0  0
   20.0833   17.6927   23.3130 H   0  0  0  0  0  0  0  0  0  0  0  0
   20.2033   18.8037   25.1637 C   0  0  0  0  0  0  0  0  0  0  0  0
   19.6826   18.0344   25.7485 H   0  0  0  0  0  0  0  0  0  0  0  0
   21.2830   18.6657   25.3072 H   0  0  0  0  0  0  0  0  0  0  0  0
   19.9254   19.7847   25.5710 H   0  0  0  0  0  0  0  0  0  0  0  0
  1  2  1  0  0  0  0
  1  3  2  0  0  0  0
  1  4  1  0  0  0  0
  4  5  1  0  0  0  0
  4  6  1  0  0  0  0
  4  7  1  0  0  0  0
  7  8  1  0  0  0  0
  7  9  1  0  0  0  0
  7 10  1  0  0  0  0
 10 11  1  0  0  0  0
 10 12  1  0  0  0  0
 10 13  1  0  0  0  0
 13 14  1  0  0  0  0
 13 15  1  0  0  0  0
 13 16  1  0  0  0  0
 16 17  1  0  0  0  0
 16 18  1  0  0  0  0
 16 19  1  0  0  0  0
M  END
> <VConfSearch Rank>
303

> <Conf_Id>
52

> <Delta U+W>
2.070

> <U+W>
-52.822

> <U>
10.967

> <W>
-63.789

> <W(PB)>
-65.837

> <W(SA)>
2.048

> <Valence>
8.609

> <Coulomb>
1.892

> <VdW>
0.467

> <VdW6>
-7.569

> <VdW12>
8.035

> <Bond>
0.170

> <Angle>
3.196

> <Pdih>
5.237

> <Idih>
0.007

> <Tether>
0.000

$$$$
VeraChem MOL file


 19 18  0  0  0  0  0  0  0  0999 V2000     
   21.4399   17.6450   23.3296 C   0  0  0  0  0  0  0  0  0  0  0  0
   21.3550   16.5653   22.7772 O   0  5  0  0  0  0  0  0  0  0  0  0
   22.4633   18.2998   23.3563 O   0  0  0  0  0  0  0  0  0  0  0  0
   20.2449   18.1519   24.1385 C   0  0  0  0  0  0  0  0  0  0  0  0
   20.4304   19.1906   24.4375 H   0  0  0  0  0  0  0  0  0  0  0  0
   20.2305   17.5596   25.0606 H   0  0  0  0  0  0  0  0  0  0  0  0
   18.8585   18.0324   23.4435 C   0  0  0  0  0  0  0  0  0  0  0  0
   18.7852   17.0722   22.9144 H   0  0  0  0  0  0  0  0  0  0  0  0
   18.0901   17.9991   24.2276 H   0  0  0  0  0  0  0  0  0  0  0  0
   18.4937   19.1935   22.4833 C   0  0  0  0  0  0  0  0  0  0  0  0
   18.4685   20.1431   23.0353 H   0  0  0  0  0  0  0  0  0  0  0  0
   17.4644   19.0246   22.1384 H   0  0  0  0  0  0  0  0  0  0  0  0
   19.4014   19.3206   21.2359 C   0  0  0  0  0  0  0  0  0  0  0  0
   19.8956   18.3630   21.0212 H   0  0  0  0  0  0  0  0  0  0  0  0
   18.7737   19.5414   20.3616 H   0  0  0  0  0  0  0  0  0  0  0  0
   20.4487   20.4466   21.3714 C   0  0  0  0  0  0  0  0  0  0  0  0
   19.9608   21.4231   21.4867 H   0  0  0  0  0  0  0  0  0  0  0  0
   21.0988   20.2883   22.2398 H   0  0  0  0  0  0  0  0  0  0  0  0
   21.0852   20.4902   20.4783 H   0  0  0  0  0  0  0  0  0  0  0  0
  1  2  1  0  0  0  0
  1  3  2  0  0  0  0
  1  4  1  0  0  0  0
  4  5  1  0  0  0  0
  4  6  1  0  0  0  0
  4  7  1  0  0  0  0
  7  8  1  0  0  0  0
  7  9  1  0  0  0  0
  7 10  1  0  0  0  0
 10 11  1  0  0  0  0
 10 12  1  0  0  0  0
 10 13  1  0  0  0  0
 13 14  1  0  0  0  0
 13 15  1  0  0  0  0
 13 16  1  0  0  0  0
 16 17  1  0  0  0  0
 16 18  1  0  0  0  0
 16 19  1  0  0  0  0
M  END
> <VConfSearch Rank>
304

> <Conf_Id>
66

> <Delta U+W>
5.819

> <U+W>
-49.072

> <U>
15.324

> <W>
-64.396

> <W(PB)>
-66.382

> <W(SA)>
1.986

> <Valence>
11.748

> <Coulomb>
3.201

> <VdW>
0.375

> <VdW6>
-8.854

> <VdW12>
9.229

> <Bond>
0.216

> <Angle>
3.812

> <Pdih>
7.699

> <Idih>
0.022

> <Tether>
0.000

$$$$
VeraChem MOL file


 19 18  0  0  0  0  0  0  0  0999 V2000     
   20.5192   19.9988   25.3253 C   0  0  0  0  0  0  0  0  0  0  0  0
   20.5324   21.0149   25.9909 O   0  5  0  0  0  0  0  0  0  0  0  0
   20.7563   18.8997   25.7877 O   0  0  0  0  0  0  0  0  0  0  0  0
   20.1857   20.1417   23.8393 C   0  0  0  0  0  0  0  0  0  0  0  0
   20.9139   20.8375   23.4061 H   0  0  0  0  0  0  0  0  0  0  0  0
   19.2025   20.6218   23.7695 H   0  0  0  0  0  0  0  0  0  0  0  0
   20.1808   18.8173   23.0305 C   0  0  0  0  0  0  0  0  0  0  0  0
   21.1667   18.3385   23.1093 H   0  0  0  0  0  0  0  0  0  0  0  0
   19.4536   18.1226   23.4732 H   0  0  0  0  0  0  0  0  0  0  0  0
   19.8354   19.0535   21.5442 C   0  0  0  0  0  0  0  0  0  0  0  0
   20.5635   19.7484   21.1037 H   0  0  0  0  0  0  0  0  0  0  0  0
   18.8495   19.5323   21.4677 H   0  0  0  0  0  0  0  0  0  0  0  0
   19.8311   17.7356   20.7419 C   0  0  0  0  0  0  0  0  0  0  0  0
   20.8164   17.2545   20.8144 H   0  0  0  0  0  0  0  0  0  0  0  0
   19.1024   17.0385   21.1783 H   0  0  0  0  0  0  0  0  0  0  0  0
   19.4860   17.9752   19.2585 C   0  0  0  0  0  0  0  0  0  0  0  0
   20.2178   18.6451   18.7882 H   0  0  0  0  0  0  0  0  0  0  0  0
   19.4874   17.0283   18.7032 H   0  0  0  0  0  0  0  0  0  0  0  0
   18.4909   18.4274   19.1549 H   0  0  0  0  0  0  0  0  0  0  0  0
  1  2  1  0  0  0  0
  1  3  2  0  0  0  0
  1  4  1  0  0  0  0
  4  5  1  0  0  0  0
  4  6  1  0  0  0  0
  4  7  1  0  0  0  0
  7  8  1  0  0  0  0
  7  9  1  0  0  0  0
  7 10  1  0  0  0  0
 10 11  1  0  0  0  0
 10 12  1  0  0  0  0
 10 13  1  0  0  0  0
 13 14  1  0  0  0  0
 13 15  1  0  0  0  0
 13 16  1  0  0  0  0
 16 17  1  0  0  0  0
 16 18  1  0  0  0  0
 16 19  1  0  0  0  0
M  END
> <VConfSearch Rank>
305

> <Conf_Id>
0

> <Delta U+W>
0.000

> <U+W>
-54.891

> <U>
6.966

> <W>
-61.857

> <W(PB)>
-63.965

> <W(SA)>
2.108

> <Valence>
7.175

> <Coulomb>
-1.360

> <VdW>
1.151

> <VdW6>
-5.641

> <VdW12>
6.792

> <Bond>
0.119

> <Angle>
2.715

> <Pdih>
4.340

> <Idih>
0.000

> <Tether>
0.000

$$$$
VeraChem MOL file


 19 18  0  0  0  0  0  0  0  0999 V2000     
   23.2162   18.2625   22.6046 C   0  0  0  0  0  0  0  0  0  0  0  0
   23.4550   17.4241   23.4508 O   0  5  0  0  0  0  0  0  0  0  0  0
   23.9212   18.4590   21.6347 O   0  0  0  0  0  0  0  0  0  0  0  0
   21.9516   19.1002   22.7573 C   0  0  0  0  0  0  0  0  0  0  0  0
   22.1462   20.0920   22.3318 H   0  0  0  0  0  0  0  0  0  0  0  0
   21.7617   19.2387   23.8286 H   0  0  0  0  0  0  0  0  0  0  0  0
   20.7183   18.4587   22.0748 C   0  0  0  0  0  0  0  0  0  0  0  0
   20.9290   18.3151   21.0059 H   0  0  0  0  0  0  0  0  0  0  0  0
   20.5446   17.4616   22.5027 H   0  0  0  0  0  0  0  0  0  0  0  0
   19.4521   19.3257   22.2441 C   0  0  0  0  0  0  0  0  0  0  0  0
   19.6294   20.3222   21.8167 H   0  0  0  0  0  0  0  0  0  0  0  0
   19.2449   19.4684   23.3136 H   0  0  0  0  0  0  0  0  0  0  0  0
   18.2252   18.6843   21.5631 C   0  0  0  0  0  0  0  0  0  0  0  0
   18.4278   18.5416   20.4926 H   0  0  0  0  0  0  0  0  0  0  0  0
   18.0434   17.6879   21.9894 H   0  0  0  0  0  0  0  0  0  0  0  0
   16.9627   19.5526   21.7340 C   0  0  0  0  0  0  0  0  0  0  0  0
   16.1004   19.0820   21.2441 H   0  0  0  0  0  0  0  0  0  0  0  0
   16.7183   19.6856   22.7961 H   0  0  0  0  0  0  0  0  0  0  0  0
   17.1057   20.5456   21.2881 H   0  0  0  0  0  0  0  0  0  0  0  0
  1  2  1  0  0  0  0
  1  3  2  0  0  0  0
  1  4  1  0  0  0  0
  4  5  1  0  0  0  0
  4  6  1  0  0  0  0
  4  7  1  0  0  0  0
  7  8  1  0  0  0  0
  7  9  1  0  0  0  0
  7 10  1  0  0  0  0
 10 11  1  0  0  0  0
 10 12  1  0  0  0  0
 10 13  1  0  0  0  0
 13 14  1  0  0  0  0
 13 15  1  0  0  0  0
 13 16  1  0  0  0  0
 16 17  1  0  0  0  0
 16 18  1  0  0  0  0
 16 19  1  0  0  0  0
M  END
> <VConfSearch Rank>
306

> <Conf_Id>
18

> <Delta U+W>
-1.199

> <U+W>
-56.090

> <U>
5.975

> <W>
-62.066

> <W(PB)>
-64.219

> <W(SA)>
2.153

> <Valence>
6.673

> <Coulomb>
-1.307

> <VdW>
0.610

> <VdW6>
-5.351

> <VdW12>
5.961

> <Bond>
0.086

> <Angle>
2.253

> <Pdih>
4.333

> <Idih>
0.001

> <Tether>
0.000

$$$$
VeraChem MOL file


 19 18  0  0  0  0  0  0  0  0999 V2000     
   18.8024   21.8422   21.5595 C   0  0  0  0  0  0  0  0  0  0  0  0
   19.4951   22.8243   21.3804 O   0  5  0  0  0  0  0  0  0  0  0  0
   17.6388   21.7688   21.2178 O   0  0  0  0  0  0  0  0  0  0  0  0
   19.4344   20.6279   22.2306 C   0  0  0  0  0  0  0  0  0  0  0  0
   18.6549   20.1272   22.8159 H   0  0  0  0  0  0  0  0  0  0  0  0
   20.1928   20.9858   22.9372 H   0  0  0  0  0  0  0  0  0  0  0  0
   20.0717   19.6445   21.2148 C   0  0  0  0  0  0  0  0  0  0  0  0
   19.2946   19.2586   20.5406 H   0  0  0  0  0  0  0  0  0  0  0  0
   20.7811   20.1991   20.5850 H   0  0  0  0  0  0  0  0  0  0  0  0
   20.8183   18.4650   21.8817 C   0  0  0  0  0  0  0  0  0  0  0  0
   21.6000   18.8540   22.5485 H   0  0  0  0  0  0  0  0  0  0  0  0
   21.3343   17.8919   21.0992 H   0  0  0  0  0  0  0  0  0  0  0  0
   19.8878   17.5151   22.6687 C   0  0  0  0  0  0  0  0  0  0  0  0
   19.4188   18.0508   23.5044 H   0  0  0  0  0  0  0  0  0  0  0  0
   19.0763   17.1658   22.0154 H   0  0  0  0  0  0  0  0  0  0  0  0
   20.6584   16.2996   23.2219 C   0  0  0  0  0  0  0  0  0  0  0  0
   19.9851   15.6364   23.7804 H   0  0  0  0  0  0  0  0  0  0  0  0
   21.1100   15.7168   22.4085 H   0  0  0  0  0  0  0  0  0  0  0  0
   21.4598   16.6190   23.9010 H   0  0  0  0  0  0  0  0  0  0  0  0
  1  2  1  0  0  0  0
  1  3  2  0  0  0  0
  1  4  1  0  0  0  0
  4  5  1  0  0  0  0
  4  6  1  0  0  0  0
  4  7  1  0  0  0  0
  7  8  1  0  0  0  0
  7  9  1  0  0  0  0
  7 10  1  0  0  0  0
 10 11  1  0  0  0  0
 10 12  1  0  0  0  0
 10 13  1  0  0  0  0
 13 14  1  0  0  0  0
 13 15  1  0  0  0  0
 13 16  1  0  0  0  0
 16 17  1  0  0  0  0
 16 18  1  0  0  0  0
 16 19  1  0  0  0  0
M  END
> <VConfSearch Rank>
307

> <Conf_Id>
34

> <Delta U+W>
-0.563

> <U+W>
-55.455

> <U>
6.914

> <W>
-62.369

> <W(PB)>
-64.446

> <W(SA)>
2.077

> <Valence>
7.196

> <Coulomb>
-1.020

> <VdW>
0.738

> <VdW6>
-6.010

> <VdW12>
6.748

> <Bond>
0.126

> <Angle>
2.499

> <Pdih>
4.570

> <Idih>
0.001

> <Tether>
0.000

$$$$
VeraChem MOL file


 19 18  0  0  0  0  0  0  0  0999 V2000     
   18.5344   19.2106   19.3270 C   0  0  0  0  0  0  0  0  0  0  0  0
   17.4437   18.7395   19.0725 O   0  5  0  0  0  0  0  0  0  0  0  0
   19.3329   19.5543   18.4782 O   0  0  0  0  0  0  0  0  0  0  0  0
   18.9313   19.3579   20.7917 C   0  0  0  0  0  0  0  0  0  0  0  0
   18.0224   19.5558   21.3723 H   0  0  0  0  0  0  0  0  0  0  0  0
   19.5708   20.2437   20.8762 H   0  0  0  0  0  0  0  0  0  0  0  0
   19.6575   18.1045   21.3457 C   0  0  0  0  0  0  0  0  0  0  0  0
   19.0278   17.2228   21.1627 H   0  0  0  0  0  0  0  0  0  0  0  0
   20.5887   17.9423   20.7855 H   0  0  0  0  0  0  0  0  0  0  0  0
   19.9656   18.1878   22.8595 C   0  0  0  0  0  0  0  0  0  0  0  0
   20.3675   17.2192   23.1872 H   0  0  0  0  0  0  0  0  0  0  0  0
   19.0317   18.3414   23.4174 H   0  0  0  0  0  0  0  0  0  0  0  0
   20.9768   19.2990   23.2205 C   0  0  0  0  0  0  0  0  0  0  0  0
   21.8919   19.1751   22.6250 H   0  0  0  0  0  0  0  0  0  0  0  0
   20.5621   20.2842   22.9704 H   0  0  0  0  0  0  0  0  0  0  0  0
   21.3344   19.2719   24.7200 C   0  0  0  0  0  0  0  0  0  0  0  0
   20.4403   19.4211   25.3395 H   0  0  0  0  0  0  0  0  0  0  0  0
   21.7886   18.3120   24.9988 H   0  0  0  0  0  0  0  0  0  0  0  0
   22.0506   20.0681   24.9612 H   0  0  0  0  0  0  0  0  0  0  0  0
  1  2  1  0  0  0  0
  1  3  2  0  0  0  0
  1  4  1  0  0  0  0
  4  5  1  0  0  0  0
  4  6  1  0  0  0  0
  4  7  1  0  0  0  0
  7  8  1  0  0  0  0
  7  9  1  0  0  0  0
  7 10  1  0  0  0  0
 10 11  1  0  0  0  0
 10 12  1  0  0  0  0
 10 13  1  0  0  0  0
 13 14  1  0  0  0  0
 13 15  1  0  0  0  0
 13 16  1  0  0  0  0
 16 17  1  0  0  0  0
 16 18  1  0  0  0  0
 16 19  1  0  0  0  0
M  END
> <VConfSearch Rank>
308

> <Conf_Id>
33

> <Delta U+W>
-0.526

> <U+W>
-55.418

> <U>
6.914

> <W>
-62.332

> <W(PB)>
-64.421

> <W(SA)>
2.090

> <Valence>
7.196

> <Coulomb>
-1.020

> <VdW>
0.738

> <VdW6>
-6.010

> <VdW12>
6.748

> <Bond>
0.126

> <Angle>
2.499

> <Pdih>
4.570

> <Idih>
0.001

> <Tether>
0.000

$$$$
VeraChem MOL file


 19 18  0  0  0  0  0  0  0  0999 V2000     
   21.5369   21.6655   22.0521 C   0  0  0  0  0  0  0  0  0  0  0  0
   21.2693   22.2372   21.0139 O   0  5  0  0  0  0  0  0  0  0  0  0
   21.7758   22.2416   23.0948 O   0  0  0  0  0  0  0  0  0  0  0  0
   21.5566   20.1410   22.0506 C   0  0  0  0  0  0  0  0  0  0  0  0
   22.3120   19.8096   22.7733 H   0  0  0  0  0  0  0  0  0  0  0  0
   21.8862   19.8051   21.0600 H   0  0  0  0  0  0  0  0  0  0  0  0
   20.1797   19.5206   22.3936 C   0  0  0  0  0  0  0  0  0  0  0  0
   19.8592   19.8736   23.3835 H   0  0  0  0  0  0  0  0  0  0  0  0
   19.4373   19.8808   21.6692 H   0  0  0  0  0  0  0  0  0  0  0  0
   20.2282   17.9752   22.3815 C   0  0  0  0  0  0  0  0  0  0  0  0
   21.0248   17.6371   23.0583 H   0  0  0  0  0  0  0  0  0  0  0  0
   20.5011   17.6209   21.3780 H   0  0  0  0  0  0  0  0  0  0  0  0
   18.8998   17.3159   22.8189 C   0  0  0  0  0  0  0  0  0  0  0  0
   19.0537   16.2308   22.8969 H   0  0  0  0  0  0  0  0  0  0  0  0
   18.6263   17.6636   23.8247 H   0  0  0  0  0  0  0  0  0  0  0  0
   17.7344   17.5834   21.8421 C   0  0  0  0  0  0  0  0  0  0  0  0
   17.9961   17.2704   20.8230 H   0  0  0  0  0  0  0  0  0  0  0  0
   16.8409   17.0241   22.1485 H   0  0  0  0  0  0  0  0  0  0  0  0
   17.4677   18.6474   21.8182 H   0  0  0  0  0  0  0  0  0  0  0  0
  1  2  1  0  0  0  0
  1  3  2  0  0  0  0
  1  4  1  0  0  0  0
  4  5  1  0  0  0  0
  4  6  1  0  0  0  0
  4  7  1  0  0  0  0
  7  8  1  0  0  0  0
  7  9  1  0  0  0  0
  7 10  1  0  0  0  0
 10 11  1  0  0  0  0
 10 12  1  0  0  0  0
 10 13  1  0  0  0  0
 13 14  1  0  0  0  0
 13 15  1  0  0  0  0
 13 16  1  0  0  0  0
 16 17  1  0  0  0  0
 16 18  1  0  0  0  0
 16 19  1  0  0  0  0
M  END
> <VConfSearch Rank>
309

> <Conf_Id>
42

> <Delta U+W>
-0.344

> <U+W>
-55.236

> <U>
7.244

> <W>
-62.479

> <W(PB)>
-64.610

> <W(SA)>
2.130

> <Valence>
7.174

> <Coulomb>
-0.669

> <VdW>
0.739

> <VdW6>
-5.969

> <VdW12>
6.708

> <Bond>
0.116

> <Angle>
2.481

> <Pdih>
4.576

> <Idih>
0.000

> <Tether>
0.000

$$$$
VeraChem MOL file


 19 18  0  0  0  0  0  0  0  0999 V2000     
   20.2827   19.8380   19.2043 C   0  0  0  0  0  0  0  0  0  0  0  0
   21.3370   19.4543   18.7380 O   0  5  0  0  0  0  0  0  0  0  0  0
   19.7531   20.8871   18.8959 O   0  0  0  0  0  0  0  0  0  0  0  0
   19.5955   18.9637   20.2473 C   0  0  0  0  0  0  0  0  0  0  0  0
   19.8218   17.9157   20.0165 H   0  0  0  0  0  0  0  0  0  0  0  0
   18.5119   19.0928   20.1394 H   0  0  0  0  0  0  0  0  0  0  0  0
   20.0324   19.2974   21.6952 C   0  0  0  0  0  0  0  0  0  0  0  0
   21.1212   19.1794   21.7739 H   0  0  0  0  0  0  0  0  0  0  0  0
   19.8080   20.3518   21.9078 H   0  0  0  0  0  0  0  0  0  0  0  0
   19.3234   18.3941   22.7306 C   0  0  0  0  0  0  0  0  0  0  0  0
   19.5872   17.3434   22.5479 H   0  0  0  0  0  0  0  0  0  0  0  0
   18.2368   18.4717   22.5881 H   0  0  0  0  0  0  0  0  0  0  0  0
   19.6540   18.7629   24.1953 C   0  0  0  0  0  0  0  0  0  0  0  0
   19.3862   19.8118   24.3835 H   0  0  0  0  0  0  0  0  0  0  0  0
   19.0244   18.1575   24.8619 H   0  0  0  0  0  0  0  0  0  0  0  0
   21.1351   18.5307   24.5644 C   0  0  0  0  0  0  0  0  0  0  0  0
   21.7980   19.2000   24.0020 H   0  0  0  0  0  0  0  0  0  0  0  0
   21.2988   18.7220   25.6328 H   0  0  0  0  0  0  0  0  0  0  0  0
   21.4340   17.4949   24.3569 H   0  0  0  0  0  0  0  0  0  0  0  0
  1  2  1  0  0  0  0
  1  3  2  0  0  0  0
  1  4  1  0  0  0  0
  4  5  1  0  0  0  0
  4  6  1  0  0  0  0
  4  7  1  0  0  0  0
  7  8  1  0  0  0  0
  7  9  1  0  0  0  0
  7 10  1  0  0  0  0
 10 11  1  0  0  0  0
 10 12  1  0  0  0  0
 10 13  1  0  0  0  0
 13 14  1  0  0  0  0
 13 15  1  0  0  0  0
 13 16  1  0  0  0  0
 16 17  1  0  0  0  0
 16 18  1  0  0  0  0
 16 19  1  0  0  0  0
M  END
> <VConfSearch Rank>
310

> <Conf_Id>
41

> <Delta U+W>
-0.361

> <U+W>
-55.252

> <U>
7.244

> <W>
-62.496

> <W(PB)>
-64.596

> <W(SA)>
2.099

> <Valence>
7.174

> <Coulomb>
-0.669

> <VdW>
0.739

> <VdW6>
-5.969

> <VdW12>
6.708

> <Bond>
0.116

> <Angle>
2.481

> <Pdih>
4.576

> <Idih>
0.000

> <Tether>
0.000

$$$$
VeraChem MOL file


 19 18  0  0  0  0  0  0  0  0999 V2000     
   20.1923   20.8324   20.1863 C   0  0  0  0  0  0  0  0  0  0  0  0
   19.5853   20.2520   19.3082 O   0  5  0  0  0  0  0  0  0  0  0  0
   20.0037   21.9973   20.4764 O   0  0  0  0  0  0  0  0  0  0  0  0
   21.2659   20.0649   20.9531 C   0  0  0  0  0  0  0  0  0  0  0  0
   22.1537   20.7062   21.0046 H   0  0  0  0  0  0  0  0  0  0  0  0
   21.5474   19.1795   20.3702 H   0  0  0  0  0  0  0  0  0  0  0  0
   20.8433   19.6500   22.3864 C   0  0  0  0  0  0  0  0  0  0  0  0
   21.7149   19.2317   22.9077 H   0  0  0  0  0  0  0  0  0  0  0  0
   20.5371   20.5433   22.9485 H   0  0  0  0  0  0  0  0  0  0  0  0
   19.6998   18.6110   22.3914 C   0  0  0  0  0  0  0  0  0  0  0  0
   20.0057   17.7255   21.8175 H   0  0  0  0  0  0  0  0  0  0  0  0
   18.8178   19.0285   21.8863 H   0  0  0  0  0  0  0  0  0  0  0  0
   19.3174   18.1894   23.8256 C   0  0  0  0  0  0  0  0  0  0  0  0
   20.1949   17.7670   24.3345 H   0  0  0  0  0  0  0  0  0  0  0  0
   19.0086   19.0730   24.4012 H   0  0  0  0  0  0  0  0  0  0  0  0
   18.1763   17.1526   23.8272 C   0  0  0  0  0  0  0  0  0  0  0  0
   18.4698   16.2447   23.2842 H   0  0  0  0  0  0  0  0  0  0  0  0
   17.9168   16.8645   24.8542 H   0  0  0  0  0  0  0  0  0  0  0  0
   17.2747   17.5603   23.3514 H   0  0  0  0  0  0  0  0  0  0  0  0
  1  2  1  0  0  0  0
  1  3  2  0  0  0  0
  1  4  1  0  0  0  0
  4  5  1  0  0  0  0
  4  6  1  0  0  0  0
  4  7  1  0  0  0  0
  7  8  1  0  0  0  0
  7  9  1  0  0  0  0
  7 10  1  0  0  0  0
 10 11  1  0  0  0  0
 10 12  1  0  0  0  0
 10 13  1  0  0  0  0
 13 14  1  0  0  0  0
 13 15  1  0  0  0  0
 13 16  1  0  0  0  0
 16 17  1  0  0  0  0
 16 18  1  0  0  0  0
 16 19  1  0  0  0  0
M  END
> <VConfSearch Rank>
311

> <Conf_Id>
36

> <Delta U+W>
-0.079

> <U+W>
-54.971

> <U>
8.266

> <W>
-63.237

> <W(PB)>
-65.340

> <W(SA)>
2.103

> <Valence>
6.935

> <Coulomb>
0.874

> <VdW>
0.457

> <VdW6>
-6.205

> <VdW12>
6.662

> <Bond>
0.107

> <Angle>
2.420

> <Pdih>
4.407

> <Idih>
0.001

> <Tether>
0.000

$$$$
VeraChem MOL file


 19 18  0  0  0  0  0  0  0  0999 V2000     
   19.8681   16.1450   22.8337 C   0  0  0  0  0  0  0  0  0  0  0  0
   19.0059   16.1650   23.6897 O   0  5  0  0  0  0  0  0  0  0  0  0
   20.9178   15.5442   22.9514 O   0  0  0  0  0  0  0  0  0  0  0  0
   19.6118   16.8968   21.5305 C   0  0  0  0  0  0  0  0  0  0  0  0
   18.5350   17.0845   21.4401 H   0  0  0  0  0  0  0  0  0  0  0  0
   19.8874   16.2281   20.7065 H   0  0  0  0  0  0  0  0  0  0  0  0
   20.3994   18.2267   21.4032 C   0  0  0  0  0  0  0  0  0  0  0  0
   21.4732   18.0267   21.5242 H   0  0  0  0  0  0  0  0  0  0  0  0
   20.2643   18.6251   20.3886 H   0  0  0  0  0  0  0  0  0  0  0  0
   19.9454   19.2869   22.4313 C   0  0  0  0  0  0  0  0  0  0  0  0
   20.0934   18.9023   23.4499 H   0  0  0  0  0  0  0  0  0  0  0  0
   18.8690   19.4738   22.3151 H   0  0  0  0  0  0  0  0  0  0  0  0
   20.7197   20.6112   22.2660 C   0  0  0  0  0  0  0  0  0  0  0  0
   21.7966   20.4276   22.3843 H   0  0  0  0  0  0  0  0  0  0  0  0
   20.5719   21.0030   21.2501 H   0  0  0  0  0  0  0  0  0  0  0  0
   20.2644   21.6670   23.2932 C   0  0  0  0  0  0  0  0  0  0  0  0
   20.4301   21.3134   24.3193 H   0  0  0  0  0  0  0  0  0  0  0  0
   20.8251   22.6016   23.1619 H   0  0  0  0  0  0  0  0  0  0  0  0
   19.1963   21.8931   23.1768 H   0  0  0  0  0  0  0  0  0  0  0  0
  1  2  1  0  0  0  0
  1  3  2  0  0  0  0
  1  4  1  0  0  0  0
  4  5  1  0  0  0  0
  4  6  1  0  0  0  0
  4  7  1  0  0  0  0
  7  8  1  0  0  0  0
  7  9  1  0  0  0  0
  7 10  1  0  0  0  0
 10 11  1  0  0  0  0
 10 12  1  0  0  0  0
 10 13  1  0  0  0  0
 13 14  1  0  0  0  0
 13 15  1  0  0  0  0
 13 16  1  0  0  0  0
 16 17  1  0  0  0  0
 16 18  1  0  0  0  0
 16 19  1  0  0  0  0
M  END
> <VConfSearch Rank>
312

> <Conf_Id>
35

> <Delta U+W>
-0.030

> <U+W>
-54.921

> <U>
8.267

> <W>
-63.188

> <W(PB)>
-65.294

> <W(SA)>
2.106

> <Valence>
6.935

> <Coulomb>
0.875

> <VdW>
0.457

> <VdW6>
-6.205

> <VdW12>
6.662

> <Bond>
0.107

> <Angle>
2.420

> <Pdih>
4.407

> <Idih>
0.001

> <Tether>
0.000

$$$$
VeraChem MOL file


 19 18  0  0  0  0  0  0  0  0999 V2000     
   22.6171   18.7702   20.8448 C   0  0  0  0  0  0  0  0  0  0  0  0
   22.9107   17.6503   20.4757 O   0  5  0  0  0  0  0  0  0  0  0  0
   23.3919   19.5151   21.4118 O   0  0  0  0  0  0  0  0  0  0  0  0
   21.2049   19.2745   20.5604 C   0  0  0  0  0  0  0  0  0  0  0  0
   20.9720   19.0248   19.5186 H   0  0  0  0  0  0  0  0  0  0  0  0
   21.2021   20.3690   20.6325 H   0  0  0  0  0  0  0  0  0  0  0  0
   20.1189   18.6744   21.4911 C   0  0  0  0  0  0  0  0  0  0  0  0
   19.1329   18.9734   21.1135 H   0  0  0  0  0  0  0  0  0  0  0  0
   20.1601   17.5777   21.4384 H   0  0  0  0  0  0  0  0  0  0  0  0
   20.2750   19.1353   22.9601 C   0  0  0  0  0  0  0  0  0  0  0  0
   20.1951   20.2295   23.0155 H   0  0  0  0  0  0  0  0  0  0  0  0
   21.2836   18.8803   23.3133 H   0  0  0  0  0  0  0  0  0  0  0  0
   19.2460   18.4918   23.9183 C   0  0  0  0  0  0  0  0  0  0  0  0
   19.3250   17.3971   23.8667 H   0  0  0  0  0  0  0  0  0  0  0  0
   19.5015   18.7729   24.9493 H   0  0  0  0  0  0  0  0  0  0  0  0
   17.7909   18.9222   23.6327 C   0  0  0  0  0  0  0  0  0  0  0  0
   17.4498   18.5592   22.6552 H   0  0  0  0  0  0  0  0  0  0  0  0
   17.1137   18.5128   24.3933 H   0  0  0  0  0  0  0  0  0  0  0  0
   17.6944   20.0156   23.6478 H   0  0  0  0  0  0  0  0  0  0  0  0
  1  2  1  0  0  0  0
  1  3  2  0  0  0  0
  1  4  1  0  0  0  0
  4  5  1  0  0  0  0
  4  6  1  0  0  0  0
  4  7  1  0  0  0  0
  7  8  1  0  0  0  0
  7  9  1  0  0  0  0
  7 10  1  0  0  0  0
 10 11  1  0  0  0  0
 10 12  1  0  0  0  0
 10 13  1  0  0  0  0
 13 14  1  0  0  0  0
 13 15  1  0  0  0  0
 13 16  1  0  0  0  0
 16 17  1  0  0  0  0
 16 18  1  0  0  0  0
 16 19  1  0  0  0  0
M  END
> <VConfSearch Rank>
313

> <Conf_Id>
74

> <Delta U+W>
0.797

> <U+W>
-54.095

> <U>
8.869

> <W>
-62.964

> <W(PB)>
-65.046

> <W(SA)>
2.082

> <Valence>
7.469

> <Coulomb>
0.762

> <VdW>
0.639

> <VdW6>
-6.782

> <VdW12>
7.421

> <Bond>
0.141

> <Angle>
2.667

> <Pdih>
4.660

> <Idih>
0.001

> <Tether>
0.000

$$$$
VeraChem MOL file


 19 18  0  0  0  0  0  0  0  0999 V2000     
   19.2698   19.9400   24.9579 C   0  0  0  0  0  0  0  0  0  0  0  0
   18.5688   20.8854   25.2598 O   0  5  0  0  0  0  0  0  0  0  0  0
   19.4921   19.0040   25.7002 O   0  0  0  0  0  0  0  0  0  0  0  0
   19.8888   19.9184   23.5648 C   0  0  0  0  0  0  0  0  0  0  0  0
   20.8553   19.4067   23.6369 H   0  0  0  0  0  0  0  0  0  0  0  0
   20.0894   20.9538   23.2646 H   0  0  0  0  0  0  0  0  0  0  0  0
   18.9829   19.2233   22.5157 C   0  0  0  0  0  0  0  0  0  0  0  0
   18.8202   18.1770   22.8066 H   0  0  0  0  0  0  0  0  0  0  0  0
   17.9934   19.7006   22.5330 H   0  0  0  0  0  0  0  0  0  0  0  0
   19.5397   19.2956   21.0716 C   0  0  0  0  0  0  0  0  0  0  0  0
   19.5976   20.3488   20.7650 H   0  0  0  0  0  0  0  0  0  0  0  0
   18.8190   18.8212   20.3917 H   0  0  0  0  0  0  0  0  0  0  0  0
   20.9275   18.6401   20.8659 C   0  0  0  0  0  0  0  0  0  0  0  0
   21.2215   18.7667   19.8149 H   0  0  0  0  0  0  0  0  0  0  0  0
   21.6873   19.1666   21.4586 H   0  0  0  0  0  0  0  0  0  0  0  0
   20.9499   17.1352   21.2096 C   0  0  0  0  0  0  0  0  0  0  0  0
   20.1816   16.5916   20.6445 H   0  0  0  0  0  0  0  0  0  0  0  0
   21.9258   16.6987   20.9607 H   0  0  0  0  0  0  0  0  0  0  0  0
   20.7742   16.9679   22.2798 H   0  0  0  0  0  0  0  0  0  0  0  0
  1  2  1  0  0  0  0
  1  3  2  0  0  0  0
  1  4  1  0  0  0  0
  4  5  1  0  0  0  0
  4  6  1  0  0  0  0
  4  7  1  0  0  0  0
  7  8  1  0  0  0  0
  7  9  1  0  0  0  0
  7 10  1  0  0  0  0
 10 11  1  0  0  0  0
 10 12  1  0  0  0  0
 10 13  1  0  0  0  0
 13 14  1  0  0  0  0
 13 15  1  0  0  0  0
 13 16  1  0  0  0  0
 16 17  1  0  0  0  0
 16 18  1  0  0  0  0
 16 19  1  0  0  0  0
M  END
> <VConfSearch Rank>
314

> <Conf_Id>
67

> <Delta U+W>
0.308

> <U+W>
-54.583

> <U>
8.219

> <W>
-62.802

> <W(PB)>
-64.859

> <W(SA)>
2.057

> <Valence>
7.609

> <Coulomb>
-0.089

> <VdW>
0.699

> <VdW6>
-6.924

> <VdW12>
7.623

> <Bond>
0.163

> <Angle>
2.870

> <Pdih>
4.576

> <Idih>
0.001

> <Tether>
0.000

$$$$
VeraChem MOL file


 19 18  0  0  0  0  0  0  0  0999 V2000     
   17.8740   16.9039   22.0899 C   0  0  0  0  0  0  0  0  0  0  0  0
   17.9530   15.6962   22.1981 O   0  5  0  0  0  0  0  0  0  0  0  0
   16.9810   17.4678   21.4893 O   0  0  0  0  0  0  0  0  0  0  0  0
   18.9660   17.7567   22.7260 C   0  0  0  0  0  0  0  0  0  0  0  0
   19.3197   17.2416   23.6270 H   0  0  0  0  0  0  0  0  0  0  0  0
   18.5084   18.6992   23.0476 H   0  0  0  0  0  0  0  0  0  0  0  0
   20.1521   18.0288   21.7649 C   0  0  0  0  0  0  0  0  0  0  0  0
   20.5292   17.0674   21.3896 H   0  0  0  0  0  0  0  0  0  0  0  0
   19.7929   18.5782   20.8846 H   0  0  0  0  0  0  0  0  0  0  0  0
   21.3249   18.7927   22.4293 C   0  0  0  0  0  0  0  0  0  0  0  0
   22.1347   18.9028   21.6953 H   0  0  0  0  0  0  0  0  0  0  0  0
   21.7345   18.1781   23.2425 H   0  0  0  0  0  0  0  0  0  0  0  0
   20.9673   20.1900   22.9929 C   0  0  0  0  0  0  0  0  0  0  0  0
   20.2330   20.0954   23.8038 H   0  0  0  0  0  0  0  0  0  0  0  0
   21.8678   20.6241   23.4485 H   0  0  0  0  0  0  0  0  0  0  0  0
   20.4352   21.1642   21.9199 C   0  0  0  0  0  0  0  0  0  0  0  0
   19.4719   20.8264   21.5172 H   0  0  0  0  0  0  0  0  0  0  0  0
   20.2844   22.1632   22.3489 H   0  0  0  0  0  0  0  0  0  0  0  0
   21.1442   21.2567   21.0869 H   0  0  0  0  0  0  0  0  0  0  0  0
  1  2  1  0  0  0  0
  1  3  2  0  0  0  0
  1  4  1  0  0  0  0
  4  5  1  0  0  0  0
  4  6  1  0  0  0  0
  4  7  1  0  0  0  0
  7  8  1  0  0  0  0
  7  9  1  0  0  0  0
  7 10  1  0  0  0  0
 10 11  1  0  0  0  0
 10 12  1  0  0  0  0
 10 13  1  0  0  0  0
 13 14  1  0  0  0  0
 13 15  1  0  0  0  0
 13 16  1  0  0  0  0
 16 17  1  0  0  0  0
 16 18  1  0  0  0  0
 16 19  1  0  0  0  0
M  END
> <VConfSearch Rank>
315

> <Conf_Id>
21

> <Delta U+W>
0.319

> <U+W>
-54.572

> <U>
8.220

> <W>
-62.792

> <W(PB)>
-64.830

> <W(SA)>
2.038

> <Valence>
7.609

> <Coulomb>
-0.088

> <VdW>
0.699

> <VdW6>
-6.924

> <VdW12>
7.623

> <Bond>
0.163

> <Angle>
2.870

> <Pdih>
4.576

> <Idih>
0.000

> <Tether>
0.000

$$$$
VeraChem MOL file


 19 18  0  0  0  0  0  0  0  0999 V2000     
   17.1648   19.5118   22.5893 C   0  0  0  0  0  0  0  0  0  0  0  0
   16.5761   20.1916   23.4065 O   0  5  0  0  0  0  0  0  0  0  0  0
   16.7231   19.2520   21.4877 O   0  0  0  0  0  0  0  0  0  0  0  0
   18.5410   18.9707   22.9604 C   0  0  0  0  0  0  0  0  0  0  0  0
   18.6701   18.0078   22.4566 H   0  0  0  0  0  0  0  0  0  0  0  0
   18.5460   18.7700   24.0384 H   0  0  0  0  0  0  0  0  0  0  0  0
   19.6891   19.9491   22.5970 C   0  0  0  0  0  0  0  0  0  0  0  0
   19.6502   20.1976   21.5274 H   0  0  0  0  0  0  0  0  0  0  0  0
   19.5138   20.8905   23.1360 H   0  0  0  0  0  0  0  0  0  0  0  0
   21.0952   19.4171   22.9734 C   0  0  0  0  0  0  0  0  0  0  0  0
   21.0303   18.7537   23.8467 H   0  0  0  0  0  0  0  0  0  0  0  0
   21.7091   20.2707   23.2920 H   0  0  0  0  0  0  0  0  0  0  0  0
   21.8478   18.7076   21.8210 C   0  0  0  0  0  0  0  0  0  0  0  0
   21.9865   19.4078   20.9857 H   0  0  0  0  0  0  0  0  0  0  0  0
   22.8553   18.4455   22.1724 H   0  0  0  0  0  0  0  0  0  0  0  0
   21.1562   17.4283   21.3064 C   0  0  0  0  0  0  0  0  0  0  0  0
   21.8011   16.9064   20.5878 H   0  0  0  0  0  0  0  0  0  0  0  0
   20.9400   16.7376   22.1317 H   0  0  0  0  0  0  0  0  0  0  0  0
   20.2160   17.6662   20.7934 H   0  0  0  0  0  0  0  0  0  0  0  0
  1  2  1  0  0  0  0
  1  3  2  0  0  0  0
  1  4  1  0  0  0  0
  4  5  1  0  0  0  0
  4  6  1  0  0  0  0
  4  7  1  0  0  0  0
  7  8  1  0  0  0  0
  7  9  1  0  0  0  0
  7 10  1  0  0  0  0
 10 11  1  0  0  0  0
 10 12  1  0  0  0  0
 10 13  1  0  0  0  0
 13 14  1  0  0  0  0
 13 15  1  0  0  0  0
 13 16  1  0  0  0  0
 16 17  1  0  0  0  0
 16 18  1  0  0  0  0
 16 19  1  0  0  0  0
M  END
> <VConfSearch Rank>
316

> <Conf_Id>
24

> <Delta U+W>
2.477

> <U+W>
-52.414

> <U>
10.422

> <W>
-62.836

> <W(PB)>
-64.906

> <W(SA)>
2.070

> <Valence>
9.628

> <Coulomb>
0.101

> <VdW>
0.693

> <VdW6>
-6.927

> <VdW12>
7.620

> <Bond>
0.173

> <Angle>
2.989

> <Pdih>
6.465

> <Idih>
0.001

> <Tether>
0.000

$$$$
VeraChem MOL file


 19 18  0  0  0  0  0  0  0  0999 V2000     
   18.1129   20.1361   20.8204 C   0  0  0  0  0  0  0  0  0  0  0  0
   18.1585   19.2800   19.9592 O   0  5  0  0  0  0  0  0  0  0  0  0
   17.1154   20.7843   21.0695 O   0  0  0  0  0  0  0  0  0  0  0  0
   19.3822   20.4360   21.6135 C   0  0  0  0  0  0  0  0  0  0  0  0
   19.5166   21.5240   21.6099 H   0  0  0  0  0  0  0  0  0  0  0  0
   20.2351   20.0132   21.0729 H   0  0  0  0  0  0  0  0  0  0  0  0
   19.3441   19.9283   23.0817 C   0  0  0  0  0  0  0  0  0  0  0  0
   20.1872   20.3519   23.6438 H   0  0  0  0  0  0  0  0  0  0  0  0
   18.4356   20.3259   23.5550 H   0  0  0  0  0  0  0  0  0  0  0  0
   19.3448   18.3836   23.2211 C   0  0  0  0  0  0  0  0  0  0  0  0
   18.8555   17.9186   22.3545 H   0  0  0  0  0  0  0  0  0  0  0  0
   18.7255   18.1197   24.0892 H   0  0  0  0  0  0  0  0  0  0  0  0
   20.7433   17.7555   23.4390 C   0  0  0  0  0  0  0  0  0  0  0  0
   21.1903   18.1593   24.3579 H   0  0  0  0  0  0  0  0  0  0  0  0
   20.6180   16.6769   23.6066 H   0  0  0  0  0  0  0  0  0  0  0  0
   21.7183   17.9617   22.2615 C   0  0  0  0  0  0  0  0  0  0  0  0
   22.0050   19.0162   22.1656 H   0  0  0  0  0  0  0  0  0  0  0  0
   22.6372   17.3822   22.4178 H   0  0  0  0  0  0  0  0  0  0  0  0
   21.2674   17.6345   21.3154 H   0  0  0  0  0  0  0  0  0  0  0  0
  1  2  1  0  0  0  0
  1  3  2  0  0  0  0
  1  4  1  0  0  0  0
  4  5  1  0  0  0  0
  4  6  1  0  0  0  0
  4  7  1  0  0  0  0
  7  8  1  0  0  0  0
  7  9  1  0  0  0  0
  7 10  1  0  0  0  0
 10 11  1  0  0  0  0
 10 12  1  0  0  0  0
 10 13  1  0  0  0  0
 13 14  1  0  0  0  0
 13 15  1  0  0  0  0
 13 16  1  0  0  0  0
 16 17  1  0  0  0  0
 16 18  1  0  0  0  0
 16 19  1  0  0  0  0
M  END
> <VConfSearch Rank>
317

> <Conf_Id>
4

> <Delta U+W>
3.753

> <U+W>
-51.138

> <U>
12.334

> <W>
-63.472

> <W(PB)>
-65.500

> <W(SA)>
2.028

> <Valence>
9.984

> <Coulomb>
1.767

> <VdW>
0.583

> <VdW6>
-7.767

> <VdW12>
8.349

> <Bond>
0.203

> <Angle>
3.191

> <Pdih>
6.589

> <Idih>
0.001

> <Tether>
0.000

$$$$
VeraChem MOL file


 19 18  0  0  0  0  0  0  0  0999 V2000     
   18.6989   19.5939   20.2193 C   0  0  0  0  0  0  0  0  0  0  0  0
   17.5242   19.5376   19.9126 O   0  5  0  0  0  0  0  0  0  0  0  0
   19.4137   20.5430   19.9645 O   0  0  0  0  0  0  0  0  0  0  0  0
   19.3131   18.3948   20.9369 C   0  0  0  0  0  0  0  0  0  0  0  0
   20.4026   18.4657   20.8573 H   0  0  0  0  0  0  0  0  0  0  0  0
   19.0156   17.4979   20.3811 H   0  0  0  0  0  0  0  0  0  0  0  0
   18.8695   18.2508   22.4192 C   0  0  0  0  0  0  0  0  0  0  0  0
   17.7709   18.2537   22.4467 H   0  0  0  0  0  0  0  0  0  0  0  0
   19.1783   17.2706   22.8065 H   0  0  0  0  0  0  0  0  0  0  0  0
   19.3953   19.3723   23.3526 C   0  0  0  0  0  0  0  0  0  0  0  0
   18.6241   19.5763   24.1079 H   0  0  0  0  0  0  0  0  0  0  0  0
   19.5207   20.3103   22.7948 H   0  0  0  0  0  0  0  0  0  0  0  0
   20.7034   19.0256   24.1053 C   0  0  0  0  0  0  0  0  0  0  0  0
   20.9372   19.8491   24.7940 H   0  0  0  0  0  0  0  0  0  0  0  0
   20.5445   18.1370   24.7317 H   0  0  0  0  0  0  0  0  0  0  0  0
   21.9188   18.7927   23.1843 C   0  0  0  0  0  0  0  0  0  0  0  0
   22.0566   19.6353   22.4940 H   0  0  0  0  0  0  0  0  0  0  0  0
   22.8358   18.6868   23.7781 H   0  0  0  0  0  0  0  0  0  0  0  0
   21.7987   17.8748   22.5956 H   0  0  0  0  0  0  0  0  0  0  0  0
  1  2  1  0  0  0  0
  1  3  2  0  0  0  0
  1  4  1  0  0  0  0
  4  5  1  0  0  0  0
  4  6  1  0  0  0  0
  4  7  1  0  0  0  0
  7  8  1  0  0  0  0
  7  9  1  0  0  0  0
  7 10  1  0  0  0  0
 10 11  1  0  0  0  0
 10 12  1  0  0  0  0
 10 13  1  0  0  0  0
 13 14  1  0  0  0  0
 13 15  1  0  0  0  0
 13 16  1  0  0  0  0
 16 17  1  0  0  0  0
 16 18  1  0  0  0  0
 16 19  1  0  0  0  0
M  END
> <VConfSearch Rank>
318

> <Conf_Id>
73

> <Delta U+W>
3.707

> <U+W>
-51.184

> <U>
12.334

> <W>
-63.519

> <W(PB)>
-65.541

> <W(SA)>
2.022

> <Valence>
9.984

> <Coulomb>
1.768

> <VdW>
0.583

> <VdW6>
-7.767

> <VdW12>
8.350

> <Bond>
0.203

> <Angle>
3.192

> <Pdih>
6.589

> <Idih>
0.001

> <Tether>
0.000

$$$$
VeraChem MOL file


 19 18  0  0  0  0  0  0  0  0999 V2000     
   20.7072   16.6449   21.8383 C   0  0  0  0  0  0  0  0  0  0  0  0
   21.2988   16.4576   22.8831 O   0  5  0  0  0  0  0  0  0  0  0  0
   20.1466   15.7634   21.2172 O   0  0  0  0  0  0  0  0  0  0  0  0
   20.6933   18.0556   21.2559 C   0  0  0  0  0  0  0  0  0  0  0  0
   21.0070   17.9794   20.2083 H   0  0  0  0  0  0  0  0  0  0  0  0
   21.4568   18.6543   21.7657 H   0  0  0  0  0  0  0  0  0  0  0  0
   19.3103   18.7587   21.3280 C   0  0  0  0  0  0  0  0  0  0  0  0
   19.3725   19.7317   20.8237 H   0  0  0  0  0  0  0  0  0  0  0  0
   18.5847   18.1671   20.7529 H   0  0  0  0  0  0  0  0  0  0  0  0
   18.7638   18.9512   22.7662 C   0  0  0  0  0  0  0  0  0  0  0  0
   18.5905   17.9651   23.2185 H   0  0  0  0  0  0  0  0  0  0  0  0
   17.7785   19.4333   22.7072 H   0  0  0  0  0  0  0  0  0  0  0  0
   19.6700   19.7781   23.7107 C   0  0  0  0  0  0  0  0  0  0  0  0
   19.1899   19.8314   24.6974 H   0  0  0  0  0  0  0  0  0  0  0  0
   20.6253   19.2591   23.8669 H   0  0  0  0  0  0  0  0  0  0  0  0
   19.9309   21.2140   23.2069 C   0  0  0  0  0  0  0  0  0  0  0  0
   20.5112   21.2106   22.2757 H   0  0  0  0  0  0  0  0  0  0  0  0
   18.9869   21.7435   23.0236 H   0  0  0  0  0  0  0  0  0  0  0  0
   20.5004   21.7848   23.9517 H   0  0  0  0  0  0  0  0  0  0  0  0
  1  2  1  0  0  0  0
  1  3  2  0  0  0  0
  1  4  1  0  0  0  0
  4  5  1  0  0  0  0
  4  6  1  0  0  0  0
  4  7  1  0  0  0  0
  7  8  1  0  0  0  0
  7  9  1  0  0  0  0
  7 10  1  0  0  0  0
 10 11  1  0  0  0  0
 10 12  1  0  0  0  0
 10 13  1  0  0  0  0
 13 14  1  0  0  0  0
 13 15  1  0  0  0  0
 13 16  1  0  0  0  0
 16 17  1  0  0  0  0
 16 18  1  0  0  0  0
 16 19  1  0  0  0  0
M  END
> <VConfSearch Rank>
319

> <Conf_Id>
56

> <Delta U+W>
1.735

> <U+W>
-53.156

> <U>
10.214

> <W>
-63.370

> <W(PB)>
-65.388

> <W(SA)>
2.018

> <Valence>
7.868

> <Coulomb>
1.968

> <VdW>
0.378

> <VdW6>
-8.067

> <VdW12>
8.445

> <Bond>
0.191

> <Angle>
3.117

> <Pdih>
4.559

> <Idih>
0.001

> <Tether>
0.000

$$$$
VeraChem MOL file


 19 18  0  0  0  0  0  0  0  0999 V2000     
   22.0479   20.8115   21.4358 C   0  0  0  0  0  0  0  0  0  0  0  0
   22.7470   20.6203   20.4605 O   0  5  0  0  0  0  0  0  0  0  0  0
   22.2687   21.6743   22.2623 O   0  0  0  0  0  0  0  0  0  0  0  0
   20.8399   19.9051   21.6448 C   0  0  0  0  0  0  0  0  0  0  0  0
   20.4636   19.6050   20.6596 H   0  0  0  0  0  0  0  0  0  0  0  0
   20.0586   20.5010   22.1296 H   0  0  0  0  0  0  0  0  0  0  0  0
   21.1683   18.6536   22.4973 C   0  0  0  0  0  0  0  0  0  0  0  0
   22.0468   18.1547   22.0652 H   0  0  0  0  0  0  0  0  0  0  0  0
   21.4610   18.9709   23.5076 H   0  0  0  0  0  0  0  0  0  0  0  0
   20.0151   17.6229   22.5897 C   0  0  0  0  0  0  0  0  0  0  0  0
   20.3844   16.7655   23.1689 H   0  0  0  0  0  0  0  0  0  0  0  0
   19.7798   17.2294   21.5913 H   0  0  0  0  0  0  0  0  0  0  0  0
   18.7299   18.1497   23.2752 C   0  0  0  0  0  0  0  0  0  0  0  0
   18.2808   17.3309   23.8542 H   0  0  0  0  0  0  0  0  0  0  0  0
   18.9797   18.9357   24.0012 H   0  0  0  0  0  0  0  0  0  0  0  0
   17.6705   18.6617   22.2740 C   0  0  0  0  0  0  0  0  0  0  0  0
   16.7748   19.0066   22.8066 H   0  0  0  0  0  0  0  0  0  0  0  0
   18.0453   19.4984   21.6740 H   0  0  0  0  0  0  0  0  0  0  0  0
   17.3648   17.8622   21.5867 H   0  0  0  0  0  0  0  0  0  0  0  0
  1  2  1  0  0  0  0
  1  3  2  0  0  0  0
  1  4  1  0  0  0  0
  4  5  1  0  0  0  0
  4  6  1  0  0  0  0
  4  7  1  0  0  0  0
  7  8  1  0  0  0  0
  7  9  1  0  0  0  0
  7 10  1  0  0  0  0
 10 11  1  0  0  0  0
 10 12  1  0  0  0  0
 10 13  1  0  0  0  0
 13 14  1  0  0  0  0
 13 15  1  0  0  0  0
 13 16  1  0  0  0  0
 16 17  1  0  0  0  0
 16 18  1  0  0  0  0
 16 19  1  0  0  0  0
M  END
> <VConfSearch Rank>
320

> <Conf_Id>
53

> <Delta U+W>
2.279

> <U+W>
-52.612

> <U>
10.231

> <W>
-62.843

> <W(PB)>
-64.893

> <W(SA)>
2.050

> <Valence>
9.644

> <Coulomb>
-0.164

> <VdW>
0.751

> <VdW6>
-6.881

> <VdW12>
7.631

> <Bond>
0.163

> <Angle>
2.998

> <Pdih>
6.482

> <Idih>
0.001

> <Tether>
0.000

$$$$
VeraChem MOL file


 19 18  0  0  0  0  0  0  0  0999 V2000     
   21.3394   21.0105   22.2834 C   0  0  0  0  0  0  0  0  0  0  0  0
   20.6643   21.6275   21.4831 O   0  5  0  0  0  0  0  0  0  0  0  0
   22.5216   20.7781   22.1237 O   0  0  0  0  0  0  0  0  0  0  0  0
   20.6823   20.5659   23.5888 C   0  0  0  0  0  0  0  0  0  0  0  0
   19.6379   20.9009   23.5947 H   0  0  0  0  0  0  0  0  0  0  0  0
   21.1911   21.1121   24.3916 H   0  0  0  0  0  0  0  0  0  0  0  0
   20.7603   19.0419   23.8862 C   0  0  0  0  0  0  0  0  0  0  0  0
   21.7730   18.6706   23.6763 H   0  0  0  0  0  0  0  0  0  0  0  0
   20.6036   18.8987   24.9639 H   0  0  0  0  0  0  0  0  0  0  0  0
   19.7129   18.1798   23.1390 C   0  0  0  0  0  0  0  0  0  0  0  0
   18.7029   18.5518   23.3589 H   0  0  0  0  0  0  0  0  0  0  0  0
   19.7601   17.1588   23.5419 H   0  0  0  0  0  0  0  0  0  0  0  0
   19.9223   18.1190   21.6099 C   0  0  0  0  0  0  0  0  0  0  0  0
   19.7487   19.1077   21.1664 H   0  0  0  0  0  0  0  0  0  0  0  0
   20.9627   17.8447   21.3871 H   0  0  0  0  0  0  0  0  0  0  0  0
   18.9695   17.1028   20.9486 C   0  0  0  0  0  0  0  0  0  0  0  0
   17.9210   17.3695   21.1352 H   0  0  0  0  0  0  0  0  0  0  0  0
   19.1249   17.0781   19.8622 H   0  0  0  0  0  0  0  0  0  0  0  0
   19.1411   16.0909   21.3385 H   0  0  0  0  0  0  0  0  0  0  0  0
  1  2  1  0  0  0  0
  1  3  2  0  0  0  0
  1  4  1  0  0  0  0
  4  5  1  0  0  0  0
  4  6  1  0  0  0  0
  4  7  1  0  0  0  0
  7  8  1  0  0  0  0
  7  9  1  0  0  0  0
  7 10  1  0  0  0  0
 10 11  1  0  0  0  0
 10 12  1  0  0  0  0
 10 13  1  0  0  0  0
 13 14  1  0  0  0  0
 13 15  1  0  0  0  0
 13 16  1  0  0  0  0
 16 17  1  0  0  0  0
 16 18  1  0  0  0  0
 16 19  1  0  0  0  0
M  END
> <VConfSearch Rank>
321

> <Conf_Id>
25

> <Delta U+W>
2.065

> <U+W>
-52.826

> <U>
10.967

> <W>
-63.794

> <W(PB)>
-65.830

> <W(SA)>
2.036

> <Valence>
8.609

> <Coulomb>
1.892

> <VdW>
0.467

> <VdW6>
-7.569

> <VdW12>
8.036

> <Bond>
0.170

> <Angle>
3.195

> <Pdih>
5.237

> <Idih>
0.007

> <Tether>
0.000

$$$$
VeraChem MOL file


 19 18  0  0  0  0  0  0  0  0999 V2000     
   20.6401   16.6499   23.3681 C   0  0  0  0  0  0  0  0  0  0  0  0
   21.3968   16.1010   22.5913 O   0  5  0  0  0  0  0  0  0  0  0  0
   19.5528   16.2011   23.6735 O   0  0  0  0  0  0  0  0  0  0  0  0
   21.1068   17.9344   24.0505 C   0  0  0  0  0  0  0  0  0  0  0  0
   21.9838   17.6639   24.6500 H   0  0  0  0  0  0  0  0  0  0  0  0
   20.3346   18.2646   24.7558 H   0  0  0  0  0  0  0  0  0  0  0  0
   21.4901   19.0952   23.0899 C   0  0  0  0  0  0  0  0  0  0  0  0
   22.1344   19.7929   23.6418 H   0  0  0  0  0  0  0  0  0  0  0  0
   22.1014   18.7101   22.2619 H   0  0  0  0  0  0  0  0  0  0  0  0
   20.2902   19.9014   22.5339 C   0  0  0  0  0  0  0  0  0  0  0  0
   20.6842   20.7789   22.0031 H   0  0  0  0  0  0  0  0  0  0  0  0
   19.6877   20.2894   23.3665 H   0  0  0  0  0  0  0  0  0  0  0  0
   19.3876   19.1023   21.5683 C   0  0  0  0  0  0  0  0  0  0  0  0
   20.0021   18.6286   20.7902 H   0  0  0  0  0  0  0  0  0  0  0  0
   18.8773   18.2958   22.1101 H   0  0  0  0  0  0  0  0  0  0  0  0
   18.3273   20.0059   20.9071 C   0  0  0  0  0  0  0  0  0  0  0  0
   17.6894   19.4217   20.2312 H   0  0  0  0  0  0  0  0  0  0  0  0
   17.6825   20.4720   21.6636 H   0  0  0  0  0  0  0  0  0  0  0  0
   18.8008   20.8040   20.3205 H   0  0  0  0  0  0  0  0  0  0  0  0
  1  2  1  0  0  0  0
  1  3  2  0  0  0  0
  1  4  1  0  0  0  0
  4  5  1  0  0  0  0
  4  6  1  0  0  0  0
  4  7  1  0  0  0  0
  7  8  1  0  0  0  0
  7  9  1  0  0  0  0
  7 10  1  0  0  0  0
 10 11  1  0  0  0  0
 10 12  1  0  0  0  0
 10 13  1  0  0  0  0
 13 14  1  0  0  0  0
 13 15  1  0  0  0  0
 13 16  1  0  0  0  0
 16 17  1  0  0  0  0
 16 18  1  0  0  0  0
 16 19  1  0  0  0  0
M  END
> <VConfSearch Rank>
322

> <Conf_Id>
52

> <Delta U+W>
2.070

> <U+W>
-52.822

> <U>
10.967

> <W>
-63.789

> <W(PB)>
-65.837

> <W(SA)>
2.048

> <Valence>
8.609

> <Coulomb>
1.892

> <VdW>
0.467

> <VdW6>
-7.569

> <VdW12>
8.035

> <Bond>
0.170

> <Angle>
3.196

> <Pdih>
5.237

> <Idih>
0.007

> <Tether>
0.000

$$$$
VeraChem MOL file


 19 18  0  0  0  0  0  0  0  0999 V2000     
   21.3891   17.9235   23.7442 C   0  0  0  0  0  0  0  0  0  0  0  0
   20.8767   17.0348   24.3967 O   0  5  0  0  0  0  0  0  0  0  0  0
   22.3548   17.7501   23.0272 O   0  0  0  0  0  0  0  0  0  0  0  0
   20.8803   19.3544   23.9254 C   0  0  0  0  0  0  0  0  0  0  0  0
   21.3386   19.9960   23.1632 H   0  0  0  0  0  0  0  0  0  0  0  0
   21.2681   19.6933   24.8929 H   0  0  0  0  0  0  0  0  0  0  0  0
   19.3346   19.5286   23.9153 C   0  0  0  0  0  0  0  0  0  0  0  0
   18.8610   18.7111   24.4763 H   0  0  0  0  0  0  0  0  0  0  0  0
   19.0952   20.4465   24.4690 H   0  0  0  0  0  0  0  0  0  0  0  0
   18.6881   19.6495   22.5116 C   0  0  0  0  0  0  0  0  0  0  0  0
   19.0895   20.5281   21.9880 H   0  0  0  0  0  0  0  0  0  0  0  0
   17.6190   19.8555   22.6580 H   0  0  0  0  0  0  0  0  0  0  0  0
   18.8149   18.3891   21.6221 C   0  0  0  0  0  0  0  0  0  0  0  0
   18.9831   17.4971   22.2414 H   0  0  0  0  0  0  0  0  0  0  0  0
   17.8605   18.2235   21.1035 H   0  0  0  0  0  0  0  0  0  0  0  0
   19.9239   18.5193   20.5561 C   0  0  0  0  0  0  0  0  0  0  0  0
   19.7116   19.3492   19.8698 H   0  0  0  0  0  0  0  0  0  0  0  0
   20.9028   18.7013   21.0148 H   0  0  0  0  0  0  0  0  0  0  0  0
   19.9967   17.5995   19.9617 H   0  0  0  0  0  0  0  0  0  0  0  0
  1  2  1  0  0  0  0
  1  3  2  0  0  0  0
  1  4  1  0  0  0  0
  4  5  1  0  0  0  0
  4  6  1  0  0  0  0
  4  7  1  0  0  0  0
  7  8  1  0  0  0  0
  7  9  1  0  0  0  0
  7 10  1  0  0  0  0
 10 11  1  0  0  0  0
 10 12  1  0  0  0  0
 10 13  1  0  0  0  0
 13 14  1  0  0  0  0
 13 15  1  0  0  0  0
 13 16  1  0  0  0  0
 16 17  1  0  0  0  0
 16 18  1  0  0  0  0
 16 19  1  0  0  0  0
M  END
> <VConfSearch Rank>
323

> <Conf_Id>
66

> <Delta U+W>
5.819

> <U+W>
-49.072

> <U>
15.324

> <W>
-64.396

> <W(PB)>
-66.382

> <W(SA)>
1.986

> <Valence>
11.748

> <Coulomb>
3.201

> <VdW>
0.375

> <VdW6>
-8.854

> <VdW12>
9.229

> <Bond>
0.216

> <Angle>
3.812

> <Pdih>
7.699

> <Idih>
0.022

> <Tether>
0.000

$$$$
VeraChem MOL file


 19 18  0  0  0  0  0  0  0  0999 V2000     
   22.1538   21.2095   23.4173 C   0  0  0  0  0  0  0  0  0  0  0  0
   23.1590   21.8283   23.1306 O   0  5  0  0  0  0  0  0  0  0  0  0
   21.5888   21.3211   24.4880 O   0  0  0  0  0  0  0  0  0  0  0  0
   21.5975   20.2531   22.3611 C   0  0  0  0  0  0  0  0  0  0  0  0
   22.3926   19.5394   22.1149 H   0  0  0  0  0  0  0  0  0  0  0  0
   21.4034   20.8416   21.4567 H   0  0  0  0  0  0  0  0  0  0  0  0
   20.3131   19.4854   22.7725 C   0  0  0  0  0  0  0  0  0  0  0  0
   20.5126   18.9025   23.6824 H   0  0  0  0  0  0  0  0  0  0  0  0
   19.5224   20.2061   23.0235 H   0  0  0  0  0  0  0  0  0  0  0  0
   19.8220   18.5452   21.6504 C   0  0  0  0  0  0  0  0  0  0  0  0
   20.6140   17.8257   21.4010 H   0  0  0  0  0  0  0  0  0  0  0  0
   19.6232   19.1300   20.7418 H   0  0  0  0  0  0  0  0  0  0  0  0
   18.5450   17.7830   22.0614 C   0  0  0  0  0  0  0  0  0  0  0  0
   18.7403   17.1952   22.9691 H   0  0  0  0  0  0  0  0  0  0  0  0
   17.7496   18.4993   22.3098 H   0  0  0  0  0  0  0  0  0  0  0  0
   18.0576   16.8453   20.9389 C   0  0  0  0  0  0  0  0  0  0  0  0
   18.8227   16.0975   20.6919 H   0  0  0  0  0  0  0  0  0  0  0  0
   17.1494   16.3116   21.2479 H   0  0  0  0  0  0  0  0  0  0  0  0
   17.8246   17.4115   20.0276 H   0  0  0  0  0  0  0  0  0  0  0  0
  1  2  1  0  0  0  0
  1  3  2  0  0  0  0
  1  4  1  0  0  0  0
  4  5  1  0  0  0  0
  4  6  1  0  0  0  0
  4  7  1  0  0  0  0
  7  8  1  0  0  0  0
  7  9  1  0  0  0  0
  7 10  1  0  0  0  0
 10 11  1  0  0  0  0
 10 12  1  0  0  0  0
 10 13  1  0  0  0  0
 13 14  1  0  0  0  0
 13 15  1  0  0  0  0
 13 16  1  0  0  0  0
 16 17  1  0  0  0  0
 16 18  1  0  0  0  0
 16 19  1  0  0  0  0
M  END
> <VConfSearch Rank>
324

> <Conf_Id>
0

> <Delta U+W>
0.000

> <U+W>
-54.891

> <U>
6.966

> <W>
-61.857

> <W(PB)>
-63.965

> <W(SA)>
2.108

> <Valence>
7.175

> <Coulomb>
-1.360

> <VdW>
1.151

> <VdW6>
-5.641

> <VdW12>
6.792

> <Bond>
0.119

> <Angle>
2.715

> <Pdih>
4.340

> <Idih>
0.000

> <Tether>
0.000

$$$$
VeraChem MOL file


 19 18  0  0  0  0  0  0  0  0999 V2000     
   19.6888   22.2967   22.4958 C   0  0  0  0  0  0  0  0  0  0  0  0
   20.7272   22.8555   22.7885 O   0  5  0  0  0  0  0  0  0  0  0  0
   18.8023   22.8199   21.8503 O   0  0  0  0  0  0  0  0  0  0  0  0
   19.4964   20.8528   22.9455 C   0  0  0  0  0  0  0  0  0  0  0  0
   18.4273   20.6930   23.1305 H   0  0  0  0  0  0  0  0  0  0  0  0
   20.0141   20.7222   23.9035 H   0  0  0  0  0  0  0  0  0  0  0  0
   20.0190   19.8253   21.9115 C   0  0  0  0  0  0  0  0  0  0  0  0
   19.5002   19.9773   20.9548 H   0  0  0  0  0  0  0  0  0  0  0  0
   21.0871   20.0067   21.7277 H   0  0  0  0  0  0  0  0  0  0  0  0
   19.8126   18.3721   22.3906 C   0  0  0  0  0  0  0  0  0  0  0  0
   18.7441   18.1943   22.5747 H   0  0  0  0  0  0  0  0  0  0  0  0
   20.3313   18.2237   23.3477 H   0  0  0  0  0  0  0  0  0  0  0  0
   20.3340   17.3507   21.3585 C   0  0  0  0  0  0  0  0  0  0  0  0
   19.8161   17.4948   20.4001 H   0  0  0  0  0  0  0  0  0  0  0  0
   21.4032   17.5240   21.1730 H   0  0  0  0  0  0  0  0  0  0  0  0
   20.1263   15.9009   21.8400 C   0  0  0  0  0  0  0  0  0  0  0  0
   20.5024   15.1881   21.0946 H   0  0  0  0  0  0  0  0  0  0  0  0
   20.6602   15.7195   22.7820 H   0  0  0  0  0  0  0  0  0  0  0  0
   19.0613   15.6901   22.0034 H   0  0  0  0  0  0  0  0  0  0  0  0
  1  2  1  0  0  0  0
  1  3  2  0  0  0  0
  1  4  1  0  0  0  0
  4  5  1  0  0  0  0
  4  6  1  0  0  0  0
  4  7  1  0  0  0  0
  7  8  1  0  0  0  0
  7  9  1  0  0  0  0
  7 10  1  0  0  0  0
 10 11  1  0  0  0  0
 10 12  1  0  0  0  0
 10 13  1  0  0  0  0
 13 14  1  0  0  0  0
 13 15  1  0  0  0  0
 13 16  1  0  0  0  0
 16 17  1  0  0  0  0
 16 18  1  0  0  0  0
 16 19  1  0  0  0  0
M  END
> <VConfSearch Rank>
325

> <Conf_Id>
18

> <Delta U+W>
-1.199

> <U+W>
-56.090

> <U>
5.975

> <W>
-62.066

> <W(PB)>
-64.219

> <W(SA)>
2.153

> <Valence>
6.673

> <Coulomb>
-1.307

> <VdW>
0.610

> <VdW6>
-5.351

> <VdW12>
5.961

> <Bond>
0.086

> <Angle>
2.253

> <Pdih>
4.333

> <Idih>
0.001

> <Tether>
0.000

$$$$
VeraChem MOL file


 19 18  0  0  0  0  0  0  0  0999 V2000     
   21.1223   16.0885   21.1797 C   0  0  0  0  0  0  0  0  0  0  0  0
   20.4198   15.1966   20.7469 O   0  5  0  0  0  0  0  0  0  0  0  0
   22.3213   16.1506   20.9931 O   0  0  0  0  0  0  0  0  0  0  0  0
   20.4594   17.2020   21.9830 C   0  0  0  0  0  0  0  0  0  0  0  0
   21.1791   17.5443   22.7351 H   0  0  0  0  0  0  0  0  0  0  0  0
   19.6060   16.7718   22.5209 H   0  0  0  0  0  0  0  0  0  0  0  0
   19.9912   18.3849   21.0961 C   0  0  0  0  0  0  0  0  0  0  0  0
   20.8601   18.8357   20.5970 H   0  0  0  0  0  0  0  0  0  0  0  0
   19.3444   17.9932   20.2988 H   0  0  0  0  0  0  0  0  0  0  0  0
   19.2138   19.4718   21.8757 C   0  0  0  0  0  0  0  0  0  0  0  0
   18.3411   19.0195   22.3665 H   0  0  0  0  0  0  0  0  0  0  0  0
   18.8212   20.2034   21.1562 H   0  0  0  0  0  0  0  0  0  0  0  0
   20.0757   20.2111   22.9237 C   0  0  0  0  0  0  0  0  0  0  0  0
   20.4165   19.5098   23.6966 H   0  0  0  0  0  0  0  0  0  0  0  0
   20.9747   20.6201   22.4423 H   0  0  0  0  0  0  0  0  0  0  0  0
   19.2899   21.3546   23.5960 C   0  0  0  0  0  0  0  0  0  0  0  0
   19.9139   21.8678   24.3392 H   0  0  0  0  0  0  0  0  0  0  0  0
   18.9654   22.0973   22.8555 H   0  0  0  0  0  0  0  0  0  0  0  0
   18.3989   20.9698   24.1092 H   0  0  0  0  0  0  0  0  0  0  0  0
  1  2  1  0  0  0  0
  1  3  2  0  0  0  0
  1  4  1  0  0  0  0
  4  5  1  0  0  0  0
  4  6  1  0  0  0  0
  4  7  1  0  0  0  0
  7  8  1  0  0  0  0
  7  9  1  0  0  0  0
  7 10  1  0  0  0  0
 10 11  1  0  0  0  0
 10 12  1  0  0  0  0
 10 13  1  0  0  0  0
 13 14  1  0  0  0  0
 13 15  1  0  0  0  0
 13 16  1  0  0  0  0
 16 17  1  0  0  0  0
 16 18  1  0  0  0  0
 16 19  1  0  0  0  0
M  END
> <VConfSearch Rank>
326

> <Conf_Id>
34

> <Delta U+W>
-0.563

> <U+W>
-55.455

> <U>
6.914

> <W>
-62.369

> <W(PB)>
-64.446

> <W(SA)>
2.077

> <Valence>
7.196

> <Coulomb>
-1.020

> <VdW>
0.738

> <VdW6>
-6.010

> <VdW12>
6.748

> <Bond>
0.126

> <Angle>
2.499

> <Pdih>
4.570

> <Idih>
0.001

> <Tether>
0.000

$$$$
VeraChem MOL file


 19 18  0  0  0  0  0  0  0  0999 V2000     
   19.0009   21.6936   20.8837 C   0  0  0  0  0  0  0  0  0  0  0  0
   19.6533   22.7181   20.9163 O   0  5  0  0  0  0  0  0  0  0  0  0
   17.8080   21.6632   20.6550 O   0  0  0  0  0  0  0  0  0  0  0  0
   19.7142   20.3762   21.1669 C   0  0  0  0  0  0  0  0  0  0  0  0
   20.7458   20.4632   20.8054 H   0  0  0  0  0  0  0  0  0  0  0  0
   19.2251   19.5975   20.5709 H   0  0  0  0  0  0  0  0  0  0  0  0
   19.7047   19.9999   22.6714 C   0  0  0  0  0  0  0  0  0  0  0  0
   20.1182   20.8395   23.2472 H   0  0  0  0  0  0  0  0  0  0  0  0
   18.6676   19.8719   23.0111 H   0  0  0  0  0  0  0  0  0  0  0  0
   20.5220   18.7268   22.9950 C   0  0  0  0  0  0  0  0  0  0  0  0
   20.5592   18.6044   24.0862 H   0  0  0  0  0  0  0  0  0  0  0  0
   21.5602   18.8613   22.6619 H   0  0  0  0  0  0  0  0  0  0  0  0
   19.9351   17.4435   22.3656 C   0  0  0  0  0  0  0  0  0  0  0  0
   18.8813   17.3359   22.6576 H   0  0  0  0  0  0  0  0  0  0  0  0
   19.9590   17.5138   21.2703 H   0  0  0  0  0  0  0  0  0  0  0  0
   20.7183   16.1900   22.8045 C   0  0  0  0  0  0  0  0  0  0  0  0
   21.7711   16.2587   22.5005 H   0  0  0  0  0  0  0  0  0  0  0  0
   20.6834   16.0661   23.8948 H   0  0  0  0  0  0  0  0  0  0  0  0
   20.2917   15.2877   22.3473 H   0  0  0  0  0  0  0  0  0  0  0  0
  1  2  1  0  0  0  0
  1  3  2  0  0  0  0
  1  4  1  0  0  0  0
  4  5  1  0  0  0  0
  4  6  1  0  0  0  0
  4  7  1  0  0  0  0
  7  8  1  0  0  0  0
  7  9  1  0  0  0  0
  7 10  1  0  0  0  0
 10 11  1  0  0  0  0
 10 12  1  0  0  0  0
 10 13  1  0  0  0  0
 13 14  1  0  0  0  0
 13 15  1  0  0  0  0
 13 16  1  0  0  0  0
 16 17  1  0  0  0  0
 16 18  1  0  0  0  0
 16 19  1  0  0  0  0
M  END
> <VConfSearch Rank>
327

> <Conf_Id>
33

> <Delta U+W>
-0.526

> <U+W>
-55.418

> <U>
6.914

> <W>
-62.332

> <W(PB)>
-64.421

> <W(SA)>
2.090

> <Valence>
7.196

> <Coulomb>
-1.020

> <VdW>
0.738

> <VdW6>
-6.010

> <VdW12>
6.748

> <Bond>
0.126

> <Angle>
2.499

> <Pdih>
4.570

> <Idih>
0.001

> <Tether>
0.000

$$$$
VeraChem MOL file


 19 18  0  0  0  0  0  0  0  0999 V2000     
   21.9855   20.9247   20.8812 C   0  0  0  0  0  0  0  0  0  0  0  0
   23.0985   20.7122   21.3197 O   0  5  0  0  0  0  0  0  0  0  0  0
   21.7674   21.2596   19.7338 O   0  0  0  0  0  0  0  0  0  0  0  0
   20.7958   20.7441   21.8174 C   0  0  0  0  0  0  0  0  0  0  0  0
   20.0218   21.4648   21.5273 H   0  0  0  0  0  0  0  0  0  0  0  0
   21.1179   21.0053   22.8326 H   0  0  0  0  0  0  0  0  0  0  0  0
   20.2232   19.3053   21.7929 C   0  0  0  0  0  0  0  0  0  0  0  0
   19.9140   19.0554   20.7686 H   0  0  0  0  0  0  0  0  0  0  0  0
   21.0195   18.6012   22.0680 H   0  0  0  0  0  0  0  0  0  0  0  0
   19.0212   19.1502   22.7530 C   0  0  0  0  0  0  0  0  0  0  0  0
   18.2667   19.9099   22.5070 H   0  0  0  0  0  0  0  0  0  0  0  0
   19.3421   19.3525   23.7841 H   0  0  0  0  0  0  0  0  0  0  0  0
   18.3554   17.7565   22.6829 C   0  0  0  0  0  0  0  0  0  0  0  0
   17.4471   17.7683   23.3010 H   0  0  0  0  0  0  0  0  0  0  0  0
   18.0280   17.5528   21.6540 H   0  0  0  0  0  0  0  0  0  0  0  0
   19.2738   16.6155   23.1712 C   0  0  0  0  0  0  0  0  0  0  0  0
   19.6376   16.8118   24.1883 H   0  0  0  0  0  0  0  0  0  0  0  0
   18.7281   15.6632   23.1855 H   0  0  0  0  0  0  0  0  0  0  0  0
   20.1424   16.4904   22.5127 H   0  0  0  0  0  0  0  0  0  0  0  0
  1  2  1  0  0  0  0
  1  3  2  0  0  0  0
  1  4  1  0  0  0  0
  4  5  1  0  0  0  0
  4  6  1  0  0  0  0
  4  7  1  0  0  0  0
  7  8  1  0  0  0  0
  7  9  1  0  0  0  0
  7 10  1  0  0  0  0
 10 11  1  0  0  0  0
 10 12  1  0  0  0  0
 10 13  1  0  0  0  0
 13 14  1  0  0  0  0
 13 15  1  0  0  0  0
 13 16  1  0  0  0  0
 16 17  1  0  0  0  0
 16 18  1  0  0  0  0
 16 19  1  0  0  0  0
M  END
> <VConfSearch Rank>
328

> <Conf_Id>
42

> <Delta U+W>
-0.344

> <U+W>
-55.236

> <U>
7.244

> <W>
-62.479

> <W(PB)>
-64.610

> <W(SA)>
2.130

> <Valence>
7.174

> <Coulomb>
-0.669

> <VdW>
0.739

> <VdW6>
-5.969

> <VdW12>
6.708

> <Bond>
0.116

> <Angle>
2.481

> <Pdih>
4.576

> <Idih>
0.000

> <Tether>
0.000

$$$$
VeraChem MOL file


 19 18  0  0  0  0  0  0  0  0999 V2000     
   18.4259   17.1705   24.2955 C   0  0  0  0  0  0  0  0  0  0  0  0
   17.2351   17.2897   24.0862 O   0  5  0  0  0  0  0  0  0  0  0  0
   18.9028   17.0260   25.4037 O   0  0  0  0  0  0  0  0  0  0  0  0
   19.3757   17.2234   23.1040 C   0  0  0  0  0  0  0  0  0  0  0  0
   18.8574   16.7990   22.2357 H   0  0  0  0  0  0  0  0  0  0  0  0
   20.2310   16.5723   23.3212 H   0  0  0  0  0  0  0  0  0  0  0  0
   19.8630   18.6585   22.7856 C   0  0  0  0  0  0  0  0  0  0  0  0
   18.9900   19.2951   22.5903 H   0  0  0  0  0  0  0  0  0  0  0  0
   20.3713   19.0729   23.6671 H   0  0  0  0  0  0  0  0  0  0  0  0
   20.8208   18.6827   21.5720 C   0  0  0  0  0  0  0  0  0  0  0  0
   20.2971   18.3141   20.6793 H   0  0  0  0  0  0  0  0  0  0  0  0
   21.6497   17.9857   21.7567 H   0  0  0  0  0  0  0  0  0  0  0  0
   21.4113   20.0822   21.2838 C   0  0  0  0  0  0  0  0  0  0  0  0
   21.9408   20.4520   22.1727 H   0  0  0  0  0  0  0  0  0  0  0  0
   22.1649   19.9902   20.4896 H   0  0  0  0  0  0  0  0  0  0  0  0
   20.3503   21.1143   20.8446 C   0  0  0  0  0  0  0  0  0  0  0  0
   19.6381   21.3255   21.6520 H   0  0  0  0  0  0  0  0  0  0  0  0
   20.8290   22.0626   20.5677 H   0  0  0  0  0  0  0  0  0  0  0  0
   19.7875   20.7531   19.9740 H   0  0  0  0  0  0  0  0  0  0  0  0
  1  2  1  0  0  0  0
  1  3  2  0  0  0  0
  1  4  1  0  0  0  0
  4  5  1  0  0  0  0
  4  6  1  0  0  0  0
  4  7  1  0  0  0  0
  7  8  1  0  0  0  0
  7  9  1  0  0  0  0
  7 10  1  0  0  0  0
 10 11  1  0  0  0  0
 10 12  1  0  0  0  0
 10 13  1  0  0  0  0
 13 14  1  0  0  0  0
 13 15  1  0  0  0  0
 13 16  1  0  0  0  0
 16 17  1  0  0  0  0
 16 18  1  0  0  0  0
 16 19  1  0  0  0  0
M  END
> <VConfSearch Rank>
329

> <Conf_Id>
41

> <Delta U+W>
-0.361

> <U+W>
-55.252

> <U>
7.244

> <W>
-62.496

> <W(PB)>
-64.596

> <W(SA)>
2.099

> <Valence>
7.174

> <Coulomb>
-0.669

> <VdW>
0.739

> <VdW6>
-5.969

> <VdW12>
6.708

> <Bond>
0.116

> <Angle>
2.481

> <Pdih>
4.576

> <Idih>
0.000

> <Tether>
0.000

$$$$
VeraChem MOL file


 19 18  0  0  0  0  0  0  0  0999 V2000     
   17.3937   18.7575   20.8496 C   0  0  0  0  0  0  0  0  0  0  0  0
   16.6466   18.3677   21.7251 O   0  5  0  0  0  0  0  0  0  0  0  0
   17.1480   19.7048   20.1293 O   0  0  0  0  0  0  0  0  0  0  0  0
   18.7022   18.0043   20.6262 C   0  0  0  0  0  0  0  0  0  0  0  0
   18.8048   17.8381   19.5473 H   0  0  0  0  0  0  0  0  0  0  0  0
   18.6214   17.0153   21.0934 H   0  0  0  0  0  0  0  0  0  0  0  0
   19.9564   18.7461   21.1572 C   0  0  0  0  0  0  0  0  0  0  0  0
   20.8549   18.2041   20.8326 H   0  0  0  0  0  0  0  0  0  0  0  0
   20.0080   19.7452   20.7023 H   0  0  0  0  0  0  0  0  0  0  0  0
   19.9654   18.8710   22.6972 C   0  0  0  0  0  0  0  0  0  0  0  0
   19.9005   17.8708   23.1470 H   0  0  0  0  0  0  0  0  0  0  0  0
   19.0777   19.4273   23.0288 H   0  0  0  0  0  0  0  0  0  0  0  0
   21.2362   19.5836   23.2050 C   0  0  0  0  0  0  0  0  0  0  0  0
   22.1274   19.0292   22.8799 H   0  0  0  0  0  0  0  0  0  0  0  0
   21.3023   20.5855   22.7584 H   0  0  0  0  0  0  0  0  0  0  0  0
   21.2422   19.7066   24.7419 C   0  0  0  0  0  0  0  0  0  0  0  0
   21.2083   18.7165   25.2152 H   0  0  0  0  0  0  0  0  0  0  0  0
   22.1519   20.2158   25.0857 H   0  0  0  0  0  0  0  0  0  0  0  0
   20.3770   20.2843   25.0929 H   0  0  0  0  0  0  0  0  0  0  0  0
  1  2  1  0  0  0  0
  1  3  2  0  0  0  0
  1  4  1  0  0  0  0
  4  5  1  0  0  0  0
  4  6  1  0  0  0  0
  4  7  1  0  0  0  0
  7  8  1  0  0  0  0
  7  9  1  0  0  0  0
  7 10  1  0  0  0  0
 10 11  1  0  0  0  0
 10 12  1  0  0  0  0
 10 13  1  0  0  0  0
 13 14  1  0  0  0  0
 13 15  1  0  0  0  0
 13 16  1  0  0  0  0
 16 17  1  0  0  0  0
 16 18  1  0  0  0  0
 16 19  1  0  0  0  0
M  END
> <VConfSearch Rank>
330

> <Conf_Id>
36

> <Delta U+W>
-0.079

> <U+W>
-54.971

> <U>
8.266

> <W>
-63.237

> <W(PB)>
-65.340

> <W(SA)>
2.103

> <Valence>
6.935

> <Coulomb>
0.874

> <VdW>
0.457

> <VdW6>
-6.205

> <VdW12>
6.662

> <Bond>
0.107

> <Angle>
2.420

> <Pdih>
4.407

> <Idih>
0.001

> <Tether>
0.000

$$$$
VeraChem MOL file


 19 18  0  0  0  0  0  0  0  0999 V2000     
   22.6568   17.6004   22.1367 C   0  0  0  0  0  0  0  0  0  0  0  0
   22.4226   16.8655   21.1977 O   0  5  0  0  0  0  0  0  0  0  0  0
   23.1158   17.2146   23.1936 O   0  0  0  0  0  0  0  0  0  0  0  0
   22.3804   19.0926   21.9744 C   0  0  0  0  0  0  0  0  0  0  0  0
   22.3049   19.3207   20.9042 H   0  0  0  0  0  0  0  0  0  0  0  0
   23.2572   19.6315   22.3524 H   0  0  0  0  0  0  0  0  0  0  0  0
   21.1109   19.5841   22.7173 C   0  0  0  0  0  0  0  0  0  0  0  0
   21.1885   19.3234   23.7820 H   0  0  0  0  0  0  0  0  0  0  0  0
   21.0680   20.6803   22.6624 H   0  0  0  0  0  0  0  0  0  0  0  0
   19.8109   18.9934   22.1271 C   0  0  0  0  0  0  0  0  0  0  0  0
   19.8387   17.8970   22.1938 H   0  0  0  0  0  0  0  0  0  0  0  0
   19.7445   19.2456   21.0598 H   0  0  0  0  0  0  0  0  0  0  0  0
   18.5597   19.5200   22.8605 C   0  0  0  0  0  0  0  0  0  0  0  0
   18.6225   19.2670   23.9280 H   0  0  0  0  0  0  0  0  0  0  0  0
   18.5243   20.6162   22.7934 H   0  0  0  0  0  0  0  0  0  0  0  0
   17.2644   18.9288   22.2693 C   0  0  0  0  0  0  0  0  0  0  0  0
   17.2592   17.8340   22.3518 H   0  0  0  0  0  0  0  0  0  0  0  0
   16.3851   19.3132   22.8025 H   0  0  0  0  0  0  0  0  0  0  0  0
   17.1603   19.1933   21.2088 H   0  0  0  0  0  0  0  0  0  0  0  0
  1  2  1  0  0  0  0
  1  3  2  0  0  0  0
  1  4  1  0  0  0  0
  4  5  1  0  0  0  0
  4  6  1  0  0  0  0
  4  7  1  0  0  0  0
  7  8  1  0  0  0  0
  7  9  1  0  0  0  0
  7 10  1  0  0  0  0
 10 11  1  0  0  0  0
 10 12  1  0  0  0  0
 10 13  1  0  0  0  0
 13 14  1  0  0  0  0
 13 15  1  0  0  0  0
 13 16  1  0  0  0  0
 16 17  1  0  0  0  0
 16 18  1  0  0  0  0
 16 19  1  0  0  0  0
M  END
> <VConfSearch Rank>
331

> <Conf_Id>
35

> <Delta U+W>
-0.030

> <U+W>
-54.921

> <U>
8.267

> <W>
-63.188

> <W(PB)>
-65.294

> <W(SA)>
2.106

> <Valence>
6.935

> <Coulomb>
0.875

> <VdW>
0.457

> <VdW6>
-6.205

> <VdW12>
6.662

> <Bond>
0.107

> <Angle>
2.420

> <Pdih>
4.407

> <Idih>
0.001

> <Tether>
0.000

$$$$
VeraChem MOL file


 19 18  0  0  0  0  0  0  0  0999 V2000     
   22.7871   19.9769   22.5537 C   0  0  0  0  0  0  0  0  0  0  0  0
   23.2079   20.4562   21.5193 O   0  5  0  0  0  0  0  0  0  0  0  0
   23.4245   19.2077   23.2456 O   0  0  0  0  0  0  0  0  0  0  0  0
   21.3906   20.3813   23.0182 C   0  0  0  0  0  0  0  0  0  0  0  0
   21.3142   21.4702   22.9156 H   0  0  0  0  0  0  0  0  0  0  0  0
   21.2978   20.1561   24.0876 H   0  0  0  0  0  0  0  0  0  0  0  0
   20.2400   19.7056   22.2275 C   0  0  0  0  0  0  0  0  0  0  0  0
   19.2921   20.1710   22.5264 H   0  0  0  0  0  0  0  0  0  0  0  0
   20.3684   19.9068   21.1550 H   0  0  0  0  0  0  0  0  0  0  0  0
   20.1692   18.1789   22.4702 C   0  0  0  0  0  0  0  0  0  0  0  0
   20.0023   17.9809   23.5378 H   0  0  0  0  0  0  0  0  0  0  0  0
   21.1393   17.7282   22.2197 H   0  0  0  0  0  0  0  0  0  0  0  0
   19.0745   17.4745   21.6357 C   0  0  0  0  0  0  0  0  0  0  0  0
   19.2400   17.6690   20.5670 H   0  0  0  0  0  0  0  0  0  0  0  0
   19.1722   16.3886   21.7721 H   0  0  0  0  0  0  0  0  0  0  0  0
   17.6413   17.8965   22.0251 C   0  0  0  0  0  0  0  0  0  0  0  0
   17.4579   18.9535   21.7953 H   0  0  0  0  0  0  0  0  0  0  0  0
   16.9028   17.3035   21.4702 H   0  0  0  0  0  0  0  0  0  0  0  0
   17.4633   17.7405   23.0971 H   0  0  0  0  0  0  0  0  0  0  0  0
  1  2  1  0  0  0  0
  1  3  2  0  0  0  0
  1  4  1  0  0  0  0
  4  5  1  0  0  0  0
  4  6  1  0  0  0  0
  4  7  1  0  0  0  0
  7  8  1  0  0  0  0
  7  9  1  0  0  0  0
  7 10  1  0  0  0  0
 10 11  1  0  0  0  0
 10 12  1  0  0  0  0
 10 13  1  0  0  0  0
 13 14  1  0  0  0  0
 13 15  1  0  0  0  0
 13 16  1  0  0  0  0
 16 17  1  0  0  0  0
 16 18  1  0  0  0  0
 16 19  1  0  0  0  0
M  END
> <VConfSearch Rank>
332

> <Conf_Id>
74

> <Delta U+W>
0.797

> <U+W>
-54.095

> <U>
8.869

> <W>
-62.964

> <W(PB)>
-65.046

> <W(SA)>
2.082

> <Valence>
7.469

> <Coulomb>
0.762

> <VdW>
0.639

> <VdW6>
-6.782

> <VdW12>
7.421

> <Bond>
0.141

> <Angle>
2.667

> <Pdih>
4.660

> <Idih>
0.001

> <Tether>
0.000

$$$$
VeraChem MOL file


 19 18  0  0  0  0  0  0  0  0999 V2000     
   21.5916   16.8319   21.0393 C   0  0  0  0  0  0  0  0  0  0  0  0
   21.8772   16.6803   19.8680 O   0  5  0  0  0  0  0  0  0  0  0  0
   22.2407   16.3664   21.9550 O   0  0  0  0  0  0  0  0  0  0  0  0
   20.3623   17.6674   21.3784 C   0  0  0  0  0  0  0  0  0  0  0  0
   19.9253   17.2605   22.2975 H   0  0  0  0  0  0  0  0  0  0  0  0
   19.6253   17.5302   20.5782 H   0  0  0  0  0  0  0  0  0  0  0  0
   20.6889   19.1732   21.5525 C   0  0  0  0  0  0  0  0  0  0  0  0
   21.3981   19.3018   22.3809 H   0  0  0  0  0  0  0  0  0  0  0  0
   21.2075   19.5279   20.6511 H   0  0  0  0  0  0  0  0  0  0  0  0
   19.4363   20.0564   21.7800 C   0  0  0  0  0  0  0  0  0  0  0  0
   18.7897   19.9916   20.8943 H   0  0  0  0  0  0  0  0  0  0  0  0
   19.7527   21.1061   21.8481 H   0  0  0  0  0  0  0  0  0  0  0  0
   18.5993   19.7038   23.0343 C   0  0  0  0  0  0  0  0  0  0  0  0
   17.7366   20.3825   23.0808 H   0  0  0  0  0  0  0  0  0  0  0  0
   18.1840   18.6917   22.9410 H   0  0  0  0  0  0  0  0  0  0  0  0
   19.3943   19.8208   24.3525 C   0  0  0  0  0  0  0  0  0  0  0  0
   19.8385   20.8193   24.4562 H   0  0  0  0  0  0  0  0  0  0  0  0
   18.7360   19.6518   25.2144 H   0  0  0  0  0  0  0  0  0  0  0  0
   20.2006   19.0779   24.3992 H   0  0  0  0  0  0  0  0  0  0  0  0
  1  2  1  0  0  0  0
  1  3  2  0  0  0  0
  1  4  1  0  0  0  0
  4  5  1  0  0  0  0
  4  6  1  0  0  0  0
  4  7  1  0  0  0  0
  7  8  1  0  0  0  0
  7  9  1  0  0  0  0
  7 10  1  0  0  0  0
 10 11  1  0  0  0  0
 10 12  1  0  0  0  0
 10 13  1  0  0  0  0
 13 14  1  0  0  0  0
 13 15  1  0  0  0  0
 13 16  1  0  0  0  0
 16 17  1  0  0  0  0
 16 18  1  0  0  0  0
 16 19  1  0  0  0  0
M  END
> <VConfSearch Rank>
333

> <Conf_Id>
67

> <Delta U+W>
0.308

> <U+W>
-54.583

> <U>
8.219

> <W>
-62.802

> <W(PB)>
-64.859

> <W(SA)>
2.057

> <Valence>
7.609

> <Coulomb>
-0.089

> <VdW>
0.699

> <VdW6>
-6.924

> <VdW12>
7.623

> <Bond>
0.163

> <Angle>
2.870

> <Pdih>
4.576

> <Idih>
0.001

> <Tether>
0.000

$$$$
VeraChem MOL file


 19 18  0  0  0  0  0  0  0  0999 V2000     
   21.2620   19.5276   19.7325 C   0  0  0  0  0  0  0  0  0  0  0  0
   21.6572   18.7650   18.8730 O   0  5  0  0  0  0  0  0  0  0  0  0
   21.6742   20.6629   19.8648 O   0  0  0  0  0  0  0  0  0  0  0  0
   20.2054   19.0254   20.7100 C   0  0  0  0  0  0  0  0  0  0  0  0
   19.5654   18.3085   20.1820 H   0  0  0  0  0  0  0  0  0  0  0  0
   19.5772   19.8788   20.9899 H   0  0  0  0  0  0  0  0  0  0  0  0
   20.8196   18.3659   21.9719 C   0  0  0  0  0  0  0  0  0  0  0  0
   21.5133   17.5754   21.6541 H   0  0  0  0  0  0  0  0  0  0  0  0
   21.4272   19.1033   22.5129 H   0  0  0  0  0  0  0  0  0  0  0  0
   19.7648   17.7436   22.9210 C   0  0  0  0  0  0  0  0  0  0  0  0
   20.2858   17.2626   23.7601 H   0  0  0  0  0  0  0  0  0  0  0  0
   19.2388   16.9388   22.3896 H   0  0  0  0  0  0  0  0  0  0  0  0
   18.7177   18.7353   23.4849 C   0  0  0  0  0  0  0  0  0  0  0  0
   18.1121   19.1519   22.6692 H   0  0  0  0  0  0  0  0  0  0  0  0
   18.0204   18.1798   24.1269 H   0  0  0  0  0  0  0  0  0  0  0  0
   19.3429   19.8825   24.3073 C   0  0  0  0  0  0  0  0  0  0  0  0
   19.9597   20.5351   23.6765 H   0  0  0  0  0  0  0  0  0  0  0  0
   18.5584   20.5025   24.7601 H   0  0  0  0  0  0  0  0  0  0  0  0
   19.9722   19.4886   25.1159 H   0  0  0  0  0  0  0  0  0  0  0  0
  1  2  1  0  0  0  0
  1  3  2  0  0  0  0
  1  4  1  0  0  0  0
  4  5  1  0  0  0  0
  4  6  1  0  0  0  0
  4  7  1  0  0  0  0
  7  8  1  0  0  0  0
  7  9  1  0  0  0  0
  7 10  1  0  0  0  0
 10 11  1  0  0  0  0
 10 12  1  0  0  0  0
 10 13  1  0  0  0  0
 13 14  1  0  0  0  0
 13 15  1  0  0  0  0
 13 16  1  0  0  0  0
 16 17  1  0  0  0  0
 16 18  1  0  0  0  0
 16 19  1  0  0  0  0
M  END
> <VConfSearch Rank>
334

> <Conf_Id>
21

> <Delta U+W>
0.319

> <U+W>
-54.572

> <U>
8.220

> <W>
-62.792

> <W(PB)>
-64.830

> <W(SA)>
2.038

> <Valence>
7.609

> <Coulomb>
-0.088

> <VdW>
0.699

> <VdW6>
-6.924

> <VdW12>
7.623

> <Bond>
0.163

> <Angle>
2.870

> <Pdih>
4.576

> <Idih>
0.000

> <Tether>
0.000

$$$$
VeraChem MOL file


 19 18  0  0  0  0  0  0  0  0999 V2000     
   22.0586   17.0455   21.5736 C   0  0  0  0  0  0  0  0  0  0  0  0
   23.2018   16.9350   21.9702 O   0  5  0  0  0  0  0  0  0  0  0  0
   21.4370   16.1401   21.0538 O   0  0  0  0  0  0  0  0  0  0  0  0
   21.3603   18.3884   21.7550 C   0  0  0  0  0  0  0  0  0  0  0  0
   20.6627   18.5193   20.9219 H   0  0  0  0  0  0  0  0  0  0  0  0
   22.1163   19.1775   21.6651 H   0  0  0  0  0  0  0  0  0  0  0  0
   20.6294   18.5061   23.1187 C   0  0  0  0  0  0  0  0  0  0  0  0
   19.9122   17.6819   23.2360 H   0  0  0  0  0  0  0  0  0  0  0  0
   21.3762   18.3770   23.9142 H   0  0  0  0  0  0  0  0  0  0  0  0
   19.9190   19.8684   23.3223 C   0  0  0  0  0  0  0  0  0  0  0  0
   20.4486   20.6598   22.7745 H   0  0  0  0  0  0  0  0  0  0  0  0
   19.9957   20.1379   24.3845 H   0  0  0  0  0  0  0  0  0  0  0  0
   18.4164   19.8762   22.9479 C   0  0  0  0  0  0  0  0  0  0  0  0
   17.8793   19.1428   23.5651 H   0  0  0  0  0  0  0  0  0  0  0  0
   17.9985   20.8591   23.2057 H   0  0  0  0  0  0  0  0  0  0  0  0
   18.1339   19.5952   21.4577 C   0  0  0  0  0  0  0  0  0  0  0  0
   17.0696   19.7445   21.2343 H   0  0  0  0  0  0  0  0  0  0  0  0
   18.7132   20.2683   20.8125 H   0  0  0  0  0  0  0  0  0  0  0  0
   18.3833   18.5591   21.1965 H   0  0  0  0  0  0  0  0  0  0  0  0
  1  2  1  0  0  0  0
  1  3  2  0  0  0  0
  1  4  1  0  0  0  0
  4  5  1  0  0  0  0
  4  6  1  0  0  0  0
  4  7  1  0  0  0  0
  7  8  1  0  0  0  0
  7  9  1  0  0  0  0
  7 10  1  0  0  0  0
 10 11  1  0  0  0  0
 10 12  1  0  0  0  0
 10 13  1  0  0  0  0
 13 14  1  0  0  0  0
 13 15  1  0  0  0  0
 13 16  1  0  0  0  0
 16 17  1  0  0  0  0
 16 18  1  0  0  0  0
 16 19  1  0  0  0  0
M  END
> <VConfSearch Rank>
335

> <Conf_Id>
24

> <Delta U+W>
2.477

> <U+W>
-52.414

> <U>
10.422

> <W>
-62.836

> <W(PB)>
-64.906

> <W(SA)>
2.070

> <Valence>
9.628

> <Coulomb>
0.101

> <VdW>
0.693

> <VdW6>
-6.927

> <VdW12>
7.620

> <Bond>
0.173

> <Angle>
2.989

> <Pdih>
6.465

> <Idih>
0.001

> <Tether>
0.000

$$$$
VeraChem MOL file


 19 18  0  0  0  0  0  0  0  0999 V2000     
   18.4228   18.3281   20.3562 C   0  0  0  0  0  0  0  0  0  0  0  0
   19.0989   18.8855   19.5141 O   0  5  0  0  0  0  0  0  0  0  0  0
   17.7936   17.3100   20.1450 O   0  0  0  0  0  0  0  0  0  0  0  0
   18.3340   18.9534   21.7459 C   0  0  0  0  0  0  0  0  0  0  0  0
   17.2721   18.9937   22.0153 H   0  0  0  0  0  0  0  0  0  0  0  0
   18.6803   19.9898   21.6810 H   0  0  0  0  0  0  0  0  0  0  0  0
   19.1120   18.1720   22.8408 C   0  0  0  0  0  0  0  0  0  0  0  0
   18.8397   18.5529   23.8342 H   0  0  0  0  0  0  0  0  0  0  0  0
   18.7752   17.1263   22.8158 H   0  0  0  0  0  0  0  0  0  0  0  0
   20.6534   18.2044   22.6717 C   0  0  0  0  0  0  0  0  0  0  0  0
   20.9226   18.2869   21.6099 H   0  0  0  0  0  0  0  0  0  0  0  0
   21.0530   17.2370   23.0054 H   0  0  0  0  0  0  0  0  0  0  0  0
   21.3694   19.3096   23.4865 C   0  0  0  0  0  0  0  0  0  0  0  0
   21.1685   19.1675   24.5573 H   0  0  0  0  0  0  0  0  0  0  0  0
   22.4539   19.1886   23.3587 H   0  0  0  0  0  0  0  0  0  0  0  0
   20.9817   20.7458   23.0784 C   0  0  0  0  0  0  0  0  0  0  0  0
   19.9413   20.9662   23.3475 H   0  0  0  0  0  0  0  0  0  0  0  0
   21.6183   21.4765   23.5939 H   0  0  0  0  0  0  0  0  0  0  0  0
   21.1021   20.8937   21.9972 H   0  0  0  0  0  0  0  0  0  0  0  0
  1  2  1  0  0  0  0
  1  3  2  0  0  0  0
  1  4  1  0  0  0  0
  4  5  1  0  0  0  0
  4  6  1  0  0  0  0
  4  7  1  0  0  0  0
  7  8  1  0  0  0  0
  7  9  1  0  0  0  0
  7 10  1  0  0  0  0
 10 11  1  0  0  0  0
 10 12  1  0  0  0  0
 10 13  1  0  0  0  0
 13 14  1  0  0  0  0
 13 15  1  0  0  0  0
 13 16  1  0  0  0  0
 16 17  1  0  0  0  0
 16 18  1  0  0  0  0
 16 19  1  0  0  0  0
M  END
> <VConfSearch Rank>
336

> <Conf_Id>
4

> <Delta U+W>
3.753

> <U+W>
-51.138

> <U>
12.334

> <W>
-63.472

> <W(PB)>
-65.500

> <W(SA)>
2.028

> <Valence>
9.984

> <Coulomb>
1.767

> <VdW>
0.583

> <VdW6>
-7.767

> <VdW12>
8.349

> <Bond>
0.203

> <Angle>
3.191

> <Pdih>
6.589

> <Idih>
0.001

> <Tether>
0.000

$$$$
VeraChem MOL file


 19 18  0  0  0  0  0  0  0  0999 V2000     
   20.6117   20.8034   24.0569 C   0  0  0  0  0  0  0  0  0  0  0  0
   20.3745   20.9578   25.2388 O   0  5  0  0  0  0  0  0  0  0  0  0
   21.6971   21.0230   23.5564 O   0  0  0  0  0  0  0  0  0  0  0  0
   19.4757   20.3367   23.1502 C   0  0  0  0  0  0  0  0  0  0  0  0
   19.7527   20.5487   22.1127 H   0  0  0  0  0  0  0  0  0  0  0  0
   18.6038   20.9616   23.3762 H   0  0  0  0  0  0  0  0  0  0  0  0
   19.0964   18.8408   23.3326 C   0  0  0  0  0  0  0  0  0  0  0  0
   18.8954   18.6691   24.3992 H   0  0  0  0  0  0  0  0  0  0  0  0
   18.1536   18.6297   22.8102 H   0  0  0  0  0  0  0  0  0  0  0  0
   20.1894   17.8453   22.8638 C   0  0  0  0  0  0  0  0  0  0  0  0
   20.1675   16.9751   23.5338 H   0  0  0  0  0  0  0  0  0  0  0  0
   21.1884   18.2866   22.9821 H   0  0  0  0  0  0  0  0  0  0  0  0
   20.0098   17.3233   21.4170 C   0  0  0  0  0  0  0  0  0  0  0  0
   20.7842   16.5691   21.2207 H   0  0  0  0  0  0  0  0  0  0  0  0
   19.0457   16.8037   21.3291 H   0  0  0  0  0  0  0  0  0  0  0  0
   20.1023   18.4186   20.3347 C   0  0  0  0  0  0  0  0  0  0  0  0
   21.0244   19.0042   20.4453 H   0  0  0  0  0  0  0  0  0  0  0  0
   20.1034   17.9696   19.3331 H   0  0  0  0  0  0  0  0  0  0  0  0
   19.2458   19.1019   20.3894 H   0  0  0  0  0  0  0  0  0  0  0  0
  1  2  1  0  0  0  0
  1  3  2  0  0  0  0
  1  4  1  0  0  0  0
  4  5  1  0  0  0  0
  4  6  1  0  0  0  0
  4  7  1  0  0  0  0
  7  8  1  0  0  0  0
  7  9  1  0  0  0  0
  7 10  1  0  0  0  0
 10 11  1  0  0  0  0
 10 12  1  0  0  0  0
 10 13  1  0  0  0  0
 13 14  1  0  0  0  0
 13 15  1  0  0  0  0
 13 16  1  0  0  0  0
 16 17  1  0  0  0  0
 16 18  1  0  0  0  0
 16 19  1  0  0  0  0
M  END
> <VConfSearch Rank>
337

> <Conf_Id>
73

> <Delta U+W>
3.707

> <U+W>
-51.184

> <U>
12.334

> <W>
-63.519

> <W(PB)>
-65.541

> <W(SA)>
2.022

> <Valence>
9.984

> <Coulomb>
1.768

> <VdW>
0.583

> <VdW6>
-7.767

> <VdW12>
8.350

> <Bond>
0.203

> <Angle>
3.192

> <Pdih>
6.589

> <Idih>
0.001

> <Tether>
0.000

$$$$
VeraChem MOL file


 19 18  0  0  0  0  0  0  0  0999 V2000     
   17.4261   19.0560   23.2992 C   0  0  0  0  0  0  0  0  0  0  0  0
   17.5883   19.9475   24.1090 O   0  5  0  0  0  0  0  0  0  0  0  0
   16.3882   18.8826   22.6911 O   0  0  0  0  0  0  0  0  0  0  0  0
   18.5746   18.0812   23.0544 C   0  0  0  0  0  0  0  0  0  0  0  0
   18.1676   17.0675   23.1470 H   0  0  0  0  0  0  0  0  0  0  0  0
   19.3101   18.1949   23.8590 H   0  0  0  0  0  0  0  0  0  0  0  0
   19.2548   18.2368   21.6669 C   0  0  0  0  0  0  0  0  0  0  0  0
   20.0144   17.4536   21.5467 H   0  0  0  0  0  0  0  0  0  0  0  0
   18.5052   18.0521   20.8851 H   0  0  0  0  0  0  0  0  0  0  0  0
   19.8959   19.6268   21.4202 C   0  0  0  0  0  0  0  0  0  0  0  0
   19.1065   20.3909   21.4224 H   0  0  0  0  0  0  0  0  0  0  0  0
   20.3273   19.6417   20.4100 H   0  0  0  0  0  0  0  0  0  0  0  0
   20.9883   20.0390   22.4371 C   0  0  0  0  0  0  0  0  0  0  0  0
   21.3529   21.0407   22.1714 H   0  0  0  0  0  0  0  0  0  0  0  0
   20.5530   20.1322   23.4412 H   0  0  0  0  0  0  0  0  0  0  0  0
   22.1876   19.0675   22.4747 C   0  0  0  0  0  0  0  0  0  0  0  0
   21.8887   18.0792   22.8458 H   0  0  0  0  0  0  0  0  0  0  0  0
   22.6242   18.9436   21.4752 H   0  0  0  0  0  0  0  0  0  0  0  0
   22.9710   19.4503   23.1415 H   0  0  0  0  0  0  0  0  0  0  0  0
  1  2  1  0  0  0  0
  1  3  2  0  0  0  0
  1  4  1  0  0  0  0
  4  5  1  0  0  0  0
  4  6  1  0  0  0  0
  4  7  1  0  0  0  0
  7  8  1  0  0  0  0
  7  9  1  0  0  0  0
  7 10  1  0  0  0  0
 10 11  1  0  0  0  0
 10 12  1  0  0  0  0
 10 13  1  0  0  0  0
 13 14  1  0  0  0  0
 13 15  1  0  0  0  0
 13 16  1  0  0  0  0
 16 17  1  0  0  0  0
 16 18  1  0  0  0  0
 16 19  1  0  0  0  0
M  END
> <VConfSearch Rank>
338

> <Conf_Id>
56

> <Delta U+W>
1.735

> <U+W>
-53.156

> <U>
10.214

> <W>
-63.370

> <W(PB)>
-65.388

> <W(SA)>
2.018

> <Valence>
7.868

> <Coulomb>
1.968

> <VdW>
0.378

> <VdW6>
-8.067

> <VdW12>
8.445

> <Bond>
0.191

> <Angle>
3.117

> <Pdih>
4.559

> <Idih>
0.001

> <Tether>
0.000

$$$$
VeraChem MOL file


 19 18  0  0  0  0  0  0  0  0999 V2000     
   20.3271   16.3909   23.6781 C   0  0  0  0  0  0  0  0  0  0  0  0
   20.1774   15.3144   23.1348 O   0  5  0  0  0  0  0  0  0  0  0  0
   20.4459   16.5265   24.8797 O   0  0  0  0  0  0  0  0  0  0  0  0
   20.3451   17.6414   22.8063 C   0  0  0  0  0  0  0  0  0  0  0  0
   20.7707   17.3725   21.8322 H   0  0  0  0  0  0  0  0  0  0  0  0
   21.0234   18.3627   23.2755 H   0  0  0  0  0  0  0  0  0  0  0  0
   18.9390   18.2663   22.6229 C   0  0  0  0  0  0  0  0  0  0  0  0
   18.2472   17.4820   22.2859 H   0  0  0  0  0  0  0  0  0  0  0  0
   18.5651   18.6076   23.5980 H   0  0  0  0  0  0  0  0  0  0  0  0
   18.8869   19.4355   21.6077 C   0  0  0  0  0  0  0  0  0  0  0  0
   17.8390   19.7552   21.5259 H   0  0  0  0  0  0  0  0  0  0  0  0
   19.1692   19.0797   20.6074 H   0  0  0  0  0  0  0  0  0  0  0  0
   19.7378   20.6696   21.9979 C   0  0  0  0  0  0  0  0  0  0  0  0
   19.2080   21.5767   21.6757 H   0  0  0  0  0  0  0  0  0  0  0  0
   19.8280   20.7405   23.0906 H   0  0  0  0  0  0  0  0  0  0  0  0
   21.1370   20.6776   21.3429 C   0  0  0  0  0  0  0  0  0  0  0  0
   21.6923   21.5780   21.6358 H   0  0  0  0  0  0  0  0  0  0  0  0
   21.7325   19.8068   21.6392 H   0  0  0  0  0  0  0  0  0  0  0  0
   21.0553   20.6754   20.2481 H   0  0  0  0  0  0  0  0  0  0  0  0
  1  2  1  0  0  0  0
  1  3  2  0  0  0  0
  1  4  1  0  0  0  0
  4  5  1  0  0  0  0
  4  6  1  0  0  0  0
  4  7  1  0  0  0  0
  7  8  1  0  0  0  0
  7  9  1  0  0  0  0
  7 10  1  0  0  0  0
 10 11  1  0  0  0  0
 10 12  1  0  0  0  0
 10 13  1  0  0  0  0
 13 14  1  0  0  0  0
 13 15  1  0  0  0  0
 13 16  1  0  0  0  0
 16 17  1  0  0  0  0
 16 18  1  0  0  0  0
 16 19  1  0  0  0  0
M  END
> <VConfSearch Rank>
339

> <Conf_Id>
53

> <Delta U+W>
2.279

> <U+W>
-52.612

> <U>
10.231

> <W>
-62.843

> <W(PB)>
-64.893

> <W(SA)>
2.050

> <Valence>
9.644

> <Coulomb>
-0.164

> <VdW>
0.751

> <VdW6>
-6.881

> <VdW12>
7.631

> <Bond>
0.163

> <Angle>
2.998

> <Pdih>
6.482

> <Idih>
0.001

> <Tether>
0.000

$$$$
VeraChem MOL file


 19 18  0  0  0  0  0  0  0  0999 V2000     
   20.0922   16.7173   21.4692 C   0  0  0  0  0  0  0  0  0  0  0  0
   19.1703   16.1692   22.0407 O   0  5  0  0  0  0  0  0  0  0  0  0
   21.2212   16.2686   21.4362 O   0  0  0  0  0  0  0  0  0  0  0  0
   19.7984   18.0005   20.6941 C   0  0  0  0  0  0  0  0  0  0  0  0
   18.7303   18.2336   20.7818 H   0  0  0  0  0  0  0  0  0  0  0  0
   19.9836   17.7720   19.6381 H   0  0  0  0  0  0  0  0  0  0  0  0
   20.6535   19.2332   21.1019 C   0  0  0  0  0  0  0  0  0  0  0  0
   21.7062   18.9384   21.2140 H   0  0  0  0  0  0  0  0  0  0  0  0
   20.6281   19.9524   20.2722 H   0  0  0  0  0  0  0  0  0  0  0  0
   20.1688   19.9671   22.3767 C   0  0  0  0  0  0  0  0  0  0  0  0
   19.1184   20.2652   22.2551 H   0  0  0  0  0  0  0  0  0  0  0  0
   20.7441   20.8978   22.4752 H   0  0  0  0  0  0  0  0  0  0  0  0
   20.3284   19.1462   23.6753 C   0  0  0  0  0  0  0  0  0  0  0  0
   19.6595   18.2764   23.6557 H   0  0  0  0  0  0  0  0  0  0  0  0
   21.3549   18.7611   23.7487 H   0  0  0  0  0  0  0  0  0  0  0  0
   20.0064   19.9933   24.9229 C   0  0  0  0  0  0  0  0  0  0  0  0
   18.9756   20.3694   24.8862 H   0  0  0  0  0  0  0  0  0  0  0  0
   20.1162   19.3936   25.8358 H   0  0  0  0  0  0  0  0  0  0  0  0
   20.6836   20.8541   24.9997 H   0  0  0  0  0  0  0  0  0  0  0  0
  1  2  1  0  0  0  0
  1  3  2  0  0  0  0
  1  4  1  0  0  0  0
  4  5  1  0  0  0  0
  4  6  1  0  0  0  0
  4  7  1  0  0  0  0
  7  8  1  0  0  0  0
  7  9  1  0  0  0  0
  7 10  1  0  0  0  0
 10 11  1  0  0  0  0
 10 12  1  0  0  0  0
 10 13  1  0  0  0  0
 13 14  1  0  0  0  0
 13 15  1  0  0  0  0
 13 16  1  0  0  0  0
 16 17  1  0  0  0  0
 16 18  1  0  0  0  0
 16 19  1  0  0  0  0
M  END
> <VConfSearch Rank>
340

> <Conf_Id>
25

> <Delta U+W>
2.065

> <U+W>
-52.826

> <U>
10.967

> <W>
-63.794

> <W(PB)>
-65.830

> <W(SA)>
2.036

> <Valence>
8.609

> <Coulomb>
1.892

> <VdW>
0.467

> <VdW6>
-7.569

> <VdW12>
8.036

> <Bond>
0.170

> <Angle>
3.195

> <Pdih>
5.237

> <Idih>
0.007

> <Tether>
0.000

$$$$
VeraChem MOL file


 19 18  0  0  0  0  0  0  0  0999 V2000     
   20.6296   20.1296   20.5174 C   0  0  0  0  0  0  0  0  0  0  0  0
   20.4698   21.3084   20.7665 O   0  5  0  0  0  0  0  0  0  0  0  0
   20.0262   19.5428   19.6408 O   0  0  0  0  0  0  0  0  0  0  0  0
   21.6937   19.3606   21.2983 C   0  0  0  0  0  0  0  0  0  0  0  0
   22.6531   19.8347   21.0608 H   0  0  0  0  0  0  0  0  0  0  0  0
   21.7471   18.3349   20.9136 H   0  0  0  0  0  0  0  0  0  0  0  0
   21.5049   19.3474   22.8415 C   0  0  0  0  0  0  0  0  0  0  0  0
   22.4740   19.1071   23.2992 H   0  0  0  0  0  0  0  0  0  0  0  0
   21.2449   20.3545   23.1958 H   0  0  0  0  0  0  0  0  0  0  0  0
   20.4705   18.3182   23.3606 C   0  0  0  0  0  0  0  0  0  0  0  0
   20.5370   18.2896   24.4568 H   0  0  0  0  0  0  0  0  0  0  0  0
   20.7403   17.3130   23.0089 H   0  0  0  0  0  0  0  0  0  0  0  0
   19.0124   18.6340   22.9608 C   0  0  0  0  0  0  0  0  0  0  0  0
   18.7719   19.6741   23.2209 H   0  0  0  0  0  0  0  0  0  0  0  0
   18.8905   18.5381   21.8743 H   0  0  0  0  0  0  0  0  0  0  0  0
   18.0166   17.6859   23.6588 C   0  0  0  0  0  0  0  0  0  0  0  0
   16.9868   17.9177   23.3577 H   0  0  0  0  0  0  0  0  0  0  0  0
   18.2199   16.6399   23.3942 H   0  0  0  0  0  0  0  0  0  0  0  0
   18.0803   17.7826   24.7505 H   0  0  0  0  0  0  0  0  0  0  0  0
  1  2  1  0  0  0  0
  1  3  2  0  0  0  0
  1  4  1  0  0  0  0
  4  5  1  0  0  0  0
  4  6  1  0  0  0  0
  4  7  1  0  0  0  0
  7  8  1  0  0  0  0
  7  9  1  0  0  0  0
  7 10  1  0  0  0  0
 10 11  1  0  0  0  0
 10 12  1  0  0  0  0
 10 13  1  0  0  0  0
 13 14  1  0  0  0  0
 13 15  1  0  0  0  0
 13 16  1  0  0  0  0
 16 17  1  0  0  0  0
 16 18  1  0  0  0  0
 16 19  1  0  0  0  0
M  END
> <VConfSearch Rank>
341

> <Conf_Id>
52

> <Delta U+W>
2.070

> <U+W>
-52.822

> <U>
10.967

> <W>
-63.789

> <W(PB)>
-65.837

> <W(SA)>
2.048

> <Valence>
8.609

> <Coulomb>
1.892

> <VdW>
0.467

> <VdW6>
-7.569

> <VdW12>
8.035

> <Bond>
0.170

> <Angle>
3.196

> <Pdih>
5.237

> <Idih>
0.007

> <Tether>
0.000

$$$$
VeraChem MOL file


 19 18  0  0  0  0  0  0  0  0999 V2000     
   19.6141   20.9068   21.9344 C   0  0  0  0  0  0  0  0  0  0  0  0
   18.5619   21.3295   22.3730 O   0  5  0  0  0  0  0  0  0  0  0  0
   20.6726   21.4881   22.0699 O   0  0  0  0  0  0  0  0  0  0  0  0
   19.5942   19.6506   21.0620 C   0  0  0  0  0  0  0  0  0  0  0  0
   20.6256   19.3251   20.8807 H   0  0  0  0  0  0  0  0  0  0  0  0
   19.1902   19.9622   20.0920 H   0  0  0  0  0  0  0  0  0  0  0  0
   18.7440   18.4656   21.6026 C   0  0  0  0  0  0  0  0  0  0  0  0
   17.8045   18.8418   22.0303 H   0  0  0  0  0  0  0  0  0  0  0  0
   18.4522   17.8421   20.7468 H   0  0  0  0  0  0  0  0  0  0  0  0
   19.4591   17.5465   22.6259 C   0  0  0  0  0  0  0  0  0  0  0  0
   20.3457   17.0900   22.1648 H   0  0  0  0  0  0  0  0  0  0  0  0
   18.7801   16.7125   22.8502 H   0  0  0  0  0  0  0  0  0  0  0  0
   19.8388   18.2272   23.9632 C   0  0  0  0  0  0  0  0  0  0  0  0
   19.2108   19.1122   24.1357 H   0  0  0  0  0  0  0  0  0  0  0  0
   19.6213   17.5347   24.7879 H   0  0  0  0  0  0  0  0  0  0  0  0
   21.3333   18.6070   24.0370 C   0  0  0  0  0  0  0  0  0  0  0  0
   21.9679   17.7142   23.9654 H   0  0  0  0  0  0  0  0  0  0  0  0
   21.6152   19.2887   23.2262 H   0  0  0  0  0  0  0  0  0  0  0  0
   21.5574   19.1055   24.9888 H   0  0  0  0  0  0  0  0  0  0  0  0
  1  2  1  0  0  0  0
  1  3  2  0  0  0  0
  1  4  1  0  0  0  0
  4  5  1  0  0  0  0
  4  6  1  0  0  0  0
  4  7  1  0  0  0  0
  7  8  1  0  0  0  0
  7  9  1  0  0  0  0
  7 10  1  0  0  0  0
 10 11  1  0  0  0  0
 10 12  1  0  0  0  0
 10 13  1  0  0  0  0
 13 14  1  0  0  0  0
 13 15  1  0  0  0  0
 13 16  1  0  0  0  0
 16 17  1  0  0  0  0
 16 18  1  0  0  0  0
 16 19  1  0  0  0  0
M  END
> <VConfSearch Rank>
342

> <Conf_Id>
66

> <Delta U+W>
5.819

> <U+W>
-49.072

> <U>
15.324

> <W>
-64.396

> <W(PB)>
-66.382

> <W(SA)>
1.986

> <Valence>
11.748

> <Coulomb>
3.201

> <VdW>
0.375

> <VdW6>
-8.854

> <VdW12>
9.229

> <Bond>
0.216

> <Angle>
3.812

> <Pdih>
7.699

> <Idih>
0.022

> <Tether>
0.000

$$$$
VeraChem MOL file


 19 18  0  0  0  0  0  0  0  0999 V2000     
   23.1713   17.8291   22.7079 C   0  0  0  0  0  0  0  0  0  0  0  0
   23.8346   16.8126   22.7588 O   0  5  0  0  0  0  0  0  0  0  0  0
   23.6366   18.9353   22.9023 O   0  0  0  0  0  0  0  0  0  0  0  0
   21.6845   17.6769   22.3823 C   0  0  0  0  0  0  0  0  0  0  0  0
   21.2508   17.0105   23.1372 H   0  0  0  0  0  0  0  0  0  0  0  0
   21.6120   17.1600   21.4182 H   0  0  0  0  0  0  0  0  0  0  0  0
   20.8787   19.0021   22.3283 C   0  0  0  0  0  0  0  0  0  0  0  0
   20.9602   19.5179   23.2951 H   0  0  0  0  0  0  0  0  0  0  0  0
   21.3217   19.6676   21.5744 H   0  0  0  0  0  0  0  0  0  0  0  0
   19.3913   18.7564   21.9944 C   0  0  0  0  0  0  0  0  0  0  0  0
   18.9504   18.0907   22.7491 H   0  0  0  0  0  0  0  0  0  0  0  0
   19.3121   18.2405   21.0275 H   0  0  0  0  0  0  0  0  0  0  0  0
   18.5920   20.0750   21.9411 C   0  0  0  0  0  0  0  0  0  0  0  0
   18.6671   20.5931   22.9072 H   0  0  0  0  0  0  0  0  0  0  0  0
   19.0287   20.7428   21.1857 H   0  0  0  0  0  0  0  0  0  0  0  0
   17.1075   19.8258   21.6076 C   0  0  0  0  0  0  0  0  0  0  0  0
   16.6368   19.1854   22.3652 H   0  0  0  0  0  0  0  0  0  0  0  0
   16.5543   20.7734   21.5739 H   0  0  0  0  0  0  0  0  0  0  0  0
   17.0012   19.3363   20.6307 H   0  0  0  0  0  0  0  0  0  0  0  0
  1  2  1  0  0  0  0
  1  3  2  0  0  0  0
  1  4  1  0  0  0  0
  4  5  1  0  0  0  0
  4  6  1  0  0  0  0
  4  7  1  0  0  0  0
  7  8  1  0  0  0  0
  7  9  1  0  0  0  0
  7 10  1  0  0  0  0
 10 11  1  0  0  0  0
 10 12  1  0  0  0  0
 10 13  1  0  0  0  0
 13 14  1  0  0  0  0
 13 15  1  0  0  0  0
 13 16  1  0  0  0  0
 16 17  1  0  0  0  0
 16 18  1  0  0  0  0
 16 19  1  0  0  0  0
M  END
> <VConfSearch Rank>
343

> <Conf_Id>
0

> <Delta U+W>
0.000

> <U+W>
-54.891

> <U>
6.966

> <W>
-61.857

> <W(PB)>
-63.965

> <W(SA)>
2.108

> <Valence>
7.175

> <Coulomb>
-1.360

> <VdW>
1.151

> <VdW6>
-5.641

> <VdW12>
6.792

> <Bond>
0.119

> <Angle>
2.715

> <Pdih>
4.340

> <Idih>
0.000

> <Tether>
0.000

$$$$
VeraChem MOL file


 19 18  0  0  0  0  0  0  0  0999 V2000     
   17.1958   18.6413   20.1467 C   0  0  0  0  0  0  0  0  0  0  0  0
   17.4014   18.1197   19.0688 O   0  5  0  0  0  0  0  0  0  0  0  0
   16.1351   18.5733   20.7354 O   0  0  0  0  0  0  0  0  0  0  0  0
   18.3380   19.4059   20.8064 C   0  0  0  0  0  0  0  0  0  0  0  0
   17.9059   20.2291   21.3881 H   0  0  0  0  0  0  0  0  0  0  0  0
   18.9498   19.8548   20.0146 H   0  0  0  0  0  0  0  0  0  0  0  0
   19.2149   18.5112   21.7166 C   0  0  0  0  0  0  0  0  0  0  0  0
   18.5857   18.0594   22.4960 H   0  0  0  0  0  0  0  0  0  0  0  0
   19.6295   17.6850   21.1224 H   0  0  0  0  0  0  0  0  0  0  0  0
   20.3632   19.3086   22.3718 C   0  0  0  0  0  0  0  0  0  0  0  0
   19.9456   20.1345   22.9640 H   0  0  0  0  0  0  0  0  0  0  0  0
   20.9896   19.7600   21.5902 H   0  0  0  0  0  0  0  0  0  0  0  0
   21.2351   18.4148   23.2781 C   0  0  0  0  0  0  0  0  0  0  0  0
   20.6123   17.9629   24.0626 H   0  0  0  0  0  0  0  0  0  0  0  0
   21.6563   17.5884   22.6889 H   0  0  0  0  0  0  0  0  0  0  0  0
   22.3805   19.2142   23.9307 C   0  0  0  0  0  0  0  0  0  0  0  0
   22.9901   18.5638   24.5713 H   0  0  0  0  0  0  0  0  0  0  0  0
   23.0383   19.6518   23.1682 H   0  0  0  0  0  0  0  0  0  0  0  0
   21.9865   20.0290   24.5522 H   0  0  0  0  0  0  0  0  0  0  0  0
  1  2  1  0  0  0  0
  1  3  2  0  0  0  0
  1  4  1  0  0  0  0
  4  5  1  0  0  0  0
  4  6  1  0  0  0  0
  4  7  1  0  0  0  0
  7  8  1  0  0  0  0
  7  9  1  0  0  0  0
  7 10  1  0  0  0  0
 10 11  1  0  0  0  0
 10 12  1  0  0  0  0
 10 13  1  0  0  0  0
 13 14  1  0  0  0  0
 13 15  1  0  0  0  0
 13 16  1  0  0  0  0
 16 17  1  0  0  0  0
 16 18  1  0  0  0  0
 16 19  1  0  0  0  0
M  END
> <VConfSearch Rank>
344

> <Conf_Id>
18

> <Delta U+W>
-1.199

> <U+W>
-56.090

> <U>
5.975

> <W>
-62.066

> <W(PB)>
-64.219

> <W(SA)>
2.153

> <Valence>
6.673

> <Coulomb>
-1.307

> <VdW>
0.610

> <VdW6>
-5.351

> <VdW12>
5.961

> <Bond>
0.086

> <Angle>
2.253

> <Pdih>
4.333

> <Idih>
0.001

> <Tether>
0.000

$$$$
VeraChem MOL file


 19 18  0  0  0  0  0  0  0  0999 V2000     
   19.6598   21.8293   20.8587 C   0  0  0  0  0  0  0  0  0  0  0  0
   18.9539   22.0548   19.8958 O   0  5  0  0  0  0  0  0  0  0  0  0
   20.0613   22.6917   21.6146 O   0  0  0  0  0  0  0  0  0  0  0  0
   20.0454   20.3826   21.1461 C   0  0  0  0  0  0  0  0  0  0  0  0
   21.0454   20.3869   21.5941 H   0  0  0  0  0  0  0  0  0  0  0  0
   20.1198   19.8536   20.1884 H   0  0  0  0  0  0  0  0  0  0  0  0
   19.0328   19.6650   22.0761 C   0  0  0  0  0  0  0  0  0  0  0  0
   18.9997   20.1774   23.0475 H   0  0  0  0  0  0  0  0  0  0  0  0
   18.0278   19.7586   21.6417 H   0  0  0  0  0  0  0  0  0  0  0  0
   19.3437   18.1641   22.2868 C   0  0  0  0  0  0  0  0  0  0  0  0
   19.3677   17.6531   21.3146 H   0  0  0  0  0  0  0  0  0  0  0  0
   18.5181   17.7135   22.8545 H   0  0  0  0  0  0  0  0  0  0  0  0
   20.6684   17.9111   23.0410 C   0  0  0  0  0  0  0  0  0  0  0  0
   21.5163   18.2872   22.4538 H   0  0  0  0  0  0  0  0  0  0  0  0
   20.6655   18.4635   23.9909 H   0  0  0  0  0  0  0  0  0  0  0  0
   20.8803   16.4101   23.3225 C   0  0  0  0  0  0  0  0  0  0  0  0
   21.8259   16.2464   23.8556 H   0  0  0  0  0  0  0  0  0  0  0  0
   20.0681   16.0076   23.9420 H   0  0  0  0  0  0  0  0  0  0  0  0
   20.9147   15.8364   22.3870 H   0  0  0  0  0  0  0  0  0  0  0  0
  1  2  1  0  0  0  0
  1  3  2  0  0  0  0
  1  4  1  0  0  0  0
  4  5  1  0  0  0  0
  4  6  1  0  0  0  0
  4  7  1  0  0  0  0
  7  8  1  0  0  0  0
  7  9  1  0  0  0  0
  7 10  1  0  0  0  0
 10 11  1  0  0  0  0
 10 12  1  0  0  0  0
 10 13  1  0  0  0  0
 13 14  1  0  0  0  0
 13 15  1  0  0  0  0
 13 16  1  0  0  0  0
 16 17  1  0  0  0  0
 16 18  1  0  0  0  0
 16 19  1  0  0  0  0
M  END
> <VConfSearch Rank>
345

> <Conf_Id>
34

> <Delta U+W>
-0.563

> <U+W>
-55.455

> <U>
6.914

> <W>
-62.369

> <W(PB)>
-64.446

> <W(SA)>
2.077

> <Valence>
7.196

> <Coulomb>
-1.020

> <VdW>
0.738

> <VdW6>
-6.010

> <VdW12>
6.748

> <Bond>
0.126

> <Angle>
2.499

> <Pdih>
4.570

> <Idih>
0.001

> <Tether>
0.000

$$$$
VeraChem MOL file


 19 18  0  0  0  0  0  0  0  0999 V2000     
   22.7683   18.3057   23.6482 C   0  0  0  0  0  0  0  0  0  0  0  0
   23.5699   19.1650   23.9569 O   0  5  0  0  0  0  0  0  0  0  0  0
   23.0477   17.1267   23.5581 O   0  0  0  0  0  0  0  0  0  0  0  0
   21.3387   18.7335   23.3354 C   0  0  0  0  0  0  0  0  0  0  0  0
   21.1009   19.6056   23.9561 H   0  0  0  0  0  0  0  0  0  0  0  0
   20.6722   17.9212   23.6464 H   0  0  0  0  0  0  0  0  0  0  0  0
   21.1274   19.0705   21.8364 C   0  0  0  0  0  0  0  0  0  0  0  0
   21.8712   19.8214   21.5358 H   0  0  0  0  0  0  0  0  0  0  0  0
   21.3254   18.1772   21.2280 H   0  0  0  0  0  0  0  0  0  0  0  0
   19.7153   19.6169   21.5191 C   0  0  0  0  0  0  0  0  0  0  0  0
   19.6937   19.9382   20.4687 H   0  0  0  0  0  0  0  0  0  0  0  0
   19.5238   20.5147   22.1226 H   0  0  0  0  0  0  0  0  0  0  0  0
   18.5902   18.5836   21.7512 C   0  0  0  0  0  0  0  0  0  0  0  0
   18.8077   17.6658   21.1875 H   0  0  0  0  0  0  0  0  0  0  0  0
   18.5446   18.3052   22.8122 H   0  0  0  0  0  0  0  0  0  0  0  0
   17.2174   19.1365   21.3188 C   0  0  0  0  0  0  0  0  0  0  0  0
   16.9618   20.0405   21.8870 H   0  0  0  0  0  0  0  0  0  0  0  0
   17.2143   19.3903   20.2507 H   0  0  0  0  0  0  0  0  0  0  0  0
   16.4288   18.3927   21.4925 H   0  0  0  0  0  0  0  0  0  0  0  0
  1  2  1  0  0  0  0
  1  3  2  0  0  0  0
  1  4  1  0  0  0  0
  4  5  1  0  0  0  0
  4  6  1  0  0  0  0
  4  7  1  0  0  0  0
  7  8  1  0  0  0  0
  7  9  1  0  0  0  0
  7 10  1  0  0  0  0
 10 11  1  0  0  0  0
 10 12  1  0  0  0  0
 10 13  1  0  0  0  0
 13 14  1  0  0  0  0
 13 15  1  0  0  0  0
 13 16  1  0  0  0  0
 16 17  1  0  0  0  0
 16 18  1  0  0  0  0
 16 19  1  0  0  0  0
M  END
> <VConfSearch Rank>
346

> <Conf_Id>
33

> <Delta U+W>
-0.526

> <U+W>
-55.418

> <U>
6.914

> <W>
-62.332

> <W(PB)>
-64.421

> <W(SA)>
2.090

> <Valence>
7.196

> <Coulomb>
-1.020

> <VdW>
0.738

> <VdW6>
-6.010

> <VdW12>
6.748

> <Bond>
0.126

> <Angle>
2.499

> <Pdih>
4.570

> <Idih>
0.001

> <Tether>
0.000

$$$$
VeraChem MOL file


 19 18  0  0  0  0  0  0  0  0999 V2000     
   22.7018   18.9051   23.7253 C   0  0  0  0  0  0  0  0  0  0  0  0
   23.2821   19.9573   23.5459 O   0  5  0  0  0  0  0  0  0  0  0  0
   22.7704   18.2665   24.7567 O   0  0  0  0  0  0  0  0  0  0  0  0
   21.8253   18.3649   22.6008 C   0  0  0  0  0  0  0  0  0  0  0  0
   21.8565   17.2695   22.6409 H   0  0  0  0  0  0  0  0  0  0  0  0
   22.2712   18.6673   21.6456 H   0  0  0  0  0  0  0  0  0  0  0  0
   20.3610   18.8618   22.6870 C   0  0  0  0  0  0  0  0  0  0  0  0
   19.9317   18.5597   23.6522 H   0  0  0  0  0  0  0  0  0  0  0  0
   20.3563   19.9595   22.6638 H   0  0  0  0  0  0  0  0  0  0  0  0
   19.4967   18.3019   21.5336 C   0  0  0  0  0  0  0  0  0  0  0  0
   19.5719   17.2059   21.5300 H   0  0  0  0  0  0  0  0  0  0  0  0
   19.8978   18.6447   20.5700 H   0  0  0  0  0  0  0  0  0  0  0  0
   18.0042   18.6912   21.6402 C   0  0  0  0  0  0  0  0  0  0  0  0
   17.4447   18.1607   20.8573 H   0  0  0  0  0  0  0  0  0  0  0  0
   17.5978   18.3450   22.6006 H   0  0  0  0  0  0  0  0  0  0  0  0
   17.7559   20.2074   21.4874 C   0  0  0  0  0  0  0  0  0  0  0  0
   18.1798   20.5821   20.5466 H   0  0  0  0  0  0  0  0  0  0  0  0
   16.6792   20.4212   21.4817 H   0  0  0  0  0  0  0  0  0  0  0  0
   18.2019   20.7720   22.3156 H   0  0  0  0  0  0  0  0  0  0  0  0
  1  2  1  0  0  0  0
  1  3  2  0  0  0  0
  1  4  1  0  0  0  0
  4  5  1  0  0  0  0
  4  6  1  0  0  0  0
  4  7  1  0  0  0  0
  7  8  1  0  0  0  0
  7  9  1  0  0  0  0
  7 10  1  0  0  0  0
 10 11  1  0  0  0  0
 10 12  1  0  0  0  0
 10 13  1  0  0  0  0
 13 14  1  0  0  0  0
 13 15  1  0  0  0  0
 13 16  1  0  0  0  0
 16 17  1  0  0  0  0
 16 18  1  0  0  0  0
 16 19  1  0  0  0  0
M  END
> <VConfSearch Rank>
347

> <Conf_Id>
42

> <Delta U+W>
-0.344

> <U+W>
-55.236

> <U>
7.244

> <W>
-62.479

> <W(PB)>
-64.610

> <W(SA)>
2.130

> <Valence>
7.174

> <Coulomb>
-0.669

> <VdW>
0.739

> <VdW6>
-5.969

> <VdW12>
6.708

> <Bond>
0.116

> <Angle>
2.481

> <Pdih>
4.576

> <Idih>
0.000

> <Tether>
0.000

$$$$
VeraChem MOL file


 19 18  0  0  0  0  0  0  0  0999 V2000     
   17.3961   18.9318   23.9531 C   0  0  0  0  0  0  0  0  0  0  0  0
   16.4546   18.6225   23.2502 O   0  5  0  0  0  0  0  0  0  0  0  0
   17.3208   19.7318   24.8645 O   0  0  0  0  0  0  0  0  0  0  0  0
   18.7508   18.2948   23.6640 C   0  0  0  0  0  0  0  0  0  0  0  0
   18.5766   17.2833   23.2778 H   0  0  0  0  0  0  0  0  0  0  0  0
   19.2880   18.1909   24.6144 H   0  0  0  0  0  0  0  0  0  0  0  0
   19.5979   19.1118   22.6573 C   0  0  0  0  0  0  0  0  0  0  0  0
   19.0329   19.2184   21.7218 H   0  0  0  0  0  0  0  0  0  0  0  0
   19.7557   20.1243   23.0537 H   0  0  0  0  0  0  0  0  0  0  0  0
   20.9634   18.4414   22.3803 C   0  0  0  0  0  0  0  0  0  0  0  0
   20.8056   17.4482   21.9381 H   0  0  0  0  0  0  0  0  0  0  0  0
   21.4819   18.2785   23.3350 H   0  0  0  0  0  0  0  0  0  0  0  0
   21.8820   19.2773   21.4593 C   0  0  0  0  0  0  0  0  0  0  0  0
   22.0467   20.2698   21.9011 H   0  0  0  0  0  0  0  0  0  0  0  0
   22.8667   18.7925   21.4096 H   0  0  0  0  0  0  0  0  0  0  0  0
   21.3315   19.4320   20.0251 C   0  0  0  0  0  0  0  0  0  0  0  0
   20.4012   20.0135   20.0134 H   0  0  0  0  0  0  0  0  0  0  0  0
   22.0579   19.9550   19.3897 H   0  0  0  0  0  0  0  0  0  0  0  0
   21.1312   18.4518   19.5732 H   0  0  0  0  0  0  0  0  0  0  0  0
  1  2  1  0  0  0  0
  1  3  2  0  0  0  0
  1  4  1  0  0  0  0
  4  5  1  0  0  0  0
  4  6  1  0  0  0  0
  4  7  1  0  0  0  0
  7  8  1  0  0  0  0
  7  9  1  0  0  0  0
  7 10  1  0  0  0  0
 10 11  1  0  0  0  0
 10 12  1  0  0  0  0
 10 13  1  0  0  0  0
 13 14  1  0  0  0  0
 13 15  1  0  0  0  0
 13 16  1  0  0  0  0
 16 17  1  0  0  0  0
 16 18  1  0  0  0  0
 16 19  1  0  0  0  0
M  END
> <VConfSearch Rank>
348

> <Conf_Id>
41

> <Delta U+W>
-0.361

> <U+W>
-55.252

> <U>
7.244

> <W>
-62.496

> <W(PB)>
-64.596

> <W(SA)>
2.099

> <Valence>
7.174

> <Coulomb>
-0.669

> <VdW>
0.739

> <VdW6>
-5.969

> <VdW12>
6.708

> <Bond>
0.116

> <Angle>
2.481

> <Pdih>
4.576

> <Idih>
0.000

> <Tether>
0.000

$$$$
VeraChem MOL file


 19 18  0  0  0  0  0  0  0  0999 V2000     
   22.3914   18.3986   23.4788 C   0  0  0  0  0  0  0  0  0  0  0  0
   22.0814   17.5120   24.2499 O   0  5  0  0  0  0  0  0  0  0  0  0
   23.2960   18.3023   22.6731 O   0  0  0  0  0  0  0  0  0  0  0  0
   21.6185   19.7132   23.5388 C   0  0  0  0  0  0  0  0  0  0  0  0
   22.3537   20.5266   23.5292 H   0  0  0  0  0  0  0  0  0  0  0  0
   21.0962   19.7690   24.5017 H   0  0  0  0  0  0  0  0  0  0  0  0
   20.6146   19.9093   22.3732 C   0  0  0  0  0  0  0  0  0  0  0  0
   20.2105   20.9297   22.4188 H   0  0  0  0  0  0  0  0  0  0  0  0
   21.1470   19.8224   21.4158 H   0  0  0  0  0  0  0  0  0  0  0  0
   19.4480   18.8972   22.4171 C   0  0  0  0  0  0  0  0  0  0  0  0
   18.9271   18.9789   23.3809 H   0  0  0  0  0  0  0  0  0  0  0  0
   19.8431   17.8738   22.3546 H   0  0  0  0  0  0  0  0  0  0  0  0
   18.4456   19.1306   21.2675 C   0  0  0  0  0  0  0  0  0  0  0  0
   18.0439   20.1516   21.3273 H   0  0  0  0  0  0  0  0  0  0  0  0
   18.9636   19.0471   20.3020 H   0  0  0  0  0  0  0  0  0  0  0  0
   17.2829   18.1194   21.3141 C   0  0  0  0  0  0  0  0  0  0  0  0
   16.7275   18.2027   22.2575 H   0  0  0  0  0  0  0  0  0  0  0  0
   16.5803   18.2993   20.4900 H   0  0  0  0  0  0  0  0  0  0  0  0
   17.6540   17.0899   21.2246 H   0  0  0  0  0  0  0  0  0  0  0  0
  1  2  1  0  0  0  0
  1  3  2  0  0  0  0
  1  4  1  0  0  0  0
  4  5  1  0  0  0  0
  4  6  1  0  0  0  0
  4  7  1  0  0  0  0
  7  8  1  0  0  0  0
  7  9  1  0  0  0  0
  7 10  1  0  0  0  0
 10 11  1  0  0  0  0
 10 12  1  0  0  0  0
 10 13  1  0  0  0  0
 13 14  1  0  0  0  0
 13 15  1  0  0  0  0
 13 16  1  0  0  0  0
 16 17  1  0  0  0  0
 16 18  1  0  0  0  0
 16 19  1  0  0  0  0
M  END
> <VConfSearch Rank>
349

> <Conf_Id>
36

> <Delta U+W>
-0.079

> <U+W>
-54.971

> <U>
8.266

> <W>
-63.237

> <W(PB)>
-65.340

> <W(SA)>
2.103

> <Valence>
6.935

> <Coulomb>
0.874

> <VdW>
0.457

> <VdW6>
-6.205

> <VdW12>
6.662

> <Bond>
0.107

> <Angle>
2.420

> <Pdih>
4.407

> <Idih>
0.001

> <Tether>
0.000

$$$$
VeraChem MOL file


 19 18  0  0  0  0  0  0  0  0999 V2000     
   17.4185   19.8208   22.5487 C   0  0  0  0  0  0  0  0  0  0  0  0
   16.8510   18.7496   22.4645 O   0  5  0  0  0  0  0  0  0  0  0  0
   17.1381   20.7852   21.8647 O   0  0  0  0  0  0  0  0  0  0  0  0
   18.5299   19.9718   23.5838 C   0  0  0  0  0  0  0  0  0  0  0  0
   18.4317   19.1676   24.3232 H   0  0  0  0  0  0  0  0  0  0  0  0
   18.3565   20.9147   24.1158 H   0  0  0  0  0  0  0  0  0  0  0  0
   19.9586   19.9729   22.9808 C   0  0  0  0  0  0  0  0  0  0  0  0
   20.0328   20.7646   22.2222 H   0  0  0  0  0  0  0  0  0  0  0  0
   20.6788   20.2239   23.7713 H   0  0  0  0  0  0  0  0  0  0  0  0
   20.3413   18.6123   22.3565 C   0  0  0  0  0  0  0  0  0  0  0  0
   19.6351   18.3620   21.5528 H   0  0  0  0  0  0  0  0  0  0  0  0
   20.2530   17.8225   23.1151 H   0  0  0  0  0  0  0  0  0  0  0  0
   21.7769   18.6267   21.7914 C   0  0  0  0  0  0  0  0  0  0  0  0
   21.8674   19.4143   21.0305 H   0  0  0  0  0  0  0  0  0  0  0  0
   22.4883   18.8724   22.5920 H   0  0  0  0  0  0  0  0  0  0  0  0
   22.1556   17.2678   21.1693 C   0  0  0  0  0  0  0  0  0  0  0  0
   21.4784   17.0114   20.3440 H   0  0  0  0  0  0  0  0  0  0  0  0
   23.1787   17.2957   20.7722 H   0  0  0  0  0  0  0  0  0  0  0  0
   22.1040   16.4655   21.9171 H   0  0  0  0  0  0  0  0  0  0  0  0
  1  2  1  0  0  0  0
  1  3  2  0  0  0  0
  1  4  1  0  0  0  0
  4  5  1  0  0  0  0
  4  6  1  0  0  0  0
  4  7  1  0  0  0  0
  7  8  1  0  0  0  0
  7  9  1  0  0  0  0
  7 10  1  0  0  0  0
 10 11  1  0  0  0  0
 10 12  1  0  0  0  0
 10 13  1  0  0  0  0
 13 14  1  0  0  0  0
 13 15  1  0  0  0  0
 13 16  1  0  0  0  0
 16 17  1  0  0  0  0
 16 18  1  0  0  0  0
 16 19  1  0  0  0  0
M  END
> <VConfSearch Rank>
350

> <Conf_Id>
35

> <Delta U+W>
-0.030

> <U+W>
-54.921

> <U>
8.267

> <W>
-63.188

> <W(PB)>
-65.294

> <W(SA)>
2.106

> <Valence>
6.935

> <Coulomb>
0.875

> <VdW>
0.457

> <VdW6>
-6.205

> <VdW12>
6.662

> <Bond>
0.107

> <Angle>
2.420

> <Pdih>
4.407

> <Idih>
0.001

> <Tether>
0.000

$$$$
VeraChem MOL file


 19 18  0  0  0  0  0  0  0  0999 V2000     
   18.5511   17.2277   20.4397 C   0  0  0  0  0  0  0  0  0  0  0  0
   17.6960   17.8475   19.8386 O   0  5  0  0  0  0  0  0  0  0  0  0
   18.3482   16.1620   20.9872 O   0  0  0  0  0  0  0  0  0  0  0  0
   19.9607   17.8106   20.4901 C   0  0  0  0  0  0  0  0  0  0  0  0
   20.2153   18.1392   19.4756 H   0  0  0  0  0  0  0  0  0  0  0  0
   20.6628   17.0088   20.7494 H   0  0  0  0  0  0  0  0  0  0  0  0
   20.1195   18.9994   21.4736 C   0  0  0  0  0  0  0  0  0  0  0  0
   21.1122   19.4432   21.3259 H   0  0  0  0  0  0  0  0  0  0  0  0
   19.3838   19.7771   21.2262 H   0  0  0  0  0  0  0  0  0  0  0  0
   19.9552   18.5730   22.9521 C   0  0  0  0  0  0  0  0  0  0  0  0
   20.7163   17.8234   23.2082 H   0  0  0  0  0  0  0  0  0  0  0  0
   18.9811   18.0812   23.0799 H   0  0  0  0  0  0  0  0  0  0  0  0
   20.0381   19.7553   23.9452 C   0  0  0  0  0  0  0  0  0  0  0  0
   19.2764   20.5059   23.6928 H   0  0  0  0  0  0  0  0  0  0  0  0
   19.7906   19.3883   24.9508 H   0  0  0  0  0  0  0  0  0  0  0  0
   21.4303   20.4216   23.9888 C   0  0  0  0  0  0  0  0  0  0  0  0
   21.6725   20.9075   23.0355 H   0  0  0  0  0  0  0  0  0  0  0  0
   21.4627   21.1911   24.7710 H   0  0  0  0  0  0  0  0  0  0  0  0
   22.2125   19.6834   24.2085 H   0  0  0  0  0  0  0  0  0  0  0  0
  1  2  1  0  0  0  0
  1  3  2  0  0  0  0
  1  4  1  0  0  0  0
  4  5  1  0  0  0  0
  4  6  1  0  0  0  0
  4  7  1  0  0  0  0
  7  8  1  0  0  0  0
  7  9  1  0  0  0  0
  7 10  1  0  0  0  0
 10 11  1  0  0  0  0
 10 12  1  0  0  0  0
 10 13  1  0  0  0  0
 13 14  1  0  0  0  0
 13 15  1  0  0  0  0
 13 16  1  0  0  0  0
 16 17  1  0  0  0  0
 16 18  1  0  0  0  0
 16 19  1  0  0  0  0
M  END
> <VConfSearch Rank>
351

> <Conf_Id>
74

> <Delta U+W>
0.797

> <U+W>
-54.095

> <U>
8.869

> <W>
-62.964

> <W(PB)>
-65.046

> <W(SA)>
2.082

> <Valence>
7.469

> <Coulomb>
0.762

> <VdW>
0.639

> <VdW6>
-6.782

> <VdW12>
7.421

> <Bond>
0.141

> <Angle>
2.667

> <Pdih>
4.660

> <Idih>
0.001

> <Tether>
0.000

$$$$
VeraChem MOL file


 19 18  0  0  0  0  0  0  0  0999 V2000     
   18.6791   20.6779   20.3403 C   0  0  0  0  0  0  0  0  0  0  0  0
   18.0413   21.6962   20.5213 O   0  5  0  0  0  0  0  0  0  0  0  0
   19.2278   20.4061   19.2908 O   0  0  0  0  0  0  0  0  0  0  0  0
   18.8136   19.6970   21.4996 C   0  0  0  0  0  0  0  0  0  0  0  0
   18.8681   18.6870   21.0776 H   0  0  0  0  0  0  0  0  0  0  0  0
   17.8976   19.7507   22.1000 H   0  0  0  0  0  0  0  0  0  0  0  0
   20.0526   19.9824   22.3873 C   0  0  0  0  0  0  0  0  0  0  0  0
   20.9657   19.8883   21.7847 H   0  0  0  0  0  0  0  0  0  0  0  0
   20.0146   21.0291   22.7194 H   0  0  0  0  0  0  0  0  0  0  0  0
   20.1417   19.0717   23.6376 C   0  0  0  0  0  0  0  0  0  0  0  0
   19.2675   19.2578   24.2763 H   0  0  0  0  0  0  0  0  0  0  0  0
   21.0182   19.3697   24.2290 H   0  0  0  0  0  0  0  0  0  0  0  0
   20.2294   17.5539   23.3434 C   0  0  0  0  0  0  0  0  0  0  0  0
   20.2725   17.0145   24.2996 H   0  0  0  0  0  0  0  0  0  0  0  0
   19.3141   17.2110   22.8432 H   0  0  0  0  0  0  0  0  0  0  0  0
   21.4615   17.1650   22.4984 C   0  0  0  0  0  0  0  0  0  0  0  0
   22.3881   17.5185   22.9689 H   0  0  0  0  0  0  0  0  0  0  0  0
   21.5283   16.0742   22.3960 H   0  0  0  0  0  0  0  0  0  0  0  0
   21.4029   17.5908   21.4887 H   0  0  0  0  0  0  0  0  0  0  0  0
  1  2  1  0  0  0  0
  1  3  2  0  0  0  0
  1  4  1  0  0  0  0
  4  5  1  0  0  0  0
  4  6  1  0  0  0  0
  4  7  1  0  0  0  0
  7  8  1  0  0  0  0
  7  9  1  0  0  0  0
  7 10  1  0  0  0  0
 10 11  1  0  0  0  0
 10 12  1  0  0  0  0
 10 13  1  0  0  0  0
 13 14  1  0  0  0  0
 13 15  1  0  0  0  0
 13 16  1  0  0  0  0
 16 17  1  0  0  0  0
 16 18  1  0  0  0  0
 16 19  1  0  0  0  0
M  END
> <VConfSearch Rank>
352

> <Conf_Id>
67

> <Delta U+W>
0.308

> <U+W>
-54.583

> <U>
8.219

> <W>
-62.802

> <W(PB)>
-64.859

> <W(SA)>
2.057

> <Valence>
7.609

> <Coulomb>
-0.089

> <VdW>
0.699

> <VdW6>
-6.924

> <VdW12>
7.623

> <Bond>
0.163

> <Angle>
2.870

> <Pdih>
4.576

> <Idih>
0.001

> <Tether>
0.000

$$$$
VeraChem MOL file


 19 18  0  0  0  0  0  0  0  0999 V2000     
   20.8114   16.8875   20.3667 C   0  0  0  0  0  0  0  0  0  0  0  0
   21.8746   16.3077   20.2679 O   0  5  0  0  0  0  0  0  0  0  0  0
   20.0275   17.0151   19.4471 O   0  0  0  0  0  0  0  0  0  0  0  0
   20.4507   17.5055   21.7129 C   0  0  0  0  0  0  0  0  0  0  0  0
   20.8872   16.8821   22.5023 H   0  0  0  0  0  0  0  0  0  0  0  0
   19.3614   17.4548   21.8222 H   0  0  0  0  0  0  0  0  0  0  0  0
   20.9433   18.9691   21.8533 C   0  0  0  0  0  0  0  0  0  0  0  0
   22.0224   18.9989   21.6483 H   0  0  0  0  0  0  0  0  0  0  0  0
   20.4706   19.5913   21.0818 H   0  0  0  0  0  0  0  0  0  0  0  0
   20.6914   19.5754   23.2567 C   0  0  0  0  0  0  0  0  0  0  0  0
   21.1083   20.5915   23.2818 H   0  0  0  0  0  0  0  0  0  0  0  0
   21.2566   18.9975   24.0006 H   0  0  0  0  0  0  0  0  0  0  0  0
   19.2070   19.6329   23.6939 C   0  0  0  0  0  0  0  0  0  0  0  0
   18.7966   18.6179   23.7776 H   0  0  0  0  0  0  0  0  0  0  0  0
   19.1564   20.0644   24.7030 H   0  0  0  0  0  0  0  0  0  0  0  0
   18.3235   20.4754   22.7490 C   0  0  0  0  0  0  0  0  0  0  0  0
   18.2516   20.0159   21.7550 H   0  0  0  0  0  0  0  0  0  0  0  0
   17.3053   20.5614   23.1500 H   0  0  0  0  0  0  0  0  0  0  0  0
   18.7283   21.4891   22.6323 H   0  0  0  0  0  0  0  0  0  0  0  0
  1  2  1  0  0  0  0
  1  3  2  0  0  0  0
  1  4  1  0  0  0  0
  4  5  1  0  0  0  0
  4  6  1  0  0  0  0
  4  7  1  0  0  0  0
  7  8  1  0  0  0  0
  7  9  1  0  0  0  0
  7 10  1  0  0  0  0
 10 11  1  0  0  0  0
 10 12  1  0  0  0  0
 10 13  1  0  0  0  0
 13 14  1  0  0  0  0
 13 15  1  0  0  0  0
 13 16  1  0  0  0  0
 16 17  1  0  0  0  0
 16 18  1  0  0  0  0
 16 19  1  0  0  0  0
M  END
> <VConfSearch Rank>
353

> <Conf_Id>
21

> <Delta U+W>
0.319

> <U+W>
-54.572

> <U>
8.220

> <W>
-62.792

> <W(PB)>
-64.830

> <W(SA)>
2.038

> <Valence>
7.609

> <Coulomb>
-0.088

> <VdW>
0.699

> <VdW6>
-6.924

> <VdW12>
7.623

> <Bond>
0.163

> <Angle>
2.870

> <Pdih>
4.576

> <Idih>
0.000

> <Tether>
0.000

$$$$
VeraChem MOL file


 19 18  0  0  0  0  0  0  0  0999 V2000     
   18.8360   21.4678   23.0722 C   0  0  0  0  0  0  0  0  0  0  0  0
   18.6794   21.9699   24.1676 O   0  5  0  0  0  0  0  0  0  0  0  0
   18.8873   22.1077   22.0406 O   0  0  0  0  0  0  0  0  0  0  0  0
   18.9951   19.9539   22.9903 C   0  0  0  0  0  0  0  0  0  0  0  0
   18.5687   19.6225   22.0383 H   0  0  0  0  0  0  0  0  0  0  0  0
   18.3867   19.5064   23.7853 H   0  0  0  0  0  0  0  0  0  0  0  0
   20.4712   19.4965   23.1299 C   0  0  0  0  0  0  0  0  0  0  0  0
   21.0935   19.9893   22.3702 H   0  0  0  0  0  0  0  0  0  0  0  0
   20.8424   19.8465   24.1031 H   0  0  0  0  0  0  0  0  0  0  0  0
   20.6503   17.9589   23.0552 C   0  0  0  0  0  0  0  0  0  0  0  0
   19.7522   17.4519   23.4338 H   0  0  0  0  0  0  0  0  0  0  0  0
   21.4629   17.6763   23.7384 H   0  0  0  0  0  0  0  0  0  0  0  0
   21.0144   17.4180   21.6506 C   0  0  0  0  0  0  0  0  0  0  0  0
   21.9617   17.8645   21.3183 H   0  0  0  0  0  0  0  0  0  0  0  0
   21.1954   16.3372   21.7299 H   0  0  0  0  0  0  0  0  0  0  0  0
   19.9315   17.6598   20.5789 C   0  0  0  0  0  0  0  0  0  0  0  0
   20.1914   17.1409   19.6473 H   0  0  0  0  0  0  0  0  0  0  0  0
   18.9549   17.2865   20.9136 H   0  0  0  0  0  0  0  0  0  0  0  0
   19.8370   18.7278   20.3462 H   0  0  0  0  0  0  0  0  0  0  0  0
  1  2  1  0  0  0  0
  1  3  2  0  0  0  0
  1  4  1  0  0  0  0
  4  5  1  0  0  0  0
  4  6  1  0  0  0  0
  4  7  1  0  0  0  0
  7  8  1  0  0  0  0
  7  9  1  0  0  0  0
  7 10  1  0  0  0  0
 10 11  1  0  0  0  0
 10 12  1  0  0  0  0
 10 13  1  0  0  0  0
 13 14  1  0  0  0  0
 13 15  1  0  0  0  0
 13 16  1  0  0  0  0
 16 17  1  0  0  0  0
 16 18  1  0  0  0  0
 16 19  1  0  0  0  0
M  END
> <VConfSearch Rank>
354

> <Conf_Id>
24

> <Delta U+W>
2.477

> <U+W>
-52.414

> <U>
10.422

> <W>
-62.836

> <W(PB)>
-64.906

> <W(SA)>
2.070

> <Valence>
9.628

> <Coulomb>
0.101

> <VdW>
0.693

> <VdW6>
-6.927

> <VdW12>
7.620

> <Bond>
0.173

> <Angle>
2.989

> <Pdih>
6.465

> <Idih>
0.001

> <Tether>
0.000

$$$$
VeraChem MOL file


 19 18  0  0  0  0  0  0  0  0999 V2000     
   17.4934   20.0030   21.9409 C   0  0  0  0  0  0  0  0  0  0  0  0
   17.6060   20.9823   22.6515 O   0  5  0  0  0  0  0  0  0  0  0  0
   16.8075   19.9774   20.9380 O   0  0  0  0  0  0  0  0  0  0  0  0
   18.2282   18.7266   22.3425 C   0  0  0  0  0  0  0  0  0  0  0  0
   17.5033   17.9060   22.2906 H   0  0  0  0  0  0  0  0  0  0  0  0
   18.5263   18.8155   23.3920 H   0  0  0  0  0  0  0  0  0  0  0  0
   19.4491   18.3909   21.4415 C   0  0  0  0  0  0  0  0  0  0  0  0
   19.7987   17.3715   21.6534 H   0  0  0  0  0  0  0  0  0  0  0  0
   19.1080   18.3820   20.3970 H   0  0  0  0  0  0  0  0  0  0  0  0
   20.6301   19.3877   21.5728 C   0  0  0  0  0  0  0  0  0  0  0  0
   20.2611   20.3903   21.8288 H   0  0  0  0  0  0  0  0  0  0  0  0
   21.1025   19.4878   20.5861 H   0  0  0  0  0  0  0  0  0  0  0  0
   21.7302   18.9573   22.5740 C   0  0  0  0  0  0  0  0  0  0  0  0
   22.1579   17.9948   22.2612 H   0  0  0  0  0  0  0  0  0  0  0  0
   22.5495   19.6878   22.5258 H   0  0  0  0  0  0  0  0  0  0  0  0
   21.2477   18.8530   24.0355 C   0  0  0  0  0  0  0  0  0  0  0  0
   20.5487   18.0172   24.1624 H   0  0  0  0  0  0  0  0  0  0  0  0
   22.0969   18.6788   24.7087 H   0  0  0  0  0  0  0  0  0  0  0  0
   20.7478   19.7780   24.3518 H   0  0  0  0  0  0  0  0  0  0  0  0
  1  2  1  0  0  0  0
  1  3  2  0  0  0  0
  1  4  1  0  0  0  0
  4  5  1  0  0  0  0
  4  6  1  0  0  0  0
  4  7  1  0  0  0  0
  7  8  1  0  0  0  0
  7  9  1  0  0  0  0
  7 10  1  0  0  0  0
 10 11  1  0  0  0  0
 10 12  1  0  0  0  0
 10 13  1  0  0  0  0
 13 14  1  0  0  0  0
 13 15  1  0  0  0  0
 13 16  1  0  0  0  0
 16 17  1  0  0  0  0
 16 18  1  0  0  0  0
 16 19  1  0  0  0  0
M  END
> <VConfSearch Rank>
355

> <Conf_Id>
4

> <Delta U+W>
3.753

> <U+W>
-51.138

> <U>
12.334

> <W>
-63.472

> <W(PB)>
-65.500

> <W(SA)>
2.028

> <Valence>
9.984

> <Coulomb>
1.767

> <VdW>
0.583

> <VdW6>
-7.767

> <VdW12>
8.349

> <Bond>
0.203

> <Angle>
3.191

> <Pdih>
6.589

> <Idih>
0.001

> <Tether>
0.000

$$$$
VeraChem MOL file


 19 18  0  0  0  0  0  0  0  0999 V2000     
   17.9490   20.4312   23.1617 C   0  0  0  0  0  0  0  0  0  0  0  0
   17.7106   21.5967   22.9131 O   0  5  0  0  0  0  0  0  0  0  0  0
   17.1013   19.5605   23.1708 O   0  0  0  0  0  0  0  0  0  0  0  0
   19.3855   20.0490   23.5089 C   0  0  0  0  0  0  0  0  0  0  0  0
   19.3734   19.0708   24.0001 H   0  0  0  0  0  0  0  0  0  0  0  0
   19.7410   20.7700   24.2542 H   0  0  0  0  0  0  0  0  0  0  0  0
   20.3512   20.0508   22.2914 C   0  0  0  0  0  0  0  0  0  0  0  0
   20.2726   21.0291   21.7971 H   0  0  0  0  0  0  0  0  0  0  0  0
   21.3896   19.9717   22.6402 H   0  0  0  0  0  0  0  0  0  0  0  0
   20.0626   18.9397   21.2485 C   0  0  0  0  0  0  0  0  0  0  0  0
   20.2878   19.3418   20.2514 H   0  0  0  0  0  0  0  0  0  0  0  0
   18.9922   18.6931   21.2349 H   0  0  0  0  0  0  0  0  0  0  0  0
   20.9003   17.6501   21.4303 C   0  0  0  0  0  0  0  0  0  0  0  0
   20.6775   16.9701   20.5966 H   0  0  0  0  0  0  0  0  0  0  0  0
   21.9697   17.8906   21.3533 H   0  0  0  0  0  0  0  0  0  0  0  0
   20.6363   16.9076   22.7565 C   0  0  0  0  0  0  0  0  0  0  0  0
   19.5635   16.7200   22.8955 H   0  0  0  0  0  0  0  0  0  0  0  0
   21.1540   15.9398   22.7643 H   0  0  0  0  0  0  0  0  0  0  0  0
   21.0037   17.4857   23.6133 H   0  0  0  0  0  0  0  0  0  0  0  0
  1  2  1  0  0  0  0
  1  3  2  0  0  0  0
  1  4  1  0  0  0  0
  4  5  1  0  0  0  0
  4  6  1  0  0  0  0
  4  7  1  0  0  0  0
  7  8  1  0  0  0  0
  7  9  1  0  0  0  0
  7 10  1  0  0  0  0
 10 11  1  0  0  0  0
 10 12  1  0  0  0  0
 10 13  1  0  0  0  0
 13 14  1  0  0  0  0
 13 15  1  0  0  0  0
 13 16  1  0  0  0  0
 16 17  1  0  0  0  0
 16 18  1  0  0  0  0
 16 19  1  0  0  0  0
M  END
> <VConfSearch Rank>
356

> <Conf_Id>
73

> <Delta U+W>
3.707

> <U+W>
-51.184

> <U>
12.334

> <W>
-63.519

> <W(PB)>
-65.541

> <W(SA)>
2.022

> <Valence>
9.984

> <Coulomb>
1.768

> <VdW>
0.583

> <VdW6>
-7.767

> <VdW12>
8.350

> <Bond>
0.203

> <Angle>
3.192

> <Pdih>
6.589

> <Idih>
0.001

> <Tether>
0.000

$$$$
VeraChem MOL file


 19 18  0  0  0  0  0  0  0  0999 V2000     
   17.4668   19.8103   23.0200 C   0  0  0  0  0  0  0  0  0  0  0  0
   16.9140   18.7398   22.8611 O   0  5  0  0  0  0  0  0  0  0  0  0
   17.1346   20.6182   23.8650 O   0  0  0  0  0  0  0  0  0  0  0  0
   18.6195   20.1762   22.0890 C   0  0  0  0  0  0  0  0  0  0  0  0
   18.4136   21.1772   21.6924 H   0  0  0  0  0  0  0  0  0  0  0  0
   18.6089   19.4942   21.2311 H   0  0  0  0  0  0  0  0  0  0  0  0
   20.0140   20.1716   22.7728 C   0  0  0  0  0  0  0  0  0  0  0  0
   20.7698   20.5158   22.0551 H   0  0  0  0  0  0  0  0  0  0  0  0
   20.0100   20.9119   23.5846 H   0  0  0  0  0  0  0  0  0  0  0  0
   20.4367   18.7986   23.3563 C   0  0  0  0  0  0  0  0  0  0  0  0
   19.7401   18.5208   24.1592 H   0  0  0  0  0  0  0  0  0  0  0  0
   21.4200   18.9064   23.8340 H   0  0  0  0  0  0  0  0  0  0  0  0
   20.5019   17.6389   22.3326 C   0  0  0  0  0  0  0  0  0  0  0  0
   20.7932   16.7215   22.8621 H   0  0  0  0  0  0  0  0  0  0  0  0
   19.5033   17.4448   21.9184 H   0  0  0  0  0  0  0  0  0  0  0  0
   21.5043   17.8904   21.1856 C   0  0  0  0  0  0  0  0  0  0  0  0
   21.1893   18.7338   20.5585 H   0  0  0  0  0  0  0  0  0  0  0  0
   22.5055   18.1081   21.5797 H   0  0  0  0  0  0  0  0  0  0  0  0
   21.5792   17.0056   20.5403 H   0  0  0  0  0  0  0  0  0  0  0  0
  1  2  1  0  0  0  0
  1  3  2  0  0  0  0
  1  4  1  0  0  0  0
  4  5  1  0  0  0  0
  4  6  1  0  0  0  0
  4  7  1  0  0  0  0
  7  8  1  0  0  0  0
  7  9  1  0  0  0  0
  7 10  1  0  0  0  0
 10 11  1  0  0  0  0
 10 12  1  0  0  0  0
 10 13  1  0  0  0  0
 13 14  1  0  0  0  0
 13 15  1  0  0  0  0
 13 16  1  0  0  0  0
 16 17  1  0  0  0  0
 16 18  1  0  0  0  0
 16 19  1  0  0  0  0
M  END
> <VConfSearch Rank>
357

> <Conf_Id>
56

> <Delta U+W>
1.735

> <U+W>
-53.156

> <U>
10.214

> <W>
-63.370

> <W(PB)>
-65.388

> <W(SA)>
2.018

> <Valence>
7.868

> <Coulomb>
1.968

> <VdW>
0.378

> <VdW6>
-8.067

> <VdW12>
8.445

> <Bond>
0.191

> <Angle>
3.117

> <Pdih>
4.559

> <Idih>
0.001

> <Tether>
0.000

$$$$
VeraChem MOL file


 19 18  0  0  0  0  0  0  0  0999 V2000     
   18.2101   17.6295   24.2436 C   0  0  0  0  0  0  0  0  0  0  0  0
   17.6177   18.2351   25.1146 O   0  5  0  0  0  0  0  0  0  0  0  0
   18.3045   16.4185   24.2124 O   0  0  0  0  0  0  0  0  0  0  0  0
   18.8901   18.4343   23.1417 C   0  0  0  0  0  0  0  0  0  0  0  0
   18.3068   19.3480   22.9765 H   0  0  0  0  0  0  0  0  0  0  0  0
   18.8433   17.8414   22.2214 H   0  0  0  0  0  0  0  0  0  0  0  0
   20.3602   18.7903   23.4777 C   0  0  0  0  0  0  0  0  0  0  0  0
   20.3903   19.2571   24.4720 H   0  0  0  0  0  0  0  0  0  0  0  0
   20.9478   17.8650   23.5548 H   0  0  0  0  0  0  0  0  0  0  0  0
   21.0328   19.7503   22.4646 C   0  0  0  0  0  0  0  0  0  0  0  0
   22.0433   19.9678   22.8367 H   0  0  0  0  0  0  0  0  0  0  0  0
   20.5060   20.7143   22.4513 H   0  0  0  0  0  0  0  0  0  0  0  0
   21.1595   19.1885   21.0268 C   0  0  0  0  0  0  0  0  0  0  0  0
   22.1050   19.5434   20.5938 H   0  0  0  0  0  0  0  0  0  0  0  0
   21.2272   18.0921   21.0504 H   0  0  0  0  0  0  0  0  0  0  0  0
   20.0116   19.6347   20.0940 C   0  0  0  0  0  0  0  0  0  0  0  0
   20.1562   19.2261   19.0856 H   0  0  0  0  0  0  0  0  0  0  0  0
   19.0349   19.2942   20.4556 H   0  0  0  0  0  0  0  0  0  0  0  0
   19.9795   20.7289   20.0110 H   0  0  0  0  0  0  0  0  0  0  0  0
  1  2  1  0  0  0  0
  1  3  2  0  0  0  0
  1  4  1  0  0  0  0
  4  5  1  0  0  0  0
  4  6  1  0  0  0  0
  4  7  1  0  0  0  0
  7  8  1  0  0  0  0
  7  9  1  0  0  0  0
  7 10  1  0  0  0  0
 10 11  1  0  0  0  0
 10 12  1  0  0  0  0
 10 13  1  0  0  0  0
 13 14  1  0  0  0  0
 13 15  1  0  0  0  0
 13 16  1  0  0  0  0
 16 17  1  0  0  0  0
 16 18  1  0  0  0  0
 16 19  1  0  0  0  0
M  END
> <VConfSearch Rank>
358

> <Conf_Id>
53

> <Delta U+W>
2.279

> <U+W>
-52.612

> <U>
10.231

> <W>
-62.843

> <W(PB)>
-64.893

> <W(SA)>
2.050

> <Valence>
9.644

> <Coulomb>
-0.164

> <VdW>
0.751

> <VdW6>
-6.881

> <VdW12>
7.631

> <Bond>
0.163

> <Angle>
2.998

> <Pdih>
6.482

> <Idih>
0.001

> <Tether>
0.000

$$$$
VeraChem MOL file


 19 18  0  0  0  0  0  0  0  0999 V2000     
   18.0303   19.1035   23.6205 C   0  0  0  0  0  0  0  0  0  0  0  0
   17.7852   17.9626   23.9599 O   0  5  0  0  0  0  0  0  0  0  0  0
   17.2889   19.7689   22.9242 O   0  0  0  0  0  0  0  0  0  0  0  0
   19.3034   19.7565   24.1557 C   0  0  0  0  0  0  0  0  0  0  0  0
   19.8238   19.0432   24.8063 H   0  0  0  0  0  0  0  0  0  0  0  0
   18.9791   20.5854   24.7955 H   0  0  0  0  0  0  0  0  0  0  0  0
   20.2746   20.3045   23.0724 C   0  0  0  0  0  0  0  0  0  0  0  0
   19.7094   20.8502   22.3041 H   0  0  0  0  0  0  0  0  0  0  0  0
   20.9298   21.0461   23.5489 H   0  0  0  0  0  0  0  0  0  0  0  0
   21.1774   19.2354   22.4087 C   0  0  0  0  0  0  0  0  0  0  0  0
   21.7447   18.6988   23.1815 H   0  0  0  0  0  0  0  0  0  0  0  0
   21.9192   19.7533   21.7853 H   0  0  0  0  0  0  0  0  0  0  0  0
   20.4120   18.2224   21.5292 C   0  0  0  0  0  0  0  0  0  0  0  0
   19.7583   17.5999   22.1535 H   0  0  0  0  0  0  0  0  0  0  0  0
   19.7652   18.7582   20.8208 H   0  0  0  0  0  0  0  0  0  0  0  0
   21.3777   17.3054   20.7517 C   0  0  0  0  0  0  0  0  0  0  0  0
   22.0189   16.7384   21.4392 H   0  0  0  0  0  0  0  0  0  0  0  0
   20.8184   16.5866   20.1389 H   0  0  0  0  0  0  0  0  0  0  0  0
   22.0233   17.8901   20.0834 H   0  0  0  0  0  0  0  0  0  0  0  0
  1  2  1  0  0  0  0
  1  3  2  0  0  0  0
  1  4  1  0  0  0  0
  4  5  1  0  0  0  0
  4  6  1  0  0  0  0
  4  7  1  0  0  0  0
  7  8  1  0  0  0  0
  7  9  1  0  0  0  0
  7 10  1  0  0  0  0
 10 11  1  0  0  0  0
 10 12  1  0  0  0  0
 10 13  1  0  0  0  0
 13 14  1  0  0  0  0
 13 15  1  0  0  0  0
 13 16  1  0  0  0  0
 16 17  1  0  0  0  0
 16 18  1  0  0  0  0
 16 19  1  0  0  0  0
M  END
> <VConfSearch Rank>
359

> <Conf_Id>
25

> <Delta U+W>
2.065

> <U+W>
-52.826

> <U>
10.967

> <W>
-63.794

> <W(PB)>
-65.830

> <W(SA)>
2.036

> <Valence>
8.609

> <Coulomb>
1.892

> <VdW>
0.467

> <VdW6>
-7.569

> <VdW12>
8.036

> <Bond>
0.170

> <Angle>
3.195

> <Pdih>
5.237

> <Idih>
0.007

> <Tether>
0.000

$$$$
VeraChem MOL file


 19 18  0  0  0  0  0  0  0  0999 V2000     
   18.7830   16.9062   21.9455 C   0  0  0  0  0  0  0  0  0  0  0  0
   17.6093   17.2199   21.9807 O   0  5  0  0  0  0  0  0  0  0  0  0
   19.2626   16.0292   22.6368 O   0  0  0  0  0  0  0  0  0  0  0  0
   19.6897   17.6005   20.9310 C   0  0  0  0  0  0  0  0  0  0  0  0
   19.2965   17.3445   19.9402 H   0  0  0  0  0  0  0  0  0  0  0  0
   20.6939   17.1636   20.9921 H   0  0  0  0  0  0  0  0  0  0  0  0
   19.7673   19.1479   21.0594 C   0  0  0  0  0  0  0  0  0  0  0  0
   20.1222   19.5500   20.1009 H   0  0  0  0  0  0  0  0  0  0  0  0
   18.7604   19.5626   21.2067 H   0  0  0  0  0  0  0  0  0  0  0  0
   20.7203   19.6608   22.1673 C   0  0  0  0  0  0  0  0  0  0  0  0
   20.8134   20.7503   22.0610 H   0  0  0  0  0  0  0  0  0  0  0  0
   21.7263   19.2484   22.0100 H   0  0  0  0  0  0  0  0  0  0  0  0
   20.2471   19.3419   23.6026 C   0  0  0  0  0  0  0  0  0  0  0  0
   19.2043   19.6633   23.7311 H   0  0  0  0  0  0  0  0  0  0  0  0
   20.2731   18.2585   23.7758 H   0  0  0  0  0  0  0  0  0  0  0  0
   21.1328   20.0356   24.6572 C   0  0  0  0  0  0  0  0  0  0  0  0
   20.7888   19.7921   25.6709 H   0  0  0  0  0  0  0  0  0  0  0  0
   22.1777   19.7110   24.5666 H   0  0  0  0  0  0  0  0  0  0  0  0
   21.1009   21.1269   24.5418 H   0  0  0  0  0  0  0  0  0  0  0  0
  1  2  1  0  0  0  0
  1  3  2  0  0  0  0
  1  4  1  0  0  0  0
  4  5  1  0  0  0  0
  4  6  1  0  0  0  0
  4  7  1  0  0  0  0
  7  8  1  0  0  0  0
  7  9  1  0  0  0  0
  7 10  1  0  0  0  0
 10 11  1  0  0  0  0
 10 12  1  0  0  0  0
 10 13  1  0  0  0  0
 13 14  1  0  0  0  0
 13 15  1  0  0  0  0
 13 16  1  0  0  0  0
 16 17  1  0  0  0  0
 16 18  1  0  0  0  0
 16 19  1  0  0  0  0
M  END
> <VConfSearch Rank>
360

> <Conf_Id>
52

> <Delta U+W>
2.070

> <U+W>
-52.822

> <U>
10.967

> <W>
-63.789

> <W(PB)>
-65.837

> <W(SA)>
2.048

> <Valence>
8.609

> <Coulomb>
1.892

> <VdW>
0.467

> <VdW6>
-7.569

> <VdW12>
8.035

> <Bond>
0.170

> <Angle>
3.196

> <Pdih>
5.237

> <Idih>
0.007

> <Tether>
0.000

$$$$
VeraChem MOL file


 19 18  0  0  0  0  0  0  0  0999 V2000     
   18.4438   17.5542   21.6637 C   0  0  0  0  0  0  0  0  0  0  0  0
   17.6540   18.2306   21.0338 O   0  5  0  0  0  0  0  0  0  0  0  0
   19.0523   16.6197   21.1809 O   0  0  0  0  0  0  0  0  0  0  0  0
   18.5899   17.8037   23.1656 C   0  0  0  0  0  0  0  0  0  0  0  0
   19.4393   17.2222   23.5436 H   0  0  0  0  0  0  0  0  0  0  0  0
   17.6915   17.3825   23.6312 H   0  0  0  0  0  0  0  0  0  0  0  0
   18.7257   19.2930   23.5934 C   0  0  0  0  0  0  0  0  0  0  0  0
   18.0378   19.9167   23.0060 H   0  0  0  0  0  0  0  0  0  0  0  0
   18.3871   19.3768   24.6348 H   0  0  0  0  0  0  0  0  0  0  0  0
   20.1598   19.8774   23.5217 C   0  0  0  0  0  0  0  0  0  0  0  0
   20.8280   19.3148   24.1880 H   0  0  0  0  0  0  0  0  0  0  0  0
   20.1215   20.8956   23.9324 H   0  0  0  0  0  0  0  0  0  0  0  0
   20.7630   19.9581   22.0984 C   0  0  0  0  0  0  0  0  0  0  0  0
   19.9652   19.9649   21.3428 H   0  0  0  0  0  0  0  0  0  0  0  0
   21.2914   20.9154   21.9910 H   0  0  0  0  0  0  0  0  0  0  0  0
   21.7663   18.8211   21.8094 C   0  0  0  0  0  0  0  0  0  0  0  0
   22.6195   18.8674   22.4986 H   0  0  0  0  0  0  0  0  0  0  0  0
   21.2984   17.8355   21.9158 H   0  0  0  0  0  0  0  0  0  0  0  0
   22.1542   18.9006   20.7857 H   0  0  0  0  0  0  0  0  0  0  0  0
  1  2  1  0  0  0  0
  1  3  2  0  0  0  0
  1  4  1  0  0  0  0
  4  5  1  0  0  0  0
  4  6  1  0  0  0  0
  4  7  1  0  0  0  0
  7  8  1  0  0  0  0
  7  9  1  0  0  0  0
  7 10  1  0  0  0  0
 10 11  1  0  0  0  0
 10 12  1  0  0  0  0
 10 13  1  0  0  0  0
 13 14  1  0  0  0  0
 13 15  1  0  0  0  0
 13 16  1  0  0  0  0
 16 17  1  0  0  0  0
 16 18  1  0  0  0  0
 16 19  1  0  0  0  0
M  END
> <VConfSearch Rank>
361

> <Conf_Id>
66

> <Delta U+W>
5.819

> <U+W>
-49.072

> <U>
15.324

> <W>
-64.396

> <W(PB)>
-66.382

> <W(SA)>
1.986

> <Valence>
11.748

> <Coulomb>
3.201

> <VdW>
0.375

> <VdW6>
-8.854

> <VdW12>
9.229

> <Bond>
0.216

> <Angle>
3.812

> <Pdih>
7.699

> <Idih>
0.022

> <Tether>
0.000

$$$$
VeraChem MOL file


 19 18  0  0  0  0  0  0  0  0999 V2000     
   21.5801   18.0698   25.0331 C   0  0  0  0  0  0  0  0  0  0  0  0
   22.6949   17.9311   25.4952 O   0  5  0  0  0  0  0  0  0  0  0  0
   20.5666   17.8915   25.6806 O   0  0  0  0  0  0  0  0  0  0  0  0
   21.4798   18.4886   23.5654 C   0  0  0  0  0  0  0  0  0  0  0  0
   22.0156   17.7372   22.9735 H   0  0  0  0  0  0  0  0  0  0  0  0
   22.0266   19.4326   23.4564 H   0  0  0  0  0  0  0  0  0  0  0  0
   20.0362   18.6533   23.0201 C   0  0  0  0  0  0  0  0  0  0  0  0
   19.4920   17.7059   23.1375 H   0  0  0  0  0  0  0  0  0  0  0  0
   19.5029   19.4030   23.6210 H   0  0  0  0  0  0  0  0  0  0  0  0
   20.0282   19.0764   21.5351 C   0  0  0  0  0  0  0  0  0  0  0  0
   20.5619   18.3256   20.9362 H   0  0  0  0  0  0  0  0  0  0  0  0
   20.5728   20.0236   21.4200 H   0  0  0  0  0  0  0  0  0  0  0  0
   18.5922   19.2395   20.9949 C   0  0  0  0  0  0  0  0  0  0  0  0
   18.0446   18.2934   21.1066 H   0  0  0  0  0  0  0  0  0  0  0  0
   18.0555   19.9913   21.5902 H   0  0  0  0  0  0  0  0  0  0  0  0
   18.5880   19.6619   19.5122 C   0  0  0  0  0  0  0  0  0  0  0  0
   19.0915   18.9115   18.8886 H   0  0  0  0  0  0  0  0  0  0  0  0
   17.5596   19.7732   19.1446 H   0  0  0  0  0  0  0  0  0  0  0  0
   19.1026   20.6221   19.3758 H   0  0  0  0  0  0  0  0  0  0  0  0
  1  2  1  0  0  0  0
  1  3  2  0  0  0  0
  1  4  1  0  0  0  0
  4  5  1  0  0  0  0
  4  6  1  0  0  0  0
  4  7  1  0  0  0  0
  7  8  1  0  0  0  0
  7  9  1  0  0  0  0
  7 10  1  0  0  0  0
 10 11  1  0  0  0  0
 10 12  1  0  0  0  0
 10 13  1  0  0  0  0
 13 14  1  0  0  0  0
 13 15  1  0  0  0  0
 13 16  1  0  0  0  0
 16 17  1  0  0  0  0
 16 18  1  0  0  0  0
 16 19  1  0  0  0  0
M  END
> <VConfSearch Rank>
362

> <Conf_Id>
0

> <Delta U+W>
0.000

> <U+W>
-54.891

> <U>
6.966

> <W>
-61.857

> <W(PB)>
-63.965

> <W(SA)>
2.108

> <Valence>
7.175

> <Coulomb>
-1.360

> <VdW>
1.151

> <VdW6>
-5.641

> <VdW12>
6.792

> <Bond>
0.119

> <Angle>
2.715

> <Pdih>
4.340

> <Idih>
0.000

> <Tether>
0.000

$$$$
VeraChem MOL file


 19 18  0  0  0  0  0  0  0  0999 V2000     
   22.2006   21.4235   22.4754 C   0  0  0  0  0  0  0  0  0  0  0  0
   22.9739   21.2906   23.4030 O   0  5  0  0  0  0  0  0  0  0  0  0
   22.4788   22.0057   21.4459 O   0  0  0  0  0  0  0  0  0  0  0  0
   20.8115   20.8080   22.6019 C   0  0  0  0  0  0  0  0  0  0  0  0
   20.1076   21.4375   22.0443 H   0  0  0  0  0  0  0  0  0  0  0  0
   20.5159   20.8477   23.6573 H   0  0  0  0  0  0  0  0  0  0  0  0
   20.7496   19.3498   22.0844 C   0  0  0  0  0  0  0  0  0  0  0  0
   21.0604   19.3253   21.0306 H   0  0  0  0  0  0  0  0  0  0  0  0
   21.4688   18.7354   22.6436 H   0  0  0  0  0  0  0  0  0  0  0  0
   19.3337   18.7502   22.2237 C   0  0  0  0  0  0  0  0  0  0  0  0
   18.6168   19.3673   21.6647 H   0  0  0  0  0  0  0  0  0  0  0  0
   19.0254   18.7772   23.2779 H   0  0  0  0  0  0  0  0  0  0  0  0
   19.2749   17.2975   21.7073 C   0  0  0  0  0  0  0  0  0  0  0  0
   19.5809   17.2665   20.6523 H   0  0  0  0  0  0  0  0  0  0  0  0
   19.9893   16.6765   22.2654 H   0  0  0  0  0  0  0  0  0  0  0  0
   17.8598   16.7020   21.8478 C   0  0  0  0  0  0  0  0  0  0  0  0
   17.8360   15.6693   21.4761 H   0  0  0  0  0  0  0  0  0  0  0  0
   17.5406   16.6916   22.8982 H   0  0  0  0  0  0  0  0  0  0  0  0
   17.1290   17.2860   21.2731 H   0  0  0  0  0  0  0  0  0  0  0  0
  1  2  1  0  0  0  0
  1  3  2  0  0  0  0
  1  4  1  0  0  0  0
  4  5  1  0  0  0  0
  4  6  1  0  0  0  0
  4  7  1  0  0  0  0
  7  8  1  0  0  0  0
  7  9  1  0  0  0  0
  7 10  1  0  0  0  0
 10 11  1  0  0  0  0
 10 12  1  0  0  0  0
 10 13  1  0  0  0  0
 13 14  1  0  0  0  0
 13 15  1  0  0  0  0
 13 16  1  0  0  0  0
 16 17  1  0  0  0  0
 16 18  1  0  0  0  0
 16 19  1  0  0  0  0
M  END
> <VConfSearch Rank>
363

> <Conf_Id>
18

> <Delta U+W>
-1.199

> <U+W>
-56.090

> <U>
5.975

> <W>
-62.066

> <W(PB)>
-64.219

> <W(SA)>
2.153

> <Valence>
6.673

> <Coulomb>
-1.307

> <VdW>
0.610

> <VdW6>
-5.351

> <VdW12>
5.961

> <Bond>
0.086

> <Angle>
2.253

> <Pdih>
4.333

> <Idih>
0.001

> <Tether>
0.000

$$$$
VeraChem MOL file


 19 18  0  0  0  0  0  0  0  0999 V2000     
   23.1698   19.1588   21.8313 C   0  0  0  0  0  0  0  0  0  0  0  0
   23.9658   18.4401   22.4023 O   0  5  0  0  0  0  0  0  0  0  0  0
   23.4432   19.8156   20.8463 O   0  0  0  0  0  0  0  0  0  0  0  0
   21.7441   19.2235   22.3677 C   0  0  0  0  0  0  0  0  0  0  0  0
   21.3630   20.2337   22.1803 H   0  0  0  0  0  0  0  0  0  0  0  0
   21.7831   19.0866   23.4550 H   0  0  0  0  0  0  0  0  0  0  0  0
   20.8133   18.1607   21.7279 C   0  0  0  0  0  0  0  0  0  0  0  0
   20.7470   18.3351   20.6451 H   0  0  0  0  0  0  0  0  0  0  0  0
   21.2705   17.1696   21.8550 H   0  0  0  0  0  0  0  0  0  0  0  0
   19.3933   18.1337   22.3412 C   0  0  0  0  0  0  0  0  0  0  0  0
   19.4626   17.9507   23.4223 H   0  0  0  0  0  0  0  0  0  0  0  0
   18.8462   17.2810   21.9162 H   0  0  0  0  0  0  0  0  0  0  0  0
   18.5875   19.4265   22.0824 C   0  0  0  0  0  0  0  0  0  0  0  0
   19.0785   20.2818   22.5649 H   0  0  0  0  0  0  0  0  0  0  0  0
   18.5613   19.6374   21.0044 H   0  0  0  0  0  0  0  0  0  0  0  0
   17.1457   19.3099   22.6163 C   0  0  0  0  0  0  0  0  0  0  0  0
   16.5875   20.2361   22.4278 H   0  0  0  0  0  0  0  0  0  0  0  0
   16.6103   18.4861   22.1263 H   0  0  0  0  0  0  0  0  0  0  0  0
   17.1418   19.1259   23.6987 H   0  0  0  0  0  0  0  0  0  0  0  0
  1  2  1  0  0  0  0
  1  3  2  0  0  0  0
  1  4  1  0  0  0  0
  4  5  1  0  0  0  0
  4  6  1  0  0  0  0
  4  7  1  0  0  0  0
  7  8  1  0  0  0  0
  7  9  1  0  0  0  0
  7 10  1  0  0  0  0
 10 11  1  0  0  0  0
 10 12  1  0  0  0  0
 10 13  1  0  0  0  0
 13 14  1  0  0  0  0
 13 15  1  0  0  0  0
 13 16  1  0  0  0  0
 16 17  1  0  0  0  0
 16 18  1  0  0  0  0
 16 19  1  0  0  0  0
M  END
> <VConfSearch Rank>
364

> <Conf_Id>
34

> <Delta U+W>
-0.563

> <U+W>
-55.455

> <U>
6.914

> <W>
-62.369

> <W(PB)>
-64.446

> <W(SA)>
2.077

> <Valence>
7.196

> <Coulomb>
-1.020

> <VdW>
0.738

> <VdW6>
-6.010

> <VdW12>
6.748

> <Bond>
0.126

> <Angle>
2.499

> <Pdih>
4.570

> <Idih>
0.001

> <Tether>
0.000

$$$$
VeraChem MOL file


 19 18  0  0  0  0  0  0  0  0999 V2000     
   17.2488   18.0484   20.7248 C   0  0  0  0  0  0  0  0  0  0  0  0
   17.2043   17.2712   19.7919 O   0  5  0  0  0  0  0  0  0  0  0  0
   16.3490   18.8155   21.0042 O   0  0  0  0  0  0  0  0  0  0  0  0
   18.5120   18.0779   21.5779 C   0  0  0  0  0  0  0  0  0  0  0  0
   18.9337   17.0658   21.5966 H   0  0  0  0  0  0  0  0  0  0  0  0
   18.2159   18.3260   22.6034 H   0  0  0  0  0  0  0  0  0  0  0  0
   19.5666   19.0871   21.0541 C   0  0  0  0  0  0  0  0  0  0  0  0
   19.7724   18.8653   19.9977 H   0  0  0  0  0  0  0  0  0  0  0  0
   19.1482   20.1027   21.0820 H   0  0  0  0  0  0  0  0  0  0  0  0
   20.9003   19.0492   21.8373 C   0  0  0  0  0  0  0  0  0  0  0  0
   21.6220   19.7030   21.3285 H   0  0  0  0  0  0  0  0  0  0  0  0
   21.3203   18.0347   21.8003 H   0  0  0  0  0  0  0  0  0  0  0  0
   20.7623   19.5026   23.3080 C   0  0  0  0  0  0  0  0  0  0  0  0
   20.2952   20.4963   23.3473 H   0  0  0  0  0  0  0  0  0  0  0  0
   20.1030   18.8163   23.8555 H   0  0  0  0  0  0  0  0  0  0  0  0
   22.1318   19.5524   24.0146 C   0  0  0  0  0  0  0  0  0  0  0  0
   22.6098   18.5640   24.0141 H   0  0  0  0  0  0  0  0  0  0  0  0
   22.8065   20.2601   23.5152 H   0  0  0  0  0  0  0  0  0  0  0  0
   22.0169   19.8730   25.0582 H   0  0  0  0  0  0  0  0  0  0  0  0
  1  2  1  0  0  0  0
  1  3  2  0  0  0  0
  1  4  1  0  0  0  0
  4  5  1  0  0  0  0
  4  6  1  0  0  0  0
  4  7  1  0  0  0  0
  7  8  1  0  0  0  0
  7  9  1  0  0  0  0
  7 10  1  0  0  0  0
 10 11  1  0  0  0  0
 10 12  1  0  0  0  0
 10 13  1  0  0  0  0
 13 14  1  0  0  0  0
 13 15  1  0  0  0  0
 13 16  1  0  0  0  0
 16 17  1  0  0  0  0
 16 18  1  0  0  0  0
 16 19  1  0  0  0  0
M  END
> <VConfSearch Rank>
365

> <Conf_Id>
33

> <Delta U+W>
-0.526

> <U+W>
-55.418

> <U>
6.914

> <W>
-62.332

> <W(PB)>
-64.421

> <W(SA)>
2.090

> <Valence>
7.196

> <Coulomb>
-1.020

> <VdW>
0.738

> <VdW6>
-6.010

> <VdW12>
6.748

> <Bond>
0.126

> <Angle>
2.499

> <Pdih>
4.570

> <Idih>
0.001

> <Tether>
0.000

$$$$
VeraChem MOL file


 19 18  0  0  0  0  0  0  0  0999 V2000     
   21.8239   20.0898   19.9834 C   0  0  0  0  0  0  0  0  0  0  0  0
   22.2979   21.1493   20.3423 O   0  5  0  0  0  0  0  0  0  0  0  0
   22.4243   19.2797   19.3054 O   0  0  0  0  0  0  0  0  0  0  0  0
   20.4039   19.7502   20.4224 C   0  0  0  0  0  0  0  0  0  0  0  0
   19.9380   19.1485   19.6326 H   0  0  0  0  0  0  0  0  0  0  0  0
   19.8363   20.6858   20.4946 H   0  0  0  0  0  0  0  0  0  0  0  0
   20.3558   18.9914   21.7716 C   0  0  0  0  0  0  0  0  0  0  0  0
   20.9360   18.0623   21.6861 H   0  0  0  0  0  0  0  0  0  0  0  0
   20.8436   19.6040   22.5413 H   0  0  0  0  0  0  0  0  0  0  0  0
   18.9050   18.6634   22.1936 C   0  0  0  0  0  0  0  0  0  0  0  0
   18.4121   18.1125   21.3808 H   0  0  0  0  0  0  0  0  0  0  0  0
   18.3382   19.5951   22.3267 H   0  0  0  0  0  0  0  0  0  0  0  0
   18.8177   17.8164   23.4841 C   0  0  0  0  0  0  0  0  0  0  0  0
   17.7697   17.5292   23.6471 H   0  0  0  0  0  0  0  0  0  0  0  0
   19.3789   16.8809   23.3529 H   0  0  0  0  0  0  0  0  0  0  0  0
   19.3302   18.5581   24.7375 C   0  0  0  0  0  0  0  0  0  0  0  0
   18.8033   19.5116   24.8728 H   0  0  0  0  0  0  0  0  0  0  0  0
   19.1658   17.9505   25.6369 H   0  0  0  0  0  0  0  0  0  0  0  0
   20.4055   18.7651   24.6690 H   0  0  0  0  0  0  0  0  0  0  0  0
  1  2  1  0  0  0  0
  1  3  2  0  0  0  0
  1  4  1  0  0  0  0
  4  5  1  0  0  0  0
  4  6  1  0  0  0  0
  4  7  1  0  0  0  0
  7  8  1  0  0  0  0
  7  9  1  0  0  0  0
  7 10  1  0  0  0  0
 10 11  1  0  0  0  0
 10 12  1  0  0  0  0
 10 13  1  0  0  0  0
 13 14  1  0  0  0  0
 13 15  1  0  0  0  0
 13 16  1  0  0  0  0
 16 17  1  0  0  0  0
 16 18  1  0  0  0  0
 16 19  1  0  0  0  0
M  END
> <VConfSearch Rank>
366

> <Conf_Id>
42

> <Delta U+W>
-0.344

> <U+W>
-55.236

> <U>
7.244

> <W>
-62.479

> <W(PB)>
-64.610

> <W(SA)>
2.130

> <Valence>
7.174

> <Coulomb>
-0.669

> <VdW>
0.739

> <VdW6>
-5.969

> <VdW12>
6.708

> <Bond>
0.116

> <Angle>
2.481

> <Pdih>
4.576

> <Idih>
0.000

> <Tether>
0.000

$$$$
VeraChem MOL file


 19 18  0  0  0  0  0  0  0  0999 V2000     
   22.8795   20.1417   23.0443 C   0  0  0  0  0  0  0  0  0  0  0  0
   23.7537   19.6237   22.3782 O   0  5  0  0  0  0  0  0  0  0  0  0
   23.0273   20.4800   24.2019 O   0  0  0  0  0  0  0  0  0  0  0  0
   21.5166   20.3629   22.3977 C   0  0  0  0  0  0  0  0  0  0  0  0
   21.6731   20.5559   21.3296 H   0  0  0  0  0  0  0  0  0  0  0  0
   21.0777   21.2701   22.8302 H   0  0  0  0  0  0  0  0  0  0  0  0
   20.5577   19.1616   22.5879 C   0  0  0  0  0  0  0  0  0  0  0  0
   21.0257   18.2630   22.1648 H   0  0  0  0  0  0  0  0  0  0  0  0
   20.4185   18.9752   23.6618 H   0  0  0  0  0  0  0  0  0  0  0  0
   19.1860   19.4116   21.9198 C   0  0  0  0  0  0  0  0  0  0  0  0
   19.3203   19.5493   20.8382 H   0  0  0  0  0  0  0  0  0  0  0  0
   18.7673   20.3519   22.3038 H   0  0  0  0  0  0  0  0  0  0  0  0
   18.1641   18.2794   22.1738 C   0  0  0  0  0  0  0  0  0  0  0  0
   18.0228   18.1425   23.2549 H   0  0  0  0  0  0  0  0  0  0  0  0
   17.1896   18.5870   21.7701 H   0  0  0  0  0  0  0  0  0  0  0  0
   18.5676   16.9361   21.5284 C   0  0  0  0  0  0  0  0  0  0  0  0
   19.4799   16.5308   21.9837 H   0  0  0  0  0  0  0  0  0  0  0  0
   17.7715   16.1922   21.6613 H   0  0  0  0  0  0  0  0  0  0  0  0
   18.7429   17.0547   20.4513 H   0  0  0  0  0  0  0  0  0  0  0  0
  1  2  1  0  0  0  0
  1  3  2  0  0  0  0
  1  4  1  0  0  0  0
  4  5  1  0  0  0  0
  4  6  1  0  0  0  0
  4  7  1  0  0  0  0
  7  8  1  0  0  0  0
  7  9  1  0  0  0  0
  7 10  1  0  0  0  0
 10 11  1  0  0  0  0
 10 12  1  0  0  0  0
 10 13  1  0  0  0  0
 13 14  1  0  0  0  0
 13 15  1  0  0  0  0
 13 16  1  0  0  0  0
 16 17  1  0  0  0  0
 16 18  1  0  0  0  0
 16 19  1  0  0  0  0
M  END
> <VConfSearch Rank>
367

> <Conf_Id>
41

> <Delta U+W>
-0.361

> <U+W>
-55.252

> <U>
7.244

> <W>
-62.496

> <W(PB)>
-64.596

> <W(SA)>
2.099

> <Valence>
7.174

> <Coulomb>
-0.669

> <VdW>
0.739

> <VdW6>
-5.969

> <VdW12>
6.708

> <Bond>
0.116

> <Angle>
2.481

> <Pdih>
4.576

> <Idih>
0.000

> <Tether>
0.000

$$$$
VeraChem MOL file


 19 18  0  0  0  0  0  0  0  0999 V2000     
   19.3664   16.1953   21.8724 C   0  0  0  0  0  0  0  0  0  0  0  0
   18.1524   16.1732   21.9204 O   0  5  0  0  0  0  0  0  0  0  0  0
   20.0113   15.7189   20.9593 O   0  0  0  0  0  0  0  0  0  0  0  0
   20.1251   16.8360   23.0312 C   0  0  0  0  0  0  0  0  0  0  0  0
   20.9364   16.1530   23.3096 H   0  0  0  0  0  0  0  0  0  0  0  0
   19.4540   16.9008   23.8964 H   0  0  0  0  0  0  0  0  0  0  0  0
   20.7139   18.2331   22.7049 C   0  0  0  0  0  0  0  0  0  0  0  0
   21.3541   18.5535   23.5380 H   0  0  0  0  0  0  0  0  0  0  0  0
   21.3608   18.1577   21.8197 H   0  0  0  0  0  0  0  0  0  0  0  0
   19.6201   19.2976   22.4646 C   0  0  0  0  0  0  0  0  0  0  0  0
   18.9684   19.3600   23.3469 H   0  0  0  0  0  0  0  0  0  0  0  0
   18.9855   18.9926   21.6211 H   0  0  0  0  0  0  0  0  0  0  0  0
   20.2280   20.6855   22.1731 C   0  0  0  0  0  0  0  0  0  0  0  0
   20.8606   20.9978   23.0155 H   0  0  0  0  0  0  0  0  0  0  0  0
   20.8785   20.6265   21.2894 H   0  0  0  0  0  0  0  0  0  0  0  0
   19.1341   21.7454   21.9339 C   0  0  0  0  0  0  0  0  0  0  0  0
   18.4870   21.8476   22.8149 H   0  0  0  0  0  0  0  0  0  0  0  0
   19.5836   22.7255   21.7277 H   0  0  0  0  0  0  0  0  0  0  0  0
   18.5050   21.4736   21.0761 H   0  0  0  0  0  0  0  0  0  0  0  0
  1  2  1  0  0  0  0
  1  3  2  0  0  0  0
  1  4  1  0  0  0  0
  4  5  1  0  0  0  0
  4  6  1  0  0  0  0
  4  7  1  0  0  0  0
  7  8  1  0  0  0  0
  7  9  1  0  0  0  0
  7 10  1  0  0  0  0
 10 11  1  0  0  0  0
 10 12  1  0  0  0  0
 10 13  1  0  0  0  0
 13 14  1  0  0  0  0
 13 15  1  0  0  0  0
 13 16  1  0  0  0  0
 16 17  1  0  0  0  0
 16 18  1  0  0  0  0
 16 19  1  0  0  0  0
M  END
> <VConfSearch Rank>
368

> <Conf_Id>
36

> <Delta U+W>
-0.079

> <U+W>
-54.971

> <U>
8.266

> <W>
-63.237

> <W(PB)>
-65.340

> <W(SA)>
2.103

> <Valence>
6.935

> <Coulomb>
0.874

> <VdW>
0.457

> <VdW6>
-6.205

> <VdW12>
6.662

> <Bond>
0.107

> <Angle>
2.420

> <Pdih>
4.407

> <Idih>
0.001

> <Tether>
0.000

$$$$
VeraChem MOL file


 19 18  0  0  0  0  0  0  0  0999 V2000     
   21.1980   19.4208   19.7221 C   0  0  0  0  0  0  0  0  0  0  0  0
   20.9596   18.3469   19.2060 O   0  5  0  0  0  0  0  0  0  0  0  0
   22.2926   19.9481   19.7010 O   0  0  0  0  0  0  0  0  0  0  0  0
   20.0572   20.1594   20.4166 C   0  0  0  0  0  0  0  0  0  0  0  0
   19.1051   19.7439   20.0646 H   0  0  0  0  0  0  0  0  0  0  0  0
   20.0907   21.2031   20.0824 H   0  0  0  0  0  0  0  0  0  0  0  0
   20.1228   20.1095   21.9653 C   0  0  0  0  0  0  0  0  0  0  0  0
   21.0927   20.5021   22.3012 H   0  0  0  0  0  0  0  0  0  0  0  0
   19.3524   20.7760   22.3762 H   0  0  0  0  0  0  0  0  0  0  0  0
   19.9135   18.6840   22.5233 C   0  0  0  0  0  0  0  0  0  0  0  0
   20.6910   18.0145   22.1301 H   0  0  0  0  0  0  0  0  0  0  0  0
   18.9488   18.2910   22.1742 H   0  0  0  0  0  0  0  0  0  0  0  0
   19.9513   18.6631   24.0657 C   0  0  0  0  0  0  0  0  0  0  0  0
   20.9163   19.0535   24.4176 H   0  0  0  0  0  0  0  0  0  0  0  0
   19.1728   19.3279   24.4648 H   0  0  0  0  0  0  0  0  0  0  0  0
   19.7421   17.2395   24.6193 C   0  0  0  0  0  0  0  0  0  0  0  0
   20.5260   16.5596   24.2606 H   0  0  0  0  0  0  0  0  0  0  0  0
   19.7724   17.2428   25.7167 H   0  0  0  0  0  0  0  0  0  0  0  0
   18.7696   16.8361   24.3081 H   0  0  0  0  0  0  0  0  0  0  0  0
  1  2  1  0  0  0  0
  1  3  2  0  0  0  0
  1  4  1  0  0  0  0
  4  5  1  0  0  0  0
  4  6  1  0  0  0  0
  4  7  1  0  0  0  0
  7  8  1  0  0  0  0
  7  9  1  0  0  0  0
  7 10  1  0  0  0  0
 10 11  1  0  0  0  0
 10 12  1  0  0  0  0
 10 13  1  0  0  0  0
 13 14  1  0  0  0  0
 13 15  1  0  0  0  0
 13 16  1  0  0  0  0
 16 17  1  0  0  0  0
 16 18  1  0  0  0  0
 16 19  1  0  0  0  0
M  END
> <VConfSearch Rank>
369

> <Conf_Id>
35

> <Delta U+W>
-0.030

> <U+W>
-54.921

> <U>
8.267

> <W>
-63.188

> <W(PB)>
-65.294

> <W(SA)>
2.106

> <Valence>
6.935

> <Coulomb>
0.875

> <VdW>
0.457

> <VdW6>
-6.205

> <VdW12>
6.662

> <Bond>
0.107

> <Angle>
2.420

> <Pdih>
4.407

> <Idih>
0.001

> <Tether>
0.000

$$$$
VeraChem MOL file


 19 18  0  0  0  0  0  0  0  0999 V2000     
   21.8263   18.2628   24.5768 C   0  0  0  0  0  0  0  0  0  0  0  0
   22.4168   19.2333   25.0083 O   0  5  0  0  0  0  0  0  0  0  0  0
   22.3655   17.2007   24.3363 O   0  0  0  0  0  0  0  0  0  0  0  0
   20.3222   18.3798   24.3458 C   0  0  0  0  0  0  0  0  0  0  0  0
   19.8917   18.8620   25.2313 H   0  0  0  0  0  0  0  0  0  0  0  0
   19.8955   17.3706   24.2952 H   0  0  0  0  0  0  0  0  0  0  0  0
   19.9371   19.1874   23.0788 C   0  0  0  0  0  0  0  0  0  0  0  0
   18.8513   19.3462   23.0839 H   0  0  0  0  0  0  0  0  0  0  0  0
   20.4037   20.1811   23.1250 H   0  0  0  0  0  0  0  0  0  0  0  0
   20.3523   18.4732   21.7703 C   0  0  0  0  0  0  0  0  0  0  0  0
   19.8545   17.4959   21.7078 H   0  0  0  0  0  0  0  0  0  0  0  0
   21.4316   18.2697   21.7969 H   0  0  0  0  0  0  0  0  0  0  0  0
   20.0425   19.2945   20.4974 C   0  0  0  0  0  0  0  0  0  0  0  0
   20.5409   20.2720   20.5561 H   0  0  0  0  0  0  0  0  0  0  0  0
   20.4759   18.7769   19.6305 H   0  0  0  0  0  0  0  0  0  0  0  0
   18.5315   19.4953   20.2510 C   0  0  0  0  0  0  0  0  0  0  0  0
   18.0755   20.1112   21.0360 H   0  0  0  0  0  0  0  0  0  0  0  0
   18.3635   20.0022   19.2920 H   0  0  0  0  0  0  0  0  0  0  0  0
   18.0070   18.5314   20.2201 H   0  0  0  0  0  0  0  0  0  0  0  0
  1  2  1  0  0  0  0
  1  3  2  0  0  0  0
  1  4  1  0  0  0  0
  4  5  1  0  0  0  0
  4  6  1  0  0  0  0
  4  7  1  0  0  0  0
  7  8  1  0  0  0  0
  7  9  1  0  0  0  0
  7 10  1  0  0  0  0
 10 11  1  0  0  0  0
 10 12  1  0  0  0  0
 10 13  1  0  0  0  0
 13 14  1  0  0  0  0
 13 15  1  0  0  0  0
 13 16  1  0  0  0  0
 16 17  1  0  0  0  0
 16 18  1  0  0  0  0
 16 19  1  0  0  0  0
M  END
> <VConfSearch Rank>
370

> <Conf_Id>
74

> <Delta U+W>
0.797

> <U+W>
-54.095

> <U>
8.869

> <W>
-62.964

> <W(PB)>
-65.046

> <W(SA)>
2.082

> <Valence>
7.469

> <Coulomb>
0.762

> <VdW>
0.639

> <VdW6>
-6.782

> <VdW12>
7.421

> <Bond>
0.141

> <Angle>
2.667

> <Pdih>
4.660

> <Idih>
0.001

> <Tether>
0.000

$$$$
VeraChem MOL file


 19 18  0  0  0  0  0  0  0  0999 V2000     
   18.0737   16.9120   23.2464 C   0  0  0  0  0  0  0  0  0  0  0  0
   18.2581   15.7377   23.4981 O   0  5  0  0  0  0  0  0  0  0  0  0
   17.1586   17.5631   23.7101 O   0  0  0  0  0  0  0  0  0  0  0  0
   19.0555   17.6109   22.3127 C   0  0  0  0  0  0  0  0  0  0  0  0
   18.5006   18.3750   21.7564 H   0  0  0  0  0  0  0  0  0  0  0  0
   19.4166   16.8749   21.5845 H   0  0  0  0  0  0  0  0  0  0  0  0
   20.2511   18.2487   23.0665 C   0  0  0  0  0  0  0  0  0  0  0  0
   19.8806   19.0107   23.7650 H   0  0  0  0  0  0  0  0  0  0  0  0
   20.7299   17.4770   23.6849 H   0  0  0  0  0  0  0  0  0  0  0  0
   21.3203   18.8606   22.1267 C   0  0  0  0  0  0  0  0  0  0  0  0
   21.7498   18.0609   21.5081 H   0  0  0  0  0  0  0  0  0  0  0  0
   22.1469   19.2478   22.7381 H   0  0  0  0  0  0  0  0  0  0  0  0
   20.8132   19.9909   21.1977 C   0  0  0  0  0  0  0  0  0  0  0  0
   21.6504   20.3323   20.5735 H   0  0  0  0  0  0  0  0  0  0  0  0
   20.0571   19.6008   20.5035 H   0  0  0  0  0  0  0  0  0  0  0  0
   20.2401   21.2019   21.9648 C   0  0  0  0  0  0  0  0  0  0  0  0
   20.9722   21.5949   22.6822 H   0  0  0  0  0  0  0  0  0  0  0  0
   19.9807   22.0100   21.2686 H   0  0  0  0  0  0  0  0  0  0  0  0
   19.3294   20.9313   22.5141 H   0  0  0  0  0  0  0  0  0  0  0  0
  1  2  1  0  0  0  0
  1  3  2  0  0  0  0
  1  4  1  0  0  0  0
  4  5  1  0  0  0  0
  4  6  1  0  0  0  0
  4  7  1  0  0  0  0
  7  8  1  0  0  0  0
  7  9  1  0  0  0  0
  7 10  1  0  0  0  0
 10 11  1  0  0  0  0
 10 12  1  0  0  0  0
 10 13  1  0  0  0  0
 13 14  1  0  0  0  0
 13 15  1  0  0  0  0
 13 16  1  0  0  0  0
 16 17  1  0  0  0  0
 16 18  1  0  0  0  0
 16 19  1  0  0  0  0
M  END
> <VConfSearch Rank>
371

> <Conf_Id>
67

> <Delta U+W>
0.308

> <U+W>
-54.583

> <U>
8.219

> <W>
-62.802

> <W(PB)>
-64.859

> <W(SA)>
2.057

> <Valence>
7.609

> <Coulomb>
-0.089

> <VdW>
0.699

> <VdW6>
-6.924

> <VdW12>
7.623

> <Bond>
0.163

> <Angle>
2.870

> <Pdih>
4.576

> <Idih>
0.001

> <Tether>
0.000

$$$$
VeraChem MOL file


 19 18  0  0  0  0  0  0  0  0999 V2000     
   17.9992   20.7986   23.3748 C   0  0  0  0  0  0  0  0  0  0  0  0
   17.6885   21.9037   22.9763 O   0  5  0  0  0  0  0  0  0  0  0  0
   17.8263   20.4230   24.5173 O   0  0  0  0  0  0  0  0  0  0  0  0
   18.6598   19.8384   22.3920 C   0  0  0  0  0  0  0  0  0  0  0  0
   18.2556   20.0411   21.3931 H   0  0  0  0  0  0  0  0  0  0  0  0
   18.3580   18.8209   22.6657 H   0  0  0  0  0  0  0  0  0  0  0  0
   20.2055   19.9616   22.3788 C   0  0  0  0  0  0  0  0  0  0  0  0
   20.4738   21.0106   22.1923 H   0  0  0  0  0  0  0  0  0  0  0  0
   20.6018   19.7194   23.3738 H   0  0  0  0  0  0  0  0  0  0  0  0
   20.8879   19.0796   21.3031 C   0  0  0  0  0  0  0  0  0  0  0  0
   21.9710   19.2609   21.3338 H   0  0  0  0  0  0  0  0  0  0  0  0
   20.5537   19.4079   20.3095 H   0  0  0  0  0  0  0  0  0  0  0  0
   20.6314   17.5584   21.4372 C   0  0  0  0  0  0  0  0  0  0  0  0
   19.5633   17.3407   21.3049 H   0  0  0  0  0  0  0  0  0  0  0  0
   21.1496   17.0429   20.6169 H   0  0  0  0  0  0  0  0  0  0  0  0
   21.1200   16.9718   22.7790 C   0  0  0  0  0  0  0  0  0  0  0  0
   20.5467   17.3758   23.6231 H   0  0  0  0  0  0  0  0  0  0  0  0
   21.0004   15.8807   22.7877 H   0  0  0  0  0  0  0  0  0  0  0  0
   22.1816   17.1975   22.9432 H   0  0  0  0  0  0  0  0  0  0  0  0
  1  2  1  0  0  0  0
  1  3  2  0  0  0  0
  1  4  1  0  0  0  0
  4  5  1  0  0  0  0
  4  6  1  0  0  0  0
  4  7  1  0  0  0  0
  7  8  1  0  0  0  0
  7  9  1  0  0  0  0
  7 10  1  0  0  0  0
 10 11  1  0  0  0  0
 10 12  1  0  0  0  0
 10 13  1  0  0  0  0
 13 14  1  0  0  0  0
 13 15  1  0  0  0  0
 13 16  1  0  0  0  0
 16 17  1  0  0  0  0
 16 18  1  0  0  0  0
 16 19  1  0  0  0  0
M  END
> <VConfSearch Rank>
372

> <Conf_Id>
21

> <Delta U+W>
0.319

> <U+W>
-54.572

> <U>
8.220

> <W>
-62.792

> <W(PB)>
-64.830

> <W(SA)>
2.038

> <Valence>
7.609

> <Coulomb>
-0.088

> <VdW>
0.699

> <VdW6>
-6.924

> <VdW12>
7.623

> <Bond>
0.163

> <Angle>
2.870

> <Pdih>
4.576

> <Idih>
0.000

> <Tether>
0.000

$$$$
VeraChem MOL file


 19 18  0  0  0  0  0  0  0  0999 V2000     
   20.9276   18.1311   24.9413 C   0  0  0  0  0  0  0  0  0  0  0  0
   21.9351   18.4445   25.5438 O   0  5  0  0  0  0  0  0  0  0  0  0
   19.9217   17.7174   25.4829 O   0  0  0  0  0  0  0  0  0  0  0  0
   20.9193   18.2830   23.4244 C   0  0  0  0  0  0  0  0  0  0  0  0
   20.2757   17.4997   23.0120 H   0  0  0  0  0  0  0  0  0  0  0  0
   21.9346   18.0867   23.0594 H   0  0  0  0  0  0  0  0  0  0  0  0
   20.4520   19.6891   22.9639 C   0  0  0  0  0  0  0  0  0  0  0  0
   19.4585   19.9117   23.3771 H   0  0  0  0  0  0  0  0  0  0  0  0
   21.1367   20.4311   23.3975 H   0  0  0  0  0  0  0  0  0  0  0  0
   20.4437   19.8628   21.4239 C   0  0  0  0  0  0  0  0  0  0  0  0
   21.2141   19.2282   20.9648 H   0  0  0  0  0  0  0  0  0  0  0  0
   20.7342   20.8974   21.1956 H   0  0  0  0  0  0  0  0  0  0  0  0
   19.0726   19.6056   20.7517 C   0  0  0  0  0  0  0  0  0  0  0  0
   18.3280   20.3062   21.1542 H   0  0  0  0  0  0  0  0  0  0  0  0
   19.1616   19.8339   19.6807 H   0  0  0  0  0  0  0  0  0  0  0  0
   18.5524   18.1617   20.9070 C   0  0  0  0  0  0  0  0  0  0  0  0
   17.6492   18.0123   20.3015 H   0  0  0  0  0  0  0  0  0  0  0  0
   19.3052   17.4336   20.5779 H   0  0  0  0  0  0  0  0  0  0  0  0
   18.2894   17.9462   21.9501 H   0  0  0  0  0  0  0  0  0  0  0  0
  1  2  1  0  0  0  0
  1  3  2  0  0  0  0
  1  4  1  0  0  0  0
  4  5  1  0  0  0  0
  4  6  1  0  0  0  0
  4  7  1  0  0  0  0
  7  8  1  0  0  0  0
  7  9  1  0  0  0  0
  7 10  1  0  0  0  0
 10 11  1  0  0  0  0
 10 12  1  0  0  0  0
 10 13  1  0  0  0  0
 13 14  1  0  0  0  0
 13 15  1  0  0  0  0
 13 16  1  0  0  0  0
 16 17  1  0  0  0  0
 16 18  1  0  0  0  0
 16 19  1  0  0  0  0
M  END
> <VConfSearch Rank>
373

> <Conf_Id>
24

> <Delta U+W>
2.477

> <U+W>
-52.414

> <U>
10.422

> <W>
-62.836

> <W(PB)>
-64.906

> <W(SA)>
2.070

> <Valence>
9.628

> <Coulomb>
0.101

> <VdW>
0.693

> <VdW6>
-6.927

> <VdW12>
7.620

> <Bond>
0.173

> <Angle>
2.989

> <Pdih>
6.465

> <Idih>
0.001

> <Tether>
0.000

$$$$
VeraChem MOL file


 19 18  0  0  0  0  0  0  0  0999 V2000     
   21.7087   18.2943   20.7073 C   0  0  0  0  0  0  0  0  0  0  0  0
   21.1825   17.2437   20.3971 O   0  5  0  0  0  0  0  0  0  0  0  0
   22.4044   18.9446   19.9523 O   0  0  0  0  0  0  0  0  0  0  0  0
   21.5110   18.8127   22.1294 C   0  0  0  0  0  0  0  0  0  0  0  0
   22.5009   19.0803   22.5168 H   0  0  0  0  0  0  0  0  0  0  0  0
   21.1442   17.9886   22.7495 H   0  0  0  0  0  0  0  0  0  0  0  0
   20.5709   20.0463   22.2267 C   0  0  0  0  0  0  0  0  0  0  0  0
   20.6370   20.4861   23.2310 H   0  0  0  0  0  0  0  0  0  0  0  0
   20.9457   20.8141   21.5357 H   0  0  0  0  0  0  0  0  0  0  0  0
   19.0887   19.7456   21.8830 C   0  0  0  0  0  0  0  0  0  0  0  0
   19.0211   18.9265   21.1540 H   0  0  0  0  0  0  0  0  0  0  0  0
   18.6703   20.6274   21.3790 H   0  0  0  0  0  0  0  0  0  0  0  0
   18.1911   19.4396   23.1071 C   0  0  0  0  0  0  0  0  0  0  0  0
   18.1923   20.3003   23.7901 H   0  0  0  0  0  0  0  0  0  0  0  0
   17.1553   19.3250   22.7590 H   0  0  0  0  0  0  0  0  0  0  0  0
   18.5941   18.1689   23.8834 C   0  0  0  0  0  0  0  0  0  0  0  0
   19.5562   18.3050   24.3924 H   0  0  0  0  0  0  0  0  0  0  0  0
   17.8448   17.9337   24.6503 H   0  0  0  0  0  0  0  0  0  0  0  0
   18.6737   17.3052   23.2103 H   0  0  0  0  0  0  0  0  0  0  0  0
  1  2  1  0  0  0  0
  1  3  2  0  0  0  0
  1  4  1  0  0  0  0
  4  5  1  0  0  0  0
  4  6  1  0  0  0  0
  4  7  1  0  0  0  0
  7  8  1  0  0  0  0
  7  9  1  0  0  0  0
  7 10  1  0  0  0  0
 10 11  1  0  0  0  0
 10 12  1  0  0  0  0
 10 13  1  0  0  0  0
 13 14  1  0  0  0  0
 13 15  1  0  0  0  0
 13 16  1  0  0  0  0
 16 17  1  0  0  0  0
 16 18  1  0  0  0  0
 16 19  1  0  0  0  0
M  END
> <VConfSearch Rank>
374

> <Conf_Id>
4

> <Delta U+W>
3.753

> <U+W>
-51.138

> <U>
12.334

> <W>
-63.472

> <W(PB)>
-65.500

> <W(SA)>
2.028

> <Valence>
9.984

> <Coulomb>
1.767

> <VdW>
0.583

> <VdW6>
-7.767

> <VdW12>
8.349

> <Bond>
0.203

> <Angle>
3.191

> <Pdih>
6.589

> <Idih>
0.001

> <Tether>
0.000

$$$$
VeraChem MOL file


 19 18  0  0  0  0  0  0  0  0999 V2000     
   20.7130   21.3244   22.9531 C   0  0  0  0  0  0  0  0  0  0  0  0
   21.7801   21.8731   22.7603 O   0  5  0  0  0  0  0  0  0  0  0  0
   19.6392   21.8595   22.7598 O   0  0  0  0  0  0  0  0  0  0  0  0
   20.7255   19.8972   23.4946 C   0  0  0  0  0  0  0  0  0  0  0  0
   19.7340   19.6733   23.9007 H   0  0  0  0  0  0  0  0  0  0  0  0
   21.4226   19.8782   24.3404 H   0  0  0  0  0  0  0  0  0  0  0  0
   21.1557   18.8296   22.4506 C   0  0  0  0  0  0  0  0  0  0  0  0
   22.1214   19.1387   22.0270 H   0  0  0  0  0  0  0  0  0  0  0  0
   21.3400   17.8707   22.9534 H   0  0  0  0  0  0  0  0  0  0  0  0
   20.1439   18.6280   21.2926 C   0  0  0  0  0  0  0  0  0  0  0  0
   20.7120   18.4096   20.3781 H   0  0  0  0  0  0  0  0  0  0  0  0
   19.6004   19.5608   21.0894 H   0  0  0  0  0  0  0  0  0  0  0  0
   19.1412   17.4673   21.5058 C   0  0  0  0  0  0  0  0  0  0  0  0
   18.5323   17.3623   20.5973 H   0  0  0  0  0  0  0  0  0  0  0  0
   19.6896   16.5219   21.6191 H   0  0  0  0  0  0  0  0  0  0  0  0
   18.1988   17.6608   22.7116 C   0  0  0  0  0  0  0  0  0  0  0  0
   17.6921   18.6336   22.6629 H   0  0  0  0  0  0  0  0  0  0  0  0
   17.4298   16.8778   22.7274 H   0  0  0  0  0  0  0  0  0  0  0  0
   18.7503   17.6013   23.6581 H   0  0  0  0  0  0  0  0  0  0  0  0
  1  2  1  0  0  0  0
  1  3  2  0  0  0  0
  1  4  1  0  0  0  0
  4  5  1  0  0  0  0
  4  6  1  0  0  0  0
  4  7  1  0  0  0  0
  7  8  1  0  0  0  0
  7  9  1  0  0  0  0
  7 10  1  0  0  0  0
 10 11  1  0  0  0  0
 10 12  1  0  0  0  0
 10 13  1  0  0  0  0
 13 14  1  0  0  0  0
 13 15  1  0  0  0  0
 13 16  1  0  0  0  0
 16 17  1  0  0  0  0
 16 18  1  0  0  0  0
 16 19  1  0  0  0  0
M  END
> <VConfSearch Rank>
375

> <Conf_Id>
73

> <Delta U+W>
3.707

> <U+W>
-51.184

> <U>
12.334

> <W>
-63.519

> <W(PB)>
-65.541

> <W(SA)>
2.022

> <Valence>
9.984

> <Coulomb>
1.768

> <VdW>
0.583

> <VdW6>
-7.767

> <VdW12>
8.350

> <Bond>
0.203

> <Angle>
3.192

> <Pdih>
6.589

> <Idih>
0.001

> <Tether>
0.000

$$$$
VeraChem MOL file


 19 18  0  0  0  0  0  0  0  0999 V2000     
   21.9829   20.3462   21.7819 C   0  0  0  0  0  0  0  0  0  0  0  0
   21.5765   20.7933   20.7276 O   0  5  0  0  0  0  0  0  0  0  0  0
   22.7380   20.9484   22.5197 O   0  0  0  0  0  0  0  0  0  0  0  0
   21.5492   18.9405   22.1886 C   0  0  0  0  0  0  0  0  0  0  0  0
   22.4554   18.3824   22.4511 H   0  0  0  0  0  0  0  0  0  0  0  0
   21.1180   18.4388   21.3147 H   0  0  0  0  0  0  0  0  0  0  0  0
   20.5582   18.9026   23.3839 C   0  0  0  0  0  0  0  0  0  0  0  0
   20.3588   17.8579   23.6553 H   0  0  0  0  0  0  0  0  0  0  0  0
   21.0457   19.3536   24.2592 H   0  0  0  0  0  0  0  0  0  0  0  0
   19.2181   19.6395   23.1286 C   0  0  0  0  0  0  0  0  0  0  0  0
   19.4204   20.7088   22.9778 H   0  0  0  0  0  0  0  0  0  0  0  0
   18.6016   19.5740   24.0354 H   0  0  0  0  0  0  0  0  0  0  0  0
   18.3963   19.1156   21.9255 C   0  0  0  0  0  0  0  0  0  0  0  0
   17.4843   19.7213   21.8350 H   0  0  0  0  0  0  0  0  0  0  0  0
   18.9547   19.2683   20.9921 H   0  0  0  0  0  0  0  0  0  0  0  0
   17.9953   17.6306   22.0583 C   0  0  0  0  0  0  0  0  0  0  0  0
   18.8759   16.9763   22.0380 H   0  0  0  0  0  0  0  0  0  0  0  0
   17.4541   17.4523   22.9966 H   0  0  0  0  0  0  0  0  0  0  0  0
   17.3412   17.3338   21.2283 H   0  0  0  0  0  0  0  0  0  0  0  0
  1  2  1  0  0  0  0
  1  3  2  0  0  0  0
  1  4  1  0  0  0  0
  4  5  1  0  0  0  0
  4  6  1  0  0  0  0
  4  7  1  0  0  0  0
  7  8  1  0  0  0  0
  7  9  1  0  0  0  0
  7 10  1  0  0  0  0
 10 11  1  0  0  0  0
 10 12  1  0  0  0  0
 10 13  1  0  0  0  0
 13 14  1  0  0  0  0
 13 15  1  0  0  0  0
 13 16  1  0  0  0  0
 16 17  1  0  0  0  0
 16 18  1  0  0  0  0
 16 19  1  0  0  0  0
M  END
> <VConfSearch Rank>
376

> <Conf_Id>
56

> <Delta U+W>
1.735

> <U+W>
-53.156

> <U>
10.214

> <W>
-63.370

> <W(PB)>
-65.388

> <W(SA)>
2.018

> <Valence>
7.868

> <Coulomb>
1.968

> <VdW>
0.378

> <VdW6>
-8.067

> <VdW12>
8.445

> <Bond>
0.191

> <Angle>
3.117

> <Pdih>
4.559

> <Idih>
0.001

> <Tether>
0.000

$$$$
VeraChem MOL file


 19 18  0  0  0  0  0  0  0  0999 V2000     
   18.0012   16.7660   22.1107 C   0  0  0  0  0  0  0  0  0  0  0  0
   18.3137   15.6152   21.8778 O   0  5  0  0  0  0  0  0  0  0  0  0
   16.8544   17.1674   22.0946 O   0  0  0  0  0  0  0  0  0  0  0  0
   19.1105   17.7654   22.4191 C   0  0  0  0  0  0  0  0  0  0  0  0
   19.9239   17.2284   22.9215 H   0  0  0  0  0  0  0  0  0  0  0  0
   18.7093   18.4971   23.1291 H   0  0  0  0  0  0  0  0  0  0  0  0
   19.6430   18.4815   21.1524 C   0  0  0  0  0  0  0  0  0  0  0  0
   19.9052   17.7217   20.4031 H   0  0  0  0  0  0  0  0  0  0  0  0
   18.8363   19.0828   20.7109 H   0  0  0  0  0  0  0  0  0  0  0  0
   20.8837   19.3764   21.3983 C   0  0  0  0  0  0  0  0  0  0  0  0
   21.1960   19.7821   20.4263 H   0  0  0  0  0  0  0  0  0  0  0  0
   21.7258   18.7653   21.7509 H   0  0  0  0  0  0  0  0  0  0  0  0
   20.6433   20.5652   22.3616 C   0  0  0  0  0  0  0  0  0  0  0  0
   21.2339   21.4237   22.0131 H   0  0  0  0  0  0  0  0  0  0  0  0
   19.5918   20.8817   22.3218 H   0  0  0  0  0  0  0  0  0  0  0  0
   21.0572   20.2628   23.8190 C   0  0  0  0  0  0  0  0  0  0  0  0
   20.8842   21.1395   24.4565 H   0  0  0  0  0  0  0  0  0  0  0  0
   20.4891   19.4260   24.2404 H   0  0  0  0  0  0  0  0  0  0  0  0
   22.1242   20.0113   23.8773 H   0  0  0  0  0  0  0  0  0  0  0  0
  1  2  1  0  0  0  0
  1  3  2  0  0  0  0
  1  4  1  0  0  0  0
  4  5  1  0  0  0  0
  4  6  1  0  0  0  0
  4  7  1  0  0  0  0
  7  8  1  0  0  0  0
  7  9  1  0  0  0  0
  7 10  1  0  0  0  0
 10 11  1  0  0  0  0
 10 12  1  0  0  0  0
 10 13  1  0  0  0  0
 13 14  1  0  0  0  0
 13 15  1  0  0  0  0
 13 16  1  0  0  0  0
 16 17  1  0  0  0  0
 16 18  1  0  0  0  0
 16 19  1  0  0  0  0
M  END
> <VConfSearch Rank>
377

> <Conf_Id>
53

> <Delta U+W>
2.279

> <U+W>
-52.612

> <U>
10.231

> <W>
-62.843

> <W(PB)>
-64.893

> <W(SA)>
2.050

> <Valence>
9.644

> <Coulomb>
-0.164

> <VdW>
0.751

> <VdW6>
-6.881

> <VdW12>
7.631

> <Bond>
0.163

> <Angle>
2.998

> <Pdih>
6.482

> <Idih>
0.001

> <Tether>
0.000

$$$$
VeraChem MOL file


 19 18  0  0  0  0  0  0  0  0999 V2000     
   22.1813   18.3489   21.2823 C   0  0  0  0  0  0  0  0  0  0  0  0
   22.6961   17.4899   21.9707 O   0  5  0  0  0  0  0  0  0  0  0  0
   22.7412   19.3815   20.9701 O   0  0  0  0  0  0  0  0  0  0  0  0
   20.7845   18.0833   20.7237 C   0  0  0  0  0  0  0  0  0  0  0  0
   20.4508   17.0920   21.0538 H   0  0  0  0  0  0  0  0  0  0  0  0
   20.8931   18.0306   19.6342 H   0  0  0  0  0  0  0  0  0  0  0  0
   19.7144   19.1555   21.0736 C   0  0  0  0  0  0  0  0  0  0  0  0
   20.1330   20.1619   20.9345 H   0  0  0  0  0  0  0  0  0  0  0  0
   18.8954   19.0661   20.3472 H   0  0  0  0  0  0  0  0  0  0  0  0
   19.1037   19.0254   22.4909 C   0  0  0  0  0  0  0  0  0  0  0  0
   18.6808   18.0198   22.6206 H   0  0  0  0  0  0  0  0  0  0  0  0
   18.2611   19.7264   22.5658 H   0  0  0  0  0  0  0  0  0  0  0  0
   20.0980   19.3219   23.6349 C   0  0  0  0  0  0  0  0  0  0  0  0
   20.8808   18.5532   23.6625 H   0  0  0  0  0  0  0  0  0  0  0  0
   20.5978   20.2836   23.4541 H   0  0  0  0  0  0  0  0  0  0  0  0
   19.3897   19.3599   25.0041 C   0  0  0  0  0  0  0  0  0  0  0  0
   18.9030   18.3999   25.2206 H   0  0  0  0  0  0  0  0  0  0  0  0
   20.1108   19.5630   25.8065 H   0  0  0  0  0  0  0  0  0  0  0  0
   18.6242   20.1465   25.0296 H   0  0  0  0  0  0  0  0  0  0  0  0
  1  2  1  0  0  0  0
  1  3  2  0  0  0  0
  1  4  1  0  0  0  0
  4  5  1  0  0  0  0
  4  6  1  0  0  0  0
  4  7  1  0  0  0  0
  7  8  1  0  0  0  0
  7  9  1  0  0  0  0
  7 10  1  0  0  0  0
 10 11  1  0  0  0  0
 10 12  1  0  0  0  0
 10 13  1  0  0  0  0
 13 14  1  0  0  0  0
 13 15  1  0  0  0  0
 13 16  1  0  0  0  0
 16 17  1  0  0  0  0
 16 18  1  0  0  0  0
 16 19  1  0  0  0  0
M  END
> <VConfSearch Rank>
378

> <Conf_Id>
25

> <Delta U+W>
2.065

> <U+W>
-52.826

> <U>
10.967

> <W>
-63.794

> <W(PB)>
-65.830

> <W(SA)>
2.036

> <Valence>
8.609

> <Coulomb>
1.892

> <VdW>
0.467

> <VdW6>
-7.569

> <VdW12>
8.036

> <Bond>
0.170

> <Angle>
3.195

> <Pdih>
5.237

> <Idih>
0.007

> <Tether>
0.000

$$$$
VeraChem MOL file


 19 18  0  0  0  0  0  0  0  0999 V2000     
   18.3231   17.3764   23.1977 C   0  0  0  0  0  0  0  0  0  0  0  0
   17.3094   18.0352   23.3234 O   0  5  0  0  0  0  0  0  0  0  0  0
   18.8212   16.7352   24.1018 O   0  0  0  0  0  0  0  0  0  0  0  0
   18.9669   17.2923   21.8150 C   0  0  0  0  0  0  0  0  0  0  0  0
   18.2309   16.8104   21.1610 H   0  0  0  0  0  0  0  0  0  0  0  0
   19.8311   16.6188   21.8642 H   0  0  0  0  0  0  0  0  0  0  0  0
   19.3814   18.6548   21.1914 C   0  0  0  0  0  0  0  0  0  0  0  0
   19.4761   18.5158   20.1060 H   0  0  0  0  0  0  0  0  0  0  0  0
   18.5782   19.3913   21.3327 H   0  0  0  0  0  0  0  0  0  0  0  0
   20.7235   19.2261   21.7122 C   0  0  0  0  0  0  0  0  0  0  0  0
   20.9869   20.0965   21.0957 H   0  0  0  0  0  0  0  0  0  0  0  0
   21.5230   18.4880   21.5613 H   0  0  0  0  0  0  0  0  0  0  0  0
   20.6907   19.6604   23.1940 C   0  0  0  0  0  0  0  0  0  0  0  0
   19.8300   20.3204   23.3697 H   0  0  0  0  0  0  0  0  0  0  0  0
   20.5604   18.7834   23.8408 H   0  0  0  0  0  0  0  0  0  0  0  0
   21.9883   20.3886   23.5987 C   0  0  0  0  0  0  0  0  0  0  0  0
   21.9525   20.6827   24.6558 H   0  0  0  0  0  0  0  0  0  0  0  0
   22.8626   19.7400   23.4566 H   0  0  0  0  0  0  0  0  0  0  0  0
   22.1334   21.2968   22.9992 H   0  0  0  0  0  0  0  0  0  0  0  0
  1  2  1  0  0  0  0
  1  3  2  0  0  0  0
  1  4  1  0  0  0  0
  4  5  1  0  0  0  0
  4  6  1  0  0  0  0
  4  7  1  0  0  0  0
  7  8  1  0  0  0  0
  7  9  1  0  0  0  0
  7 10  1  0  0  0  0
 10 11  1  0  0  0  0
 10 12  1  0  0  0  0
 10 13  1  0  0  0  0
 13 14  1  0  0  0  0
 13 15  1  0  0  0  0
 13 16  1  0  0  0  0
 16 17  1  0  0  0  0
 16 18  1  0  0  0  0
 16 19  1  0  0  0  0
M  END
> <VConfSearch Rank>
379

> <Conf_Id>
52

> <Delta U+W>
2.070

> <U+W>
-52.822

> <U>
10.967

> <W>
-63.789

> <W(PB)>
-65.837

> <W(SA)>
2.048

> <Valence>
8.609

> <Coulomb>
1.892

> <VdW>
0.467

> <VdW6>
-7.569

> <VdW12>
8.035

> <Bond>
0.170

> <Angle>
3.196

> <Pdih>
5.237

> <Idih>
0.007

> <Tether>
0.000

$$$$
VeraChem MOL file


 19 18  0  0  0  0  0  0  0  0999 V2000     
   20.1908   20.8790   21.9042 C   0  0  0  0  0  0  0  0  0  0  0  0
   21.3077   20.9158   21.4254 O   0  5  0  0  0  0  0  0  0  0  0  0
   19.2016   21.2679   21.3152 O   0  0  0  0  0  0  0  0  0  0  0  0
   20.0306   20.4423   23.3612 C   0  0  0  0  0  0  0  0  0  0  0  0
   18.9635   20.3204   23.5825 H   0  0  0  0  0  0  0  0  0  0  0  0
   20.3813   21.2838   23.9696 H   0  0  0  0  0  0  0  0  0  0  0  0
   20.8143   19.1636   23.7738 C   0  0  0  0  0  0  0  0  0  0  0  0
   21.8144   19.1731   23.3190 H   0  0  0  0  0  0  0  0  0  0  0  0
   20.9808   19.2057   24.8586 H   0  0  0  0  0  0  0  0  0  0  0  0
   20.1057   17.8202   23.4633 C   0  0  0  0  0  0  0  0  0  0  0  0
   19.1485   17.7680   23.9999 H   0  0  0  0  0  0  0  0  0  0  0  0
   20.7249   17.0163   23.8844 H   0  0  0  0  0  0  0  0  0  0  0  0
   19.8956   17.5239   21.9586 C   0  0  0  0  0  0  0  0  0  0  0  0
   20.6105   18.0957   21.3509 H   0  0  0  0  0  0  0  0  0  0  0  0
   20.1170   16.4641   21.7716 H   0  0  0  0  0  0  0  0  0  0  0  0
   18.4509   17.8020   21.4910 C   0  0  0  0  0  0  0  0  0  0  0  0
   17.7368   17.1613   22.0244 H   0  0  0  0  0  0  0  0  0  0  0  0
   18.1657   18.8459   21.6665 H   0  0  0  0  0  0  0  0  0  0  0  0
   18.3482   17.6012   20.4169 H   0  0  0  0  0  0  0  0  0  0  0  0
  1  2  1  0  0  0  0
  1  3  2  0  0  0  0
  1  4  1  0  0  0  0
  4  5  1  0  0  0  0
  4  6  1  0  0  0  0
  4  7  1  0  0  0  0
  7  8  1  0  0  0  0
  7  9  1  0  0  0  0
  7 10  1  0  0  0  0
 10 11  1  0  0  0  0
 10 12  1  0  0  0  0
 10 13  1  0  0  0  0
 13 14  1  0  0  0  0
 13 15  1  0  0  0  0
 13 16  1  0  0  0  0
 16 17  1  0  0  0  0
 16 18  1  0  0  0  0
 16 19  1  0  0  0  0
M  END
> <VConfSearch Rank>
380

> <Conf_Id>
66

> <Delta U+W>
5.819

> <U+W>
-49.072

> <U>
15.324

> <W>
-64.396

> <W(PB)>
-66.382

> <W(SA)>
1.986

> <Valence>
11.748

> <Coulomb>
3.201

> <VdW>
0.375

> <VdW6>
-8.854

> <VdW12>
9.229

> <Bond>
0.216

> <Angle>
3.812

> <Pdih>
7.699

> <Idih>
0.022

> <Tether>
0.000

$$$$
VeraChem MOL file


 19 18  0  0  0  0  0  0  0  0999 V2000     
   18.5536   16.1480   23.5615 C   0  0  0  0  0  0  0  0  0  0  0  0
   17.6777   15.8289   24.3404 O   0  5  0  0  0  0  0  0  0  0  0  0
   19.2705   15.3409   23.0023 O   0  0  0  0  0  0  0  0  0  0  0  0
   18.7386   17.6424   23.2929 C   0  0  0  0  0  0  0  0  0  0  0  0
   18.9311   18.1268   24.2574 H   0  0  0  0  0  0  0  0  0  0  0  0
   17.7812   18.0296   22.9248 H   0  0  0  0  0  0  0  0  0  0  0  0
   19.8688   18.0012   22.2916 C   0  0  0  0  0  0  0  0  0  0  0  0
   20.8241   17.6054   22.6633 H   0  0  0  0  0  0  0  0  0  0  0  0
   19.6731   17.5081   21.3293 H   0  0  0  0  0  0  0  0  0  0  0  0
   19.9853   19.5262   22.0797 C   0  0  0  0  0  0  0  0  0  0  0  0
   20.1808   20.0171   23.0431 H   0  0  0  0  0  0  0  0  0  0  0  0
   19.0292   19.9197   21.7083 H   0  0  0  0  0  0  0  0  0  0  0  0
   21.1094   19.8807   21.0841 C   0  0  0  0  0  0  0  0  0  0  0  0
   22.0680   19.4903   21.4531 H   0  0  0  0  0  0  0  0  0  0  0  0
   20.9165   19.3930   20.1185 H   0  0  0  0  0  0  0  0  0  0  0  0
   21.2230   21.4040   20.8751 C   0  0  0  0  0  0  0  0  0  0  0  0
   21.4473   21.9146   21.8208 H   0  0  0  0  0  0  0  0  0  0  0  0
   22.0266   21.6380   20.1647 H   0  0  0  0  0  0  0  0  0  0  0  0
   20.2871   21.8166   20.4761 H   0  0  0  0  0  0  0  0  0  0  0  0
  1  2  1  0  0  0  0
  1  3  2  0  0  0  0
  1  4  1  0  0  0  0
  4  5  1  0  0  0  0
  4  6  1  0  0  0  0
  4  7  1  0  0  0  0
  7  8  1  0  0  0  0
  7  9  1  0  0  0  0
  7 10  1  0  0  0  0
 10 11  1  0  0  0  0
 10 12  1  0  0  0  0
 10 13  1  0  0  0  0
 13 14  1  0  0  0  0
 13 15  1  0  0  0  0
 13 16  1  0  0  0  0
 16 17  1  0  0  0  0
 16 18  1  0  0  0  0
 16 19  1  0  0  0  0
M  END
> <VConfSearch Rank>
381

> <Conf_Id>
0

> <Delta U+W>
0.000

> <U+W>
-54.891

> <U>
6.966

> <W>
-61.857

> <W(PB)>
-63.965

> <W(SA)>
2.108

> <Valence>
7.175

> <Coulomb>
-1.360

> <VdW>
1.151

> <VdW6>
-5.641

> <VdW12>
6.792

> <Bond>
0.119

> <Angle>
2.715

> <Pdih>
4.340

> <Idih>
0.000

> <Tether>
0.000

$$$$
VeraChem MOL file


 19 18  0  0  0  0  0  0  0  0999 V2000     
   17.8750   21.4190   23.1990 C   0  0  0  0  0  0  0  0  0  0  0  0
   17.3653   21.2359   24.2866 O   0  5  0  0  0  0  0  0  0  0  0  0
   18.1320   22.5197   22.7533 O   0  0  0  0  0  0  0  0  0  0  0  0
   18.2307   20.1996   22.3558 C   0  0  0  0  0  0  0  0  0  0  0  0
   18.1246   20.4731   21.2991 H   0  0  0  0  0  0  0  0  0  0  0  0
   17.4930   19.4149   22.5630 H   0  0  0  0  0  0  0  0  0  0  0  0
   19.6612   19.6740   22.6305 C   0  0  0  0  0  0  0  0  0  0  0  0
   20.3866   20.4748   22.4306 H   0  0  0  0  0  0  0  0  0  0  0  0
   19.7550   19.4167   23.6947 H   0  0  0  0  0  0  0  0  0  0  0  0
   19.9961   18.4401   21.7651 C   0  0  0  0  0  0  0  0  0  0  0  0
   19.9001   18.7001   20.7019 H   0  0  0  0  0  0  0  0  0  0  0  0
   19.2685   17.6418   21.9663 H   0  0  0  0  0  0  0  0  0  0  0  0
   21.4218   17.9187   22.0408 C   0  0  0  0  0  0  0  0  0  0  0  0
   22.1528   18.7139   21.8388 H   0  0  0  0  0  0  0  0  0  0  0  0
   21.5212   17.6556   23.1030 H   0  0  0  0  0  0  0  0  0  0  0  0
   21.7529   16.6867   21.1749 C   0  0  0  0  0  0  0  0  0  0  0  0
   22.7696   16.3293   21.3836 H   0  0  0  0  0  0  0  0  0  0  0  0
   21.0555   15.8638   21.3797 H   0  0  0  0  0  0  0  0  0  0  0  0
   21.6918   16.9300   20.1060 H   0  0  0  0  0  0  0  0  0  0  0  0
  1  2  1  0  0  0  0
  1  3  2  0  0  0  0
  1  4  1  0  0  0  0
  4  5  1  0  0  0  0
  4  6  1  0  0  0  0
  4  7  1  0  0  0  0
  7  8  1  0  0  0  0
  7  9  1  0  0  0  0
  7 10  1  0  0  0  0
 10 11  1  0  0  0  0
 10 12  1  0  0  0  0
 10 13  1  0  0  0  0
 13 14  1  0  0  0  0
 13 15  1  0  0  0  0
 13 16  1  0  0  0  0
 16 17  1  0  0  0  0
 16 18  1  0  0  0  0
 16 19  1  0  0  0  0
M  END
> <VConfSearch Rank>
382

> <Conf_Id>
18

> <Delta U+W>
-1.199

> <U+W>
-56.090

> <U>
5.975

> <W>
-62.066

> <W(PB)>
-64.219

> <W(SA)>
2.153

> <Valence>
6.673

> <Coulomb>
-1.307

> <VdW>
0.610

> <VdW6>
-5.351

> <VdW12>
5.961

> <Bond>
0.086

> <Angle>
2.253

> <Pdih>
4.333

> <Idih>
0.001

> <Tether>
0.000

$$$$
VeraChem MOL file


 19 18  0  0  0  0  0  0  0  0999 V2000     
   20.8026   18.5795   25.2735 C   0  0  0  0  0  0  0  0  0  0  0  0
   20.1406   19.0110   26.1964 O   0  5  0  0  0  0  0  0  0  0  0  0
   21.6504   17.7183   25.3992 O   0  0  0  0  0  0  0  0  0  0  0  0
   20.5401   19.1340   23.8778 C   0  0  0  0  0  0  0  0  0  0  0  0
   21.4902   19.1259   23.3318 H   0  0  0  0  0  0  0  0  0  0  0  0
   20.2323   20.1815   23.9801 H   0  0  0  0  0  0  0  0  0  0  0  0
   19.4596   18.3321   23.1067 C   0  0  0  0  0  0  0  0  0  0  0  0
   19.7986   17.2957   22.9715 H   0  0  0  0  0  0  0  0  0  0  0  0
   18.5507   18.2832   23.7224 H   0  0  0  0  0  0  0  0  0  0  0  0
   19.0960   18.9467   21.7343 C   0  0  0  0  0  0  0  0  0  0  0  0
   18.7494   19.9798   21.8738 H   0  0  0  0  0  0  0  0  0  0  0  0
   18.2474   18.3881   21.3160 H   0  0  0  0  0  0  0  0  0  0  0  0
   20.2623   18.9208   20.7212 C   0  0  0  0  0  0  0  0  0  0  0  0
   21.0946   19.5370   21.0859 H   0  0  0  0  0  0  0  0  0  0  0  0
   20.6427   17.8950   20.6198 H   0  0  0  0  0  0  0  0  0  0  0  0
   19.8214   19.4421   19.3387 C   0  0  0  0  0  0  0  0  0  0  0  0
   20.6607   19.4204   18.6315 H   0  0  0  0  0  0  0  0  0  0  0  0
   19.0137   18.8244   18.9248 H   0  0  0  0  0  0  0  0  0  0  0  0
   19.4615   20.4772   19.4061 H   0  0  0  0  0  0  0  0  0  0  0  0
  1  2  1  0  0  0  0
  1  3  2  0  0  0  0
  1  4  1  0  0  0  0
  4  5  1  0  0  0  0
  4  6  1  0  0  0  0
  4  7  1  0  0  0  0
  7  8  1  0  0  0  0
  7  9  1  0  0  0  0
  7 10  1  0  0  0  0
 10 11  1  0  0  0  0
 10 12  1  0  0  0  0
 10 13  1  0  0  0  0
 13 14  1  0  0  0  0
 13 15  1  0  0  0  0
 13 16  1  0  0  0  0
 16 17  1  0  0  0  0
 16 18  1  0  0  0  0
 16 19  1  0  0  0  0
M  END
> <VConfSearch Rank>
383

> <Conf_Id>
34

> <Delta U+W>
-0.563

> <U+W>
-55.455

> <U>
6.914

> <W>
-62.369

> <W(PB)>
-64.446

> <W(SA)>
2.077

> <Valence>
7.196

> <Coulomb>
-1.020

> <VdW>
0.738

> <VdW6>
-6.010

> <VdW12>
6.748

> <Bond>
0.126

> <Angle>
2.499

> <Pdih>
4.570

> <Idih>
0.001

> <Tether>
0.000

$$$$
VeraChem MOL file


 19 18  0  0  0  0  0  0  0  0999 V2000     
   17.0632   17.9419   23.1273 C   0  0  0  0  0  0  0  0  0  0  0  0
   16.1344   17.7620   22.3650 O   0  5  0  0  0  0  0  0  0  0  0  0
   16.9305   18.0864   24.3264 O   0  0  0  0  0  0  0  0  0  0  0  0
   18.4702   18.0122   22.5443 C   0  0  0  0  0  0  0  0  0  0  0  0
   18.5089   17.3537   21.6683 H   0  0  0  0  0  0  0  0  0  0  0  0
   19.1608   17.6027   23.2901 H   0  0  0  0  0  0  0  0  0  0  0  0
   18.8846   19.4534   22.1486 C   0  0  0  0  0  0  0  0  0  0  0  0
   18.1232   19.8658   21.4722 H   0  0  0  0  0  0  0  0  0  0  0  0
   18.8852   20.0933   23.0418 H   0  0  0  0  0  0  0  0  0  0  0  0
   20.2625   19.5300   21.4493 C   0  0  0  0  0  0  0  0  0  0  0  0
   20.4197   20.5600   21.1007 H   0  0  0  0  0  0  0  0  0  0  0  0
   20.2558   18.8959   20.5522 H   0  0  0  0  0  0  0  0  0  0  0  0
   21.4395   19.1248   22.3648 C   0  0  0  0  0  0  0  0  0  0  0  0
   21.4163   19.7241   23.2855 H   0  0  0  0  0  0  0  0  0  0  0  0
   21.3418   18.0730   22.6640 H   0  0  0  0  0  0  0  0  0  0  0  0
   22.7967   19.3214   21.6602 C   0  0  0  0  0  0  0  0  0  0  0  0
   22.8579   18.7115   20.7493 H   0  0  0  0  0  0  0  0  0  0  0  0
   22.9459   20.3724   21.3801 H   0  0  0  0  0  0  0  0  0  0  0  0
   23.6220   19.0267   22.3215 H   0  0  0  0  0  0  0  0  0  0  0  0
  1  2  1  0  0  0  0
  1  3  2  0  0  0  0
  1  4  1  0  0  0  0
  4  5  1  0  0  0  0
  4  6  1  0  0  0  0
  4  7  1  0  0  0  0
  7  8  1  0  0  0  0
  7  9  1  0  0  0  0
  7 10  1  0  0  0  0
 10 11  1  0  0  0  0
 10 12  1  0  0  0  0
 10 13  1  0  0  0  0
 13 14  1  0  0  0  0
 13 15  1  0  0  0  0
 13 16  1  0  0  0  0
 16 17  1  0  0  0  0
 16 18  1  0  0  0  0
 16 19  1  0  0  0  0
M  END
> <VConfSearch Rank>
384

> <Conf_Id>
33

> <Delta U+W>
-0.526

> <U+W>
-55.418

> <U>
6.914

> <W>
-62.332

> <W(PB)>
-64.421

> <W(SA)>
2.090

> <Valence>
7.196

> <Coulomb>
-1.020

> <VdW>
0.738

> <VdW6>
-6.010

> <VdW12>
6.748

> <Bond>
0.126

> <Angle>
2.499

> <Pdih>
4.570

> <Idih>
0.001

> <Tether>
0.000

$$$$
VeraChem MOL file


 19 18  0  0  0  0  0  0  0  0999 V2000     
   20.6000   15.8739   21.9730 C   0  0  0  0  0  0  0  0  0  0  0  0
   20.9328   15.4335   23.0554 O   0  5  0  0  0  0  0  0  0  0  0  0
   19.9795   15.2330   21.1481 O   0  0  0  0  0  0  0  0  0  0  0  0
   20.9659   17.3157   21.6384 C   0  0  0  0  0  0  0  0  0  0  0  0
   21.1379   17.3813   20.5573 H   0  0  0  0  0  0  0  0  0  0  0  0
   21.9164   17.5499   22.1328 H   0  0  0  0  0  0  0  0  0  0  0  0
   19.8766   18.3289   22.0691 C   0  0  0  0  0  0  0  0  0  0  0  0
   18.9293   18.0756   21.5735 H   0  0  0  0  0  0  0  0  0  0  0  0
   19.7087   18.2320   23.1499 H   0  0  0  0  0  0  0  0  0  0  0  0
   20.2752   19.7817   21.7211 C   0  0  0  0  0  0  0  0  0  0  0  0
   20.5082   19.8415   20.6492 H   0  0  0  0  0  0  0  0  0  0  0  0
   21.1964   20.0513   22.2556 H   0  0  0  0  0  0  0  0  0  0  0  0
   19.1705   20.8148   22.0416 C   0  0  0  0  0  0  0  0  0  0  0  0
   19.4835   21.7959   21.6586 H   0  0  0  0  0  0  0  0  0  0  0  0
   18.2488   20.5516   21.5043 H   0  0  0  0  0  0  0  0  0  0  0  0
   18.8731   20.9428   23.5513 C   0  0  0  0  0  0  0  0  0  0  0  0
   19.7866   21.1770   24.1132 H   0  0  0  0  0  0  0  0  0  0  0  0
   18.1490   21.7475   23.7328 H   0  0  0  0  0  0  0  0  0  0  0  0
   18.4476   20.0160   23.9559 H   0  0  0  0  0  0  0  0  0  0  0  0
  1  2  1  0  0  0  0
  1  3  2  0  0  0  0
  1  4  1  0  0  0  0
  4  5  1  0  0  0  0
  4  6  1  0  0  0  0
  4  7  1  0  0  0  0
  7  8  1  0  0  0  0
  7  9  1  0  0  0  0
  7 10  1  0  0  0  0
 10 11  1  0  0  0  0
 10 12  1  0  0  0  0
 10 13  1  0  0  0  0
 13 14  1  0  0  0  0
 13 15  1  0  0  0  0
 13 16  1  0  0  0  0
 16 17  1  0  0  0  0
 16 18  1  0  0  0  0
 16 19  1  0  0  0  0
M  END
> <VConfSearch Rank>
385

> <Conf_Id>
42

> <Delta U+W>
-0.344

> <U+W>
-55.236

> <U>
7.244

> <W>
-62.479

> <W(PB)>
-64.610

> <W(SA)>
2.130

> <Valence>
7.174

> <Coulomb>
-0.669

> <VdW>
0.739

> <VdW6>
-5.969

> <VdW12>
6.708

> <Bond>
0.116

> <Angle>
2.481

> <Pdih>
4.576

> <Idih>
0.000

> <Tether>
0.000

$$$$
VeraChem MOL file


 19 18  0  0  0  0  0  0  0  0999 V2000     
   20.1598   19.3069   19.0892 C   0  0  0  0  0  0  0  0  0  0  0  0
   20.0495   18.2260   18.5455 O   0  5  0  0  0  0  0  0  0  0  0  0
   20.8485   20.2098   18.6572 O   0  0  0  0  0  0  0  0  0  0  0  0
   19.4070   19.5367   20.3950 C   0  0  0  0  0  0  0  0  0  0  0  0
   18.4764   18.9576   20.3586 H   0  0  0  0  0  0  0  0  0  0  0  0
   19.1280   20.5960   20.4454 H   0  0  0  0  0  0  0  0  0  0  0  0
   20.2330   19.1411   21.6439 C   0  0  0  0  0  0  0  0  0  0  0  0
   20.5162   18.0834   21.5622 H   0  0  0  0  0  0  0  0  0  0  0  0
   21.1653   19.7222   21.6612 H   0  0  0  0  0  0  0  0  0  0  0  0
   19.4446   19.3809   22.9522 C   0  0  0  0  0  0  0  0  0  0  0  0
   18.5367   18.7623   22.9564 H   0  0  0  0  0  0  0  0  0  0  0  0
   19.1090   20.4266   22.9809 H   0  0  0  0  0  0  0  0  0  0  0  0
   20.2706   19.0954   24.2277 C   0  0  0  0  0  0  0  0  0  0  0  0
   21.1769   19.7166   24.2299 H   0  0  0  0  0  0  0  0  0  0  0  0
   19.6827   19.4012   25.1042 H   0  0  0  0  0  0  0  0  0  0  0  0
   20.6590   17.6093   24.3840 C   0  0  0  0  0  0  0  0  0  0  0  0
   21.3431   17.2880   23.5887 H   0  0  0  0  0  0  0  0  0  0  0  0
   21.1650   17.4439   25.3440 H   0  0  0  0  0  0  0  0  0  0  0  0
   19.7701   16.9657   24.3553 H   0  0  0  0  0  0  0  0  0  0  0  0
  1  2  1  0  0  0  0
  1  3  2  0  0  0  0
  1  4  1  0  0  0  0
  4  5  1  0  0  0  0
  4  6  1  0  0  0  0
  4  7  1  0  0  0  0
  7  8  1  0  0  0  0
  7  9  1  0  0  0  0
  7 10  1  0  0  0  0
 10 11  1  0  0  0  0
 10 12  1  0  0  0  0
 10 13  1  0  0  0  0
 13 14  1  0  0  0  0
 13 15  1  0  0  0  0
 13 16  1  0  0  0  0
 16 17  1  0  0  0  0
 16 18  1  0  0  0  0
 16 19  1  0  0  0  0
M  END
> <VConfSearch Rank>
386

> <Conf_Id>
41

> <Delta U+W>
-0.361

> <U+W>
-55.252

> <U>
7.244

> <W>
-62.496

> <W(PB)>
-64.596

> <W(SA)>
2.099

> <Valence>
7.174

> <Coulomb>
-0.669

> <VdW>
0.739

> <VdW6>
-5.969

> <VdW12>
6.708

> <Bond>
0.116

> <Angle>
2.481

> <Pdih>
4.576

> <Idih>
0.000

> <Tether>
0.000

$$$$
VeraChem MOL file


 19 18  0  0  0  0  0  0  0  0999 V2000     
   22.1984   18.3231   23.8089 C   0  0  0  0  0  0  0  0  0  0  0  0
   22.4929   19.4221   24.2357 O   0  5  0  0  0  0  0  0  0  0  0  0
   22.1066   17.3334   24.5079 O   0  0  0  0  0  0  0  0  0  0  0  0
   21.9515   18.1709   22.3105 C   0  0  0  0  0  0  0  0  0  0  0  0
   22.5012   17.2831   21.9761 H   0  0  0  0  0  0  0  0  0  0  0  0
   22.3934   19.0312   21.7933 H   0  0  0  0  0  0  0  0  0  0  0  0
   20.4553   18.0274   21.9284 C   0  0  0  0  0  0  0  0  0  0  0  0
   20.3822   17.7850   20.8595 H   0  0  0  0  0  0  0  0  0  0  0  0
   20.0196   17.1799   22.4755 H   0  0  0  0  0  0  0  0  0  0  0  0
   19.6428   19.3097   22.2164 C   0  0  0  0  0  0  0  0  0  0  0  0
   20.0899   20.1564   21.6777 H   0  0  0  0  0  0  0  0  0  0  0  0
   19.6969   19.5496   23.2874 H   0  0  0  0  0  0  0  0  0  0  0  0
   18.1653   19.1554   21.7998 C   0  0  0  0  0  0  0  0  0  0  0  0
   18.1047   18.9195   20.7283 H   0  0  0  0  0  0  0  0  0  0  0  0
   17.7149   18.3105   22.3391 H   0  0  0  0  0  0  0  0  0  0  0  0
   17.3574   20.4364   22.0884 C   0  0  0  0  0  0  0  0  0  0  0  0
   17.7677   21.2922   21.5364 H   0  0  0  0  0  0  0  0  0  0  0  0
   16.3096   20.3092   21.7867 H   0  0  0  0  0  0  0  0  0  0  0  0
   17.3749   20.6787   23.1591 H   0  0  0  0  0  0  0  0  0  0  0  0
  1  2  1  0  0  0  0
  1  3  2  0  0  0  0
  1  4  1  0  0  0  0
  4  5  1  0  0  0  0
  4  6  1  0  0  0  0
  4  7  1  0  0  0  0
  7  8  1  0  0  0  0
  7  9  1  0  0  0  0
  7 10  1  0  0  0  0
 10 11  1  0  0  0  0
 10 12  1  0  0  0  0
 10 13  1  0  0  0  0
 13 14  1  0  0  0  0
 13 15  1  0  0  0  0
 13 16  1  0  0  0  0
 16 17  1  0  0  0  0
 16 18  1  0  0  0  0
 16 19  1  0  0  0  0
M  END
> <VConfSearch Rank>
387

> <Conf_Id>
36

> <Delta U+W>
-0.079

> <U+W>
-54.971

> <U>
8.266

> <W>
-63.237

> <W(PB)>
-65.340

> <W(SA)>
2.103

> <Valence>
6.935

> <Coulomb>
0.874

> <VdW>
0.457

> <VdW6>
-6.205

> <VdW12>
6.662

> <Bond>
0.107

> <Angle>
2.420

> <Pdih>
4.407

> <Idih>
0.001

> <Tether>
0.000

$$$$
VeraChem MOL file


 19 18  0  0  0  0  0  0  0  0999 V2000     
   22.9545   18.8673   22.8722 C   0  0  0  0  0  0  0  0  0  0  0  0
   23.0030   19.5717   23.8612 O   0  5  0  0  0  0  0  0  0  0  0  0
   23.6614   19.0287   21.8971 O   0  0  0  0  0  0  0  0  0  0  0  0
   21.9679   17.7029   22.8606 C   0  0  0  0  0  0  0  0  0  0  0  0
   21.6682   17.4872   23.8934 H   0  0  0  0  0  0  0  0  0  0  0  0
   22.5065   16.8203   22.4958 H   0  0  0  0  0  0  0  0  0  0  0  0
   20.7150   17.9455   21.9794 C   0  0  0  0  0  0  0  0  0  0  0  0
   21.0318   18.1882   20.9555 H   0  0  0  0  0  0  0  0  0  0  0  0
   20.1362   17.0139   21.9188 H   0  0  0  0  0  0  0  0  0  0  0  0
   19.8113   19.0719   22.5286 C   0  0  0  0  0  0  0  0  0  0  0  0
   20.3785   20.0118   22.5761 H   0  0  0  0  0  0  0  0  0  0  0  0
   19.5080   18.8309   23.5567 H   0  0  0  0  0  0  0  0  0  0  0  0
   18.5561   19.2745   21.6545 C   0  0  0  0  0  0  0  0  0  0  0  0
   18.8566   19.5181   20.6259 H   0  0  0  0  0  0  0  0  0  0  0  0
   17.9823   18.3386   21.6067 H   0  0  0  0  0  0  0  0  0  0  0  0
   17.6564   20.3990   22.2050 C   0  0  0  0  0  0  0  0  0  0  0  0
   18.1962   21.3547   22.2344 H   0  0  0  0  0  0  0  0  0  0  0  0
   16.7694   20.5300   21.5717 H   0  0  0  0  0  0  0  0  0  0  0  0
   17.3154   20.1665   23.2224 H   0  0  0  0  0  0  0  0  0  0  0  0
  1  2  1  0  0  0  0
  1  3  2  0  0  0  0
  1  4  1  0  0  0  0
  4  5  1  0  0  0  0
  4  6  1  0  0  0  0
  4  7  1  0  0  0  0
  7  8  1  0  0  0  0
  7  9  1  0  0  0  0
  7 10  1  0  0  0  0
 10 11  1  0  0  0  0
 10 12  1  0  0  0  0
 10 13  1  0  0  0  0
 13 14  1  0  0  0  0
 13 15  1  0  0  0  0
 13 16  1  0  0  0  0
 16 17  1  0  0  0  0
 16 18  1  0  0  0  0
 16 19  1  0  0  0  0
M  END
> <VConfSearch Rank>
388

> <Conf_Id>
35

> <Delta U+W>
-0.030

> <U+W>
-54.921

> <U>
8.267

> <W>
-63.188

> <W(PB)>
-65.294

> <W(SA)>
2.106

> <Valence>
6.935

> <Coulomb>
0.875

> <VdW>
0.457

> <VdW6>
-6.205

> <VdW12>
6.662

> <Bond>
0.107

> <Angle>
2.420

> <Pdih>
4.407

> <Idih>
0.001

> <Tether>
0.000

$$$$
VeraChem MOL file


 19 18  0  0  0  0  0  0  0  0999 V2000     
   21.1171   17.6669   24.7624 C   0  0  0  0  0  0  0  0  0  0  0  0
   20.3159   16.9372   25.3123 O   0  5  0  0  0  0  0  0  0  0  0  0
   21.7568   18.5211   25.3437 O   0  0  0  0  0  0  0  0  0  0  0  0
   21.3467   17.4844   23.2646 C   0  0  0  0  0  0  0  0  0  0  0  0
   21.4547   16.4092   23.0788 H   0  0  0  0  0  0  0  0  0  0  0  0
   22.3030   17.9501   22.9969 H   0  0  0  0  0  0  0  0  0  0  0  0
   20.2087   18.0508   22.3759 C   0  0  0  0  0  0  0  0  0  0  0  0
   20.3877   17.7377   21.3395 H   0  0  0  0  0  0  0  0  0  0  0  0
   19.2521   17.6050   22.6817 H   0  0  0  0  0  0  0  0  0  0  0  0
   20.1140   19.5939   22.4442 C   0  0  0  0  0  0  0  0  0  0  0  0
   21.0583   20.0384   22.1016 H   0  0  0  0  0  0  0  0  0  0  0  0
   19.9888   19.9019   23.4913 H   0  0  0  0  0  0  0  0  0  0  0  0
   18.9401   20.1741   21.6219 C   0  0  0  0  0  0  0  0  0  0  0  0
   17.9937   19.7328   21.9639 H   0  0  0  0  0  0  0  0  0  0  0  0
   18.8696   21.2523   21.8217 H   0  0  0  0  0  0  0  0  0  0  0  0
   19.0937   19.9604   20.1005 C   0  0  0  0  0  0  0  0  0  0  0  0
   19.0508   18.8958   19.8387 H   0  0  0  0  0  0  0  0  0  0  0  0
   18.2854   20.4681   19.5584 H   0  0  0  0  0  0  0  0  0  0  0  0
   20.0484   20.3660   19.7411 H   0  0  0  0  0  0  0  0  0  0  0  0
  1  2  1  0  0  0  0
  1  3  2  0  0  0  0
  1  4  1  0  0  0  0
  4  5  1  0  0  0  0
  4  6  1  0  0  0  0
  4  7  1  0  0  0  0
  7  8  1  0  0  0  0
  7  9  1  0  0  0  0
  7 10  1  0  0  0  0
 10 11  1  0  0  0  0
 10 12  1  0  0  0  0
 10 13  1  0  0  0  0
 13 14  1  0  0  0  0
 13 15  1  0  0  0  0
 13 16  1  0  0  0  0
 16 17  1  0  0  0  0
 16 18  1  0  0  0  0
 16 19  1  0  0  0  0
M  END
> <VConfSearch Rank>
389

> <Conf_Id>
74

> <Delta U+W>
0.797

> <U+W>
-54.095

> <U>
8.869

> <W>
-62.964

> <W(PB)>
-65.046

> <W(SA)>
2.082

> <Valence>
7.469

> <Coulomb>
0.762

> <VdW>
0.639

> <VdW6>
-6.782

> <VdW12>
7.421

> <Bond>
0.141

> <Angle>
2.667

> <Pdih>
4.660

> <Idih>
0.001

> <Tether>
0.000

$$$$
VeraChem MOL file


 19 18  0  0  0  0  0  0  0  0999 V2000     
   18.1945   21.1373   23.0271 C   0  0  0  0  0  0  0  0  0  0  0  0
   17.1564   21.4920   22.5047 O   0  5  0  0  0  0  0  0  0  0  0  0
   18.4861   21.3866   24.1800 O   0  0  0  0  0  0  0  0  0  0  0  0
   19.1760   20.3189   22.1958 C   0  0  0  0  0  0  0  0  0  0  0  0
   20.1883   20.5675   22.5342 H   0  0  0  0  0  0  0  0  0  0  0  0
   19.0921   20.6434   21.1517 H   0  0  0  0  0  0  0  0  0  0  0  0
   18.9268   18.7921   22.3031 C   0  0  0  0  0  0  0  0  0  0  0  0
   19.0509   18.4722   23.3462 H   0  0  0  0  0  0  0  0  0  0  0  0
   17.8786   18.5872   22.0454 H   0  0  0  0  0  0  0  0  0  0  0  0
   19.8365   17.9493   21.3742 C   0  0  0  0  0  0  0  0  0  0  0  0
   19.6216   18.2143   20.3299 H   0  0  0  0  0  0  0  0  0  0  0  0
   19.5643   16.8904   21.4804 H   0  0  0  0  0  0  0  0  0  0  0  0
   21.3571   18.1024   21.6238 C   0  0  0  0  0  0  0  0  0  0  0  0
   21.8949   17.4737   20.9009 H   0  0  0  0  0  0  0  0  0  0  0  0
   21.6727   19.1344   21.4215 H   0  0  0  0  0  0  0  0  0  0  0  0
   21.7864   17.6968   23.0502 C   0  0  0  0  0  0  0  0  0  0  0  0
   21.4607   16.6746   23.2828 H   0  0  0  0  0  0  0  0  0  0  0  0
   22.8791   17.7346   23.1479 H   0  0  0  0  0  0  0  0  0  0  0  0
   21.3617   18.3740   23.8021 H   0  0  0  0  0  0  0  0  0  0  0  0
  1  2  1  0  0  0  0
  1  3  2  0  0  0  0
  1  4  1  0  0  0  0
  4  5  1  0  0  0  0
  4  6  1  0  0  0  0
  4  7  1  0  0  0  0
  7  8  1  0  0  0  0
  7  9  1  0  0  0  0
  7 10  1  0  0  0  0
 10 11  1  0  0  0  0
 10 12  1  0  0  0  0
 10 13  1  0  0  0  0
 13 14  1  0  0  0  0
 13 15  1  0  0  0  0
 13 16  1  0  0  0  0
 16 17  1  0  0  0  0
 16 18  1  0  0  0  0
 16 19  1  0  0  0  0
M  END
> <VConfSearch Rank>
390

> <Conf_Id>
67

> <Delta U+W>
0.308

> <U+W>
-54.583

> <U>
8.219

> <W>
-62.802

> <W(PB)>
-64.859

> <W(SA)>
2.057

> <Valence>
7.609

> <Coulomb>
-0.089

> <VdW>
0.699

> <VdW6>
-6.924

> <VdW12>
7.623

> <Bond>
0.163

> <Angle>
2.870

> <Pdih>
4.576

> <Idih>
0.001

> <Tether>
0.000

$$$$
VeraChem MOL file


 19 18  0  0  0  0  0  0  0  0999 V2000     
   20.8017   16.4059   21.0525 C   0  0  0  0  0  0  0  0  0  0  0  0
   20.5377   15.2652   21.3775 O   0  5  0  0  0  0  0  0  0  0  0  0
   21.7704   16.7070   20.3837 O   0  0  0  0  0  0  0  0  0  0  0  0
   19.8773   17.5218   21.5263 C   0  0  0  0  0  0  0  0  0  0  0  0
   18.8592   17.1191   21.5862 H   0  0  0  0  0  0  0  0  0  0  0  0
   19.8746   18.3022   20.7568 H   0  0  0  0  0  0  0  0  0  0  0  0
   20.3008   18.1114   22.8966 C   0  0  0  0  0  0  0  0  0  0  0  0
   20.3827   17.2911   23.6230 H   0  0  0  0  0  0  0  0  0  0  0  0
   21.3061   18.5455   22.8147 H   0  0  0  0  0  0  0  0  0  0  0  0
   19.3082   19.1638   23.4514 C   0  0  0  0  0  0  0  0  0  0  0  0
   19.6597   19.4939   24.4385 H   0  0  0  0  0  0  0  0  0  0  0  0
   18.3362   18.6810   23.6216 H   0  0  0  0  0  0  0  0  0  0  0  0
   19.0959   20.4080   22.5543 C   0  0  0  0  0  0  0  0  0  0  0  0
   18.6458   20.1131   21.5971 H   0  0  0  0  0  0  0  0  0  0  0  0
   18.3663   21.0696   23.0412 H   0  0  0  0  0  0  0  0  0  0  0  0
   20.3931   21.2043   22.2962 C   0  0  0  0  0  0  0  0  0  0  0  0
   21.1105   20.6179   21.7082 H   0  0  0  0  0  0  0  0  0  0  0  0
   20.1751   22.1224   21.7355 H   0  0  0  0  0  0  0  0  0  0  0  0
   20.8731   21.4903   23.2411 H   0  0  0  0  0  0  0  0  0  0  0  0
  1  2  1  0  0  0  0
  1  3  2  0  0  0  0
  1  4  1  0  0  0  0
  4  5  1  0  0  0  0
  4  6  1  0  0  0  0
  4  7  1  0  0  0  0
  7  8  1  0  0  0  0
  7  9  1  0  0  0  0
  7 10  1  0  0  0  0
 10 11  1  0  0  0  0
 10 12  1  0  0  0  0
 10 13  1  0  0  0  0
 13 14  1  0  0  0  0
 13 15  1  0  0  0  0
 13 16  1  0  0  0  0
 16 17  1  0  0  0  0
 16 18  1  0  0  0  0
 16 19  1  0  0  0  0
M  END
> <VConfSearch Rank>
391

> <Conf_Id>
21

> <Delta U+W>
0.319

> <U+W>
-54.572

> <U>
8.220

> <W>
-62.792

> <W(PB)>
-64.830

> <W(SA)>
2.038

> <Valence>
7.609

> <Coulomb>
-0.088

> <VdW>
0.699

> <VdW6>
-6.924

> <VdW12>
7.623

> <Bond>
0.163

> <Angle>
2.870

> <Pdih>
4.576

> <Idih>
0.000

> <Tether>
0.000

$$$$
VeraChem MOL file


 19 18  0  0  0  0  0  0  0  0999 V2000     
   17.1734   18.3381   21.9597 C   0  0  0  0  0  0  0  0  0  0  0  0
   16.5801   17.8786   21.0040 O   0  5  0  0  0  0  0  0  0  0  0  0
   16.7535   18.2884   23.0988 O   0  0  0  0  0  0  0  0  0  0  0  0
   18.5269   18.9966   21.7181 C   0  0  0  0  0  0  0  0  0  0  0  0
   18.6465   19.7979   22.4539 H   0  0  0  0  0  0  0  0  0  0  0  0
   18.5003   19.4718   20.7303 H   0  0  0  0  0  0  0  0  0  0  0  0
   19.7060   17.9906   21.7919 C   0  0  0  0  0  0  0  0  0  0  0  0
   19.6997   17.4706   22.7598 H   0  0  0  0  0  0  0  0  0  0  0  0
   19.5389   17.2180   21.0286 H   0  0  0  0  0  0  0  0  0  0  0  0
   21.0897   18.6427   21.5423 C   0  0  0  0  0  0  0  0  0  0  0  0
   20.9876   19.5089   20.8743 H   0  0  0  0  0  0  0  0  0  0  0  0
   21.7148   17.9198   21.0003 H   0  0  0  0  0  0  0  0  0  0  0  0
   21.8544   19.0480   22.8263 C   0  0  0  0  0  0  0  0  0  0  0  0
   22.0300   18.1583   23.4466 H   0  0  0  0  0  0  0  0  0  0  0  0
   22.8465   19.4216   22.5374 H   0  0  0  0  0  0  0  0  0  0  0  0
   21.1467   20.1282   23.6701 C   0  0  0  0  0  0  0  0  0  0  0  0
   21.7973   20.4627   24.4885 H   0  0  0  0  0  0  0  0  0  0  0  0
   20.8941   21.0039   23.0584 H   0  0  0  0  0  0  0  0  0  0  0  0
   20.2254   19.7377   24.1201 H   0  0  0  0  0  0  0  0  0  0  0  0
  1  2  1  0  0  0  0
  1  3  2  0  0  0  0
  1  4  1  0  0  0  0
  4  5  1  0  0  0  0
  4  6  1  0  0  0  0
  4  7  1  0  0  0  0
  7  8  1  0  0  0  0
  7  9  1  0  0  0  0
  7 10  1  0  0  0  0
 10 11  1  0  0  0  0
 10 12  1  0  0  0  0
 10 13  1  0  0  0  0
 13 14  1  0  0  0  0
 13 15  1  0  0  0  0
 13 16  1  0  0  0  0
 16 17  1  0  0  0  0
 16 18  1  0  0  0  0
 16 19  1  0  0  0  0
M  END
> <VConfSearch Rank>
392

> <Conf_Id>
24

> <Delta U+W>
2.477

> <U+W>
-52.414

> <U>
10.422

> <W>
-62.836

> <W(PB)>
-64.906

> <W(SA)>
2.070

> <Valence>
9.628

> <Coulomb>
0.101

> <VdW>
0.693

> <VdW6>
-6.927

> <VdW12>
7.620

> <Bond>
0.173

> <Angle>
2.989

> <Pdih>
6.465

> <Idih>
0.001

> <Tether>
0.000

$$$$
VeraChem MOL file


 19 18  0  0  0  0  0  0  0  0999 V2000     
   20.5725   21.0190   20.8529 C   0  0  0  0  0  0  0  0  0  0  0  0
   19.5626   21.0208   20.1770 O   0  5  0  0  0  0  0  0  0  0  0  0
   21.2262   22.0169   21.0847 O   0  0  0  0  0  0  0  0  0  0  0  0
   21.0648   19.6892   21.4181 C   0  0  0  0  0  0  0  0  0  0  0  0
   22.1335   19.6146   21.1856 H   0  0  0  0  0  0  0  0  0  0  0  0
   20.5688   18.8784   20.8753 H   0  0  0  0  0  0  0  0  0  0  0  0
   20.8616   19.5410   22.9516 C   0  0  0  0  0  0  0  0  0  0  0  0
   21.4155   18.6660   23.3175 H   0  0  0  0  0  0  0  0  0  0  0  0
   21.3177   20.4130   23.4405 H   0  0  0  0  0  0  0  0  0  0  0  0
   19.3772   19.4423   23.3902 C   0  0  0  0  0  0  0  0  0  0  0  0
   18.7325   19.9968   22.6947 H   0  0  0  0  0  0  0  0  0  0  0  0
   19.2740   19.9490   24.3594 H   0  0  0  0  0  0  0  0  0  0  0  0
   18.8494   17.9967   23.5623 C   0  0  0  0  0  0  0  0  0  0  0  0
   19.4433   17.4753   24.3257 H   0  0  0  0  0  0  0  0  0  0  0  0
   17.8231   18.0451   23.9517 H   0  0  0  0  0  0  0  0  0  0  0  0
   18.8450   17.1673   22.2617 C   0  0  0  0  0  0  0  0  0  0  0  0
   19.8671   16.9496   21.9280 H   0  0  0  0  0  0  0  0  0  0  0  0
   18.3375   16.2071   22.4203 H   0  0  0  0  0  0  0  0  0  0  0  0
   18.3205   17.6997   21.4573 H   0  0  0  0  0  0  0  0  0  0  0  0
  1  2  1  0  0  0  0
  1  3  2  0  0  0  0
  1  4  1  0  0  0  0
  4  5  1  0  0  0  0
  4  6  1  0  0  0  0
  4  7  1  0  0  0  0
  7  8  1  0  0  0  0
  7  9  1  0  0  0  0
  7 10  1  0  0  0  0
 10 11  1  0  0  0  0
 10 12  1  0  0  0  0
 10 13  1  0  0  0  0
 13 14  1  0  0  0  0
 13 15  1  0  0  0  0
 13 16  1  0  0  0  0
 16 17  1  0  0  0  0
 16 18  1  0  0  0  0
 16 19  1  0  0  0  0
M  END
> <VConfSearch Rank>
393

> <Conf_Id>
4

> <Delta U+W>
3.753

> <U+W>
-51.138

> <U>
12.334

> <W>
-63.472

> <W(PB)>
-65.500

> <W(SA)>
2.028

> <Valence>
9.984

> <Coulomb>
1.767

> <VdW>
0.583

> <VdW6>
-7.767

> <VdW12>
8.349

> <Bond>
0.203

> <Angle>
3.191

> <Pdih>
6.589

> <Idih>
0.001

> <Tether>
0.000

$$$$
VeraChem MOL file


 19 18  0  0  0  0  0  0  0  0999 V2000     
   19.4524   18.6607   24.9690 C   0  0  0  0  0  0  0  0  0  0  0  0
   18.6424   17.9805   25.5677 O   0  5  0  0  0  0  0  0  0  0  0  0
   20.6039   18.8049   25.3293 O   0  0  0  0  0  0  0  0  0  0  0  0
   18.9873   19.3951   23.7142 C   0  0  0  0  0  0  0  0  0  0  0  0
   19.7121   20.1832   23.4867 H   0  0  0  0  0  0  0  0  0  0  0  0
   18.0455   19.8975   23.9636 H   0  0  0  0  0  0  0  0  0  0  0  0
   18.7655   18.4688   22.4862 C   0  0  0  0  0  0  0  0  0  0  0  0
   18.0862   17.6600   22.7894 H   0  0  0  0  0  0  0  0  0  0  0  0
   18.2426   19.0207   21.6936 H   0  0  0  0  0  0  0  0  0  0  0  0
   20.0658   17.8426   21.9184 C   0  0  0  0  0  0  0  0  0  0  0  0
   19.8278   16.8331   21.5564 H   0  0  0  0  0  0  0  0  0  0  0  0
   20.8075   17.7049   22.7170 H   0  0  0  0  0  0  0  0  0  0  0  0
   20.6969   18.6229   20.7391 C   0  0  0  0  0  0  0  0  0  0  0  0
   21.5572   18.0513   20.3645 H   0  0  0  0  0  0  0  0  0  0  0  0
   19.9802   18.6794   19.9082 H   0  0  0  0  0  0  0  0  0  0  0  0
   21.1708   20.0447   21.1047 C   0  0  0  0  0  0  0  0  0  0  0  0
   21.8315   20.0260   21.9814 H   0  0  0  0  0  0  0  0  0  0  0  0
   21.7268   20.4906   20.2700 H   0  0  0  0  0  0  0  0  0  0  0  0
   20.3195   20.7014   21.3228 H   0  0  0  0  0  0  0  0  0  0  0  0
  1  2  1  0  0  0  0
  1  3  2  0  0  0  0
  1  4  1  0  0  0  0
  4  5  1  0  0  0  0
  4  6  1  0  0  0  0
  4  7  1  0  0  0  0
  7  8  1  0  0  0  0
  7  9  1  0  0  0  0
  7 10  1  0  0  0  0
 10 11  1  0  0  0  0
 10 12  1  0  0  0  0
 10 13  1  0  0  0  0
 13 14  1  0  0  0  0
 13 15  1  0  0  0  0
 13 16  1  0  0  0  0
 16 17  1  0  0  0  0
 16 18  1  0  0  0  0
 16 19  1  0  0  0  0
M  END
> <VConfSearch Rank>
394

> <Conf_Id>
73

> <Delta U+W>
3.707

> <U+W>
-51.184

> <U>
12.334

> <W>
-63.519

> <W(PB)>
-65.541

> <W(SA)>
2.022

> <Valence>
9.984

> <Coulomb>
1.768

> <VdW>
0.583

> <VdW6>
-7.767

> <VdW12>
8.350

> <Bond>
0.203

> <Angle>
3.192

> <Pdih>
6.589

> <Idih>
0.001

> <Tether>
0.000

$$$$
VeraChem MOL file


 19 18  0  0  0  0  0  0  0  0999 V2000     
   20.6154   16.7278   23.3143 C   0  0  0  0  0  0  0  0  0  0  0  0
   19.5057   16.2748   23.5143 O   0  5  0  0  0  0  0  0  0  0  0  0
   21.5637   16.0516   22.9671 O   0  0  0  0  0  0  0  0  0  0  0  0
   20.8411   18.2201   23.5415 C   0  0  0  0  0  0  0  0  0  0  0  0
   21.7216   18.3225   24.1863 H   0  0  0  0  0  0  0  0  0  0  0  0
   19.9932   18.6219   24.1081 H   0  0  0  0  0  0  0  0  0  0  0  0
   21.0616   19.0348   22.2378 C   0  0  0  0  0  0  0  0  0  0  0  0
   21.2886   20.0771   22.4967 H   0  0  0  0  0  0  0  0  0  0  0  0
   21.9558   18.6490   21.7291 H   0  0  0  0  0  0  0  0  0  0  0  0
   19.8702   18.9918   21.2464 C   0  0  0  0  0  0  0  0  0  0  0  0
   19.7295   17.9587   20.9000 H   0  0  0  0  0  0  0  0  0  0  0  0
   20.1331   19.5759   20.3540 H   0  0  0  0  0  0  0  0  0  0  0  0
   18.5254   19.5141   21.8084 C   0  0  0  0  0  0  0  0  0  0  0  0
   17.7594   19.4189   21.0267 H   0  0  0  0  0  0  0  0  0  0  0  0
   18.1910   18.8777   22.6388 H   0  0  0  0  0  0  0  0  0  0  0  0
   18.5850   20.9866   22.2689 C   0  0  0  0  0  0  0  0  0  0  0  0
   19.2567   21.1090   23.1278 H   0  0  0  0  0  0  0  0  0  0  0  0
   18.9384   21.6375   21.4587 H   0  0  0  0  0  0  0  0  0  0  0  0
   17.5893   21.3344   22.5730 H   0  0  0  0  0  0  0  0  0  0  0  0
  1  2  1  0  0  0  0
  1  3  2  0  0  0  0
  1  4  1  0  0  0  0
  4  5  1  0  0  0  0
  4  6  1  0  0  0  0
  4  7  1  0  0  0  0
  7  8  1  0  0  0  0
  7  9  1  0  0  0  0
  7 10  1  0  0  0  0
 10 11  1  0  0  0  0
 10 12  1  0  0  0  0
 10 13  1  0  0  0  0
 13 14  1  0  0  0  0
 13 15  1  0  0  0  0
 13 16  1  0  0  0  0
 16 17  1  0  0  0  0
 16 18  1  0  0  0  0
 16 19  1  0  0  0  0
M  END
> <VConfSearch Rank>
395

> <Conf_Id>
56

> <Delta U+W>
1.735

> <U+W>
-53.156

> <U>
10.214

> <W>
-63.370

> <W(PB)>
-65.388

> <W(SA)>
2.018

> <Valence>
7.868

> <Coulomb>
1.968

> <VdW>
0.378

> <VdW6>
-8.067

> <VdW12>
8.445

> <Bond>
0.191

> <Angle>
3.117

> <Pdih>
4.559

> <Idih>
0.001

> <Tether>
0.000

$$$$
VeraChem MOL file


 19 18  0  0  0  0  0  0  0  0999 V2000     
   22.0114   17.2731   23.5399 C   0  0  0  0  0  0  0  0  0  0  0  0
   21.8328   16.6729   24.5811 O   0  5  0  0  0  0  0  0  0  0  0  0
   23.1014   17.4074   23.0201 O   0  0  0  0  0  0  0  0  0  0  0  0
   20.8050   17.9107   22.8599 C   0  0  0  0  0  0  0  0  0  0  0  0
   19.9245   17.2951   23.0792 H   0  0  0  0  0  0  0  0  0  0  0  0
   20.9750   17.8711   21.7783 H   0  0  0  0  0  0  0  0  0  0  0  0
   20.5632   19.3727   23.3129 C   0  0  0  0  0  0  0  0  0  0  0  0
   20.5389   19.4009   24.4111 H   0  0  0  0  0  0  0  0  0  0  0  0
   21.4184   19.9917   23.0085 H   0  0  0  0  0  0  0  0  0  0  0  0
   19.2512   19.9989   22.7772 C   0  0  0  0  0  0  0  0  0  0  0  0
   19.1670   21.0066   23.2065 H   0  0  0  0  0  0  0  0  0  0  0  0
   18.3843   19.4401   23.1556 H   0  0  0  0  0  0  0  0  0  0  0  0
   19.1767   20.1245   21.2352 C   0  0  0  0  0  0  0  0  0  0  0  0
   18.6429   21.0516   20.9844 H   0  0  0  0  0  0  0  0  0  0  0  0
   20.1853   20.2290   20.8120 H   0  0  0  0  0  0  0  0  0  0  0  0
   18.4323   18.9497   20.5626 C   0  0  0  0  0  0  0  0  0  0  0  0
   18.3913   19.0939   19.4753 H   0  0  0  0  0  0  0  0  0  0  0  0
   18.9250   17.9899   20.7540 H   0  0  0  0  0  0  0  0  0  0  0  0
   17.4003   18.8799   20.9306 H   0  0  0  0  0  0  0  0  0  0  0  0
  1  2  1  0  0  0  0
  1  3  2  0  0  0  0
  1  4  1  0  0  0  0
  4  5  1  0  0  0  0
  4  6  1  0  0  0  0
  4  7  1  0  0  0  0
  7  8  1  0  0  0  0
  7  9  1  0  0  0  0
  7 10  1  0  0  0  0
 10 11  1  0  0  0  0
 10 12  1  0  0  0  0
 10 13  1  0  0  0  0
 13 14  1  0  0  0  0
 13 15  1  0  0  0  0
 13 16  1  0  0  0  0
 16 17  1  0  0  0  0
 16 18  1  0  0  0  0
 16 19  1  0  0  0  0
M  END
> <VConfSearch Rank>
396

> <Conf_Id>
53

> <Delta U+W>
2.279

> <U+W>
-52.612

> <U>
10.231

> <W>
-62.843

> <W(PB)>
-64.893

> <W(SA)>
2.050

> <Valence>
9.644

> <Coulomb>
-0.164

> <VdW>
0.751

> <VdW6>
-6.881

> <VdW12>
7.631

> <Bond>
0.163

> <Angle>
2.998

> <Pdih>
6.482

> <Idih>
0.001

> <Tether>
0.000

$$$$
VeraChem MOL file


 19 18  0  0  0  0  0  0  0  0999 V2000     
   19.1725   17.0012   23.6133 C   0  0  0  0  0  0  0  0  0  0  0  0
   19.0301   16.1941   22.7160 O   0  5  0  0  0  0  0  0  0  0  0  0
   18.2584   17.3954   24.3106 O   0  0  0  0  0  0  0  0  0  0  0  0
   20.5858   17.4906   23.9244 C   0  0  0  0  0  0  0  0  0  0  0  0
   21.2915   16.9989   23.2438 H   0  0  0  0  0  0  0  0  0  0  0  0
   20.8213   17.1317   24.9330 H   0  0  0  0  0  0  0  0  0  0  0  0
   20.7797   19.0325   23.8787 C   0  0  0  0  0  0  0  0  0  0  0  0
   19.9461   19.5303   24.3932 H   0  0  0  0  0  0  0  0  0  0  0  0
   21.6809   19.2778   24.4566 H   0  0  0  0  0  0  0  0  0  0  0  0
   20.9557   19.6233   22.4579 C   0  0  0  0  0  0  0  0  0  0  0  0
   21.7948   19.1264   21.9520 H   0  0  0  0  0  0  0  0  0  0  0  0
   21.2388   20.6799   22.5595 H   0  0  0  0  0  0  0  0  0  0  0  0
   19.6906   19.5319   21.5765 C   0  0  0  0  0  0  0  0  0  0  0  0
   19.4639   18.4822   21.3505 H   0  0  0  0  0  0  0  0  0  0  0  0
   18.8269   19.9375   22.1214 H   0  0  0  0  0  0  0  0  0  0  0  0
   19.8686   20.2989   20.2506 C   0  0  0  0  0  0  0  0  0  0  0  0
   20.7112   19.8952   19.6741 H   0  0  0  0  0  0  0  0  0  0  0  0
   18.9649   20.2170   19.6328 H   0  0  0  0  0  0  0  0  0  0  0  0
   20.0577   21.3646   20.4347 H   0  0  0  0  0  0  0  0  0  0  0  0
  1  2  1  0  0  0  0
  1  3  2  0  0  0  0
  1  4  1  0  0  0  0
  4  5  1  0  0  0  0
  4  6  1  0  0  0  0
  4  7  1  0  0  0  0
  7  8  1  0  0  0  0
  7  9  1  0  0  0  0
  7 10  1  0  0  0  0
 10 11  1  0  0  0  0
 10 12  1  0  0  0  0
 10 13  1  0  0  0  0
 13 14  1  0  0  0  0
 13 15  1  0  0  0  0
 13 16  1  0  0  0  0
 16 17  1  0  0  0  0
 16 18  1  0  0  0  0
 16 19  1  0  0  0  0
M  END
> <VConfSearch Rank>
397

> <Conf_Id>
25

> <Delta U+W>
2.065

> <U+W>
-52.826

> <U>
10.967

> <W>
-63.794

> <W(PB)>
-65.830

> <W(SA)>
2.036

> <Valence>
8.609

> <Coulomb>
1.892

> <VdW>
0.467

> <VdW6>
-7.569

> <VdW12>
8.036

> <Bond>
0.170

> <Angle>
3.195

> <Pdih>
5.237

> <Idih>
0.007

> <Tether>
0.000

$$$$
VeraChem MOL file


 19 18  0  0  0  0  0  0  0  0999 V2000     
   20.8610   20.8875   21.4373 C   0  0  0  0  0  0  0  0  0  0  0  0
   20.8447   21.7816   22.2604 O   0  5  0  0  0  0  0  0  0  0  0  0
   20.2194   20.9154   20.4056 O   0  0  0  0  0  0  0  0  0  0  0  0
   21.7889   19.6978   21.6766 C   0  0  0  0  0  0  0  0  0  0  0  0
   22.8091   20.0988   21.6821 H   0  0  0  0  0  0  0  0  0  0  0  0
   21.7243   19.0168   20.8193 H   0  0  0  0  0  0  0  0  0  0  0  0
   21.5443   18.9207   23.0008 C   0  0  0  0  0  0  0  0  0  0  0  0
   22.4575   18.3578   23.2367 H   0  0  0  0  0  0  0  0  0  0  0  0
   21.4029   19.6281   23.8297 H   0  0  0  0  0  0  0  0  0  0  0  0
   20.3685   17.9137   22.9554 C   0  0  0  0  0  0  0  0  0  0  0  0
   20.3911   17.3196   23.8793 H   0  0  0  0  0  0  0  0  0  0  0  0
   20.5198   17.2054   22.1294 H   0  0  0  0  0  0  0  0  0  0  0  0
   18.9783   18.5740   22.8249 C   0  0  0  0  0  0  0  0  0  0  0  0
   18.8638   19.3551   23.5891 H   0  0  0  0  0  0  0  0  0  0  0  0
   18.8844   19.0644   21.8476 H   0  0  0  0  0  0  0  0  0  0  0  0
   17.8447   17.5392   22.9732 C   0  0  0  0  0  0  0  0  0  0  0  0
   16.8646   18.0226   22.8695 H   0  0  0  0  0  0  0  0  0  0  0  0
   17.9217   16.7602   22.2034 H   0  0  0  0  0  0  0  0  0  0  0  0
   17.8807   17.0542   23.9574 H   0  0  0  0  0  0  0  0  0  0  0  0
  1  2  1  0  0  0  0
  1  3  2  0  0  0  0
  1  4  1  0  0  0  0
  4  5  1  0  0  0  0
  4  6  1  0  0  0  0
  4  7  1  0  0  0  0
  7  8  1  0  0  0  0
  7  9  1  0  0  0  0
  7 10  1  0  0  0  0
 10 11  1  0  0  0  0
 10 12  1  0  0  0  0
 10 13  1  0  0  0  0
 13 14  1  0  0  0  0
 13 15  1  0  0  0  0
 13 16  1  0  0  0  0
 16 17  1  0  0  0  0
 16 18  1  0  0  0  0
 16 19  1  0  0  0  0
M  END
> <VConfSearch Rank>
398

> <Conf_Id>
52

> <Delta U+W>
2.070

> <U+W>
-52.822

> <U>
10.967

> <W>
-63.789

> <W(PB)>
-65.837

> <W(SA)>
2.048

> <Valence>
8.609

> <Coulomb>
1.892

> <VdW>
0.467

> <VdW6>
-7.569

> <VdW12>
8.035

> <Bond>
0.170

> <Angle>
3.196

> <Pdih>
5.237

> <Idih>
0.007

> <Tether>
0.000

$$$$
VeraChem MOL file


 19 18  0  0  0  0  0  0  0  0999 V2000     
   21.6855   19.8963   22.1880 C   0  0  0  0  0  0  0  0  0  0  0  0
   22.3721   19.1571   21.5095 O   0  5  0  0  0  0  0  0  0  0  0  0
   21.4413   21.0461   21.8799 O   0  0  0  0  0  0  0  0  0  0  0  0
   21.2079   19.4051   23.5554 C   0  0  0  0  0  0  0  0  0  0  0  0
   20.4860   20.1239   23.9613 H   0  0  0  0  0  0  0  0  0  0  0  0
   22.0847   19.4387   24.2122 H   0  0  0  0  0  0  0  0  0  0  0  0
   20.6116   17.9688   23.5873 C   0  0  0  0  0  0  0  0  0  0  0  0
   21.2076   17.3005   22.9506 H   0  0  0  0  0  0  0  0  0  0  0  0
   20.7207   17.5811   24.6091 H   0  0  0  0  0  0  0  0  0  0  0  0
   19.1126   17.8625   23.2066 C   0  0  0  0  0  0  0  0  0  0  0  0
   18.5049   18.4521   23.9068 H   0  0  0  0  0  0  0  0  0  0  0  0
   18.8077   16.8180   23.3578 H   0  0  0  0  0  0  0  0  0  0  0  0
   18.7793   18.2516   21.7459 C   0  0  0  0  0  0  0  0  0  0  0  0
   19.6715   18.1605   21.1110 H   0  0  0  0  0  0  0  0  0  0  0  0
   18.0477   17.5358   21.3465 H   0  0  0  0  0  0  0  0  0  0  0  0
   18.1785   19.6686   21.6274 C   0  0  0  0  0  0  0  0  0  0  0  0
   17.2321   19.7398   22.1789 H   0  0  0  0  0  0  0  0  0  0  0  0
   18.8605   20.4289   22.0257 H   0  0  0  0  0  0  0  0  0  0  0  0
   17.9768   19.9148   20.5770 H   0  0  0  0  0  0  0  0  0  0  0  0
  1  2  1  0  0  0  0
  1  3  2  0  0  0  0
  1  4  1  0  0  0  0
  4  5  1  0  0  0  0
  4  6  1  0  0  0  0
  4  7  1  0  0  0  0
  7  8  1  0  0  0  0
  7  9  1  0  0  0  0
  7 10  1  0  0  0  0
 10 11  1  0  0  0  0
 10 12  1  0  0  0  0
 10 13  1  0  0  0  0
 13 14  1  0  0  0  0
 13 15  1  0  0  0  0
 13 16  1  0  0  0  0
 16 17  1  0  0  0  0
 16 18  1  0  0  0  0
 16 19  1  0  0  0  0
M  END
> <VConfSearch Rank>
399

> <Conf_Id>
66

> <Delta U+W>
5.819

> <U+W>
-49.072

> <U>
15.324

> <W>
-64.396

> <W(PB)>
-66.382

> <W(SA)>
1.986

> <Valence>
11.748

> <Coulomb>
3.201

> <VdW>
0.375

> <VdW6>
-8.854

> <VdW12>
9.229

> <Bond>
0.216

> <Angle>
3.812

> <Pdih>
7.699

> <Idih>
0.022

> <Tether>
0.000

$$$$
VeraChem MOL file


 19 18  0  0  0  0  0  0  0  0999 V2000     
   19.3986   19.3204   25.4747 C   0  0  0  0  0  0  0  0  0  0  0  0
   18.5163   19.2206   26.3038 O   0  5  0  0  0  0  0  0  0  0  0  0
   20.5284   19.6769   25.7478 O   0  0  0  0  0  0  0  0  0  0  0  0
   19.0399   18.9747   24.0285 C   0  0  0  0  0  0  0  0  0  0  0  0
   18.2053   19.6221   23.7347 H   0  0  0  0  0  0  0  0  0  0  0  0
   18.6647   17.9446   24.0218 H   0  0  0  0  0  0  0  0  0  0  0  0
   20.1986   19.1169   23.0060 C   0  0  0  0  0  0  0  0  0  0  0  0
   20.5739   20.1496   23.0218 H   0  0  0  0  0  0  0  0  0  0  0  0
   21.0337   18.4703   23.3092 H   0  0  0  0  0  0  0  0  0  0  0  0
   19.7499   18.7491   21.5750 C   0  0  0  0  0  0  0  0  0  0  0  0
   18.9149   19.3966   21.2739 H   0  0  0  0  0  0  0  0  0  0  0  0
   19.3750   17.7164   21.5615 H   0  0  0  0  0  0  0  0  0  0  0  0
   20.9032   18.8912   20.5600 C   0  0  0  0  0  0  0  0  0  0  0  0
   21.2798   19.9235   20.5692 H   0  0  0  0  0  0  0  0  0  0  0  0
   21.7398   18.2435   20.8566 H   0  0  0  0  0  0  0  0  0  0  0  0
   20.4516   18.5233   19.1325 C   0  0  0  0  0  0  0  0  0  0  0  0
   19.6356   19.1772   18.7979 H   0  0  0  0  0  0  0  0  0  0  0  0
   21.2835   18.6299   18.4242 H   0  0  0  0  0  0  0  0  0  0  0  0
   20.0991   17.4845   19.0876 H   0  0  0  0  0  0  0  0  0  0  0  0
  1  2  1  0  0  0  0
  1  3  2  0  0  0  0
  1  4  1  0  0  0  0
  4  5  1  0  0  0  0
  4  6  1  0  0  0  0
  4  7  1  0  0  0  0
  7  8  1  0  0  0  0
  7  9  1  0  0  0  0
  7 10  1  0  0  0  0
 10 11  1  0  0  0  0
 10 12  1  0  0  0  0
 10 13  1  0  0  0  0
 13 14  1  0  0  0  0
 13 15  1  0  0  0  0
 13 16  1  0  0  0  0
 16 17  1  0  0  0  0
 16 18  1  0  0  0  0
 16 19  1  0  0  0  0
M  END
> <VConfSearch Rank>
400

> <Conf_Id>
0

> <Delta U+W>
0.000

> <U+W>
-54.891

> <U>
6.966

> <W>
-61.857

> <W(PB)>
-63.965

> <W(SA)>
2.108

> <Valence>
7.175

> <Coulomb>
-1.360

> <VdW>
1.151

> <VdW6>
-5.641

> <VdW12>
6.792

> <Bond>
0.119

> <Angle>
2.715

> <Pdih>
4.340

> <Idih>
0.000

> <Tether>
0.000

$$$$
VeraChem MOL file


 19 18  0  0  0  0  0  0  0  0999 V2000     
   20.0216   17.1832   25.0450 C   0  0  0  0  0  0  0  0  0  0  0  0
   19.1561   17.4721   25.8472 O   0  5  0  0  0  0  0  0  0  0  0  0
   20.5198   16.0782   24.9618 O   0  0  0  0  0  0  0  0  0  0  0  0
   20.4941   18.2611   24.0758 C   0  0  0  0  0  0  0  0  0  0  0  0
   21.5533   18.0812   23.8559 H   0  0  0  0  0  0  0  0  0  0  0  0
   20.4290   19.2300   24.5854 H   0  0  0  0  0  0  0  0  0  0  0  0
   19.6736   18.2919   22.7628 C   0  0  0  0  0  0  0  0  0  0  0  0
   19.7386   17.3112   22.2713 H   0  0  0  0  0  0  0  0  0  0  0  0
   18.6141   18.4599   23.0010 H   0  0  0  0  0  0  0  0  0  0  0  0
   20.1715   19.3910   21.7997 C   0  0  0  0  0  0  0  0  0  0  0  0
   21.2312   19.2210   21.5646 H   0  0  0  0  0  0  0  0  0  0  0  0
   20.1064   20.3699   22.2943 H   0  0  0  0  0  0  0  0  0  0  0  0
   19.3523   19.4192   20.4925 C   0  0  0  0  0  0  0  0  0  0  0  0
   19.4165   18.4422   19.9937 H   0  0  0  0  0  0  0  0  0  0  0  0
   18.2918   19.5911   20.7233 H   0  0  0  0  0  0  0  0  0  0  0  0
   19.8522   20.5178   19.5332 C   0  0  0  0  0  0  0  0  0  0  0  0
   19.2591   20.5238   18.6094 H   0  0  0  0  0  0  0  0  0  0  0  0
   19.7697   21.5102   19.9954 H   0  0  0  0  0  0  0  0  0  0  0  0
   20.9028   20.3527   19.2604 H   0  0  0  0  0  0  0  0  0  0  0  0
  1  2  1  0  0  0  0
  1  3  2  0  0  0  0
  1  4  1  0  0  0  0
  4  5  1  0  0  0  0
  4  6  1  0  0  0  0
  4  7  1  0  0  0  0
  7  8  1  0  0  0  0
  7  9  1  0  0  0  0
  7 10  1  0  0  0  0
 10 11  1  0  0  0  0
 10 12  1  0  0  0  0
 10 13  1  0  0  0  0
 13 14  1  0  0  0  0
 13 15  1  0  0  0  0
 13 16  1  0  0  0  0
 16 17  1  0  0  0  0
 16 18  1  0  0  0  0
 16 19  1  0  0  0  0
M  END
> <VConfSearch Rank>
401

> <Conf_Id>
18

> <Delta U+W>
-1.199

> <U+W>
-56.090

> <U>
5.975

> <W>
-62.066

> <W(PB)>
-64.219

> <W(SA)>
2.153

> <Valence>
6.673

> <Coulomb>
-1.307

> <VdW>
0.610

> <VdW6>
-5.351

> <VdW12>
5.961

> <Bond>
0.086

> <Angle>
2.253

> <Pdih>
4.333

> <Idih>
0.001

> <Tether>
0.000

$$$$
VeraChem MOL file


 19 18  0  0  0  0  0  0  0  0999 V2000     
   22.6654   19.3568   23.9024 C   0  0  0  0  0  0  0  0  0  0  0  0
   22.7790   19.0296   25.0670 O   0  5  0  0  0  0  0  0  0  0  0  0
   23.6100   19.5813   23.1720 O   0  0  0  0  0  0  0  0  0  0  0  0
   21.2610   19.4709   23.3200 C   0  0  0  0  0  0  0  0  0  0  0  0
   21.2765   20.2660   22.5661 H   0  0  0  0  0  0  0  0  0  0  0  0
   20.5858   19.7948   24.1210 H   0  0  0  0  0  0  0  0  0  0  0  0
   20.7577   18.1408   22.7016 C   0  0  0  0  0  0  0  0  0  0  0  0
   21.4164   17.8495   21.8717 H   0  0  0  0  0  0  0  0  0  0  0  0
   20.8412   17.3471   23.4569 H   0  0  0  0  0  0  0  0  0  0  0  0
   19.2925   18.2038   22.2090 C   0  0  0  0  0  0  0  0  0  0  0  0
   18.6356   18.4869   23.0429 H   0  0  0  0  0  0  0  0  0  0  0  0
   18.9850   17.1955   21.8997 H   0  0  0  0  0  0  0  0  0  0  0  0
   19.0829   19.1771   21.0273 C   0  0  0  0  0  0  0  0  0  0  0  0
   19.3125   20.2049   21.3379 H   0  0  0  0  0  0  0  0  0  0  0  0
   19.7758   18.9256   20.2125 H   0  0  0  0  0  0  0  0  0  0  0  0
   17.6343   19.1242   20.5020 C   0  0  0  0  0  0  0  0  0  0  0  0
   17.5005   19.8225   19.6656 H   0  0  0  0  0  0  0  0  0  0  0  0
   17.3816   18.1169   20.1459 H   0  0  0  0  0  0  0  0  0  0  0  0
   16.9208   19.3986   21.2901 H   0  0  0  0  0  0  0  0  0  0  0  0
  1  2  1  0  0  0  0
  1  3  2  0  0  0  0
  1  4  1  0  0  0  0
  4  5  1  0  0  0  0
  4  6  1  0  0  0  0
  4  7  1  0  0  0  0
  7  8  1  0  0  0  0
  7  9  1  0  0  0  0
  7 10  1  0  0  0  0
 10 11  1  0  0  0  0
 10 12  1  0  0  0  0
 10 13  1  0  0  0  0
 13 14  1  0  0  0  0
 13 15  1  0  0  0  0
 13 16  1  0  0  0  0
 16 17  1  0  0  0  0
 16 18  1  0  0  0  0
 16 19  1  0  0  0  0
M  END
> <VConfSearch Rank>
402

> <Conf_Id>
34

> <Delta U+W>
-0.563

> <U+W>
-55.455

> <U>
6.914

> <W>
-62.369

> <W(PB)>
-64.446

> <W(SA)>
2.077

> <Valence>
7.196

> <Coulomb>
-1.020

> <VdW>
0.738

> <VdW6>
-6.010

> <VdW12>
6.748

> <Bond>
0.126

> <Angle>
2.499

> <Pdih>
4.570

> <Idih>
0.001

> <Tether>
0.000

$$$$
VeraChem MOL file


 19 18  0  0  0  0  0  0  0  0999 V2000     
   19.1621   18.6509   19.0878 C   0  0  0  0  0  0  0  0  0  0  0  0
   18.2155   19.2255   18.5878 O   0  5  0  0  0  0  0  0  0  0  0  0
   19.7052   17.6870   18.5857 O   0  0  0  0  0  0  0  0  0  0  0  0
   19.6830   19.1537   20.4296 C   0  0  0  0  0  0  0  0  0  0  0  0
   19.5272   20.2384   20.4703 H   0  0  0  0  0  0  0  0  0  0  0  0
   20.7646   18.9792   20.4539 H   0  0  0  0  0  0  0  0  0  0  0  0
   18.9915   18.4685   21.6368 C   0  0  0  0  0  0  0  0  0  0  0  0
   17.9038   18.5849   21.5325 H   0  0  0  0  0  0  0  0  0  0  0  0
   19.1918   17.3885   21.6099 H   0  0  0  0  0  0  0  0  0  0  0  0
   19.4227   19.0464   23.0056 C   0  0  0  0  0  0  0  0  0  0  0  0
   18.8015   18.5897   23.7882 H   0  0  0  0  0  0  0  0  0  0  0  0
   19.2133   20.1246   23.0324 H   0  0  0  0  0  0  0  0  0  0  0  0
   20.9112   18.7965   23.3366 C   0  0  0  0  0  0  0  0  0  0  0  0
   21.1328   17.7231   23.2599 H   0  0  0  0  0  0  0  0  0  0  0  0
   21.5525   19.3094   22.6079 H   0  0  0  0  0  0  0  0  0  0  0  0
   21.2659   19.2925   24.7527 C   0  0  0  0  0  0  0  0  0  0  0  0
   21.0795   20.3701   24.8493 H   0  0  0  0  0  0  0  0  0  0  0  0
   20.6689   18.7716   25.5129 H   0  0  0  0  0  0  0  0  0  0  0  0
   22.3261   19.1108   24.9718 H   0  0  0  0  0  0  0  0  0  0  0  0
  1  2  1  0  0  0  0
  1  3  2  0  0  0  0
  1  4  1  0  0  0  0
  4  5  1  0  0  0  0
  4  6  1  0  0  0  0
  4  7  1  0  0  0  0
  7  8  1  0  0  0  0
  7  9  1  0  0  0  0
  7 10  1  0  0  0  0
 10 11  1  0  0  0  0
 10 12  1  0  0  0  0
 10 13  1  0  0  0  0
 13 14  1  0  0  0  0
 13 15  1  0  0  0  0
 13 16  1  0  0  0  0
 16 17  1  0  0  0  0
 16 18  1  0  0  0  0
 16 19  1  0  0  0  0
M  END
> <VConfSearch Rank>
403

> <Conf_Id>
33

> <Delta U+W>
-0.526

> <U+W>
-55.418

> <U>
6.914

> <W>
-62.332

> <W(PB)>
-64.421

> <W(SA)>
2.090

> <Valence>
7.196

> <Coulomb>
-1.020

> <VdW>
0.738

> <VdW6>
-6.010

> <VdW12>
6.748

> <Bond>
0.126

> <Angle>
2.499

> <Pdih>
4.570

> <Idih>
0.001

> <Tether>
0.000

$$$$
VeraChem MOL file


 19 18  0  0  0  0  0  0  0  0999 V2000     
   22.3994   17.0180   21.9724 C   0  0  0  0  0  0  0  0  0  0  0  0
   23.2869   17.5721   21.3546 O   0  5  0  0  0  0  0  0  0  0  0  0
   22.5990   16.2421   22.8859 O   0  0  0  0  0  0  0  0  0  0  0  0
   20.9556   17.3267   21.5920 C   0  0  0  0  0  0  0  0  0  0  0  0
   20.3562   16.4260   21.7714 H   0  0  0  0  0  0  0  0  0  0  0  0
   20.9225   17.5289   20.5146 H   0  0  0  0  0  0  0  0  0  0  0  0
   20.3688   18.5251   22.3781 C   0  0  0  0  0  0  0  0  0  0  0  0
   20.4176   18.3115   23.4548 H   0  0  0  0  0  0  0  0  0  0  0  0
   20.9949   19.4089   22.1981 H   0  0  0  0  0  0  0  0  0  0  0  0
   18.9063   18.8175   21.9701 C   0  0  0  0  0  0  0  0  0  0  0  0
   18.3118   17.9014   22.0897 H   0  0  0  0  0  0  0  0  0  0  0  0
   18.8643   19.0790   20.9039 H   0  0  0  0  0  0  0  0  0  0  0  0
   18.2494   19.9414   22.8043 C   0  0  0  0  0  0  0  0  0  0  0  0
   17.1860   20.0045   22.5351 H   0  0  0  0  0  0  0  0  0  0  0  0
   18.2844   19.6808   23.8712 H   0  0  0  0  0  0  0  0  0  0  0  0
   18.9001   21.3244   22.5858 C   0  0  0  0  0  0  0  0  0  0  0  0
   18.9028   21.5936   21.5215 H   0  0  0  0  0  0  0  0  0  0  0  0
   18.3447   22.0998   23.1290 H   0  0  0  0  0  0  0  0  0  0  0  0
   19.9354   21.3420   22.9485 H   0  0  0  0  0  0  0  0  0  0  0  0
  1  2  1  0  0  0  0
  1  3  2  0  0  0  0
  1  4  1  0  0  0  0
  4  5  1  0  0  0  0
  4  6  1  0  0  0  0
  4  7  1  0  0  0  0
  7  8  1  0  0  0  0
  7  9  1  0  0  0  0
  7 10  1  0  0  0  0
 10 11  1  0  0  0  0
 10 12  1  0  0  0  0
 10 13  1  0  0  0  0
 13 14  1  0  0  0  0
 13 15  1  0  0  0  0
 13 16  1  0  0  0  0
 16 17  1  0  0  0  0
 16 18  1  0  0  0  0
 16 19  1  0  0  0  0
M  END
> <VConfSearch Rank>
404

> <Conf_Id>
42

> <Delta U+W>
-0.344

> <U+W>
-55.236

> <U>
7.244

> <W>
-62.479

> <W(PB)>
-64.610

> <W(SA)>
2.130

> <Valence>
7.174

> <Coulomb>
-0.669

> <VdW>
0.739

> <VdW6>
-5.969

> <VdW12>
6.708

> <Bond>
0.116

> <Angle>
2.481

> <Pdih>
4.576

> <Idih>
0.000

> <Tether>
0.000

$$$$
VeraChem MOL file


 19 18  0  0  0  0  0  0  0  0999 V2000     
   19.3006   18.3388   19.2182 C   0  0  0  0  0  0  0  0  0  0  0  0
   20.3031   18.3487   18.5318 O   0  5  0  0  0  0  0  0  0  0  0  0
   18.2164   18.7271   18.8308 O   0  0  0  0  0  0  0  0  0  0  0  0
   19.4130   17.8279   20.6503 C   0  0  0  0  0  0  0  0  0  0  0  0
   20.1840   17.0484   20.6747 H   0  0  0  0  0  0  0  0  0  0  0  0
   18.4619   17.3519   20.9176 H   0  0  0  0  0  0  0  0  0  0  0  0
   19.7543   18.9478   21.6641 C   0  0  0  0  0  0  0  0  0  0  0  0
   20.6989   19.4214   21.3658 H   0  0  0  0  0  0  0  0  0  0  0  0
   18.9786   19.7248   21.6210 H   0  0  0  0  0  0  0  0  0  0  0  0
   19.8656   18.4013   23.1062 C   0  0  0  0  0  0  0  0  0  0  0  0
   20.6744   17.6598   23.1599 H   0  0  0  0  0  0  0  0  0  0  0  0
   18.9382   17.8696   23.3596 H   0  0  0  0  0  0  0  0  0  0  0  0
   20.1039   19.5038   24.1637 C   0  0  0  0  0  0  0  0  0  0  0  0
   19.2938   20.2446   24.1168 H   0  0  0  0  0  0  0  0  0  0  0  0
   20.0523   19.0505   25.1633 H   0  0  0  0  0  0  0  0  0  0  0  0
   21.4664   20.2136   24.0099 C   0  0  0  0  0  0  0  0  0  0  0  0
   21.5203   20.7783   23.0708 H   0  0  0  0  0  0  0  0  0  0  0  0
   21.6249   20.9223   24.8330 H   0  0  0  0  0  0  0  0  0  0  0  0
   22.2909   19.4889   24.0244 H   0  0  0  0  0  0  0  0  0  0  0  0
  1  2  1  0  0  0  0
  1  3  2  0  0  0  0
  1  4  1  0  0  0  0
  4  5  1  0  0  0  0
  4  6  1  0  0  0  0
  4  7  1  0  0  0  0
  7  8  1  0  0  0  0
  7  9  1  0  0  0  0
  7 10  1  0  0  0  0
 10 11  1  0  0  0  0
 10 12  1  0  0  0  0
 10 13  1  0  0  0  0
 13 14  1  0  0  0  0
 13 15  1  0  0  0  0
 13 16  1  0  0  0  0
 16 17  1  0  0  0  0
 16 18  1  0  0  0  0
 16 19  1  0  0  0  0
M  END
> <VConfSearch Rank>
405

> <Conf_Id>
41

> <Delta U+W>
-0.361

> <U+W>
-55.252

> <U>
7.244

> <W>
-62.496

> <W(PB)>
-64.596

> <W(SA)>
2.099

> <Valence>
7.174

> <Coulomb>
-0.669

> <VdW>
0.739

> <VdW6>
-5.969

> <VdW12>
6.708

> <Bond>
0.116

> <Angle>
2.481

> <Pdih>
4.576

> <Idih>
0.000

> <Tether>
0.000

$$$$
VeraChem MOL file


 19 18  0  0  0  0  0  0  0  0999 V2000     
   17.5286   17.8526   21.0616 C   0  0  0  0  0  0  0  0  0  0  0  0
   17.6338   18.3566   19.9609 O   0  5  0  0  0  0  0  0  0  0  0  0
   17.3784   16.6605   21.2430 O   0  0  0  0  0  0  0  0  0  0  0  0
   17.5647   18.7672   22.2829 C   0  0  0  0  0  0  0  0  0  0  0  0
   16.7361   18.4726   22.9377 H   0  0  0  0  0  0  0  0  0  0  0  0
   17.3619   19.7948   21.9573 H   0  0  0  0  0  0  0  0  0  0  0  0
   18.8964   18.7099   23.0756 C   0  0  0  0  0  0  0  0  0  0  0  0
   18.7832   19.2853   24.0043 H   0  0  0  0  0  0  0  0  0  0  0  0
   19.1002   17.6709   23.3700 H   0  0  0  0  0  0  0  0  0  0  0  0
   20.0911   19.2701   22.2717 C   0  0  0  0  0  0  0  0  0  0  0  0
   19.8771   20.3042   21.9687 H   0  0  0  0  0  0  0  0  0  0  0  0
   20.2216   18.6885   21.3486 H   0  0  0  0  0  0  0  0  0  0  0  0
   21.3983   19.2325   23.0904 C   0  0  0  0  0  0  0  0  0  0  0  0
   21.2751   19.8162   24.0132 H   0  0  0  0  0  0  0  0  0  0  0  0
   21.6161   18.1987   23.3928 H   0  0  0  0  0  0  0  0  0  0  0  0
   22.5884   19.7921   22.2857 C   0  0  0  0  0  0  0  0  0  0  0  0
   22.4106   20.8363   21.9967 H   0  0  0  0  0  0  0  0  0  0  0  0
   23.5093   19.7575   22.8822 H   0  0  0  0  0  0  0  0  0  0  0  0
   22.7542   19.2069   21.3717 H   0  0  0  0  0  0  0  0  0  0  0  0
  1  2  1  0  0  0  0
  1  3  2  0  0  0  0
  1  4  1  0  0  0  0
  4  5  1  0  0  0  0
  4  6  1  0  0  0  0
  4  7  1  0  0  0  0
  7  8  1  0  0  0  0
  7  9  1  0  0  0  0
  7 10  1  0  0  0  0
 10 11  1  0  0  0  0
 10 12  1  0  0  0  0
 10 13  1  0  0  0  0
 13 14  1  0  0  0  0
 13 15  1  0  0  0  0
 13 16  1  0  0  0  0
 16 17  1  0  0  0  0
 16 18  1  0  0  0  0
 16 19  1  0  0  0  0
M  END
> <VConfSearch Rank>
406

> <Conf_Id>
36

> <Delta U+W>
-0.079

> <U+W>
-54.971

> <U>
8.266

> <W>
-63.237

> <W(PB)>
-65.340

> <W(SA)>
2.103

> <Valence>
6.935

> <Coulomb>
0.874

> <VdW>
0.457

> <VdW6>
-6.205

> <VdW12>
6.662

> <Bond>
0.107

> <Angle>
2.420

> <Pdih>
4.407

> <Idih>
0.001

> <Tether>
0.000

$$$$
VeraChem MOL file


 19 18  0  0  0  0  0  0  0  0999 V2000     
   22.8477   19.4189   23.1559 C   0  0  0  0  0  0  0  0  0  0  0  0
   23.4282   18.6880   22.3780 O   0  5  0  0  0  0  0  0  0  0  0  0
   23.0289   19.4009   24.3574 O   0  0  0  0  0  0  0  0  0  0  0  0
   21.8522   20.4300   22.5938 C   0  0  0  0  0  0  0  0  0  0  0  0
   22.0494   20.5574   21.5224 H   0  0  0  0  0  0  0  0  0  0  0  0
   22.0597   21.3949   23.0714 H   0  0  0  0  0  0  0  0  0  0  0  0
   20.3667   20.0480   22.8228 C   0  0  0  0  0  0  0  0  0  0  0  0
   20.1915   19.8960   23.8969 H   0  0  0  0  0  0  0  0  0  0  0  0
   19.7309   20.8891   22.5146 H   0  0  0  0  0  0  0  0  0  0  0  0
   19.9512   18.7822   22.0403 C   0  0  0  0  0  0  0  0  0  0  0  0
   20.5716   17.9317   22.3554 H   0  0  0  0  0  0  0  0  0  0  0  0
   20.1403   18.9343   20.9688 H   0  0  0  0  0  0  0  0  0  0  0  0
   18.4627   18.4391   22.2578 C   0  0  0  0  0  0  0  0  0  0  0  0
   18.2712   18.2841   23.3287 H   0  0  0  0  0  0  0  0  0  0  0  0
   17.8369   19.2847   21.9403 H   0  0  0  0  0  0  0  0  0  0  0  0
   18.0512   17.1757   21.4758 C   0  0  0  0  0  0  0  0  0  0  0  0
   18.6407   16.3065   21.7960 H   0  0  0  0  0  0  0  0  0  0  0  0
   16.9907   16.9460   21.6421 H   0  0  0  0  0  0  0  0  0  0  0  0
   18.2031   17.3145   20.3974 H   0  0  0  0  0  0  0  0  0  0  0  0
  1  2  1  0  0  0  0
  1  3  2  0  0  0  0
  1  4  1  0  0  0  0
  4  5  1  0  0  0  0
  4  6  1  0  0  0  0
  4  7  1  0  0  0  0
  7  8  1  0  0  0  0
  7  9  1  0  0  0  0
  7 10  1  0  0  0  0
 10 11  1  0  0  0  0
 10 12  1  0  0  0  0
 10 13  1  0  0  0  0
 13 14  1  0  0  0  0
 13 15  1  0  0  0  0
 13 16  1  0  0  0  0
 16 17  1  0  0  0  0
 16 18  1  0  0  0  0
 16 19  1  0  0  0  0
M  END
> <VConfSearch Rank>
407

> <Conf_Id>
35

> <Delta U+W>
-0.030

> <U+W>
-54.921

> <U>
8.267

> <W>
-63.188

> <W(PB)>
-65.294

> <W(SA)>
2.106

> <Valence>
6.935

> <Coulomb>
0.875

> <VdW>
0.457

> <VdW6>
-6.205

> <VdW12>
6.662

> <Bond>
0.107

> <Angle>
2.420

> <Pdih>
4.407

> <Idih>
0.001

> <Tether>
0.000

$$$$
VeraChem MOL file


 19 18  0  0  0  0  0  0  0  0999 V2000     
   20.2606   19.5319   25.1562 C   0  0  0  0  0  0  0  0  0  0  0  0
   19.4051   20.3119   25.5256 O   0  5  0  0  0  0  0  0  0  0  0  0
   21.4397   19.6518   25.4244 O   0  0  0  0  0  0  0  0  0  0  0  0
   19.8254   18.3252   24.3292 C   0  0  0  0  0  0  0  0  0  0  0  0
   18.9459   17.8921   24.8202 H   0  0  0  0  0  0  0  0  0  0  0  0
   20.6172   17.5674   24.3708 H   0  0  0  0  0  0  0  0  0  0  0  0
   19.4818   18.6593   22.8541 C   0  0  0  0  0  0  0  0  0  0  0  0
   19.0372   17.7697   22.3901 H   0  0  0  0  0  0  0  0  0  0  0  0
   18.7163   19.4472   22.8282 H   0  0  0  0  0  0  0  0  0  0  0  0
   20.7212   19.1052   22.0419 C   0  0  0  0  0  0  0  0  0  0  0  0
   21.4696   18.3010   22.0368 H   0  0  0  0  0  0  0  0  0  0  0  0
   21.1916   19.9626   22.5425 H   0  0  0  0  0  0  0  0  0  0  0  0
   20.3887   19.5122   20.5877 C   0  0  0  0  0  0  0  0  0  0  0  0
   19.6418   20.3181   20.5896 H   0  0  0  0  0  0  0  0  0  0  0  0
   21.2932   19.9287   20.1233 H   0  0  0  0  0  0  0  0  0  0  0  0
   19.8833   18.3370   19.7233 C   0  0  0  0  0  0  0  0  0  0  0  0
   18.9165   17.9622   20.0816 H   0  0  0  0  0  0  0  0  0  0  0  0
   19.7498   18.6567   18.6817 H   0  0  0  0  0  0  0  0  0  0  0  0
   20.6004   17.5058   19.7322 H   0  0  0  0  0  0  0  0  0  0  0  0
  1  2  1  0  0  0  0
  1  3  2  0  0  0  0
  1  4  1  0  0  0  0
  4  5  1  0  0  0  0
  4  6  1  0  0  0  0
  4  7  1  0  0  0  0
  7  8  1  0  0  0  0
  7  9  1  0  0  0  0
  7 10  1  0  0  0  0
 10 11  1  0  0  0  0
 10 12  1  0  0  0  0
 10 13  1  0  0  0  0
 13 14  1  0  0  0  0
 13 15  1  0  0  0  0
 13 16  1  0  0  0  0
 16 17  1  0  0  0  0
 16 18  1  0  0  0  0
 16 19  1  0  0  0  0
M  END
> <VConfSearch Rank>
408

> <Conf_Id>
74

> <Delta U+W>
0.797

> <U+W>
-54.095

> <U>
8.869

> <W>
-62.964

> <W(PB)>
-65.046

> <W(SA)>
2.082

> <Valence>
7.469

> <Coulomb>
0.762

> <VdW>
0.639

> <VdW6>
-6.782

> <VdW12>
7.421

> <Bond>
0.141

> <Angle>
2.667

> <Pdih>
4.660

> <Idih>
0.001

> <Tether>
0.000

$$$$
VeraChem MOL file


 19 18  0  0  0  0  0  0  0  0999 V2000     
   17.9518   19.1293   20.1924 C   0  0  0  0  0  0  0  0  0  0  0  0
   17.8191   18.4610   19.1864 O   0  5  0  0  0  0  0  0  0  0  0  0
   17.0455   19.7508   20.7108 O   0  0  0  0  0  0  0  0  0  0  0  0
   19.3263   19.1750   20.8503 C   0  0  0  0  0  0  0  0  0  0  0  0
   19.4428   20.1622   21.3119 H   0  0  0  0  0  0  0  0  0  0  0  0
   20.0845   19.0916   20.0625 H   0  0  0  0  0  0  0  0  0  0  0  0
   19.5251   18.0554   21.9047 C   0  0  0  0  0  0  0  0  0  0  0  0
   18.7852   18.1715   22.7076 H   0  0  0  0  0  0  0  0  0  0  0  0
   19.3122   17.0859   21.4336 H   0  0  0  0  0  0  0  0  0  0  0  0
   20.9554   18.0111   22.4988 C   0  0  0  0  0  0  0  0  0  0  0  0
   21.6689   17.7921   21.6927 H   0  0  0  0  0  0  0  0  0  0  0  0
   21.0204   17.1669   23.1987 H   0  0  0  0  0  0  0  0  0  0  0  0
   21.4076   19.3006   23.2272 C   0  0  0  0  0  0  0  0  0  0  0  0
   22.4347   19.1556   23.5893 H   0  0  0  0  0  0  0  0  0  0  0  0
   21.4511   20.1400   22.5207 H   0  0  0  0  0  0  0  0  0  0  0  0
   20.5074   19.6741   24.4246 C   0  0  0  0  0  0  0  0  0  0  0  0
   20.4309   18.8398   25.1339 H   0  0  0  0  0  0  0  0  0  0  0  0
   20.9206   20.5380   24.9610 H   0  0  0  0  0  0  0  0  0  0  0  0
   19.4953   19.9405   24.0947 H   0  0  0  0  0  0  0  0  0  0  0  0
  1  2  1  0  0  0  0
  1  3  2  0  0  0  0
  1  4  1  0  0  0  0
  4  5  1  0  0  0  0
  4  6  1  0  0  0  0
  4  7  1  0  0  0  0
  7  8  1  0  0  0  0
  7  9  1  0  0  0  0
  7 10  1  0  0  0  0
 10 11  1  0  0  0  0
 10 12  1  0  0  0  0
 10 13  1  0  0  0  0
 13 14  1  0  0  0  0
 13 15  1  0  0  0  0
 13 16  1  0  0  0  0
 16 17  1  0  0  0  0
 16 18  1  0  0  0  0
 16 19  1  0  0  0  0
M  END
> <VConfSearch Rank>
409

> <Conf_Id>
67

> <Delta U+W>
0.308

> <U+W>
-54.583

> <U>
8.219

> <W>
-62.802

> <W(PB)>
-64.859

> <W(SA)>
2.057

> <Valence>
7.609

> <Coulomb>
-0.089

> <VdW>
0.699

> <VdW6>
-6.924

> <VdW12>
7.623

> <Bond>
0.163

> <Angle>
2.870

> <Pdih>
4.576

> <Idih>
0.001

> <Tether>
0.000

$$$$
VeraChem MOL file


 19 18  0  0  0  0  0  0  0  0999 V2000     
   18.6672   18.9423   24.9188 C   0  0  0  0  0  0  0  0  0  0  0  0
   19.1476   18.7743   26.0222 O   0  5  0  0  0  0  0  0  0  0  0  0
   17.4938   18.7599   24.6618 O   0  0  0  0  0  0  0  0  0  0  0  0
   19.5918   19.3874   23.7913 C   0  0  0  0  0  0  0  0  0  0  0  0
   20.3769   20.0193   24.2233 H   0  0  0  0  0  0  0  0  0  0  0  0
   19.0074   20.0145   23.1084 H   0  0  0  0  0  0  0  0  0  0  0  0
   20.2244   18.1955   23.0273 C   0  0  0  0  0  0  0  0  0  0  0  0
   20.7248   17.5382   23.7518 H   0  0  0  0  0  0  0  0  0  0  0  0
   19.4311   17.5915   22.5672 H   0  0  0  0  0  0  0  0  0  0  0  0
   21.2579   18.6251   21.9559 C   0  0  0  0  0  0  0  0  0  0  0  0
   21.6862   17.7232   21.4976 H   0  0  0  0  0  0  0  0  0  0  0  0
   22.0927   19.1383   22.4524 H   0  0  0  0  0  0  0  0  0  0  0  0
   20.7056   19.5410   20.8361 C   0  0  0  0  0  0  0  0  0  0  0  0
   20.3662   20.4955   21.2597 H   0  0  0  0  0  0  0  0  0  0  0  0
   21.5273   19.7889   20.1502 H   0  0  0  0  0  0  0  0  0  0  0  0
   19.5612   18.8946   20.0263 C   0  0  0  0  0  0  0  0  0  0  0  0
   18.6726   18.7343   20.6499 H   0  0  0  0  0  0  0  0  0  0  0  0
   19.2683   19.5429   19.1904 H   0  0  0  0  0  0  0  0  0  0  0  0
   19.8713   17.9266   19.6117 H   0  0  0  0  0  0  0  0  0  0  0  0
  1  2  1  0  0  0  0
  1  3  2  0  0  0  0
  1  4  1  0  0  0  0
  4  5  1  0  0  0  0
  4  6  1  0  0  0  0
  4  7  1  0  0  0  0
  7  8  1  0  0  0  0
  7  9  1  0  0  0  0
  7 10  1  0  0  0  0
 10 11  1  0  0  0  0
 10 12  1  0  0  0  0
 10 13  1  0  0  0  0
 13 14  1  0  0  0  0
 13 15  1  0  0  0  0
 13 16  1  0  0  0  0
 16 17  1  0  0  0  0
 16 18  1  0  0  0  0
 16 19  1  0  0  0  0
M  END
> <VConfSearch Rank>
410

> <Conf_Id>
21

> <Delta U+W>
0.319

> <U+W>
-54.572

> <U>
8.220

> <W>
-62.792

> <W(PB)>
-64.830

> <W(SA)>
2.038

> <Valence>
7.609

> <Coulomb>
-0.088

> <VdW>
0.699

> <VdW6>
-6.924

> <VdW12>
7.623

> <Bond>
0.163

> <Angle>
2.870

> <Pdih>
4.576

> <Idih>
0.000

> <Tether>
0.000

$$$$
VeraChem MOL file


 19 18  0  0  0  0  0  0  0  0999 V2000     
   22.4417   17.9636   21.1288 C   0  0  0  0  0  0  0  0  0  0  0  0
   23.3831   18.5757   20.6645 O   0  5  0  0  0  0  0  0  0  0  0  0
   22.5167   16.8199   21.5321 O   0  0  0  0  0  0  0  0  0  0  0  0
   21.0977   18.6763   21.2272 C   0  0  0  0  0  0  0  0  0  0  0  0
   20.3102   17.9265   21.1025 H   0  0  0  0  0  0  0  0  0  0  0  0
   21.0181   19.3667   20.3791 H   0  0  0  0  0  0  0  0  0  0  0  0
   20.9247   19.4508   22.5606 C   0  0  0  0  0  0  0  0  0  0  0  0
   21.0622   18.7717   23.4133 H   0  0  0  0  0  0  0  0  0  0  0  0
   21.7326   20.1926   22.6273 H   0  0  0  0  0  0  0  0  0  0  0  0
   19.5656   20.1868   22.6745 C   0  0  0  0  0  0  0  0  0  0  0  0
   19.2050   20.4773   21.6783 H   0  0  0  0  0  0  0  0  0  0  0  0
   19.7313   21.1272   23.2179 H   0  0  0  0  0  0  0  0  0  0  0  0
   18.4661   19.4007   23.4302 C   0  0  0  0  0  0  0  0  0  0  0  0
   18.8012   19.1923   24.4556 H   0  0  0  0  0  0  0  0  0  0  0  0
   17.5793   20.0429   23.5215 H   0  0  0  0  0  0  0  0  0  0  0  0
   18.0511   18.0800   22.7494 C   0  0  0  0  0  0  0  0  0  0  0  0
   17.1840   17.6415   23.2599 H   0  0  0  0  0  0  0  0  0  0  0  0
   17.7778   18.2463   21.6994 H   0  0  0  0  0  0  0  0  0  0  0  0
   18.8633   17.3434   22.7875 H   0  0  0  0  0  0  0  0  0  0  0  0
  1  2  1  0  0  0  0
  1  3  2  0  0  0  0
  1  4  1  0  0  0  0
  4  5  1  0  0  0  0
  4  6  1  0  0  0  0
  4  7  1  0  0  0  0
  7  8  1  0  0  0  0
  7  9  1  0  0  0  0
  7 10  1  0  0  0  0
 10 11  1  0  0  0  0
 10 12  1  0  0  0  0
 10 13  1  0  0  0  0
 13 14  1  0  0  0  0
 13 15  1  0  0  0  0
 13 16  1  0  0  0  0
 16 17  1  0  0  0  0
 16 18  1  0  0  0  0
 16 19  1  0  0  0  0
M  END
> <VConfSearch Rank>
411

> <Conf_Id>
24

> <Delta U+W>
2.477

> <U+W>
-52.414

> <U>
10.422

> <W>
-62.836

> <W(PB)>
-64.906

> <W(SA)>
2.070

> <Valence>
9.628

> <Coulomb>
0.101

> <VdW>
0.693

> <VdW6>
-6.927

> <VdW12>
7.620

> <Bond>
0.173

> <Angle>
2.989

> <Pdih>
6.465

> <Idih>
0.001

> <Tether>
0.000

$$$$
VeraChem MOL file


 19 18  0  0  0  0  0  0  0  0999 V2000     
   19.2032   17.5438   24.4301 C   0  0  0  0  0  0  0  0  0  0  0  0
   18.0348   17.4175   24.1209 O   0  5  0  0  0  0  0  0  0  0  0  0
   19.8323   16.6978   25.0347 O   0  0  0  0  0  0  0  0  0  0  0  0
   19.9132   18.8454   24.0669 C   0  0  0  0  0  0  0  0  0  0  0  0
   20.4254   19.1975   24.9699 H   0  0  0  0  0  0  0  0  0  0  0  0
   19.1547   19.5964   23.8240 H   0  0  0  0  0  0  0  0  0  0  0  0
   20.9456   18.7011   22.9144 C   0  0  0  0  0  0  0  0  0  0  0  0
   21.5570   19.6109   22.8465 H   0  0  0  0  0  0  0  0  0  0  0  0
   21.6389   17.8907   23.1791 H   0  0  0  0  0  0  0  0  0  0  0  0
   20.3162   18.3883   21.5318 C   0  0  0  0  0  0  0  0  0  0  0  0
   19.3856   17.8173   21.6527 H   0  0  0  0  0  0  0  0  0  0  0  0
   21.0028   17.7260   20.9870 H   0  0  0  0  0  0  0  0  0  0  0  0
   20.0633   19.6299   20.6416 C   0  0  0  0  0  0  0  0  0  0  0  0
   21.0137   20.1468   20.4503 H   0  0  0  0  0  0  0  0  0  0  0  0
   19.6972   19.2881   19.6637 H   0  0  0  0  0  0  0  0  0  0  0  0
   19.0451   20.6297   21.2276 C   0  0  0  0  0  0  0  0  0  0  0  0
   19.4459   21.1245   22.1208 H   0  0  0  0  0  0  0  0  0  0  0  0
   18.8093   21.4117   20.4943 H   0  0  0  0  0  0  0  0  0  0  0  0
   18.1086   20.1245   21.4982 H   0  0  0  0  0  0  0  0  0  0  0  0
  1  2  1  0  0  0  0
  1  3  2  0  0  0  0
  1  4  1  0  0  0  0
  4  5  1  0  0  0  0
  4  6  1  0  0  0  0
  4  7  1  0  0  0  0
  7  8  1  0  0  0  0
  7  9  1  0  0  0  0
  7 10  1  0  0  0  0
 10 11  1  0  0  0  0
 10 12  1  0  0  0  0
 10 13  1  0  0  0  0
 13 14  1  0  0  0  0
 13 15  1  0  0  0  0
 13 16  1  0  0  0  0
 16 17  1  0  0  0  0
 16 18  1  0  0  0  0
 16 19  1  0  0  0  0
M  END
> <VConfSearch Rank>
412

> <Conf_Id>
4

> <Delta U+W>
3.753

> <U+W>
-51.138

> <U>
12.334

> <W>
-63.472

> <W(PB)>
-65.500

> <W(SA)>
2.028

> <Valence>
9.984

> <Coulomb>
1.767

> <VdW>
0.583

> <VdW6>
-7.767

> <VdW12>
8.349

> <Bond>
0.203

> <Angle>
3.191

> <Pdih>
6.589

> <Idih>
0.001

> <Tether>
0.000

$$$$
VeraChem MOL file


 19 18  0  0  0  0  0  0  0  0999 V2000     
   19.4423   16.4551   21.6395 C   0  0  0  0  0  0  0  0  0  0  0  0
   19.6419   15.9064   20.5735 O   0  5  0  0  0  0  0  0  0  0  0  0
   19.6573   15.9305   22.7143 O   0  0  0  0  0  0  0  0  0  0  0  0
   18.8634   17.8675   21.6241 C   0  0  0  0  0  0  0  0  0  0  0  0
   18.4586   18.0855   22.6175 H   0  0  0  0  0  0  0  0  0  0  0  0
   18.0124   17.8609   20.9331 H   0  0  0  0  0  0  0  0  0  0  0  0
   19.8759   18.9601   21.1813 C   0  0  0  0  0  0  0  0  0  0  0  0
   20.3006   18.6574   20.2141 H   0  0  0  0  0  0  0  0  0  0  0  0
   19.3467   19.9045   20.9961 H   0  0  0  0  0  0  0  0  0  0  0  0
   21.0354   19.1970   22.1838 C   0  0  0  0  0  0  0  0  0  0  0  0
   21.9397   19.4365   21.6080 H   0  0  0  0  0  0  0  0  0  0  0  0
   21.2669   18.2725   22.7302 H   0  0  0  0  0  0  0  0  0  0  0  0
   20.7988   20.3566   23.1825 C   0  0  0  0  0  0  0  0  0  0  0  0
   21.7086   20.4884   23.7842 H   0  0  0  0  0  0  0  0  0  0  0  0
   20.6568   21.2959   22.6305 H   0  0  0  0  0  0  0  0  0  0  0  0
   19.6053   20.1361   24.1345 C   0  0  0  0  0  0  0  0  0  0  0  0
   19.6832   19.1674   24.6454 H   0  0  0  0  0  0  0  0  0  0  0  0
   19.5744   20.9221   24.9000 H   0  0  0  0  0  0  0  0  0  0  0  0
   18.6537   20.1680   23.5896 H   0  0  0  0  0  0  0  0  0  0  0  0
  1  2  1  0  0  0  0
  1  3  2  0  0  0  0
  1  4  1  0  0  0  0
  4  5  1  0  0  0  0
  4  6  1  0  0  0  0
  4  7  1  0  0  0  0
  7  8  1  0  0  0  0
  7  9  1  0  0  0  0
  7 10  1  0  0  0  0
 10 11  1  0  0  0  0
 10 12  1  0  0  0  0
 10 13  1  0  0  0  0
 13 14  1  0  0  0  0
 13 15  1  0  0  0  0
 13 16  1  0  0  0  0
 16 17  1  0  0  0  0
 16 18  1  0  0  0  0
 16 19  1  0  0  0  0
M  END
> <VConfSearch Rank>
413

> <Conf_Id>
73

> <Delta U+W>
3.707

> <U+W>
-51.184

> <U>
12.334

> <W>
-63.519

> <W(PB)>
-65.541

> <W(SA)>
2.022

> <Valence>
9.984

> <Coulomb>
1.768

> <VdW>
0.583

> <VdW6>
-7.767

> <VdW12>
8.350

> <Bond>
0.203

> <Angle>
3.192

> <Pdih>
6.589

> <Idih>
0.001

> <Tether>
0.000

$$$$
VeraChem MOL file


 19 18  0  0  0  0  0  0  0  0999 V2000     
   18.4659   17.0800   23.4007 C   0  0  0  0  0  0  0  0  0  0  0  0
   18.5113   17.4551   24.5557 O   0  5  0  0  0  0  0  0  0  0  0  0
   17.5110   16.5021   22.9199 O   0  0  0  0  0  0  0  0  0  0  0  0
   19.6845   17.3174   22.5130 C   0  0  0  0  0  0  0  0  0  0  0  0
   19.9345   16.3610   22.0392 H   0  0  0  0  0  0  0  0  0  0  0  0
   20.5373   17.5808   23.1492 H   0  0  0  0  0  0  0  0  0  0  0  0
   19.4699   18.3942   21.4145 C   0  0  0  0  0  0  0  0  0  0  0  0
   20.3641   18.4470   20.7802 H   0  0  0  0  0  0  0  0  0  0  0  0
   18.6527   18.0675   20.7568 H   0  0  0  0  0  0  0  0  0  0  0  0
   19.1332   19.8064   21.9590 C   0  0  0  0  0  0  0  0  0  0  0  0
   18.1724   19.7658   22.4903 H   0  0  0  0  0  0  0  0  0  0  0  0
   18.9792   20.4845   21.1086 H   0  0  0  0  0  0  0  0  0  0  0  0
   20.1964   20.4201   22.9025 C   0  0  0  0  0  0  0  0  0  0  0  0
   19.8419   21.4055   23.2344 H   0  0  0  0  0  0  0  0  0  0  0  0
   20.2908   19.8108   23.8115 H   0  0  0  0  0  0  0  0  0  0  0  0
   21.5803   20.5876   22.2387 C   0  0  0  0  0  0  0  0  0  0  0  0
   22.0247   19.6151   21.9925 H   0  0  0  0  0  0  0  0  0  0  0  0
   21.5043   21.1763   21.3154 H   0  0  0  0  0  0  0  0  0  0  0  0
   22.2706   21.1070   22.9159 H   0  0  0  0  0  0  0  0  0  0  0  0
  1  2  1  0  0  0  0
  1  3  2  0  0  0  0
  1  4  1  0  0  0  0
  4  5  1  0  0  0  0
  4  6  1  0  0  0  0
  4  7  1  0  0  0  0
  7  8  1  0  0  0  0
  7  9  1  0  0  0  0
  7 10  1  0  0  0  0
 10 11  1  0  0  0  0
 10 12  1  0  0  0  0
 10 13  1  0  0  0  0
 13 14  1  0  0  0  0
 13 15  1  0  0  0  0
 13 16  1  0  0  0  0
 16 17  1  0  0  0  0
 16 18  1  0  0  0  0
 16 19  1  0  0  0  0
M  END
> <VConfSearch Rank>
414

> <Conf_Id>
56

> <Delta U+W>
1.735

> <U+W>
-53.156

> <U>
10.214

> <W>
-63.370

> <W(PB)>
-65.388

> <W(SA)>
2.018

> <Valence>
7.868

> <Coulomb>
1.968

> <VdW>
0.378

> <VdW6>
-8.067

> <VdW12>
8.445

> <Bond>
0.191

> <Angle>
3.117

> <Pdih>
4.559

> <Idih>
0.001

> <Tether>
0.000

$$$$
VeraChem MOL file


 19 18  0  0  0  0  0  0  0  0999 V2000     
   19.9545   17.2907   19.8686 C   0  0  0  0  0  0  0  0  0  0  0  0
   20.9421   16.7090   19.4653 O   0  5  0  0  0  0  0  0  0  0  0  0
   18.9349   17.4136   19.2192 O   0  0  0  0  0  0  0  0  0  0  0  0
   20.0053   17.9190   21.2567 C   0  0  0  0  0  0  0  0  0  0  0  0
   20.6666   17.3091   21.8836 H   0  0  0  0  0  0  0  0  0  0  0  0
   18.9981   17.8602   21.6841 H   0  0  0  0  0  0  0  0  0  0  0  0
   20.4944   19.3891   21.2332 C   0  0  0  0  0  0  0  0  0  0  0  0
   21.4388   19.4363   20.6734 H   0  0  0  0  0  0  0  0  0  0  0  0
   19.7741   20.0009   20.6729 H   0  0  0  0  0  0  0  0  0  0  0  0
   20.7236   20.0087   22.6347 C   0  0  0  0  0  0  0  0  0  0  0  0
   21.1165   21.0239   22.4865 H   0  0  0  0  0  0  0  0  0  0  0  0
   21.5120   19.4584   23.1663 H   0  0  0  0  0  0  0  0  0  0  0  0
   19.4524   20.1077   23.5141 C   0  0  0  0  0  0  0  0  0  0  0  0
   19.5072   21.0314   24.1066 H   0  0  0  0  0  0  0  0  0  0  0  0
   18.5583   20.2027   22.8825 H   0  0  0  0  0  0  0  0  0  0  0  0
   19.2939   18.9230   24.4929 C   0  0  0  0  0  0  0  0  0  0  0  0
   18.3904   19.0485   25.1036 H   0  0  0  0  0  0  0  0  0  0  0  0
   19.2109   17.9656   23.9664 H   0  0  0  0  0  0  0  0  0  0  0  0
   20.1529   18.8618   25.1737 H   0  0  0  0  0  0  0  0  0  0  0  0
  1  2  1  0  0  0  0
  1  3  2  0  0  0  0
  1  4  1  0  0  0  0
  4  5  1  0  0  0  0
  4  6  1  0  0  0  0
  4  7  1  0  0  0  0
  7  8  1  0  0  0  0
  7  9  1  0  0  0  0
  7 10  1  0  0  0  0
 10 11  1  0  0  0  0
 10 12  1  0  0  0  0
 10 13  1  0  0  0  0
 13 14  1  0  0  0  0
 13 15  1  0  0  0  0
 13 16  1  0  0  0  0
 16 17  1  0  0  0  0
 16 18  1  0  0  0  0
 16 19  1  0  0  0  0
M  END
> <VConfSearch Rank>
415

> <Conf_Id>
53

> <Delta U+W>
2.279

> <U+W>
-52.612

> <U>
10.231

> <W>
-62.843

> <W(PB)>
-64.893

> <W(SA)>
2.050

> <Valence>
9.644

> <Coulomb>
-0.164

> <VdW>
0.751

> <VdW6>
-6.881

> <VdW12>
7.631

> <Bond>
0.163

> <Angle>
2.998

> <Pdih>
6.482

> <Idih>
0.001

> <Tether>
0.000

$$$$
VeraChem MOL file


 19 18  0  0  0  0  0  0  0  0999 V2000     
   19.2584   21.0262   21.7667 C   0  0  0  0  0  0  0  0  0  0  0  0
   18.3339   21.2152   22.5325 O   0  5  0  0  0  0  0  0  0  0  0  0
   19.1313   20.9949   20.5584 O   0  0  0  0  0  0  0  0  0  0  0  0
   20.6628   20.8913   22.3525 C   0  0  0  0  0  0  0  0  0  0  0  0
   20.6064   20.9972   23.4427 H   0  0  0  0  0  0  0  0  0  0  0  0
   21.2346   21.7506   21.9833 H   0  0  0  0  0  0  0  0  0  0  0  0
   21.4161   19.5842   21.9771 C   0  0  0  0  0  0  0  0  0  0  0  0
   21.2914   19.3744   20.9056 H   0  0  0  0  0  0  0  0  0  0  0  0
   22.4903   19.7571   22.1278 H   0  0  0  0  0  0  0  0  0  0  0  0
   21.0171   18.3419   22.8115 C   0  0  0  0  0  0  0  0  0  0  0  0
   21.1510   18.5559   23.8807 H   0  0  0  0  0  0  0  0  0  0  0  0
   21.7154   17.5289   22.5699 H   0  0  0  0  0  0  0  0  0  0  0  0
   19.5757   17.8488   22.5573 C   0  0  0  0  0  0  0  0  0  0  0  0
   18.8539   18.5940   22.9153 H   0  0  0  0  0  0  0  0  0  0  0  0
   19.4074   17.7305   21.4779 H   0  0  0  0  0  0  0  0  0  0  0  0
   19.3024   16.5090   23.2702 C   0  0  0  0  0  0  0  0  0  0  0  0
   19.4389   16.6072   24.3552 H   0  0  0  0  0  0  0  0  0  0  0  0
   18.2722   16.1770   23.0868 H   0  0  0  0  0  0  0  0  0  0  0  0
   19.9804   15.7250   22.9083 H   0  0  0  0  0  0  0  0  0  0  0  0
  1  2  1  0  0  0  0
  1  3  2  0  0  0  0
  1  4  1  0  0  0  0
  4  5  1  0  0  0  0
  4  6  1  0  0  0  0
  4  7  1  0  0  0  0
  7  8  1  0  0  0  0
  7  9  1  0  0  0  0
  7 10  1  0  0  0  0
 10 11  1  0  0  0  0
 10 12  1  0  0  0  0
 10 13  1  0  0  0  0
 13 14  1  0  0  0  0
 13 15  1  0  0  0  0
 13 16  1  0  0  0  0
 16 17  1  0  0  0  0
 16 18  1  0  0  0  0
 16 19  1  0  0  0  0
M  END
> <VConfSearch Rank>
416

> <Conf_Id>
25

> <Delta U+W>
2.065

> <U+W>
-52.826

> <U>
10.967

> <W>
-63.794

> <W(PB)>
-65.830

> <W(SA)>
2.036

> <Valence>
8.609

> <Coulomb>
1.892

> <VdW>
0.467

> <VdW6>
-7.569

> <VdW12>
8.036

> <Bond>
0.170

> <Angle>
3.195

> <Pdih>
5.237

> <Idih>
0.007

> <Tether>
0.000

$$$$
VeraChem MOL file


 19 18  0  0  0  0  0  0  0  0999 V2000     
   18.8800   20.4641   23.8156 C   0  0  0  0  0  0  0  0  0  0  0  0
   19.3848   21.5580   23.6544 O   0  5  0  0  0  0  0  0  0  0  0  0
   18.7796   19.9265   24.9009 O   0  0  0  0  0  0  0  0  0  0  0  0
   18.2771   19.7573   22.6030 C   0  0  0  0  0  0  0  0  0  0  0  0
   17.4619   20.3977   22.2468 H   0  0  0  0  0  0  0  0  0  0  0  0
   17.8171   18.8170   22.9303 H   0  0  0  0  0  0  0  0  0  0  0  0
   19.2626   19.4944   21.4297 C   0  0  0  0  0  0  0  0  0  0  0  0
   18.6700   19.3373   20.5183 H   0  0  0  0  0  0  0  0  0  0  0  0
   19.8711   20.3903   21.2436 H   0  0  0  0  0  0  0  0  0  0  0  0
   20.1785   18.2593   21.6149 C   0  0  0  0  0  0  0  0  0  0  0  0
   20.7110   18.0836   20.6702 H   0  0  0  0  0  0  0  0  0  0  0  0
   19.5639   17.3664   21.7933 H   0  0  0  0  0  0  0  0  0  0  0  0
   21.2170   18.4095   22.7483 C   0  0  0  0  0  0  0  0  0  0  0  0
   21.7654   19.3540   22.6283 H   0  0  0  0  0  0  0  0  0  0  0  0
   20.7098   18.4537   23.7206 H   0  0  0  0  0  0  0  0  0  0  0  0
   22.2145   17.2336   22.7607 C   0  0  0  0  0  0  0  0  0  0  0  0
   22.9397   17.3510   23.5765 H   0  0  0  0  0  0  0  0  0  0  0  0
   21.6930   16.2784   22.9055 H   0  0  0  0  0  0  0  0  0  0  0  0
   22.7724   17.1807   21.8166 H   0  0  0  0  0  0  0  0  0  0  0  0
  1  2  1  0  0  0  0
  1  3  2  0  0  0  0
  1  4  1  0  0  0  0
  4  5  1  0  0  0  0
  4  6  1  0  0  0  0
  4  7  1  0  0  0  0
  7  8  1  0  0  0  0
  7  9  1  0  0  0  0
  7 10  1  0  0  0  0
 10 11  1  0  0  0  0
 10 12  1  0  0  0  0
 10 13  1  0  0  0  0
 13 14  1  0  0  0  0
 13 15  1  0  0  0  0
 13 16  1  0  0  0  0
 16 17  1  0  0  0  0
 16 18  1  0  0  0  0
 16 19  1  0  0  0  0
M  END
> <VConfSearch Rank>
417

> <Conf_Id>
52

> <Delta U+W>
2.070

> <U+W>
-52.822

> <U>
10.967

> <W>
-63.789

> <W(PB)>
-65.837

> <W(SA)>
2.048

> <Valence>
8.609

> <Coulomb>
1.892

> <VdW>
0.467

> <VdW6>
-7.569

> <VdW12>
8.035

> <Bond>
0.170

> <Angle>
3.196

> <Pdih>
5.237

> <Idih>
0.007

> <Tether>
0.000

$$$$
VeraChem MOL file


 19 18  0  0  0  0  0  0  0  0999 V2000     
   21.5407   18.2048   21.4845 C   0  0  0  0  0  0  0  0  0  0  0  0
   21.3159   18.4102   20.3075 O   0  5  0  0  0  0  0  0  0  0  0  0
   22.5546   18.5755   22.0425 O   0  0  0  0  0  0  0  0  0  0  0  0
   20.5668   17.3309   22.2765 C   0  0  0  0  0  0  0  0  0  0  0  0
   20.8320   17.3733   23.3397 H   0  0  0  0  0  0  0  0  0  0  0  0
   20.7503   16.3009   21.9499 H   0  0  0  0  0  0  0  0  0  0  0  0
   19.0579   17.6566   22.0857 C   0  0  0  0  0  0  0  0  0  0  0  0
   18.8515   17.8752   21.0289 H   0  0  0  0  0  0  0  0  0  0  0  0
   18.4850   16.7488   22.3187 H   0  0  0  0  0  0  0  0  0  0  0  0
   18.5058   18.7974   22.9784 C   0  0  0  0  0  0  0  0  0  0  0  0
   18.6210   18.5335   24.0386 H   0  0  0  0  0  0  0  0  0  0  0  0
   17.4226   18.8567   22.8047 H   0  0  0  0  0  0  0  0  0  0  0  0
   19.1116   20.1950   22.7032 C   0  0  0  0  0  0  0  0  0  0  0  0
   19.5289   20.2396   21.6877 H   0  0  0  0  0  0  0  0  0  0  0  0
   18.3071   20.9426   22.7344 H   0  0  0  0  0  0  0  0  0  0  0  0
   20.1811   20.5974   23.7412 C   0  0  0  0  0  0  0  0  0  0  0  0
   19.7479   20.6525   24.7483 H   0  0  0  0  0  0  0  0  0  0  0  0
   21.0071   19.8771   23.7670 H   0  0  0  0  0  0  0  0  0  0  0  0
   20.6010   21.5822   23.4996 H   0  0  0  0  0  0  0  0  0  0  0  0
  1  2  1  0  0  0  0
  1  3  2  0  0  0  0
  1  4  1  0  0  0  0
  4  5  1  0  0  0  0
  4  6  1  0  0  0  0
  4  7  1  0  0  0  0
  7  8  1  0  0  0  0
  7  9  1  0  0  0  0
  7 10  1  0  0  0  0
 10 11  1  0  0  0  0
 10 12  1  0  0  0  0
 10 13  1  0  0  0  0
 13 14  1  0  0  0  0
 13 15  1  0  0  0  0
 13 16  1  0  0  0  0
 16 17  1  0  0  0  0
 16 18  1  0  0  0  0
 16 19  1  0  0  0  0
M  END
> <VConfSearch Rank>
418

> <Conf_Id>
66

> <Delta U+W>
5.819

> <U+W>
-49.072

> <U>
15.324

> <W>
-64.396

> <W(PB)>
-66.382

> <W(SA)>
1.986

> <Valence>
11.748

> <Coulomb>
3.201

> <VdW>
0.375

> <VdW6>
-8.854

> <VdW12>
9.229

> <Bond>
0.216

> <Angle>
3.812

> <Pdih>
7.699

> <Idih>
0.022

> <Tether>
0.000

$$$$
VeraChem MOL file


 19 18  0  0  0  0  0  0  0  0999 V2000     
   22.7058   17.1161   21.1095 C   0  0  0  0  0  0  0  0  0  0  0  0
   23.2573   16.7197   20.1023 O   0  5  0  0  0  0  0  0  0  0  0  0
   23.1274   16.8938   22.2280 O   0  0  0  0  0  0  0  0  0  0  0  0
   21.4233   17.9298   20.9290 C   0  0  0  0  0  0  0  0  0  0  0  0
   20.7190   17.3091   20.3627 H   0  0  0  0  0  0  0  0  0  0  0  0
   21.6692   18.7926   20.2988 H   0  0  0  0  0  0  0  0  0  0  0  0
   20.7551   18.4144   22.2432 C   0  0  0  0  0  0  0  0  0  0  0  0
   20.5166   17.5458   22.8726 H   0  0  0  0  0  0  0  0  0  0  0  0
   21.4678   19.0307   22.8087 H   0  0  0  0  0  0  0  0  0  0  0  0
   19.4702   19.2256   21.9689 C   0  0  0  0  0  0  0  0  0  0  0  0
   18.7592   18.6076   21.4034 H   0  0  0  0  0  0  0  0  0  0  0  0
   19.7109   20.0934   21.3394 H   0  0  0  0  0  0  0  0  0  0  0  0
   18.8075   19.7063   23.2766 C   0  0  0  0  0  0  0  0  0  0  0  0
   18.5635   18.8409   23.9082 H   0  0  0  0  0  0  0  0  0  0  0  0
   19.5150   20.3266   23.8443 H   0  0  0  0  0  0  0  0  0  0  0  0
   17.5251   20.5157   22.9989 C   0  0  0  0  0  0  0  0  0  0  0  0
   16.7866   19.9086   22.4590 H   0  0  0  0  0  0  0  0  0  0  0  0
   17.0671   20.8495   23.9391 H   0  0  0  0  0  0  0  0  0  0  0  0
   17.7453   21.4055   22.3945 H   0  0  0  0  0  0  0  0  0  0  0  0
  1  2  1  0  0  0  0
  1  3  2  0  0  0  0
  1  4  1  0  0  0  0
  4  5  1  0  0  0  0
  4  6  1  0  0  0  0
  4  7  1  0  0  0  0
  7  8  1  0  0  0  0
  7  9  1  0  0  0  0
  7 10  1  0  0  0  0
 10 11  1  0  0  0  0
 10 12  1  0  0  0  0
 10 13  1  0  0  0  0
 13 14  1  0  0  0  0
 13 15  1  0  0  0  0
 13 16  1  0  0  0  0
 16 17  1  0  0  0  0
 16 18  1  0  0  0  0
 16 19  1  0  0  0  0
M  END
> <VConfSearch Rank>
419

> <Conf_Id>
0

> <Delta U+W>
0.000

> <U+W>
-54.891

> <U>
6.966

> <W>
-61.857

> <W(PB)>
-63.965

> <W(SA)>
2.108

> <Valence>
7.175

> <Coulomb>
-1.360

> <VdW>
1.151

> <VdW6>
-5.641

> <VdW12>
6.792

> <Bond>
0.119

> <Angle>
2.715

> <Pdih>
4.340

> <Idih>
0.000

> <Tether>
0.000

$$$$
VeraChem MOL file


 19 18  0  0  0  0  0  0  0  0999 V2000     
   16.8437   18.9580   20.7211 C   0  0  0  0  0  0  0  0  0  0  0  0
   16.2516   17.8979   20.7608 O   0  5  0  0  0  0  0  0  0  0  0  0
   16.2887   20.0388   20.7200 O   0  0  0  0  0  0  0  0  0  0  0  0
   18.3678   18.9310   20.6920 C   0  0  0  0  0  0  0  0  0  0  0  0
   18.7131   19.7968   20.1141 H   0  0  0  0  0  0  0  0  0  0  0  0
   18.6825   18.0321   20.1482 H   0  0  0  0  0  0  0  0  0  0  0  0
   18.9975   18.9474   22.1066 C   0  0  0  0  0  0  0  0  0  0  0  0
   18.6629   19.8466   22.6424 H   0  0  0  0  0  0  0  0  0  0  0  0
   18.6321   18.0819   22.6765 H   0  0  0  0  0  0  0  0  0  0  0  0
   20.5401   18.9194   22.0494 C   0  0  0  0  0  0  0  0  0  0  0  0
   20.9023   19.7852   21.4779 H   0  0  0  0  0  0  0  0  0  0  0  0
   20.8715   18.0201   21.5122 H   0  0  0  0  0  0  0  0  0  0  0  0
   21.1647   18.9360   23.4601 C   0  0  0  0  0  0  0  0  0  0  0  0
   20.8371   19.8352   24.0000 H   0  0  0  0  0  0  0  0  0  0  0  0
   20.8064   18.0703   24.0342 H   0  0  0  0  0  0  0  0  0  0  0  0
   22.7050   18.9080   23.3991 C   0  0  0  0  0  0  0  0  0  0  0  0
   23.1324   18.9202   24.4102 H   0  0  0  0  0  0  0  0  0  0  0  0
   23.0616   18.0023   22.8913 H   0  0  0  0  0  0  0  0  0  0  0  0
   23.0925   19.7804   22.8568 H   0  0  0  0  0  0  0  0  0  0  0  0
  1  2  1  0  0  0  0
  1  3  2  0  0  0  0
  1  4  1  0  0  0  0
  4  5  1  0  0  0  0
  4  6  1  0  0  0  0
  4  7  1  0  0  0  0
  7  8  1  0  0  0  0
  7  9  1  0  0  0  0
  7 10  1  0  0  0  0
 10 11  1  0  0  0  0
 10 12  1  0  0  0  0
 10 13  1  0  0  0  0
 13 14  1  0  0  0  0
 13 15  1  0  0  0  0
 13 16  1  0  0  0  0
 16 17  1  0  0  0  0
 16 18  1  0  0  0  0
 16 19  1  0  0  0  0
M  END
> <VConfSearch Rank>
420

> <Conf_Id>
18

> <Delta U+W>
-1.199

> <U+W>
-56.090

> <U>
5.975

> <W>
-62.066

> <W(PB)>
-64.219

> <W(SA)>
2.153

> <Valence>
6.673

> <Coulomb>
-1.307

> <VdW>
0.610

> <VdW6>
-5.351

> <VdW12>
5.961

> <Bond>
0.086

> <Angle>
2.253

> <Pdih>
4.333

> <Idih>
0.001

> <Tether>
0.000

$$$$
VeraChem MOL file


 19 18  0  0  0  0  0  0  0  0999 V2000     
   18.1263   18.6461   19.5782 C   0  0  0  0  0  0  0  0  0  0  0  0
   18.4083   19.1239   18.4973 O   0  5  0  0  0  0  0  0  0  0  0  0
   17.3043   17.7642   19.7296 O   0  0  0  0  0  0  0  0  0  0  0  0
   18.8593   19.1670   20.8093 C   0  0  0  0  0  0  0  0  0  0  0  0
   18.1666   19.1147   21.6567 H   0  0  0  0  0  0  0  0  0  0  0  0
   19.0924   20.2257   20.6440 H   0  0  0  0  0  0  0  0  0  0  0  0
   20.1574   18.3752   21.1147 C   0  0  0  0  0  0  0  0  0  0  0  0
   19.9068   17.3257   21.3222 H   0  0  0  0  0  0  0  0  0  0  0  0
   20.7878   18.3713   20.2147 H   0  0  0  0  0  0  0  0  0  0  0  0
   20.9756   18.9598   22.2904 C   0  0  0  0  0  0  0  0  0  0  0  0
   21.2318   20.0064   22.0761 H   0  0  0  0  0  0  0  0  0  0  0  0
   21.9270   18.4146   22.3581 H   0  0  0  0  0  0  0  0  0  0  0  0
   20.2475   18.8697   23.6503 C   0  0  0  0  0  0  0  0  0  0  0  0
   19.3294   19.4714   23.6290 H   0  0  0  0  0  0  0  0  0  0  0  0
   19.9461   17.8305   23.8413 H   0  0  0  0  0  0  0  0  0  0  0  0
   21.1432   19.3631   24.8043 C   0  0  0  0  0  0  0  0  0  0  0  0
   20.6115   19.2958   25.7624 H   0  0  0  0  0  0  0  0  0  0  0  0
   22.0559   18.7577   24.8802 H   0  0  0  0  0  0  0  0  0  0  0  0
   21.4375   20.4099   24.6527 H   0  0  0  0  0  0  0  0  0  0  0  0
  1  2  1  0  0  0  0
  1  3  2  0  0  0  0
  1  4  1  0  0  0  0
  4  5  1  0  0  0  0
  4  6  1  0  0  0  0
  4  7  1  0  0  0  0
  7  8  1  0  0  0  0
  7  9  1  0  0  0  0
  7 10  1  0  0  0  0
 10 11  1  0  0  0  0
 10 12  1  0  0  0  0
 10 13  1  0  0  0  0
 13 14  1  0  0  0  0
 13 15  1  0  0  0  0
 13 16  1  0  0  0  0
 16 17  1  0  0  0  0
 16 18  1  0  0  0  0
 16 19  1  0  0  0  0
M  END
> <VConfSearch Rank>
421

> <Conf_Id>
34

> <Delta U+W>
-0.563

> <U+W>
-55.455

> <U>
6.914

> <W>
-62.369

> <W(PB)>
-64.446

> <W(SA)>
2.077

> <Valence>
7.196

> <Coulomb>
-1.020

> <VdW>
0.738

> <VdW6>
-6.010

> <VdW12>
6.748

> <Bond>
0.126

> <Angle>
2.499

> <Pdih>
4.570

> <Idih>
0.001

> <Tether>
0.000

$$$$
VeraChem MOL file


 19 18  0  0  0  0  0  0  0  0999 V2000     
   21.6281   16.4177   23.3343 C   0  0  0  0  0  0  0  0  0  0  0  0
   22.6594   16.5259   23.9676 O   0  5  0  0  0  0  0  0  0  0  0  0
   21.2759   15.3880   22.7940 O   0  0  0  0  0  0  0  0  0  0  0  0
   20.7383   17.6474   23.1913 C   0  0  0  0  0  0  0  0  0  0  0  0
   20.8444   18.2517   24.1002 H   0  0  0  0  0  0  0  0  0  0  0  0
   19.6987   17.3035   23.1486 H   0  0  0  0  0  0  0  0  0  0  0  0
   21.0849   18.4969   21.9409 C   0  0  0  0  0  0  0  0  0  0  0  0
   22.1544   18.7473   21.9704 H   0  0  0  0  0  0  0  0  0  0  0  0
   20.9322   17.8950   21.0345 H   0  0  0  0  0  0  0  0  0  0  0  0
   20.2713   19.8090   21.8406 C   0  0  0  0  0  0  0  0  0  0  0  0
   20.6623   20.3982   20.9997 H   0  0  0  0  0  0  0  0  0  0  0  0
   20.4328   20.4123   22.7444 H   0  0  0  0  0  0  0  0  0  0  0  0
   18.7577   19.5790   21.6314 C   0  0  0  0  0  0  0  0  0  0  0  0
   18.5983   18.9332   20.7569 H   0  0  0  0  0  0  0  0  0  0  0  0
   18.3308   19.0570   22.4978 H   0  0  0  0  0  0  0  0  0  0  0  0
   18.0068   20.9102   21.4284 C   0  0  0  0  0  0  0  0  0  0  0  0
   18.1267   21.5654   22.3012 H   0  0  0  0  0  0  0  0  0  0  0  0
   18.3827   21.4430   20.5451 H   0  0  0  0  0  0  0  0  0  0  0  0
   16.9335   20.7306   21.2843 H   0  0  0  0  0  0  0  0  0  0  0  0
  1  2  1  0  0  0  0
  1  3  2  0  0  0  0
  1  4  1  0  0  0  0
  4  5  1  0  0  0  0
  4  6  1  0  0  0  0
  4  7  1  0  0  0  0
  7  8  1  0  0  0  0
  7  9  1  0  0  0  0
  7 10  1  0  0  0  0
 10 11  1  0  0  0  0
 10 12  1  0  0  0  0
 10 13  1  0  0  0  0
 13 14  1  0  0  0  0
 13 15  1  0  0  0  0
 13 16  1  0  0  0  0
 16 17  1  0  0  0  0
 16 18  1  0  0  0  0
 16 19  1  0  0  0  0
M  END
> <VConfSearch Rank>
422

> <Conf_Id>
33

> <Delta U+W>
-0.526

> <U+W>
-55.418

> <U>
6.914

> <W>
-62.332

> <W(PB)>
-64.421

> <W(SA)>
2.090

> <Valence>
7.196

> <Coulomb>
-1.020

> <VdW>
0.738

> <VdW6>
-6.010

> <VdW12>
6.748

> <Bond>
0.126

> <Angle>
2.499

> <Pdih>
4.570

> <Idih>
0.001

> <Tether>
0.000

$$$$
VeraChem MOL file


 19 18  0  0  0  0  0  0  0  0999 V2000     
   22.5389   17.6330   23.4012 C   0  0  0  0  0  0  0  0  0  0  0  0
   23.4318   18.4563   23.4355 O   0  5  0  0  0  0  0  0  0  0  0  0
   22.4000   16.7566   24.2312 O   0  0  0  0  0  0  0  0  0  0  0  0
   21.5268   17.7147   22.2639 C   0  0  0  0  0  0  0  0  0  0  0  0
   21.1964   16.6959   22.0281 H   0  0  0  0  0  0  0  0  0  0  0  0
   22.0415   18.1023   21.3765 H   0  0  0  0  0  0  0  0  0  0  0  0
   20.3077   18.6067   22.6056 C   0  0  0  0  0  0  0  0  0  0  0  0
   19.8088   18.2115   23.5012 H   0  0  0  0  0  0  0  0  0  0  0  0
   20.6640   19.6147   22.8558 H   0  0  0  0  0  0  0  0  0  0  0  0
   19.3005   18.6743   21.4345 C   0  0  0  0  0  0  0  0  0  0  0  0
   19.0112   17.6526   21.1524 H   0  0  0  0  0  0  0  0  0  0  0  0
   19.7861   19.1150   20.5531 H   0  0  0  0  0  0  0  0  0  0  0  0
   18.0195   19.4717   21.7717 C   0  0  0  0  0  0  0  0  0  0  0  0
   17.3121   19.3719   20.9370 H   0  0  0  0  0  0  0  0  0  0  0  0
   17.5278   19.0304   22.6497 H   0  0  0  0  0  0  0  0  0  0  0  0
   18.2825   20.9722   22.0232 C   0  0  0  0  0  0  0  0  0  0  0  0
   18.8003   21.4288   21.1697 H   0  0  0  0  0  0  0  0  0  0  0  0
   17.3359   21.5082   22.1702 H   0  0  0  0  0  0  0  0  0  0  0  0
   18.8943   21.1270   22.9206 H   0  0  0  0  0  0  0  0  0  0  0  0
  1  2  1  0  0  0  0
  1  3  2  0  0  0  0
  1  4  1  0  0  0  0
  4  5  1  0  0  0  0
  4  6  1  0  0  0  0
  4  7  1  0  0  0  0
  7  8  1  0  0  0  0
  7  9  1  0  0  0  0
  7 10  1  0  0  0  0
 10 11  1  0  0  0  0
 10 12  1  0  0  0  0
 10 13  1  0  0  0  0
 13 14  1  0  0  0  0
 13 15  1  0  0  0  0
 13 16  1  0  0  0  0
 16 17  1  0  0  0  0
 16 18  1  0  0  0  0
 16 19  1  0  0  0  0
M  END
> <VConfSearch Rank>
423

> <Conf_Id>
42

> <Delta U+W>
-0.344

> <U+W>
-55.236

> <U>
7.244

> <W>
-62.479

> <W(PB)>
-64.610

> <W(SA)>
2.130

> <Valence>
7.174

> <Coulomb>
-0.669

> <VdW>
0.739

> <VdW6>
-5.969

> <VdW12>
6.708

> <Bond>
0.116

> <Angle>
2.481

> <Pdih>
4.576

> <Idih>
0.000

> <Tether>
0.000

$$$$
VeraChem MOL file


 19 18  0  0  0  0  0  0  0  0999 V2000     
   19.4276   21.7343   20.8795 C   0  0  0  0  0  0  0  0  0  0  0  0
   20.1045   22.6033   21.3922 O   0  5  0  0  0  0  0  0  0  0  0  0
   18.2944   21.9130   20.4792 O   0  0  0  0  0  0  0  0  0  0  0  0
   20.0263   20.3384   20.7475 C   0  0  0  0  0  0  0  0  0  0  0  0
   21.1080   20.4438   20.6004 H   0  0  0  0  0  0  0  0  0  0  0  0
   19.6190   19.8776   19.8395 H   0  0  0  0  0  0  0  0  0  0  0  0
   19.7399   19.4416   21.9771 C   0  0  0  0  0  0  0  0  0  0  0  0
   20.1395   19.9313   22.8749 H   0  0  0  0  0  0  0  0  0  0  0  0
   18.6536   19.3535   22.1167 H   0  0  0  0  0  0  0  0  0  0  0  0
   20.3611   18.0347   21.8178 C   0  0  0  0  0  0  0  0  0  0  0  0
   21.4527   18.1197   21.7276 H   0  0  0  0  0  0  0  0  0  0  0  0
   20.0046   17.5907   20.8783 H   0  0  0  0  0  0  0  0  0  0  0  0
   20.0117   17.0744   22.9781 C   0  0  0  0  0  0  0  0  0  0  0  0
   18.9204   16.9823   23.0680 H   0  0  0  0  0  0  0  0  0  0  0  0
   20.3883   16.0720   22.7318 H   0  0  0  0  0  0  0  0  0  0  0  0
   20.6095   17.5105   24.3332 C   0  0  0  0  0  0  0  0  0  0  0  0
   20.1742   18.4571   24.6772 H   0  0  0  0  0  0  0  0  0  0  0  0
   20.4086   16.7537   25.1025 H   0  0  0  0  0  0  0  0  0  0  0  0
   21.6974   17.6375   24.2601 H   0  0  0  0  0  0  0  0  0  0  0  0
  1  2  1  0  0  0  0
  1  3  2  0  0  0  0
  1  4  1  0  0  0  0
  4  5  1  0  0  0  0
  4  6  1  0  0  0  0
  4  7  1  0  0  0  0
  7  8  1  0  0  0  0
  7  9  1  0  0  0  0
  7 10  1  0  0  0  0
 10 11  1  0  0  0  0
 10 12  1  0  0  0  0
 10 13  1  0  0  0  0
 13 14  1  0  0  0  0
 13 15  1  0  0  0  0
 13 16  1  0  0  0  0
 16 17  1  0  0  0  0
 16 18  1  0  0  0  0
 16 19  1  0  0  0  0
M  END
> <VConfSearch Rank>
424

> <Conf_Id>
41

> <Delta U+W>
-0.361

> <U+W>
-55.252

> <U>
7.244

> <W>
-62.496

> <W(PB)>
-64.596

> <W(SA)>
2.099

> <Valence>
7.174

> <Coulomb>
-0.669

> <VdW>
0.739

> <VdW6>
-5.969

> <VdW12>
6.708

> <Bond>
0.116

> <Angle>
2.481

> <Pdih>
4.576

> <Idih>
0.000

> <Tether>
0.000

$$$$
VeraChem MOL file


 19 18  0  0  0  0  0  0  0  0999 V2000     
   20.7422   20.2536   24.7415 C   0  0  0  0  0  0  0  0  0  0  0  0
   19.9882   21.2060   24.7741 O   0  5  0  0  0  0  0  0  0  0  0  0
   20.9175   19.5031   25.6810 O   0  0  0  0  0  0  0  0  0  0  0  0
   21.5294   19.9971   23.4593 C   0  0  0  0  0  0  0  0  0  0  0  0
   22.5704   19.8072   23.7461 H   0  0  0  0  0  0  0  0  0  0  0  0
   21.5281   20.9143   22.8579 H   0  0  0  0  0  0  0  0  0  0  0  0
   20.9983   18.8061   22.6200 C   0  0  0  0  0  0  0  0  0  0  0  0
   21.7001   18.6083   21.7984 H   0  0  0  0  0  0  0  0  0  0  0  0
   20.9785   17.9015   23.2437 H   0  0  0  0  0  0  0  0  0  0  0  0
   19.5923   19.0704   22.0364 C   0  0  0  0  0  0  0  0  0  0  0  0
   19.6144   19.9826   21.4245 H   0  0  0  0  0  0  0  0  0  0  0  0
   18.8805   19.2524   22.8534 H   0  0  0  0  0  0  0  0  0  0  0  0
   19.0976   17.8863   21.1797 C   0  0  0  0  0  0  0  0  0  0  0  0
   19.8037   17.7023   20.3582 H   0  0  0  0  0  0  0  0  0  0  0  0
   19.0723   16.9729   21.7901 H   0  0  0  0  0  0  0  0  0  0  0  0
   17.6946   18.1532   20.5989 C   0  0  0  0  0  0  0  0  0  0  0  0
   17.6979   19.0447   19.9581 H   0  0  0  0  0  0  0  0  0  0  0  0
   17.3582   17.3016   19.9933 H   0  0  0  0  0  0  0  0  0  0  0  0
   16.9610   18.3099   21.4006 H   0  0  0  0  0  0  0  0  0  0  0  0
  1  2  1  0  0  0  0
  1  3  2  0  0  0  0
  1  4  1  0  0  0  0
  4  5  1  0  0  0  0
  4  6  1  0  0  0  0
  4  7  1  0  0  0  0
  7  8  1  0  0  0  0
  7  9  1  0  0  0  0
  7 10  1  0  0  0  0
 10 11  1  0  0  0  0
 10 12  1  0  0  0  0
 10 13  1  0  0  0  0
 13 14  1  0  0  0  0
 13 15  1  0  0  0  0
 13 16  1  0  0  0  0
 16 17  1  0  0  0  0
 16 18  1  0  0  0  0
 16 19  1  0  0  0  0
M  END
> <VConfSearch Rank>
425

> <Conf_Id>
36

> <Delta U+W>
-0.079

> <U+W>
-54.971

> <U>
8.266

> <W>
-63.237

> <W(PB)>
-65.340

> <W(SA)>
2.103

> <Valence>
6.935

> <Coulomb>
0.874

> <VdW>
0.457

> <VdW6>
-6.205

> <VdW12>
6.662

> <Bond>
0.107

> <Angle>
2.420

> <Pdih>
4.407

> <Idih>
0.001

> <Tether>
0.000

$$$$
VeraChem MOL file


 19 18  0  0  0  0  0  0  0  0999 V2000     
   19.4268   16.2076   21.9516 C   0  0  0  0  0  0  0  0  0  0  0  0
   20.0757   15.9630   20.9537 O   0  5  0  0  0  0  0  0  0  0  0  0
   18.2396   15.9701   22.0559 O   0  0  0  0  0  0  0  0  0  0  0  0
   20.1442   16.8270   23.1478 C   0  0  0  0  0  0  0  0  0  0  0  0
   21.2227   16.6643   23.0323 H   0  0  0  0  0  0  0  0  0  0  0  0
   19.8334   16.2712   24.0403 H   0  0  0  0  0  0  0  0  0  0  0  0
   19.8492   18.3361   23.3490 C   0  0  0  0  0  0  0  0  0  0  0  0
   18.7640   18.4865   23.4344 H   0  0  0  0  0  0  0  0  0  0  0  0
   20.2895   18.6613   24.3013 H   0  0  0  0  0  0  0  0  0  0  0  0
   20.4101   19.2091   22.2042 C   0  0  0  0  0  0  0  0  0  0  0  0
   19.9614   18.9010   21.2496 H   0  0  0  0  0  0  0  0  0  0  0  0
   21.4928   19.0454   22.1143 H   0  0  0  0  0  0  0  0  0  0  0  0
   20.1329   20.7084   22.4406 C   0  0  0  0  0  0  0  0  0  0  0  0
   19.0504   20.8753   22.5285 H   0  0  0  0  0  0  0  0  0  0  0  0
   20.5832   21.0233   23.3922 H   0  0  0  0  0  0  0  0  0  0  0  0
   20.6937   21.5766   21.2967 C   0  0  0  0  0  0  0  0  0  0  0  0
   20.2368   21.3037   20.3364 H   0  0  0  0  0  0  0  0  0  0  0  0
   20.4875   22.6391   21.4805 H   0  0  0  0  0  0  0  0  0  0  0  0
   21.7809   21.4528   21.2065 H   0  0  0  0  0  0  0  0  0  0  0  0
  1  2  1  0  0  0  0
  1  3  2  0  0  0  0
  1  4  1  0  0  0  0
  4  5  1  0  0  0  0
  4  6  1  0  0  0  0
  4  7  1  0  0  0  0
  7  8  1  0  0  0  0
  7  9  1  0  0  0  0
  7 10  1  0  0  0  0
 10 11  1  0  0  0  0
 10 12  1  0  0  0  0
 10 13  1  0  0  0  0
 13 14  1  0  0  0  0
 13 15  1  0  0  0  0
 13 16  1  0  0  0  0
 16 17  1  0  0  0  0
 16 18  1  0  0  0  0
 16 19  1  0  0  0  0
M  END
> <VConfSearch Rank>
426

> <Conf_Id>
35

> <Delta U+W>
-0.030

> <U+W>
-54.921

> <U>
8.267

> <W>
-63.188

> <W(PB)>
-65.294

> <W(SA)>
2.106

> <Valence>
6.935

> <Coulomb>
0.875

> <VdW>
0.457

> <VdW6>
-6.205

> <VdW12>
6.662

> <Bond>
0.107

> <Angle>
2.420

> <Pdih>
4.407

> <Idih>
0.001

> <Tether>
0.000

$$$$
VeraChem MOL file


 19 18  0  0  0  0  0  0  0  0999 V2000     
   17.5166   17.5717   22.8238 C   0  0  0  0  0  0  0  0  0  0  0  0
   16.6907   17.7728   21.9553 O   0  5  0  0  0  0  0  0  0  0  0  0
   17.2854   17.6904   24.0108 O   0  0  0  0  0  0  0  0  0  0  0  0
   18.9129   17.1249   22.3993 C   0  0  0  0  0  0  0  0  0  0  0  0
   18.7896   16.3362   21.6477 H   0  0  0  0  0  0  0  0  0  0  0  0
   19.4117   16.6662   23.2617 H   0  0  0  0  0  0  0  0  0  0  0  0
   19.7915   18.2622   21.8158 C   0  0  0  0  0  0  0  0  0  0  0  0
   20.7058   17.8182   21.4020 H   0  0  0  0  0  0  0  0  0  0  0  0
   19.2622   18.7378   20.9786 H   0  0  0  0  0  0  0  0  0  0  0  0
   20.1637   19.3277   22.8745 C   0  0  0  0  0  0  0  0  0  0  0  0
   20.7263   18.8567   23.6921 H   0  0  0  0  0  0  0  0  0  0  0  0
   19.2440   19.7284   23.3222 H   0  0  0  0  0  0  0  0  0  0  0  0
   20.9792   20.5080   22.2976 C   0  0  0  0  0  0  0  0  0  0  0  0
   20.4179   20.9825   21.4807 H   0  0  0  0  0  0  0  0  0  0  0  0
   21.0943   21.2715   23.0792 H   0  0  0  0  0  0  0  0  0  0  0  0
   22.3801   20.0967   21.7955 C   0  0  0  0  0  0  0  0  0  0  0  0
   22.3150   19.4218   20.9330 H   0  0  0  0  0  0  0  0  0  0  0  0
   22.9502   20.9810   21.4824 H   0  0  0  0  0  0  0  0  0  0  0  0
   22.9485   19.5912   22.5871 H   0  0  0  0  0  0  0  0  0  0  0  0
  1  2  1  0  0  0  0
  1  3  2  0  0  0  0
  1  4  1  0  0  0  0
  4  5  1  0  0  0  0
  4  6  1  0  0  0  0
  4  7  1  0  0  0  0
  7  8  1  0  0  0  0
  7  9  1  0  0  0  0
  7 10  1  0  0  0  0
 10 11  1  0  0  0  0
 10 12  1  0  0  0  0
 10 13  1  0  0  0  0
 13 14  1  0  0  0  0
 13 15  1  0  0  0  0
 13 16  1  0  0  0  0
 16 17  1  0  0  0  0
 16 18  1  0  0  0  0
 16 19  1  0  0  0  0
M  END
> <VConfSearch Rank>
427

> <Conf_Id>
74

> <Delta U+W>
0.797

> <U+W>
-54.095

> <U>
8.869

> <W>
-62.964

> <W(PB)>
-65.046

> <W(SA)>
2.082

> <Valence>
7.469

> <Coulomb>
0.762

> <VdW>
0.639

> <VdW6>
-6.782

> <VdW12>
7.421

> <Bond>
0.141

> <Angle>
2.667

> <Pdih>
4.660

> <Idih>
0.001

> <Tether>
0.000

$$$$
VeraChem MOL file


 19 18  0  0  0  0  0  0  0  0999 V2000     
   19.1342   16.4153   21.0511 C   0  0  0  0  0  0  0  0  0  0  0  0
   18.2746   16.2225   20.2142 O   0  5  0  0  0  0  0  0  0  0  0  0
   20.0680   15.6615   21.2413 O   0  0  0  0  0  0  0  0  0  0  0  0
   19.0460   17.6816   21.8954 C   0  0  0  0  0  0  0  0  0  0  0  0
   19.4605   17.4532   22.8839 H   0  0  0  0  0  0  0  0  0  0  0  0
   17.9861   17.9257   22.0345 H   0  0  0  0  0  0  0  0  0  0  0  0
   19.7921   18.8820   21.2574 C   0  0  0  0  0  0  0  0  0  0  0  0
   20.8587   18.6408   21.1581 H   0  0  0  0  0  0  0  0  0  0  0  0
   19.4171   19.0269   20.2349 H   0  0  0  0  0  0  0  0  0  0  0  0
   19.6150   20.2077   22.0397 C   0  0  0  0  0  0  0  0  0  0  0  0
   18.5514   20.4824   22.0382 H   0  0  0  0  0  0  0  0  0  0  0  0
   20.1357   21.0090   21.4977 H   0  0  0  0  0  0  0  0  0  0  0  0
   20.1208   20.1830   23.5030 C   0  0  0  0  0  0  0  0  0  0  0  0
   19.9295   21.1658   23.9556 H   0  0  0  0  0  0  0  0  0  0  0  0
   19.5415   19.4601   24.0925 H   0  0  0  0  0  0  0  0  0  0  0  0
   21.6268   19.8657   23.6242 C   0  0  0  0  0  0  0  0  0  0  0  0
   22.2249   20.5632   23.0235 H   0  0  0  0  0  0  0  0  0  0  0  0
   21.9546   19.9507   24.6683 H   0  0  0  0  0  0  0  0  0  0  0  0
   21.8473   18.8444   23.2885 H   0  0  0  0  0  0  0  0  0  0  0  0
  1  2  1  0  0  0  0
  1  3  2  0  0  0  0
  1  4  1  0  0  0  0
  4  5  1  0  0  0  0
  4  6  1  0  0  0  0
  4  7  1  0  0  0  0
  7  8  1  0  0  0  0
  7  9  1  0  0  0  0
  7 10  1  0  0  0  0
 10 11  1  0  0  0  0
 10 12  1  0  0  0  0
 10 13  1  0  0  0  0
 13 14  1  0  0  0  0
 13 15  1  0  0  0  0
 13 16  1  0  0  0  0
 16 17  1  0  0  0  0
 16 18  1  0  0  0  0
 16 19  1  0  0  0  0
M  END
> <VConfSearch Rank>
428

> <Conf_Id>
67

> <Delta U+W>
0.308

> <U+W>
-54.583

> <U>
8.219

> <W>
-62.802

> <W(PB)>
-64.859

> <W(SA)>
2.057

> <Valence>
7.609

> <Coulomb>
-0.089

> <VdW>
0.699

> <VdW6>
-6.924

> <VdW12>
7.623

> <Bond>
0.163

> <Angle>
2.870

> <Pdih>
4.576

> <Idih>
0.001

> <Tether>
0.000

$$$$
VeraChem MOL file


 19 18  0  0  0  0  0  0  0  0999 V2000     
   20.0746   16.2303   23.4411 C   0  0  0  0  0  0  0  0  0  0  0  0
   20.5404   15.2113   22.9709 O   0  5  0  0  0  0  0  0  0  0  0  0
   19.2151   16.2424   24.2999 O   0  0  0  0  0  0  0  0  0  0  0  0
   20.5828   17.5660   22.9104 C   0  0  0  0  0  0  0  0  0  0  0  0
   21.6356   17.4432   22.6295 H   0  0  0  0  0  0  0  0  0  0  0  0
   20.5471   18.2879   23.7343 H   0  0  0  0  0  0  0  0  0  0  0  0
   19.7629   18.0825   21.6997 C   0  0  0  0  0  0  0  0  0  0  0  0
   19.7419   17.2999   20.9288 H   0  0  0  0  0  0  0  0  0  0  0  0
   18.7189   18.2380   22.0027 H   0  0  0  0  0  0  0  0  0  0  0  0
   20.3353   19.3780   21.0715 C   0  0  0  0  0  0  0  0  0  0  0  0
   19.7239   19.6467   20.1993 H   0  0  0  0  0  0  0  0  0  0  0  0
   21.3420   19.1706   20.6837 H   0  0  0  0  0  0  0  0  0  0  0  0
   20.4100   20.5963   22.0244 C   0  0  0  0  0  0  0  0  0  0  0  0
   21.1003   20.3883   22.8526 H   0  0  0  0  0  0  0  0  0  0  0  0
   20.8424   21.4438   21.4750 H   0  0  0  0  0  0  0  0  0  0  0  0
   19.0354   21.0185   22.5861 C   0  0  0  0  0  0  0  0  0  0  0  0
   18.6161   20.2426   23.2391 H   0  0  0  0  0  0  0  0  0  0  0  0
   19.1284   21.9375   23.1790 H   0  0  0  0  0  0  0  0  0  0  0  0
   18.3213   21.2097   21.7746 H   0  0  0  0  0  0  0  0  0  0  0  0
  1  2  1  0  0  0  0
  1  3  2  0  0  0  0
  1  4  1  0  0  0  0
  4  5  1  0  0  0  0
  4  6  1  0  0  0  0
  4  7  1  0  0  0  0
  7  8  1  0  0  0  0
  7  9  1  0  0  0  0
  7 10  1  0  0  0  0
 10 11  1  0  0  0  0
 10 12  1  0  0  0  0
 10 13  1  0  0  0  0
 13 14  1  0  0  0  0
 13 15  1  0  0  0  0
 13 16  1  0  0  0  0
 16 17  1  0  0  0  0
 16 18  1  0  0  0  0
 16 19  1  0  0  0  0
M  END
> <VConfSearch Rank>
429

> <Conf_Id>
21

> <Delta U+W>
0.319

> <U+W>
-54.572

> <U>
8.220

> <W>
-62.792

> <W(PB)>
-64.830

> <W(SA)>
2.038

> <Valence>
7.609

> <Coulomb>
-0.088

> <VdW>
0.699

> <VdW6>
-6.924

> <VdW12>
7.623

> <Bond>
0.163

> <Angle>
2.870

> <Pdih>
4.576

> <Idih>
0.000

> <Tether>
0.000

$$$$
VeraChem MOL file


 19 18  0  0  0  0  0  0  0  0999 V2000     
   18.1685   18.5660   24.5463 C   0  0  0  0  0  0  0  0  0  0  0  0
   17.7726   17.5524   25.0871 O   0  5  0  0  0  0  0  0  0  0  0  0
   18.1750   19.6558   25.0834 O   0  0  0  0  0  0  0  0  0  0  0  0
   18.7032   18.4605   23.1226 C   0  0  0  0  0  0  0  0  0  0  0  0
   18.4799   19.4010   22.6095 H   0  0  0  0  0  0  0  0  0  0  0  0
   18.1393   17.6740   22.6070 H   0  0  0  0  0  0  0  0  0  0  0  0
   20.2216   18.1446   23.0730 C   0  0  0  0  0  0  0  0  0  0  0  0
   20.7839   18.9001   23.6390 H   0  0  0  0  0  0  0  0  0  0  0  0
   20.3849   17.1898   23.5918 H   0  0  0  0  0  0  0  0  0  0  0  0
   20.7806   18.0276   21.6323 C   0  0  0  0  0  0  0  0  0  0  0  0
   19.9985   17.6711   20.9480 H   0  0  0  0  0  0  0  0  0  0  0  0
   21.5567   17.2500   21.6294 H   0  0  0  0  0  0  0  0  0  0  0  0
   21.4202   19.3251   21.0797 C   0  0  0  0  0  0  0  0  0  0  0  0
   22.2595   19.6246   21.7225 H   0  0  0  0  0  0  0  0  0  0  0  0
   21.8516   19.1077   20.0929 H   0  0  0  0  0  0  0  0  0  0  0  0
   20.4370   20.5054   20.9394 C   0  0  0  0  0  0  0  0  0  0  0  0
   20.9184   21.3462   20.4235 H   0  0  0  0  0  0  0  0  0  0  0  0
   19.5514   20.2144   20.3597 H   0  0  0  0  0  0  0  0  0  0  0  0
   20.1092   20.8660   21.9224 H   0  0  0  0  0  0  0  0  0  0  0  0
  1  2  1  0  0  0  0
  1  3  2  0  0  0  0
  1  4  1  0  0  0  0
  4  5  1  0  0  0  0
  4  6  1  0  0  0  0
  4  7  1  0  0  0  0
  7  8  1  0  0  0  0
  7  9  1  0  0  0  0
  7 10  1  0  0  0  0
 10 11  1  0  0  0  0
 10 12  1  0  0  0  0
 10 13  1  0  0  0  0
 13 14  1  0  0  0  0
 13 15  1  0  0  0  0
 13 16  1  0  0  0  0
 16 17  1  0  0  0  0
 16 18  1  0  0  0  0
 16 19  1  0  0  0  0
M  END
> <VConfSearch Rank>
430

> <Conf_Id>
24

> <Delta U+W>
2.477

> <U+W>
-52.414

> <U>
10.422

> <W>
-62.836

> <W(PB)>
-64.906

> <W(SA)>
2.070

> <Valence>
9.628

> <Coulomb>
0.101

> <VdW>
0.693

> <VdW6>
-6.927

> <VdW12>
7.620

> <Bond>
0.173

> <Angle>
2.989

> <Pdih>
6.465

> <Idih>
0.001

> <Tether>
0.000

$$$$
VeraChem MOL file


 19 18  0  0  0  0  0  0  0  0999 V2000     
   21.9775   17.5299   22.7015 C   0  0  0  0  0  0  0  0  0  0  0  0
   21.3707   16.4962   22.9012 O   0  5  0  0  0  0  0  0  0  0  0  0
   23.0694   17.5746   22.1697 O   0  0  0  0  0  0  0  0  0  0  0  0
   21.3507   18.8411   23.1685 C   0  0  0  0  0  0  0  0  0  0  0  0
   22.1212   19.3882   23.7241 H   0  0  0  0  0  0  0  0  0  0  0  0
   20.5550   18.6081   23.8832 H   0  0  0  0  0  0  0  0  0  0  0  0
   20.8197   19.7339   22.0127 C   0  0  0  0  0  0  0  0  0  0  0  0
   20.5755   20.7334   22.3969 H   0  0  0  0  0  0  0  0  0  0  0  0
   21.6369   19.8787   21.2926 H   0  0  0  0  0  0  0  0  0  0  0  0
   19.5942   19.1458   21.2659 C   0  0  0  0  0  0  0  0  0  0  0  0
   19.6219   18.0478   21.2854 H   0  0  0  0  0  0  0  0  0  0  0  0
   19.6740   19.4264   20.2068 H   0  0  0  0  0  0  0  0  0  0  0  0
   18.2226   19.6496   21.7786 C   0  0  0  0  0  0  0  0  0  0  0  0
   18.1674   20.7418   21.6725 H   0  0  0  0  0  0  0  0  0  0  0  0
   17.4365   19.2379   21.1309 H   0  0  0  0  0  0  0  0  0  0  0  0
   17.9129   19.2603   23.2388 C   0  0  0  0  0  0  0  0  0  0  0  0
   18.5737   19.7881   23.9374 H   0  0  0  0  0  0  0  0  0  0  0  0
   16.8796   19.5263   23.4962 H   0  0  0  0  0  0  0  0  0  0  0  0
   18.0335   18.1798   23.3919 H   0  0  0  0  0  0  0  0  0  0  0  0
  1  2  1  0  0  0  0
  1  3  2  0  0  0  0
  1  4  1  0  0  0  0
  4  5  1  0  0  0  0
  4  6  1  0  0  0  0
  4  7  1  0  0  0  0
  7  8  1  0  0  0  0
  7  9  1  0  0  0  0
  7 10  1  0  0  0  0
 10 11  1  0  0  0  0
 10 12  1  0  0  0  0
 10 13  1  0  0  0  0
 13 14  1  0  0  0  0
 13 15  1  0  0  0  0
 13 16  1  0  0  0  0
 16 17  1  0  0  0  0
 16 18  1  0  0  0  0
 16 19  1  0  0  0  0
M  END
> <VConfSearch Rank>
431

> <Conf_Id>
4

> <Delta U+W>
3.753

> <U+W>
-51.138

> <U>
12.334

> <W>
-63.472

> <W(PB)>
-65.500

> <W(SA)>
2.028

> <Valence>
9.984

> <Coulomb>
1.767

> <VdW>
0.583

> <VdW6>
-7.767

> <VdW12>
8.349

> <Bond>
0.203

> <Angle>
3.191

> <Pdih>
6.589

> <Idih>
0.001

> <Tether>
0.000

$$$$
VeraChem MOL file


 19 18  0  0  0  0  0  0  0  0999 V2000     
   18.6390   17.1227   23.8296 C   0  0  0  0  0  0  0  0  0  0  0  0
   17.6320   16.4882   23.5839 O   0  5  0  0  0  0  0  0  0  0  0  0
   19.6205   16.6433   24.3621 O   0  0  0  0  0  0  0  0  0  0  0  0
   18.6578   18.6076   23.4758 C   0  0  0  0  0  0  0  0  0  0  0  0
   19.4729   19.0842   24.0296 H   0  0  0  0  0  0  0  0  0  0  0  0
   17.7252   19.0422   23.8542 H   0  0  0  0  0  0  0  0  0  0  0  0
   18.7759   18.8922   21.9527 C   0  0  0  0  0  0  0  0  0  0  0  0
   17.9780   18.3368   21.4406 H   0  0  0  0  0  0  0  0  0  0  0  0
   18.5779   19.9545   21.7563 H   0  0  0  0  0  0  0  0  0  0  0  0
   20.1403   18.4905   21.3342 C   0  0  0  0  0  0  0  0  0  0  0  0
   19.9583   18.1305   20.3124 H   0  0  0  0  0  0  0  0  0  0  0  0
   20.5732   17.6390   21.8767 H   0  0  0  0  0  0  0  0  0  0  0  0
   21.1728   19.6411   21.2451 C   0  0  0  0  0  0  0  0  0  0  0  0
   22.0636   19.2693   20.7204 H   0  0  0  0  0  0  0  0  0  0  0  0
   20.7680   20.4532   20.6256 H   0  0  0  0  0  0  0  0  0  0  0  0
   21.6064   20.2074   22.6129 C   0  0  0  0  0  0  0  0  0  0  0  0
   21.9466   19.4052   23.2810 H   0  0  0  0  0  0  0  0  0  0  0  0
   22.4327   20.9193   22.4893 H   0  0  0  0  0  0  0  0  0  0  0  0
   20.7808   20.7409   23.0998 H   0  0  0  0  0  0  0  0  0  0  0  0
  1  2  1  0  0  0  0
  1  3  2  0  0  0  0
  1  4  1  0  0  0  0
  4  5  1  0  0  0  0
  4  6  1  0  0  0  0
  4  7  1  0  0  0  0
  7  8  1  0  0  0  0
  7  9  1  0  0  0  0
  7 10  1  0  0  0  0
 10 11  1  0  0  0  0
 10 12  1  0  0  0  0
 10 13  1  0  0  0  0
 13 14  1  0  0  0  0
 13 15  1  0  0  0  0
 13 16  1  0  0  0  0
 16 17  1  0  0  0  0
 16 18  1  0  0  0  0
 16 19  1  0  0  0  0
M  END
> <VConfSearch Rank>
432

> <Conf_Id>
73

> <Delta U+W>
3.707

> <U+W>
-51.184

> <U>
12.334

> <W>
-63.519

> <W(PB)>
-65.541

> <W(SA)>
2.022

> <Valence>
9.984

> <Coulomb>
1.768

> <VdW>
0.583

> <VdW6>
-7.767

> <VdW12>
8.350

> <Bond>
0.203

> <Angle>
3.192

> <Pdih>
6.589

> <Idih>
0.001

> <Tether>
0.000

$$$$
VeraChem MOL file


 19 18  0  0  0  0  0  0  0  0999 V2000     
   18.5853   20.9612   21.2435 C   0  0  0  0  0  0  0  0  0  0  0  0
   19.2658   20.9988   20.2374 O   0  5  0  0  0  0  0  0  0  0  0  0
   17.3943   21.2031   21.2575 O   0  0  0  0  0  0  0  0  0  0  0  0
   19.2662   20.6238   22.5671 C   0  0  0  0  0  0  0  0  0  0  0  0
   18.9766   21.3959   23.2893 H   0  0  0  0  0  0  0  0  0  0  0  0
   20.3510   20.7118   22.4371 H   0  0  0  0  0  0  0  0  0  0  0  0
   18.8959   19.2259   23.1335 C   0  0  0  0  0  0  0  0  0  0  0  0
   19.3679   19.0972   24.1162 H   0  0  0  0  0  0  0  0  0  0  0  0
   17.8125   19.1951   23.3132 H   0  0  0  0  0  0  0  0  0  0  0  0
   19.2792   18.0393   22.2120 C   0  0  0  0  0  0  0  0  0  0  0  0
   18.7076   18.1130   21.2766 H   0  0  0  0  0  0  0  0  0  0  0  0
   18.9571   17.1040   22.6895 H   0  0  0  0  0  0  0  0  0  0  0  0
   20.7847   17.9324   21.8664 C   0  0  0  0  0  0  0  0  0  0  0  0
   20.9299   17.0712   21.1999 H   0  0  0  0  0  0  0  0  0  0  0  0
   21.1041   18.8143   21.2949 H   0  0  0  0  0  0  0  0  0  0  0  0
   21.6868   17.7581   23.1072 C   0  0  0  0  0  0  0  0  0  0  0  0
   21.6602   18.6485   23.7478 H   0  0  0  0  0  0  0  0  0  0  0  0
   21.3702   16.8933   23.7046 H   0  0  0  0  0  0  0  0  0  0  0  0
   22.7295   17.5972   22.8043 H   0  0  0  0  0  0  0  0  0  0  0  0
  1  2  1  0  0  0  0
  1  3  2  0  0  0  0
  1  4  1  0  0  0  0
  4  5  1  0  0  0  0
  4  6  1  0  0  0  0
  4  7  1  0  0  0  0
  7  8  1  0  0  0  0
  7  9  1  0  0  0  0
  7 10  1  0  0  0  0
 10 11  1  0  0  0  0
 10 12  1  0  0  0  0
 10 13  1  0  0  0  0
 13 14  1  0  0  0  0
 13 15  1  0  0  0  0
 13 16  1  0  0  0  0
 16 17  1  0  0  0  0
 16 18  1  0  0  0  0
 16 19  1  0  0  0  0
M  END
> <VConfSearch Rank>
433

> <Conf_Id>
56

> <Delta U+W>
1.735

> <U+W>
-53.156

> <U>
10.214

> <W>
-63.370

> <W(PB)>
-65.388

> <W(SA)>
2.018

> <Valence>
7.868

> <Coulomb>
1.968

> <VdW>
0.378

> <VdW6>
-8.067

> <VdW12>
8.445

> <Bond>
0.191

> <Angle>
3.117

> <Pdih>
4.559

> <Idih>
0.001

> <Tether>
0.000

$$$$
VeraChem MOL file


 19 18  0  0  0  0  0  0  0  0999 V2000     
   21.8306   19.0886   24.5364 C   0  0  0  0  0  0  0  0  0  0  0  0
   21.8076   18.3088   25.4680 O   0  5  0  0  0  0  0  0  0  0  0  0
   22.4859   20.1117   24.5325 O   0  0  0  0  0  0  0  0  0  0  0  0
   20.9737   18.7767   23.3147 C   0  0  0  0  0  0  0  0  0  0  0  0
   20.9100   17.6869   23.2114 H   0  0  0  0  0  0  0  0  0  0  0  0
   21.4996   19.1619   22.4340 H   0  0  0  0  0  0  0  0  0  0  0  0
   19.5538   19.3905   23.4042 C   0  0  0  0  0  0  0  0  0  0  0  0
   19.1057   19.1011   24.3648 H   0  0  0  0  0  0  0  0  0  0  0  0
   19.6339   20.4862   23.4202 H   0  0  0  0  0  0  0  0  0  0  0  0
   18.5968   18.9558   22.2659 C   0  0  0  0  0  0  0  0  0  0  0  0
   17.6165   19.4089   22.4677 H   0  0  0  0  0  0  0  0  0  0  0  0
   18.4363   17.8695   22.3020 H   0  0  0  0  0  0  0  0  0  0  0  0
   19.0428   19.3852   20.8461 C   0  0  0  0  0  0  0  0  0  0  0  0
   18.1488   19.6360   20.2587 H   0  0  0  0  0  0  0  0  0  0  0  0
   19.6426   20.3044   20.8966 H   0  0  0  0  0  0  0  0  0  0  0  0
   19.8155   18.2818   20.0896 C   0  0  0  0  0  0  0  0  0  0  0  0
   20.0932   18.6279   19.0856 H   0  0  0  0  0  0  0  0  0  0  0  0
   20.7359   17.9961   20.6110 H   0  0  0  0  0  0  0  0  0  0  0  0
   19.1977   17.3816   19.9750 H   0  0  0  0  0  0  0  0  0  0  0  0
  1  2  1  0  0  0  0
  1  3  2  0  0  0  0
  1  4  1  0  0  0  0
  4  5  1  0  0  0  0
  4  6  1  0  0  0  0
  4  7  1  0  0  0  0
  7  8  1  0  0  0  0
  7  9  1  0  0  0  0
  7 10  1  0  0  0  0
 10 11  1  0  0  0  0
 10 12  1  0  0  0  0
 10 13  1  0  0  0  0
 13 14  1  0  0  0  0
 13 15  1  0  0  0  0
 13 16  1  0  0  0  0
 16 17  1  0  0  0  0
 16 18  1  0  0  0  0
 16 19  1  0  0  0  0
M  END
> <VConfSearch Rank>
434

> <Conf_Id>
53

> <Delta U+W>
2.279

> <U+W>
-52.612

> <U>
10.231

> <W>
-62.843

> <W(PB)>
-64.893

> <W(SA)>
2.050

> <Valence>
9.644

> <Coulomb>
-0.164

> <VdW>
0.751

> <VdW6>
-6.881

> <VdW12>
7.631

> <Bond>
0.163

> <Angle>
2.998

> <Pdih>
6.482

> <Idih>
0.001

> <Tether>
0.000

$$$$
VeraChem MOL file


 19 18  0  0  0  0  0  0  0  0999 V2000     
   19.9555   21.1433   23.3958 C   0  0  0  0  0  0  0  0  0  0  0  0
   20.6039   21.8180   22.6205 O   0  5  0  0  0  0  0  0  0  0  0  0
   20.1727   21.1018   24.5909 O   0  0  0  0  0  0  0  0  0  0  0  0
   18.7625   20.3625   22.8476 C   0  0  0  0  0  0  0  0  0  0  0  0
   18.6761   20.5525   21.7708 H   0  0  0  0  0  0  0  0  0  0  0  0
   17.8701   20.7950   23.3147 H   0  0  0  0  0  0  0  0  0  0  0  0
   18.7863   18.8327   23.1239 C   0  0  0  0  0  0  0  0  0  0  0  0
   19.0795   18.6448   24.1661 H   0  0  0  0  0  0  0  0  0  0  0  0
   17.7597   18.4548   23.0262 H   0  0  0  0  0  0  0  0  0  0  0  0
   19.6835   18.0131   22.1637 C   0  0  0  0  0  0  0  0  0  0  0  0
   19.3805   18.2000   21.1244 H   0  0  0  0  0  0  0  0  0  0  0  0
   19.5001   16.9462   22.3514 H   0  0  0  0  0  0  0  0  0  0  0  0
   21.1945   18.2913   22.3219 C   0  0  0  0  0  0  0  0  0  0  0  0
   21.4229   19.3188   22.0113 H   0  0  0  0  0  0  0  0  0  0  0  0
   21.4807   18.2037   23.3792 H   0  0  0  0  0  0  0  0  0  0  0  0
   22.0404   17.3168   21.4777 C   0  0  0  0  0  0  0  0  0  0  0  0
   21.7913   17.4033   20.4120 H   0  0  0  0  0  0  0  0  0  0  0  0
   23.1102   17.5332   21.5945 H   0  0  0  0  0  0  0  0  0  0  0  0
   21.8693   16.2774   21.7871 H   0  0  0  0  0  0  0  0  0  0  0  0
  1  2  1  0  0  0  0
  1  3  2  0  0  0  0
  1  4  1  0  0  0  0
  4  5  1  0  0  0  0
  4  6  1  0  0  0  0
  4  7  1  0  0  0  0
  7  8  1  0  0  0  0
  7  9  1  0  0  0  0
  7 10  1  0  0  0  0
 10 11  1  0  0  0  0
 10 12  1  0  0  0  0
 10 13  1  0  0  0  0
 13 14  1  0  0  0  0
 13 15  1  0  0  0  0
 13 16  1  0  0  0  0
 16 17  1  0  0  0  0
 16 18  1  0  0  0  0
 16 19  1  0  0  0  0
M  END
> <VConfSearch Rank>
435

> <Conf_Id>
25

> <Delta U+W>
2.065

> <U+W>
-52.826

> <U>
10.967

> <W>
-63.794

> <W(PB)>
-65.830

> <W(SA)>
2.036

> <Valence>
8.609

> <Coulomb>
1.892

> <VdW>
0.467

> <VdW6>
-7.569

> <VdW12>
8.036

> <Bond>
0.170

> <Angle>
3.195

> <Pdih>
5.237

> <Idih>
0.007

> <Tether>
0.000

$$$$
VeraChem MOL file


 19 18  0  0  0  0  0  0  0  0999 V2000     
   20.2070   17.5631   24.5523 C   0  0  0  0  0  0  0  0  0  0  0  0
   20.8218   18.2039   25.3821 O   0  5  0  0  0  0  0  0  0  0  0  0
   20.5443   16.4582   24.1751 O   0  0  0  0  0  0  0  0  0  0  0  0
   18.9047   18.1447   24.0053 C   0  0  0  0  0  0  0  0  0  0  0  0
   18.2235   18.2324   24.8596 H   0  0  0  0  0  0  0  0  0  0  0  0
   18.4522   17.4208   23.3166 H   0  0  0  0  0  0  0  0  0  0  0  0
   19.0345   19.5331   23.3178 C   0  0  0  0  0  0  0  0  0  0  0  0
   18.0398   19.9988   23.3047 H   0  0  0  0  0  0  0  0  0  0  0  0
   19.6693   20.1937   23.9246 H   0  0  0  0  0  0  0  0  0  0  0  0
   19.5539   19.4898   21.8594 C   0  0  0  0  0  0  0  0  0  0  0  0
   19.4549   20.4966   21.4311 H   0  0  0  0  0  0  0  0  0  0  0  0
   18.9108   18.8337   21.2571 H   0  0  0  0  0  0  0  0  0  0  0  0
   21.0250   19.0380   21.7278 C   0  0  0  0  0  0  0  0  0  0  0  0
   21.6576   19.6267   22.4065 H   0  0  0  0  0  0  0  0  0  0  0  0
   21.1244   17.9868   22.0269 H   0  0  0  0  0  0  0  0  0  0  0  0
   21.5374   19.1944   20.2818 C   0  0  0  0  0  0  0  0  0  0  0  0
   22.5804   18.8613   20.2036 H   0  0  0  0  0  0  0  0  0  0  0  0
   20.9367   18.5942   19.5859 H   0  0  0  0  0  0  0  0  0  0  0  0
   21.4915   20.2428   19.9592 H   0  0  0  0  0  0  0  0  0  0  0  0
  1  2  1  0  0  0  0
  1  3  2  0  0  0  0
  1  4  1  0  0  0  0
  4  5  1  0  0  0  0
  4  6  1  0  0  0  0
  4  7  1  0  0  0  0
  7  8  1  0  0  0  0
  7  9  1  0  0  0  0
  7 10  1  0  0  0  0
 10 11  1  0  0  0  0
 10 12  1  0  0  0  0
 10 13  1  0  0  0  0
 13 14  1  0  0  0  0
 13 15  1  0  0  0  0
 13 16  1  0  0  0  0
 16 17  1  0  0  0  0
 16 18  1  0  0  0  0
 16 19  1  0  0  0  0
M  END
> <VConfSearch Rank>
436

> <Conf_Id>
52

> <Delta U+W>
2.070

> <U+W>
-52.822

> <U>
10.967

> <W>
-63.789

> <W(PB)>
-65.837

> <W(SA)>
2.048

> <Valence>
8.609

> <Coulomb>
1.892

> <VdW>
0.467

> <VdW6>
-7.569

> <VdW12>
8.035

> <Bond>
0.170

> <Angle>
3.196

> <Pdih>
5.237

> <Idih>
0.007

> <Tether>
0.000

$$$$
VeraChem MOL file


 19 18  0  0  0  0  0  0  0  0999 V2000     
   19.2351   20.5489   23.8147 C   0  0  0  0  0  0  0  0  0  0  0  0
   18.1048   20.3336   24.2073 O   0  5  0  0  0  0  0  0  0  0  0  0
   20.1498   20.8525   24.5550 O   0  0  0  0  0  0  0  0  0  0  0  0
   19.4987   20.5648   22.3082 C   0  0  0  0  0  0  0  0  0  0  0  0
   20.5801   20.6205   22.1350 H   0  0  0  0  0  0  0  0  0  0  0  0
   19.0743   21.5045   21.9366 H   0  0  0  0  0  0  0  0  0  0  0  0
   18.8858   19.3840   21.5023 C   0  0  0  0  0  0  0  0  0  0  0  0
   17.8754   19.1613   21.8722 H   0  0  0  0  0  0  0  0  0  0  0  0
   18.7553   19.7166   20.4636 H   0  0  0  0  0  0  0  0  0  0  0  0
   19.7350   18.0874   21.4728 C   0  0  0  0  0  0  0  0  0  0  0  0
   20.7107   18.2883   21.0096 H   0  0  0  0  0  0  0  0  0  0  0  0
   19.2301   17.3782   20.8025 H   0  0  0  0  0  0  0  0  0  0  0  0
   19.9231   17.3972   22.8454 C   0  0  0  0  0  0  0  0  0  0  0  0
   19.1244   17.6958   23.5383 H   0  0  0  0  0  0  0  0  0  0  0  0
   19.8207   16.3113   22.7133 H   0  0  0  0  0  0  0  0  0  0  0  0
   21.3072   17.6761   23.4696 C   0  0  0  0  0  0  0  0  0  0  0  0
   22.1105   17.2905   22.8286 H   0  0  0  0  0  0  0  0  0  0  0  0
   21.4744   18.7500   23.6127 H   0  0  0  0  0  0  0  0  0  0  0  0
   21.3933   17.1888   24.4492 H   0  0  0  0  0  0  0  0  0  0  0  0
  1  2  1  0  0  0  0
  1  3  2  0  0  0  0
  1  4  1  0  0  0  0
  4  5  1  0  0  0  0
  4  6  1  0  0  0  0
  4  7  1  0  0  0  0
  7  8  1  0  0  0  0
  7  9  1  0  0  0  0
  7 10  1  0  0  0  0
 10 11  1  0  0  0  0
 10 12  1  0  0  0  0
 10 13  1  0  0  0  0
 13 14  1  0  0  0  0
 13 15  1  0  0  0  0
 13 16  1  0  0  0  0
 16 17  1  0  0  0  0
 16 18  1  0  0  0  0
 16 19  1  0  0  0  0
M  END
> <VConfSearch Rank>
437

> <Conf_Id>
66

> <Delta U+W>
5.819

> <U+W>
-49.072

> <U>
15.324

> <W>
-64.396

> <W(PB)>
-66.382

> <W(SA)>
1.986

> <Valence>
11.748

> <Coulomb>
3.201

> <VdW>
0.375

> <VdW6>
-8.854

> <VdW12>
9.229

> <Bond>
0.216

> <Angle>
3.812

> <Pdih>
7.699

> <Idih>
0.022

> <Tether>
0.000

$$$$
VeraChem MOL file


 19 18  0  0  0  0  0  0  0  0999 V2000     
   17.1766   20.8020   22.6276 C   0  0  0  0  0  0  0  0  0  0  0  0
   16.8132   21.8413   23.1409 O   0  5  0  0  0  0  0  0  0  0  0  0
   16.4195   20.0488   22.0465 O   0  0  0  0  0  0  0  0  0  0  0  0
   18.6618   20.4523   22.7348 C   0  0  0  0  0  0  0  0  0  0  0  0
   18.9157   20.4265   23.8010 H   0  0  0  0  0  0  0  0  0  0  0  0
   19.2258   21.2810   22.2907 H   0  0  0  0  0  0  0  0  0  0  0  0
   19.0784   19.1161   22.0644 C   0  0  0  0  0  0  0  0  0  0  0  0
   18.5057   18.2908   22.5097 H   0  0  0  0  0  0  0  0  0  0  0  0
   18.8161   19.1462   20.9978 H   0  0  0  0  0  0  0  0  0  0  0  0
   20.5901   18.8425   22.2200 C   0  0  0  0  0  0  0  0  0  0  0  0
   20.8503   18.8131   23.2870 H   0  0  0  0  0  0  0  0  0  0  0  0
   21.1609   19.6688   21.7742 H   0  0  0  0  0  0  0  0  0  0  0  0
   21.0022   17.5138   21.5529 C   0  0  0  0  0  0  0  0  0  0  0  0
   20.4348   16.6844   21.9974 H   0  0  0  0  0  0  0  0  0  0  0  0
   20.7454   17.5401   20.4848 H   0  0  0  0  0  0  0  0  0  0  0  0
   22.5120   17.2439   21.7103 C   0  0  0  0  0  0  0  0  0  0  0  0
   22.7914   17.1811   22.7702 H   0  0  0  0  0  0  0  0  0  0  0  0
   22.7874   16.2957   21.2305 H   0  0  0  0  0  0  0  0  0  0  0  0
   23.1044   18.0433   21.2462 H   0  0  0  0  0  0  0  0  0  0  0  0
  1  2  1  0  0  0  0
  1  3  2  0  0  0  0
  1  4  1  0  0  0  0
  4  5  1  0  0  0  0
  4  6  1  0  0  0  0
  4  7  1  0  0  0  0
  7  8  1  0  0  0  0
  7  9  1  0  0  0  0
  7 10  1  0  0  0  0
 10 11  1  0  0  0  0
 10 12  1  0  0  0  0
 10 13  1  0  0  0  0
 13 14  1  0  0  0  0
 13 15  1  0  0  0  0
 13 16  1  0  0  0  0
 16 17  1  0  0  0  0
 16 18  1  0  0  0  0
 16 19  1  0  0  0  0
M  END
> <VConfSearch Rank>
438

> <Conf_Id>
0

> <Delta U+W>
0.000

> <U+W>
-54.891

> <U>
6.966

> <W>
-61.857

> <W(PB)>
-63.965

> <W(SA)>
2.108

> <Valence>
7.175

> <Coulomb>
-1.360

> <VdW>
1.151

> <VdW6>
-5.641

> <VdW12>
6.792

> <Bond>
0.119

> <Angle>
2.715

> <Pdih>
4.340

> <Idih>
0.000

> <Tether>
0.000

$$$$
VeraChem MOL file


 19 18  0  0  0  0  0  0  0  0999 V2000     
   18.0967   20.3252   24.6353 C   0  0  0  0  0  0  0  0  0  0  0  0
   16.9526   20.6061   24.3380 O   0  5  0  0  0  0  0  0  0  0  0  0
   18.4437   20.0178   25.7584 O   0  0  0  0  0  0  0  0  0  0  0  0
   19.1511   20.3394   23.5343 C   0  0  0  0  0  0  0  0  0  0  0  0
   20.1079   20.6335   23.9823 H   0  0  0  0  0  0  0  0  0  0  0  0
   18.8788   21.1180   22.8115 H   0  0  0  0  0  0  0  0  0  0  0  0
   19.2937   18.9731   22.8194 C   0  0  0  0  0  0  0  0  0  0  0  0
   19.5539   18.2025   23.5582 H   0  0  0  0  0  0  0  0  0  0  0  0
   18.3246   18.6868   22.3874 H   0  0  0  0  0  0  0  0  0  0  0  0
   20.3665   19.0142   21.7099 C   0  0  0  0  0  0  0  0  0  0  0  0
   21.3337   19.3020   22.1446 H   0  0  0  0  0  0  0  0  0  0  0  0
   20.1042   19.7864   20.9736 H   0  0  0  0  0  0  0  0  0  0  0  0
   20.5064   17.6518   20.9995 C   0  0  0  0  0  0  0  0  0  0  0  0
   20.7707   16.8770   21.7325 H   0  0  0  0  0  0  0  0  0  0  0  0
   19.5413   17.3613   20.5616 H   0  0  0  0  0  0  0  0  0  0  0  0
   21.5785   17.6964   19.8924 C   0  0  0  0  0  0  0  0  0  0  0  0
   21.6648   16.7201   19.3980 H   0  0  0  0  0  0  0  0  0  0  0  0
   21.3230   18.4420   19.1281 H   0  0  0  0  0  0  0  0  0  0  0  0
   22.5616   17.9541   20.3079 H   0  0  0  0  0  0  0  0  0  0  0  0
  1  2  1  0  0  0  0
  1  3  2  0  0  0  0
  1  4  1  0  0  0  0
  4  5  1  0  0  0  0
  4  6  1  0  0  0  0
  4  7  1  0  0  0  0
  7  8  1  0  0  0  0
  7  9  1  0  0  0  0
  7 10  1  0  0  0  0
 10 11  1  0  0  0  0
 10 12  1  0  0  0  0
 10 13  1  0  0  0  0
 13 14  1  0  0  0  0
 13 15  1  0  0  0  0
 13 16  1  0  0  0  0
 16 17  1  0  0  0  0
 16 18  1  0  0  0  0
 16 19  1  0  0  0  0
M  END
> <VConfSearch Rank>
439

> <Conf_Id>
18

> <Delta U+W>
-1.199

> <U+W>
-56.090

> <U>
5.975

> <W>
-62.066

> <W(PB)>
-64.219

> <W(SA)>
2.153

> <Valence>
6.673

> <Coulomb>
-1.307

> <VdW>
0.610

> <VdW6>
-5.351

> <VdW12>
5.961

> <Bond>
0.086

> <Angle>
2.253

> <Pdih>
4.333

> <Idih>
0.001

> <Tether>
0.000

$$$$
VeraChem MOL file


 19 18  0  0  0  0  0  0  0  0999 V2000     
   22.9067   19.2170   23.4889 C   0  0  0  0  0  0  0  0  0  0  0  0
   23.2185   18.7322   24.5584 O   0  5  0  0  0  0  0  0  0  0  0  0
   23.7123   19.5820   22.6557 O   0  0  0  0  0  0  0  0  0  0  0  0
   21.4231   19.3554   23.1659 C   0  0  0  0  0  0  0  0  0  0  0  0
   21.2991   20.2497   22.5450 H   0  0  0  0  0  0  0  0  0  0  0  0
   20.8856   19.5338   24.1050 H   0  0  0  0  0  0  0  0  0  0  0  0
   20.8461   18.1074   22.4484 C   0  0  0  0  0  0  0  0  0  0  0  0
   21.3619   17.9647   21.4887 H   0  0  0  0  0  0  0  0  0  0  0  0
   21.0679   17.2183   23.0548 H   0  0  0  0  0  0  0  0  0  0  0  0
   19.3184   18.1799   22.2153 C   0  0  0  0  0  0  0  0  0  0  0  0
   18.8052   18.3140   23.1775 H   0  0  0  0  0  0  0  0  0  0  0  0
   18.9806   17.2142   21.8150 H   0  0  0  0  0  0  0  0  0  0  0  0
   18.8983   19.3023   21.2400 C   0  0  0  0  0  0  0  0  0  0  0  0
   19.1591   20.2838   21.6571 H   0  0  0  0  0  0  0  0  0  0  0  0
   19.4495   19.1981   20.2953 H   0  0  0  0  0  0  0  0  0  0  0  0
   17.3834   19.2655   20.9553 C   0  0  0  0  0  0  0  0  0  0  0  0
   17.1002   20.0698   20.2640 H   0  0  0  0  0  0  0  0  0  0  0  0
   17.0918   18.3097   20.5006 H   0  0  0  0  0  0  0  0  0  0  0  0
   16.8069   19.3951   21.8807 H   0  0  0  0  0  0  0  0  0  0  0  0
  1  2  1  0  0  0  0
  1  3  2  0  0  0  0
  1  4  1  0  0  0  0
  4  5  1  0  0  0  0
  4  6  1  0  0  0  0
  4  7  1  0  0  0  0
  7  8  1  0  0  0  0
  7  9  1  0  0  0  0
  7 10  1  0  0  0  0
 10 11  1  0  0  0  0
 10 12  1  0  0  0  0
 10 13  1  0  0  0  0
 13 14  1  0  0  0  0
 13 15  1  0  0  0  0
 13 16  1  0  0  0  0
 16 17  1  0  0  0  0
 16 18  1  0  0  0  0
 16 19  1  0  0  0  0
M  END
> <VConfSearch Rank>
440

> <Conf_Id>
34

> <Delta U+W>
-0.563

> <U+W>
-55.455

> <U>
6.914

> <W>
-62.369

> <W(PB)>
-64.446

> <W(SA)>
2.077

> <Valence>
7.196

> <Coulomb>
-1.020

> <VdW>
0.738

> <VdW6>
-6.010

> <VdW12>
6.748

> <Bond>
0.126

> <Angle>
2.499

> <Pdih>
4.570

> <Idih>
0.001

> <Tether>
0.000

$$$$
VeraChem MOL file


 19 18  0  0  0  0  0  0  0  0999 V2000     
   23.0363   19.0788   23.1475 C   0  0  0  0  0  0  0  0  0  0  0  0
   23.7398   18.1025   23.3155 O   0  5  0  0  0  0  0  0  0  0  0  0
   23.2824   20.1731   23.6146 O   0  0  0  0  0  0  0  0  0  0  0  0
   21.7637   18.9164   22.3238 C   0  0  0  0  0  0  0  0  0  0  0  0
   21.9467   18.1487   21.5625 H   0  0  0  0  0  0  0  0  0  0  0  0
   21.5846   19.8606   21.7974 H   0  0  0  0  0  0  0  0  0  0  0  0
   20.5348   18.5304   23.1876 C   0  0  0  0  0  0  0  0  0  0  0  0
   20.7816   17.6320   23.7700 H   0  0  0  0  0  0  0  0  0  0  0  0
   20.3341   19.3273   23.9170 H   0  0  0  0  0  0  0  0  0  0  0  0
   19.2602   18.2482   22.3574 C   0  0  0  0  0  0  0  0  0  0  0  0
   18.4808   17.8699   23.0331 H   0  0  0  0  0  0  0  0  0  0  0  0
   19.4616   17.4452   21.6351 H   0  0  0  0  0  0  0  0  0  0  0  0
   18.7216   19.4924   21.6164 C   0  0  0  0  0  0  0  0  0  0  0  0
   18.5683   20.3124   22.3315 H   0  0  0  0  0  0  0  0  0  0  0  0
   19.4568   19.8423   20.8799 H   0  0  0  0  0  0  0  0  0  0  0  0
   17.3939   19.1887   20.8936 C   0  0  0  0  0  0  0  0  0  0  0  0
   17.5246   18.3899   20.1519 H   0  0  0  0  0  0  0  0  0  0  0  0
   16.6215   18.8718   21.6067 H   0  0  0  0  0  0  0  0  0  0  0  0
   17.0259   20.0806   20.3700 H   0  0  0  0  0  0  0  0  0  0  0  0
  1  2  1  0  0  0  0
  1  3  2  0  0  0  0
  1  4  1  0  0  0  0
  4  5  1  0  0  0  0
  4  6  1  0  0  0  0
  4  7  1  0  0  0  0
  7  8  1  0  0  0  0
  7  9  1  0  0  0  0
  7 10  1  0  0  0  0
 10 11  1  0  0  0  0
 10 12  1  0  0  0  0
 10 13  1  0  0  0  0
 13 14  1  0  0  0  0
 13 15  1  0  0  0  0
 13 16  1  0  0  0  0
 16 17  1  0  0  0  0
 16 18  1  0  0  0  0
 16 19  1  0  0  0  0
M  END
> <VConfSearch Rank>
441

> <Conf_Id>
33

> <Delta U+W>
-0.526

> <U+W>
-55.418

> <U>
6.914

> <W>
-62.332

> <W(PB)>
-64.421

> <W(SA)>
2.090

> <Valence>
7.196

> <Coulomb>
-1.020

> <VdW>
0.738

> <VdW6>
-6.010

> <VdW12>
6.748

> <Bond>
0.126

> <Angle>
2.499

> <Pdih>
4.570

> <Idih>
0.001

> <Tether>
0.000

$$$$
VeraChem MOL file


 19 18  0  0  0  0  0  0  0  0999 V2000     
   22.0137   21.2960   21.8953 C   0  0  0  0  0  0  0  0  0  0  0  0
   21.7821   21.9131   20.8746 O   0  5  0  0  0  0  0  0  0  0  0  0
   22.4411   21.8103   22.9097 O   0  0  0  0  0  0  0  0  0  0  0  0
   21.7362   19.7969   21.9096 C   0  0  0  0  0  0  0  0  0  0  0  0
   22.4669   19.3217   22.5752 H   0  0  0  0  0  0  0  0  0  0  0  0
   21.9155   19.4073   20.9003 H   0  0  0  0  0  0  0  0  0  0  0  0
   20.2960   19.4554   22.3653 C   0  0  0  0  0  0  0  0  0  0  0  0
   20.1289   19.8602   23.3731 H   0  0  0  0  0  0  0  0  0  0  0  0
   19.5836   19.9563   21.6967 H   0  0  0  0  0  0  0  0  0  0  0  0
   20.0417   17.9303   22.3670 C   0  0  0  0  0  0  0  0  0  0  0  0
   20.8078   17.4408   22.9838 H   0  0  0  0  0  0  0  0  0  0  0  0
   20.1609   17.5337   21.3494 H   0  0  0  0  0  0  0  0  0  0  0  0
   18.6488   17.5409   22.9136 C   0  0  0  0  0  0  0  0  0  0  0  0
   18.5942   16.4463   22.9917 H   0  0  0  0  0  0  0  0  0  0  0  0
   18.5279   17.9311   23.9336 H   0  0  0  0  0  0  0  0  0  0  0  0
   17.4849   18.0344   22.0273 C   0  0  0  0  0  0  0  0  0  0  0  0
   17.6000   17.6804   20.9945 H   0  0  0  0  0  0  0  0  0  0  0  0
   16.5265   17.6587   22.4084 H   0  0  0  0  0  0  0  0  0  0  0  0
   17.4294   19.1300   22.0120 H   0  0  0  0  0  0  0  0  0  0  0  0
  1  2  1  0  0  0  0
  1  3  2  0  0  0  0
  1  4  1  0  0  0  0
  4  5  1  0  0  0  0
  4  6  1  0  0  0  0
  4  7  1  0  0  0  0
  7  8  1  0  0  0  0
  7  9  1  0  0  0  0
  7 10  1  0  0  0  0
 10 11  1  0  0  0  0
 10 12  1  0  0  0  0
 10 13  1  0  0  0  0
 13 14  1  0  0  0  0
 13 15  1  0  0  0  0
 13 16  1  0  0  0  0
 16 17  1  0  0  0  0
 16 18  1  0  0  0  0
 16 19  1  0  0  0  0
M  END
> <VConfSearch Rank>
442

> <Conf_Id>
42

> <Delta U+W>
-0.344

> <U+W>
-55.236

> <U>
7.244

> <W>
-62.479

> <W(PB)>
-64.610

> <W(SA)>
2.130

> <Valence>
7.174

> <Coulomb>
-0.669

> <VdW>
0.739

> <VdW6>
-5.969

> <VdW12>
6.708

> <Bond>
0.116

> <Angle>
2.481

> <Pdih>
4.576

> <Idih>
0.000

> <Tether>
0.000

$$$$
VeraChem MOL file


 19 18  0  0  0  0  0  0  0  0999 V2000     
   18.2990   20.2974   19.9769 C   0  0  0  0  0  0  0  0  0  0  0  0
   18.7078   19.9659   18.8818 O   0  5  0  0  0  0  0  0  0  0  0  0
   17.8364   21.3947   20.2181 O   0  0  0  0  0  0  0  0  0  0  0  0
   18.3883   19.2873   21.1154 C   0  0  0  0  0  0  0  0  0  0  0  0
   18.2674   18.2834   20.6909 H   0  0  0  0  0  0  0  0  0  0  0  0
   17.5405   19.4584   21.7897 H   0  0  0  0  0  0  0  0  0  0  0  0
   19.7214   19.3785   21.8983 C   0  0  0  0  0  0  0  0  0  0  0  0
   20.5547   19.2228   21.2004 H   0  0  0  0  0  0  0  0  0  0  0  0
   19.8323   20.3916   22.3090 H   0  0  0  0  0  0  0  0  0  0  0  0
   19.7860   18.3415   23.0433 C   0  0  0  0  0  0  0  0  0  0  0  0
   19.7245   17.3264   22.6278 H   0  0  0  0  0  0  0  0  0  0  0  0
   18.9065   18.4672   23.6896 H   0  0  0  0  0  0  0  0  0  0  0  0
   21.0572   18.4673   23.9145 C   0  0  0  0  0  0  0  0  0  0  0  0
   21.1193   19.4799   24.3366 H   0  0  0  0  0  0  0  0  0  0  0  0
   20.9694   17.7804   24.7675 H   0  0  0  0  0  0  0  0  0  0  0  0
   22.3576   18.1435   23.1478 C   0  0  0  0  0  0  0  0  0  0  0  0
   22.5479   18.8764   22.3538 H   0  0  0  0  0  0  0  0  0  0  0  0
   23.2186   18.1605   23.8285 H   0  0  0  0  0  0  0  0  0  0  0  0
   22.3070   17.1462   22.6918 H   0  0  0  0  0  0  0  0  0  0  0  0
  1  2  1  0  0  0  0
  1  3  2  0  0  0  0
  1  4  1  0  0  0  0
  4  5  1  0  0  0  0
  4  6  1  0  0  0  0
  4  7  1  0  0  0  0
  7  8  1  0  0  0  0
  7  9  1  0  0  0  0
  7 10  1  0  0  0  0
 10 11  1  0  0  0  0
 10 12  1  0  0  0  0
 10 13  1  0  0  0  0
 13 14  1  0  0  0  0
 13 15  1  0  0  0  0
 13 16  1  0  0  0  0
 16 17  1  0  0  0  0
 16 18  1  0  0  0  0
 16 19  1  0  0  0  0
M  END
> <VConfSearch Rank>
443

> <Conf_Id>
41

> <Delta U+W>
-0.361

> <U+W>
-55.252

> <U>
7.244

> <W>
-62.496

> <W(PB)>
-64.596

> <W(SA)>
2.099

> <Valence>
7.174

> <Coulomb>
-0.669

> <VdW>
0.739

> <VdW6>
-5.969

> <VdW12>
6.708

> <Bond>
0.116

> <Angle>
2.481

> <Pdih>
4.576

> <Idih>
0.000

> <Tether>
0.000

$$$$
VeraChem MOL file


 19 18  0  0  0  0  0  0  0  0999 V2000     
   16.9960   19.4088   22.4123 C   0  0  0  0  0  0  0  0  0  0  0  0
   16.8574   19.7026   23.5832 O   0  5  0  0  0  0  0  0  0  0  0  0
   16.5582   20.0760   21.4958 O   0  0  0  0  0  0  0  0  0  0  0  0
   17.7408   18.1207   22.0725 C   0  0  0  0  0  0  0  0  0  0  0  0
   17.1483   17.5882   21.3192 H   0  0  0  0  0  0  0  0  0  0  0  0
   17.7651   17.4840   22.9653 H   0  0  0  0  0  0  0  0  0  0  0  0
   19.1785   18.3454   21.5361 C   0  0  0  0  0  0  0  0  0  0  0  0
   19.5836   17.3850   21.1896 H   0  0  0  0  0  0  0  0  0  0  0  0
   19.1407   19.0075   20.6599 H   0  0  0  0  0  0  0  0  0  0  0  0
   20.1242   18.9420   22.6025 C   0  0  0  0  0  0  0  0  0  0  0  0
   20.1485   18.2833   23.4814 H   0  0  0  0  0  0  0  0  0  0  0  0
   19.7345   19.9116   22.9421 H   0  0  0  0  0  0  0  0  0  0  0  0
   21.5555   19.1274   22.0570 C   0  0  0  0  0  0  0  0  0  0  0  0
   21.9522   18.1598   21.7196 H   0  0  0  0  0  0  0  0  0  0  0  0
   21.5345   19.7879   21.1791 H   0  0  0  0  0  0  0  0  0  0  0  0
   22.4966   19.7227   23.1233 C   0  0  0  0  0  0  0  0  0  0  0  0
   22.5610   19.0661   24.0009 H   0  0  0  0  0  0  0  0  0  0  0  0
   23.5094   19.8482   22.7188 H   0  0  0  0  0  0  0  0  0  0  0  0
   22.1402   20.7063   23.4565 H   0  0  0  0  0  0  0  0  0  0  0  0
  1  2  1  0  0  0  0
  1  3  2  0  0  0  0
  1  4  1  0  0  0  0
  4  5  1  0  0  0  0
  4  6  1  0  0  0  0
  4  7  1  0  0  0  0
  7  8  1  0  0  0  0
  7  9  1  0  0  0  0
  7 10  1  0  0  0  0
 10 11  1  0  0  0  0
 10 12  1  0  0  0  0
 10 13  1  0  0  0  0
 13 14  1  0  0  0  0
 13 15  1  0  0  0  0
 13 16  1  0  0  0  0
 16 17  1  0  0  0  0
 16 18  1  0  0  0  0
 16 19  1  0  0  0  0
M  END
> <VConfSearch Rank>
444

> <Conf_Id>
36

> <Delta U+W>
-0.079

> <U+W>
-54.971

> <U>
8.266

> <W>
-63.237

> <W(PB)>
-65.340

> <W(SA)>
2.103

> <Valence>
6.935

> <Coulomb>
0.874

> <VdW>
0.457

> <VdW6>
-6.205

> <VdW12>
6.662

> <Bond>
0.107

> <Angle>
2.420

> <Pdih>
4.407

> <Idih>
0.001

> <Tether>
0.000

$$$$
VeraChem MOL file


 19 18  0  0  0  0  0  0  0  0999 V2000     
   18.4409   19.8390   20.2143 C   0  0  0  0  0  0  0  0  0  0  0  0
   17.3728   19.8575   20.7935 O   0  5  0  0  0  0  0  0  0  0  0  0
   18.6195   19.2763   19.1522 O   0  0  0  0  0  0  0  0  0  0  0  0
   19.6178   20.5804   20.8424 C   0  0  0  0  0  0  0  0  0  0  0  0
   19.2296   21.2936   21.5796 H   0  0  0  0  0  0  0  0  0  0  0  0
   20.0940   21.1705   20.0504 H   0  0  0  0  0  0  0  0  0  0  0  0
   20.6712   19.6512   21.4998 C   0  0  0  0  0  0  0  0  0  0  0  0
   21.0295   18.9247   20.7572 H   0  0  0  0  0  0  0  0  0  0  0  0
   21.5402   20.2530   21.7984 H   0  0  0  0  0  0  0  0  0  0  0  0
   20.1181   18.9070   22.7357 C   0  0  0  0  0  0  0  0  0  0  0  0
   19.2584   18.2890   22.4418 H   0  0  0  0  0  0  0  0  0  0  0  0
   19.7493   19.6370   23.4693 H   0  0  0  0  0  0  0  0  0  0  0  0
   21.1912   18.0133   23.3918 C   0  0  0  0  0  0  0  0  0  0  0  0
   21.5602   17.2805   22.6609 H   0  0  0  0  0  0  0  0  0  0  0  0
   22.0521   18.6268   23.6918 H   0  0  0  0  0  0  0  0  0  0  0  0
   20.6364   17.2721   24.6246 C   0  0  0  0  0  0  0  0  0  0  0  0
   19.7930   16.6261   24.3476 H   0  0  0  0  0  0  0  0  0  0  0  0
   21.4119   16.6414   25.0783 H   0  0  0  0  0  0  0  0  0  0  0  0
   20.2885   17.9824   25.3862 H   0  0  0  0  0  0  0  0  0  0  0  0
  1  2  1  0  0  0  0
  1  3  2  0  0  0  0
  1  4  1  0  0  0  0
  4  5  1  0  0  0  0
  4  6  1  0  0  0  0
  4  7  1  0  0  0  0
  7  8  1  0  0  0  0
  7  9  1  0  0  0  0
  7 10  1  0  0  0  0
 10 11  1  0  0  0  0
 10 12  1  0  0  0  0
 10 13  1  0  0  0  0
 13 14  1  0  0  0  0
 13 15  1  0  0  0  0
 13 16  1  0  0  0  0
 16 17  1  0  0  0  0
 16 18  1  0  0  0  0
 16 19  1  0  0  0  0
M  END
> <VConfSearch Rank>
445

> <Conf_Id>
35

> <Delta U+W>
-0.030

> <U+W>
-54.921

> <U>
8.267

> <W>
-63.188

> <W(PB)>
-65.294

> <W(SA)>
2.106

> <Valence>
6.935

> <Coulomb>
0.875

> <VdW>
0.457

> <VdW6>
-6.205

> <VdW12>
6.662

> <Bond>
0.107

> <Angle>
2.420

> <Pdih>
4.407

> <Idih>
0.001

> <Tether>
0.000

$$$$
VeraChem MOL file


 19 18  0  0  0  0  0  0  0  0999 V2000     
   21.7597   20.8448   23.6880 C   0  0  0  0  0  0  0  0  0  0  0  0
   21.1758   21.4376   24.5736 O   0  5  0  0  0  0  0  0  0  0  0  0
   22.4361   21.3968   22.8428 O   0  0  0  0  0  0  0  0  0  0  0  0
   21.6540   19.3226   23.6500 C   0  0  0  0  0  0  0  0  0  0  0  0
   21.8129   18.9581   24.6717 H   0  0  0  0  0  0  0  0  0  0  0  0
   22.4769   18.9289   23.0411 H   0  0  0  0  0  0  0  0  0  0  0  0
   20.2956   18.7954   23.1184 C   0  0  0  0  0  0  0  0  0  0  0  0
   20.2588   17.7096   23.2735 H   0  0  0  0  0  0  0  0  0  0  0  0
   19.4793   19.2289   23.7126 H   0  0  0  0  0  0  0  0  0  0  0  0
   20.0802   19.1143   21.6195 C   0  0  0  0  0  0  0  0  0  0  0  0
   20.8762   18.6476   21.0234 H   0  0  0  0  0  0  0  0  0  0  0  0
   20.1721   20.1980   21.4642 H   0  0  0  0  0  0  0  0  0  0  0  0
   18.7011   18.6609   21.0872 C   0  0  0  0  0  0  0  0  0  0  0  0
   17.9027   19.1279   21.6802 H   0  0  0  0  0  0  0  0  0  0  0  0
   18.5814   19.0314   20.0597 H   0  0  0  0  0  0  0  0  0  0  0  0
   18.5191   17.1277   21.0861 C   0  0  0  0  0  0  0  0  0  0  0  0
   18.5135   16.7237   22.1062 H   0  0  0  0  0  0  0  0  0  0  0  0
   17.5654   16.8550   20.6161 H   0  0  0  0  0  0  0  0  0  0  0  0
   19.3249   16.6367   20.5250 H   0  0  0  0  0  0  0  0  0  0  0  0
  1  2  1  0  0  0  0
  1  3  2  0  0  0  0
  1  4  1  0  0  0  0
  4  5  1  0  0  0  0
  4  6  1  0  0  0  0
  4  7  1  0  0  0  0
  7  8  1  0  0  0  0
  7  9  1  0  0  0  0
  7 10  1  0  0  0  0
 10 11  1  0  0  0  0
 10 12  1  0  0  0  0
 10 13  1  0  0  0  0
 13 14  1  0  0  0  0
 13 15  1  0  0  0  0
 13 16  1  0  0  0  0
 16 17  1  0  0  0  0
 16 18  1  0  0  0  0
 16 19  1  0  0  0  0
M  END
> <VConfSearch Rank>
446

> <Conf_Id>
74

> <Delta U+W>
0.797

> <U+W>
-54.095

> <U>
8.869

> <W>
-62.964

> <W(PB)>
-65.046

> <W(SA)>
2.082

> <Valence>
7.469

> <Coulomb>
0.762

> <VdW>
0.639

> <VdW6>
-6.782

> <VdW12>
7.421

> <Bond>
0.141

> <Angle>
2.667

> <Pdih>
4.660

> <Idih>
0.001

> <Tether>
0.000

$$$$
VeraChem MOL file


 19 18  0  0  0  0  0  0  0  0999 V2000     
   21.2282   20.6757   20.3068 C   0  0  0  0  0  0  0  0  0  0  0  0
   20.8273   21.7252   19.8439 O   0  5  0  0  0  0  0  0  0  0  0  0
   22.3990   20.3509   20.3206 O   0  0  0  0  0  0  0  0  0  0  0  0
   20.2083   19.7232   20.9206 C   0  0  0  0  0  0  0  0  0  0  0  0
   20.5648   18.7003   20.7545 H   0  0  0  0  0  0  0  0  0  0  0  0
   19.2654   19.8333   20.3719 H   0  0  0  0  0  0  0  0  0  0  0  0
   19.9805   19.9803   22.4328 C   0  0  0  0  0  0  0  0  0  0  0  0
   20.9223   19.8300   22.9769 H   0  0  0  0  0  0  0  0  0  0  0  0
   19.7134   21.0366   22.5743 H   0  0  0  0  0  0  0  0  0  0  0  0
   18.8621   19.1024   23.0486 C   0  0  0  0  0  0  0  0  0  0  0  0
   17.9094   19.3440   22.5578 H   0  0  0  0  0  0  0  0  0  0  0  0
   18.7378   19.3792   24.1044 H   0  0  0  0  0  0  0  0  0  0  0  0
   19.0964   17.5745   22.9563 C   0  0  0  0  0  0  0  0  0  0  0  0
   18.2369   17.0612   23.4089 H   0  0  0  0  0  0  0  0  0  0  0  0
   19.1198   17.2572   21.9054 H   0  0  0  0  0  0  0  0  0  0  0  0
   20.3841   17.1092   23.6694 C   0  0  0  0  0  0  0  0  0  0  0  0
   20.3928   17.4358   24.7174 H   0  0  0  0  0  0  0  0  0  0  0  0
   20.4569   16.0141   23.6553 H   0  0  0  0  0  0  0  0  0  0  0  0
   21.2795   17.5083   23.1761 H   0  0  0  0  0  0  0  0  0  0  0  0
  1  2  1  0  0  0  0
  1  3  2  0  0  0  0
  1  4  1  0  0  0  0
  4  5  1  0  0  0  0
  4  6  1  0  0  0  0
  4  7  1  0  0  0  0
  7  8  1  0  0  0  0
  7  9  1  0  0  0  0
  7 10  1  0  0  0  0
 10 11  1  0  0  0  0
 10 12  1  0  0  0  0
 10 13  1  0  0  0  0
 13 14  1  0  0  0  0
 13 15  1  0  0  0  0
 13 16  1  0  0  0  0
 16 17  1  0  0  0  0
 16 18  1  0  0  0  0
 16 19  1  0  0  0  0
M  END
> <VConfSearch Rank>
447

> <Conf_Id>
67

> <Delta U+W>
0.308

> <U+W>
-54.583

> <U>
8.219

> <W>
-62.802

> <W(PB)>
-64.859

> <W(SA)>
2.057

> <Valence>
7.609

> <Coulomb>
-0.089

> <VdW>
0.699

> <VdW6>
-6.924

> <VdW12>
7.623

> <Bond>
0.163

> <Angle>
2.870

> <Pdih>
4.576

> <Idih>
0.001

> <Tether>
0.000

$$$$
VeraChem MOL file


 19 18  0  0  0  0  0  0  0  0999 V2000     
   20.0182   17.3510   19.8303 C   0  0  0  0  0  0  0  0  0  0  0  0
   19.9290   16.1480   19.6841 O   0  5  0  0  0  0  0  0  0  0  0  0
   20.5292   18.0912   19.0134 O   0  0  0  0  0  0  0  0  0  0  0  0
   19.4767   17.9618   21.1179 C   0  0  0  0  0  0  0  0  0  0  0  0
   18.6167   17.3645   21.4435 H   0  0  0  0  0  0  0  0  0  0  0  0
   19.1057   18.9655   20.8808 H   0  0  0  0  0  0  0  0  0  0  0  0
   20.5398   18.0277   22.2449 C   0  0  0  0  0  0  0  0  0  0  0  0
   20.9570   17.0224   22.3950 H   0  0  0  0  0  0  0  0  0  0  0  0
   21.3782   18.6591   21.9224 H   0  0  0  0  0  0  0  0  0  0  0  0
   19.9783   18.5351   23.5969 C   0  0  0  0  0  0  0  0  0  0  0  0
   20.7824   18.5080   24.3450 H   0  0  0  0  0  0  0  0  0  0  0  0
   19.2118   17.8320   23.9502 H   0  0  0  0  0  0  0  0  0  0  0  0
   19.3713   19.9594   23.5665 C   0  0  0  0  0  0  0  0  0  0  0  0
   18.4975   19.9852   22.9021 H   0  0  0  0  0  0  0  0  0  0  0  0
   18.9960   20.2008   24.5705 H   0  0  0  0  0  0  0  0  0  0  0  0
   20.3819   21.0458   23.1400 C   0  0  0  0  0  0  0  0  0  0  0  0
   20.6978   20.9094   22.0980 H   0  0  0  0  0  0  0  0  0  0  0  0
   19.9315   22.0433   23.2232 H   0  0  0  0  0  0  0  0  0  0  0  0
   21.2753   21.0233   23.7775 H   0  0  0  0  0  0  0  0  0  0  0  0
  1  2  1  0  0  0  0
  1  3  2  0  0  0  0
  1  4  1  0  0  0  0
  4  5  1  0  0  0  0
  4  6  1  0  0  0  0
  4  7  1  0  0  0  0
  7  8  1  0  0  0  0
  7  9  1  0  0  0  0
  7 10  1  0  0  0  0
 10 11  1  0  0  0  0
 10 12  1  0  0  0  0
 10 13  1  0  0  0  0
 13 14  1  0  0  0  0
 13 15  1  0  0  0  0
 13 16  1  0  0  0  0
 16 17  1  0  0  0  0
 16 18  1  0  0  0  0
 16 19  1  0  0  0  0
M  END
> <VConfSearch Rank>
448

> <Conf_Id>
21

> <Delta U+W>
0.319

> <U+W>
-54.572

> <U>
8.220

> <W>
-62.792

> <W(PB)>
-64.830

> <W(SA)>
2.038

> <Valence>
7.609

> <Coulomb>
-0.088

> <VdW>
0.699

> <VdW6>
-6.924

> <VdW12>
7.623

> <Bond>
0.163

> <Angle>
2.870

> <Pdih>
4.576

> <Idih>
0.000

> <Tether>
0.000

$$$$
VeraChem MOL file


 19 18  0  0  0  0  0  0  0  0999 V2000     
   18.2926   19.5208   24.5909 C   0  0  0  0  0  0  0  0  0  0  0  0
   17.1410   19.9057   24.6354 O   0  5  0  0  0  0  0  0  0  0  0  0
   18.8441   18.9428   25.5063 O   0  0  0  0  0  0  0  0  0  0  0  0
   19.0826   19.7604   23.3092 C   0  0  0  0  0  0  0  0  0  0  0  0
   20.1326   19.9022   23.5836 H   0  0  0  0  0  0  0  0  0  0  0  0
   18.7372   20.7040   22.8704 H   0  0  0  0  0  0  0  0  0  0  0  0
   18.9250   18.6080   22.2821 C   0  0  0  0  0  0  0  0  0  0  0  0
   19.2155   17.6518   22.7388 H   0  0  0  0  0  0  0  0  0  0  0  0
   17.8577   18.5180   22.0370 H   0  0  0  0  0  0  0  0  0  0  0  0
   19.7170   18.8385   20.9701 C   0  0  0  0  0  0  0  0  0  0  0  0
   19.8071   19.9137   20.7634 H   0  0  0  0  0  0  0  0  0  0  0  0
   19.1299   18.4231   20.1396 H   0  0  0  0  0  0  0  0  0  0  0  0
   21.1135   18.1705   20.9321 C   0  0  0  0  0  0  0  0  0  0  0  0
   21.0051   17.0836   21.0506 H   0  0  0  0  0  0  0  0  0  0  0  0
   21.5482   18.3288   19.9355 H   0  0  0  0  0  0  0  0  0  0  0  0
   22.0997   18.7046   21.9913 C   0  0  0  0  0  0  0  0  0  0  0  0
   23.1019   18.2884   21.8265 H   0  0  0  0  0  0  0  0  0  0  0  0
   22.1751   19.7987   21.9439 H   0  0  0  0  0  0  0  0  0  0  0  0
   21.7862   18.4187   23.0031 H   0  0  0  0  0  0  0  0  0  0  0  0
  1  2  1  0  0  0  0
  1  3  2  0  0  0  0
  1  4  1  0  0  0  0
  4  5  1  0  0  0  0
  4  6  1  0  0  0  0
  4  7  1  0  0  0  0
  7  8  1  0  0  0  0
  7  9  1  0  0  0  0
  7 10  1  0  0  0  0
 10 11  1  0  0  0  0
 10 12  1  0  0  0  0
 10 13  1  0  0  0  0
 13 14  1  0  0  0  0
 13 15  1  0  0  0  0
 13 16  1  0  0  0  0
 16 17  1  0  0  0  0
 16 18  1  0  0  0  0
 16 19  1  0  0  0  0
M  END
> <VConfSearch Rank>
449

> <Conf_Id>
24

> <Delta U+W>
2.477

> <U+W>
-52.414

> <U>
10.422

> <W>
-62.836

> <W(PB)>
-64.906

> <W(SA)>
2.070

> <Valence>
9.628

> <Coulomb>
0.101

> <VdW>
0.693

> <VdW6>
-6.927

> <VdW12>
7.620

> <Bond>
0.173

> <Angle>
2.989

> <Pdih>
6.465

> <Idih>
0.001

> <Tether>
0.000

$$$$
VeraChem MOL file


 19 18  0  0  0  0  0  0  0  0999 V2000     
   17.7035   18.7796   23.8259 C   0  0  0  0  0  0  0  0  0  0  0  0
   18.0307   19.5478   24.7088 O   0  5  0  0  0  0  0  0  0  0  0  0
   16.5501   18.5970   23.4891 O   0  0  0  0  0  0  0  0  0  0  0  0
   18.7943   17.9783   23.1201 C   0  0  0  0  0  0  0  0  0  0  0  0
   18.4695   16.9314   23.1068 H   0  0  0  0  0  0  0  0  0  0  0  0
   19.7016   18.0171   23.7314 H   0  0  0  0  0  0  0  0  0  0  0  0
   19.0802   18.4456   21.6659 C   0  0  0  0  0  0  0  0  0  0  0  0
   19.7152   17.7085   21.1563 H   0  0  0  0  0  0  0  0  0  0  0  0
   18.1275   18.4531   21.1182 H   0  0  0  0  0  0  0  0  0  0  0  0
   19.7256   19.8522   21.5647 C   0  0  0  0  0  0  0  0  0  0  0  0
   19.4058   20.4839   22.4046 H   0  0  0  0  0  0  0  0  0  0  0  0
   19.3375   20.3408   20.6606 H   0  0  0  0  0  0  0  0  0  0  0  0
   21.2709   19.8480   21.4645 C   0  0  0  0  0  0  0  0  0  0  0  0
   21.5813   19.2892   20.5709 H   0  0  0  0  0  0  0  0  0  0  0  0
   21.6126   20.8814   21.3147 H   0  0  0  0  0  0  0  0  0  0  0  0
   21.9822   19.2681   22.7044 C   0  0  0  0  0  0  0  0  0  0  0  0
   21.8026   18.1897   22.7951 H   0  0  0  0  0  0  0  0  0  0  0  0
   23.0671   19.4173   22.6295 H   0  0  0  0  0  0  0  0  0  0  0  0
   21.6346   19.7589   23.6230 H   0  0  0  0  0  0  0  0  0  0  0  0
  1  2  1  0  0  0  0
  1  3  2  0  0  0  0
  1  4  1  0  0  0  0
  4  5  1  0  0  0  0
  4  6  1  0  0  0  0
  4  7  1  0  0  0  0
  7  8  1  0  0  0  0
  7  9  1  0  0  0  0
  7 10  1  0  0  0  0
 10 11  1  0  0  0  0
 10 12  1  0  0  0  0
 10 13  1  0  0  0  0
 13 14  1  0  0  0  0
 13 15  1  0  0  0  0
 13 16  1  0  0  0  0
 16 17  1  0  0  0  0
 16 18  1  0  0  0  0
 16 19  1  0  0  0  0
M  END
> <VConfSearch Rank>
450

> <Conf_Id>
4

> <Delta U+W>
3.753

> <U+W>
-51.138

> <U>
12.334

> <W>
-63.472

> <W(PB)>
-65.500

> <W(SA)>
2.028

> <Valence>
9.984

> <Coulomb>
1.767

> <VdW>
0.583

> <VdW6>
-7.767

> <VdW12>
8.349

> <Bond>
0.203

> <Angle>
3.191

> <Pdih>
6.589

> <Idih>
0.001

> <Tether>
0.000

$$$$
VeraChem MOL file


 19 18  0  0  0  0  0  0  0  0999 V2000     
   17.3448   19.1321   22.0937 C   0  0  0  0  0  0  0  0  0  0  0  0
   16.5345   19.8383   22.6610 O   0  5  0  0  0  0  0  0  0  0  0  0
   17.3430   18.9399   20.8938 O   0  0  0  0  0  0  0  0  0  0  0  0
   18.4018   18.4274   22.9399 C   0  0  0  0  0  0  0  0  0  0  0  0
   18.8320   17.6135   22.3476 H   0  0  0  0  0  0  0  0  0  0  0  0
   17.8817   17.9600   23.7842 H   0  0  0  0  0  0  0  0  0  0  0  0
   19.5113   19.3721   23.4798 C   0  0  0  0  0  0  0  0  0  0  0  0
   19.0225   20.2043   24.0053 H   0  0  0  0  0  0  0  0  0  0  0  0
   20.1105   18.8480   24.2365 H   0  0  0  0  0  0  0  0  0  0  0  0
   20.4425   19.9519   22.3834 C   0  0  0  0  0  0  0  0  0  0  0  0
   20.7207   20.9730   22.6779 H   0  0  0  0  0  0  0  0  0  0  0  0
   19.9013   20.0536   21.4329 H   0  0  0  0  0  0  0  0  0  0  0  0
   21.7535   19.1576   22.1634 C   0  0  0  0  0  0  0  0  0  0  0  0
   22.3691   19.6983   21.4314 H   0  0  0  0  0  0  0  0  0  0  0  0
   22.3333   19.1364   23.0965 H   0  0  0  0  0  0  0  0  0  0  0  0
   21.5406   17.7153   21.6594 C   0  0  0  0  0  0  0  0  0  0  0  0
   20.9004   17.7006   20.7676 H   0  0  0  0  0  0  0  0  0  0  0  0
   22.5015   17.2552   21.3952 H   0  0  0  0  0  0  0  0  0  0  0  0
   21.0769   17.0906   22.4327 H   0  0  0  0  0  0  0  0  0  0  0  0
  1  2  1  0  0  0  0
  1  3  2  0  0  0  0
  1  4  1  0  0  0  0
  4  5  1  0  0  0  0
  4  6  1  0  0  0  0
  4  7  1  0  0  0  0
  7  8  1  0  0  0  0
  7  9  1  0  0  0  0
  7 10  1  0  0  0  0
 10 11  1  0  0  0  0
 10 12  1  0  0  0  0
 10 13  1  0  0  0  0
 13 14  1  0  0  0  0
 13 15  1  0  0  0  0
 13 16  1  0  0  0  0
 16 17  1  0  0  0  0
 16 18  1  0  0  0  0
 16 19  1  0  0  0  0
M  END
> <VConfSearch Rank>
451

> <Conf_Id>
73

> <Delta U+W>
3.707

> <U+W>
-51.184

> <U>
12.334

> <W>
-63.519

> <W(PB)>
-65.541

> <W(SA)>
2.022

> <Valence>
9.984

> <Coulomb>
1.768

> <VdW>
0.583

> <VdW6>
-7.767

> <VdW12>
8.350

> <Bond>
0.203

> <Angle>
3.192

> <Pdih>
6.589

> <Idih>
0.001

> <Tether>
0.000

$$$$
VeraChem MOL file


 19 18  0  0  0  0  0  0  0  0999 V2000     
   21.0879   17.0900   21.2000 C   0  0  0  0  0  0  0  0  0  0  0  0
   21.2525   17.6597   20.1392 O   0  5  0  0  0  0  0  0  0  0  0  0
   21.8824   16.2972   21.6661 O   0  0  0  0  0  0  0  0  0  0  0  0
   19.8008   17.3583   21.9749 C   0  0  0  0  0  0  0  0  0  0  0  0
   19.3634   16.3855   22.2281 H   0  0  0  0  0  0  0  0  0  0  0  0
   19.0864   17.8558   21.3090 H   0  0  0  0  0  0  0  0  0  0  0  0
   20.0024   18.1846   23.2745 C   0  0  0  0  0  0  0  0  0  0  0  0
   19.0441   18.2662   23.8034 H   0  0  0  0  0  0  0  0  0  0  0  0
   20.6705   17.6272   23.9454 H   0  0  0  0  0  0  0  0  0  0  0  0
   20.5949   19.5995   23.0484 C   0  0  0  0  0  0  0  0  0  0  0  0
   21.6059   19.5017   22.6296 H   0  0  0  0  0  0  0  0  0  0  0  0
   20.7185   20.0897   24.0236 H   0  0  0  0  0  0  0  0  0  0  0  0
   19.7627   20.5231   22.1255 C   0  0  0  0  0  0  0  0  0  0  0  0
   20.2869   21.4836   22.0280 H   0  0  0  0  0  0  0  0  0  0  0  0
   19.7148   20.1005   21.1128 H   0  0  0  0  0  0  0  0  0  0  0  0
   18.3350   20.7873   22.6503 C   0  0  0  0  0  0  0  0  0  0  0  0
   17.7360   19.8680   22.6567 H   0  0  0  0  0  0  0  0  0  0  0  0
   18.3600   21.1903   23.6711 H   0  0  0  0  0  0  0  0  0  0  0  0
   17.8196   21.5158   22.0111 H   0  0  0  0  0  0  0  0  0  0  0  0
  1  2  1  0  0  0  0
  1  3  2  0  0  0  0
  1  4  1  0  0  0  0
  4  5  1  0  0  0  0
  4  6  1  0  0  0  0
  4  7  1  0  0  0  0
  7  8  1  0  0  0  0
  7  9  1  0  0  0  0
  7 10  1  0  0  0  0
 10 11  1  0  0  0  0
 10 12  1  0  0  0  0
 10 13  1  0  0  0  0
 13 14  1  0  0  0  0
 13 15  1  0  0  0  0
 13 16  1  0  0  0  0
 16 17  1  0  0  0  0
 16 18  1  0  0  0  0
 16 19  1  0  0  0  0
M  END
> <VConfSearch Rank>
452

> <Conf_Id>
56

> <Delta U+W>
1.735

> <U+W>
-53.156

> <U>
10.214

> <W>
-63.370

> <W(PB)>
-65.388

> <W(SA)>
2.018

> <Valence>
7.868

> <Coulomb>
1.968

> <VdW>
0.378

> <VdW6>
-8.067

> <VdW12>
8.445

> <Bond>
0.191

> <Angle>
3.117

> <Pdih>
4.559

> <Idih>
0.001

> <Tether>
0.000

$$$$
VeraChem MOL file


 19 18  0  0  0  0  0  0  0  0999 V2000     
   19.6509   21.7570   23.0611 C   0  0  0  0  0  0  0  0  0  0  0  0
   19.4704   22.1117   24.2091 O   0  5  0  0  0  0  0  0  0  0  0  0
   19.5257   22.4932   22.1026 O   0  0  0  0  0  0  0  0  0  0  0  0
   20.0345   20.3033   22.8083 C   0  0  0  0  0  0  0  0  0  0  0  0
   20.6176   19.9496   23.6669 H   0  0  0  0  0  0  0  0  0  0  0  0
   20.6911   20.2815   21.9314 H   0  0  0  0  0  0  0  0  0  0  0  0
   18.8048   19.3881   22.5819 C   0  0  0  0  0  0  0  0  0  0  0  0
   18.0975   19.5387   23.4092 H   0  0  0  0  0  0  0  0  0  0  0  0
   18.2817   19.7047   21.6690 H   0  0  0  0  0  0  0  0  0  0  0  0
   19.1400   17.8781   22.4920 C   0  0  0  0  0  0  0  0  0  0  0  0
   18.1908   17.3350   22.3862 H   0  0  0  0  0  0  0  0  0  0  0  0
   19.5779   17.5318   23.4382 H   0  0  0  0  0  0  0  0  0  0  0  0
   20.0534   17.4877   21.3036 C   0  0  0  0  0  0  0  0  0  0  0  0
   19.7402   16.5031   20.9295 H   0  0  0  0  0  0  0  0  0  0  0  0
   19.9147   18.1894   20.4695 H   0  0  0  0  0  0  0  0  0  0  0  0
   21.5475   17.3983   21.6862 C   0  0  0  0  0  0  0  0  0  0  0  0
   22.1488   17.1023   20.8169 H   0  0  0  0  0  0  0  0  0  0  0  0
   21.9348   18.3567   22.0496 H   0  0  0  0  0  0  0  0  0  0  0  0
   21.7045   16.6492   22.4732 H   0  0  0  0  0  0  0  0  0  0  0  0
  1  2  1  0  0  0  0
  1  3  2  0  0  0  0
  1  4  1  0  0  0  0
  4  5  1  0  0  0  0
  4  6  1  0  0  0  0
  4  7  1  0  0  0  0
  7  8  1  0  0  0  0
  7  9  1  0  0  0  0
  7 10  1  0  0  0  0
 10 11  1  0  0  0  0
 10 12  1  0  0  0  0
 10 13  1  0  0  0  0
 13 14  1  0  0  0  0
 13 15  1  0  0  0  0
 13 16  1  0  0  0  0
 16 17  1  0  0  0  0
 16 18  1  0  0  0  0
 16 19  1  0  0  0  0
M  END
> <VConfSearch Rank>
453

> <Conf_Id>
53

> <Delta U+W>
2.279

> <U+W>
-52.612

> <U>
10.231

> <W>
-62.843

> <W(PB)>
-64.893

> <W(SA)>
2.050

> <Valence>
9.644

> <Coulomb>
-0.164

> <VdW>
0.751

> <VdW6>
-6.881

> <VdW12>
7.631

> <Bond>
0.163

> <Angle>
2.998

> <Pdih>
6.482

> <Idih>
0.001

> <Tether>
0.000

$$$$
VeraChem MOL file


 19 18  0  0  0  0  0  0  0  0999 V2000     
   20.6101   17.1047   20.9455 C   0  0  0  0  0  0  0  0  0  0  0  0
   21.4176   17.5896   20.1777 O   0  5  0  0  0  0  0  0  0  0  0  0
   19.5488   16.6310   20.5899 O   0  0  0  0  0  0  0  0  0  0  0  0
   20.9812   17.0242   22.4252 C   0  0  0  0  0  0  0  0  0  0  0  0
   21.9855   17.4423   22.5644 H   0  0  0  0  0  0  0  0  0  0  0  0
   21.0493   15.9575   22.6683 H   0  0  0  0  0  0  0  0  0  0  0  0
   19.9766   17.7014   23.3995 C   0  0  0  0  0  0  0  0  0  0  0  0
   18.9473   17.4369   23.1199 H   0  0  0  0  0  0  0  0  0  0  0  0
   20.1363   17.2766   24.3998 H   0  0  0  0  0  0  0  0  0  0  0  0
   20.1178   19.2395   23.5127 C   0  0  0  0  0  0  0  0  0  0  0  0
   21.1467   19.4964   23.7994 H   0  0  0  0  0  0  0  0  0  0  0  0
   19.4739   19.5826   24.3341 H   0  0  0  0  0  0  0  0  0  0  0  0
   19.7308   20.0038   22.2275 C   0  0  0  0  0  0  0  0  0  0  0  0
   20.4441   19.7770   21.4250 H   0  0  0  0  0  0  0  0  0  0  0  0
   18.7415   19.6737   21.8814 H   0  0  0  0  0  0  0  0  0  0  0  0
   19.7119   21.5281   22.4601 C   0  0  0  0  0  0  0  0  0  0  0  0
   20.6979   21.8878   22.7825 H   0  0  0  0  0  0  0  0  0  0  0  0
   19.4438   22.0565   21.5360 H   0  0  0  0  0  0  0  0  0  0  0  0
   18.9785   21.7997   23.2306 H   0  0  0  0  0  0  0  0  0  0  0  0
  1  2  1  0  0  0  0
  1  3  2  0  0  0  0
  1  4  1  0  0  0  0
  4  5  1  0  0  0  0
  4  6  1  0  0  0  0
  4  7  1  0  0  0  0
  7  8  1  0  0  0  0
  7  9  1  0  0  0  0
  7 10  1  0  0  0  0
 10 11  1  0  0  0  0
 10 12  1  0  0  0  0
 10 13  1  0  0  0  0
 13 14  1  0  0  0  0
 13 15  1  0  0  0  0
 13 16  1  0  0  0  0
 16 17  1  0  0  0  0
 16 18  1  0  0  0  0
 16 19  1  0  0  0  0
M  END
> <VConfSearch Rank>
454

> <Conf_Id>
25

> <Delta U+W>
2.065

> <U+W>
-52.826

> <U>
10.967

> <W>
-63.794

> <W(PB)>
-65.830

> <W(SA)>
2.036

> <Valence>
8.609

> <Coulomb>
1.892

> <VdW>
0.467

> <VdW6>
-7.569

> <VdW12>
8.036

> <Bond>
0.170

> <Angle>
3.195

> <Pdih>
5.237

> <Idih>
0.007

> <Tether>
0.000

$$$$
VeraChem MOL file


 19 18  0  0  0  0  0  0  0  0999 V2000     
   18.2681   18.9259   20.9418 C   0  0  0  0  0  0  0  0  0  0  0  0
   17.2297   18.8364   21.5669 O   0  5  0  0  0  0  0  0  0  0  0  0
   18.5991   18.1386   20.0772 O   0  0  0  0  0  0  0  0  0  0  0  0
   19.1726   20.1283   21.2057 C   0  0  0  0  0  0  0  0  0  0  0  0
   18.5942   21.0164   20.9261 H   0  0  0  0  0  0  0  0  0  0  0  0
   20.0308   20.0856   20.5240 H   0  0  0  0  0  0  0  0  0  0  0  0
   19.6590   20.2837   22.6741 C   0  0  0  0  0  0  0  0  0  0  0  0
   19.9687   21.3275   22.8196 H   0  0  0  0  0  0  0  0  0  0  0  0
   18.8214   20.1180   23.3658 H   0  0  0  0  0  0  0  0  0  0  0  0
   20.8549   19.3790   23.0616 C   0  0  0  0  0  0  0  0  0  0  0  0
   21.2070   19.6849   24.0563 H   0  0  0  0  0  0  0  0  0  0  0  0
   21.6908   19.5550   22.3709 H   0  0  0  0  0  0  0  0  0  0  0  0
   20.5191   17.8719   23.0968 C   0  0  0  0  0  0  0  0  0  0  0  0
   19.6207   17.7046   23.7070 H   0  0  0  0  0  0  0  0  0  0  0  0
   20.2917   17.5128   22.0850 H   0  0  0  0  0  0  0  0  0  0  0  0
   21.6892   17.0450   23.6669 C   0  0  0  0  0  0  0  0  0  0  0  0
   21.4380   15.9764   23.6771 H   0  0  0  0  0  0  0  0  0  0  0  0
   22.5940   17.1748   23.0587 H   0  0  0  0  0  0  0  0  0  0  0  0
   21.9208   17.3483   24.6962 H   0  0  0  0  0  0  0  0  0  0  0  0
  1  2  1  0  0  0  0
  1  3  2  0  0  0  0
  1  4  1  0  0  0  0
  4  5  1  0  0  0  0
  4  6  1  0  0  0  0
  4  7  1  0  0  0  0
  7  8  1  0  0  0  0
  7  9  1  0  0  0  0
  7 10  1  0  0  0  0
 10 11  1  0  0  0  0
 10 12  1  0  0  0  0
 10 13  1  0  0  0  0
 13 14  1  0  0  0  0
 13 15  1  0  0  0  0
 13 16  1  0  0  0  0
 16 17  1  0  0  0  0
 16 18  1  0  0  0  0
 16 19  1  0  0  0  0
M  END
> <VConfSearch Rank>
455

> <Conf_Id>
52

> <Delta U+W>
2.070

> <U+W>
-52.822

> <U>
10.967

> <W>
-63.789

> <W(PB)>
-65.837

> <W(SA)>
2.048

> <Valence>
8.609

> <Coulomb>
1.892

> <VdW>
0.467

> <VdW6>
-7.569

> <VdW12>
8.035

> <Bond>
0.170

> <Angle>
3.196

> <Pdih>
5.237

> <Idih>
0.007

> <Tether>
0.000

$$$$
VeraChem MOL file


 19 18  0  0  0  0  0  0  0  0999 V2000     
   17.9744   17.8308   22.4832 C   0  0  0  0  0  0  0  0  0  0  0  0
   17.2000   18.5200   21.8480 O   0  5  0  0  0  0  0  0  0  0  0  0
   18.1952   16.6647   22.2218 O   0  0  0  0  0  0  0  0  0  0  0  0
   18.6084   18.4131   23.7474 C   0  0  0  0  0  0  0  0  0  0  0  0
   19.3843   17.7266   24.1070 H   0  0  0  0  0  0  0  0  0  0  0  0
   17.8188   18.4173   24.5076 H   0  0  0  0  0  0  0  0  0  0  0  0
   19.1841   19.8519   23.6138 C   0  0  0  0  0  0  0  0  0  0  0  0
   18.5057   20.4736   23.0135 H   0  0  0  0  0  0  0  0  0  0  0  0
   19.1951   20.3049   24.6143 H   0  0  0  0  0  0  0  0  0  0  0  0
   20.6239   19.9419   23.0461 C   0  0  0  0  0  0  0  0  0  0  0  0
   21.3206   19.4030   23.7028 H   0  0  0  0  0  0  0  0  0  0  0  0
   20.9304   20.9959   23.0915 H   0  0  0  0  0  0  0  0  0  0  0  0
   20.7819   19.4603   21.5836 C   0  0  0  0  0  0  0  0  0  0  0  0
   19.8178   19.5043   21.0583 H   0  0  0  0  0  0  0  0  0  0  0  0
   21.4493   20.1527   21.0524 H   0  0  0  0  0  0  0  0  0  0  0  0
   21.3834   18.0421   21.4834 C   0  0  0  0  0  0  0  0  0  0  0  0
   22.3909   18.0127   21.9181 H   0  0  0  0  0  0  0  0  0  0  0  0
   20.7657   17.3055   22.0102 H   0  0  0  0  0  0  0  0  0  0  0  0
   21.4589   17.7290   20.4341 H   0  0  0  0  0  0  0  0  0  0  0  0
  1  2  1  0  0  0  0
  1  3  2  0  0  0  0
  1  4  1  0  0  0  0
  4  5  1  0  0  0  0
  4  6  1  0  0  0  0
  4  7  1  0  0  0  0
  7  8  1  0  0  0  0
  7  9  1  0  0  0  0
  7 10  1  0  0  0  0
 10 11  1  0  0  0  0
 10 12  1  0  0  0  0
 10 13  1  0  0  0  0
 13 14  1  0  0  0  0
 13 15  1  0  0  0  0
 13 16  1  0  0  0  0
 16 17  1  0  0  0  0
 16 18  1  0  0  0  0
 16 19  1  0  0  0  0
M  END
> <VConfSearch Rank>
456

> <Conf_Id>
66

> <Delta U+W>
5.819

> <U+W>
-49.072

> <U>
15.324

> <W>
-64.396

> <W(PB)>
-66.382

> <W(SA)>
1.986

> <Valence>
11.748

> <Coulomb>
3.201

> <VdW>
0.375

> <VdW6>
-8.854

> <VdW12>
9.229

> <Bond>
0.216

> <Angle>
3.812

> <Pdih>
7.699

> <Idih>
0.022

> <Tether>
0.000

$$$$
VeraChem MOL file


 19 18  0  0  0  0  0  0  0  0999 V2000     
   20.2623   17.1442   19.2153 C   0  0  0  0  0  0  0  0  0  0  0  0
   19.9687   16.0737   18.7217 O   0  5  0  0  0  0  0  0  0  0  0  0
   20.8659   18.0099   18.6116 O   0  0  0  0  0  0  0  0  0  0  0  0
   19.8393   17.3838   20.6655 C   0  0  0  0  0  0  0  0  0  0  0  0
   20.2802   16.5835   21.2714 H   0  0  0  0  0  0  0  0  0  0  0  0
   18.7509   17.2600   20.7136 H   0  0  0  0  0  0  0  0  0  0  0  0
   20.2360   18.7646   21.2524 C   0  0  0  0  0  0  0  0  0  0  0  0
   21.3268   18.8847   21.1960 H   0  0  0  0  0  0  0  0  0  0  0  0
   19.7960   19.5620   20.6375 H   0  0  0  0  0  0  0  0  0  0  0  0
   19.7711   18.9212   22.7165 C   0  0  0  0  0  0  0  0  0  0  0  0
   20.2120   18.1230   23.3294 H   0  0  0  0  0  0  0  0  0  0  0  0
   18.6804   18.8006   22.7706 H   0  0  0  0  0  0  0  0  0  0  0  0
   20.1665   20.2945   23.2980 C   0  0  0  0  0  0  0  0  0  0  0  0
   21.2572   20.4182   23.2474 H   0  0  0  0  0  0  0  0  0  0  0  0
   19.7257   21.0957   22.6888 H   0  0  0  0  0  0  0  0  0  0  0  0
   19.7009   20.4473   24.7598 C   0  0  0  0  0  0  0  0  0  0  0  0
   20.1523   19.6766   25.3984 H   0  0  0  0  0  0  0  0  0  0  0  0
   19.9902   21.4289   25.1573 H   0  0  0  0  0  0  0  0  0  0  0  0
   18.6092   20.3593   24.8356 H   0  0  0  0  0  0  0  0  0  0  0  0
  1  2  1  0  0  0  0
  1  3  2  0  0  0  0
  1  4  1  0  0  0  0
  4  5  1  0  0  0  0
  4  6  1  0  0  0  0
  4  7  1  0  0  0  0
  7  8  1  0  0  0  0
  7  9  1  0  0  0  0
  7 10  1  0  0  0  0
 10 11  1  0  0  0  0
 10 12  1  0  0  0  0
 10 13  1  0  0  0  0
 13 14  1  0  0  0  0
 13 15  1  0  0  0  0
 13 16  1  0  0  0  0
 16 17  1  0  0  0  0
 16 18  1  0  0  0  0
 16 19  1  0  0  0  0
M  END
> <VConfSearch Rank>
457

> <Conf_Id>
0

> <Delta U+W>
0.000

> <U+W>
-54.891

> <U>
6.966

> <W>
-61.857

> <W(PB)>
-63.965

> <W(SA)>
2.108

> <Valence>
7.175

> <Coulomb>
-1.360

> <VdW>
1.151

> <VdW6>
-5.641

> <VdW12>
6.792

> <Bond>
0.119

> <Angle>
2.715

> <Pdih>
4.340

> <Idih>
0.000

> <Tether>
0.000

$$$$
VeraChem MOL file


 19 18  0  0  0  0  0  0  0  0999 V2000     
   19.9127   16.5578   19.7187 C   0  0  0  0  0  0  0  0  0  0  0  0
   19.2596   15.5660   19.9755 O   0  5  0  0  0  0  0  0  0  0  0  0
   20.0872   16.9748   18.5909 O   0  0  0  0  0  0  0  0  0  0  0  0
   20.5301   17.3334   20.8769 C   0  0  0  0  0  0  0  0  0  0  0  0
   21.4689   17.7793   20.5266 H   0  0  0  0  0  0  0  0  0  0  0  0
   20.7864   16.6183   21.6679 H   0  0  0  0  0  0  0  0  0  0  0  0
   19.5919   18.4324   21.4338 C   0  0  0  0  0  0  0  0  0  0  0  0
   19.3346   19.1328   20.6271 H   0  0  0  0  0  0  0  0  0  0  0  0
   18.6520   17.9717   21.7683 H   0  0  0  0  0  0  0  0  0  0  0  0
   20.2400   19.2022   22.6047 C   0  0  0  0  0  0  0  0  0  0  0  0
   21.1800   19.6604   22.2675 H   0  0  0  0  0  0  0  0  0  0  0  0
   20.4971   18.4991   23.4089 H   0  0  0  0  0  0  0  0  0  0  0  0
   19.3031   20.2963   23.1574 C   0  0  0  0  0  0  0  0  0  0  0  0
   19.0451   21.0027   22.3562 H   0  0  0  0  0  0  0  0  0  0  0  0
   18.3624   19.8416   23.4976 H   0  0  0  0  0  0  0  0  0  0  0  0
   19.9535   21.0630   24.3263 C   0  0  0  0  0  0  0  0  0  0  0  0
   19.2741   21.8367   24.7070 H   0  0  0  0  0  0  0  0  0  0  0  0
   20.1935   20.3848   25.1557 H   0  0  0  0  0  0  0  0  0  0  0  0
   20.8814   21.5545   24.0057 H   0  0  0  0  0  0  0  0  0  0  0  0
  1  2  1  0  0  0  0
  1  3  2  0  0  0  0
  1  4  1  0  0  0  0
  4  5  1  0  0  0  0
  4  6  1  0  0  0  0
  4  7  1  0  0  0  0
  7  8  1  0  0  0  0
  7  9  1  0  0  0  0
  7 10  1  0  0  0  0
 10 11  1  0  0  0  0
 10 12  1  0  0  0  0
 10 13  1  0  0  0  0
 13 14  1  0  0  0  0
 13 15  1  0  0  0  0
 13 16  1  0  0  0  0
 16 17  1  0  0  0  0
 16 18  1  0  0  0  0
 16 19  1  0  0  0  0
M  END
> <VConfSearch Rank>
458

> <Conf_Id>
18

> <Delta U+W>
-1.199

> <U+W>
-56.090

> <U>
5.975

> <W>
-62.066

> <W(PB)>
-64.219

> <W(SA)>
2.153

> <Valence>
6.673

> <Coulomb>
-1.307

> <VdW>
0.610

> <VdW6>
-5.351

> <VdW12>
5.961

> <Bond>
0.086

> <Angle>
2.253

> <Pdih>
4.333

> <Idih>
0.001

> <Tether>
0.000

$$$$
VeraChem MOL file


 19 18  0  0  0  0  0  0  0  0999 V2000     
   20.2839   15.8780   21.1963 C   0  0  0  0  0  0  0  0  0  0  0  0
   20.1695   15.5328   20.0369 O   0  5  0  0  0  0  0  0  0  0  0  0
   20.8253   15.2022   22.0486 O   0  0  0  0  0  0  0  0  0  0  0  0
   19.7369   17.2430   21.5986 C   0  0  0  0  0  0  0  0  0  0  0  0
   19.3883   17.1701   22.6349 H   0  0  0  0  0  0  0  0  0  0  0  0
   18.8608   17.4560   20.9745 H   0  0  0  0  0  0  0  0  0  0  0  0
   20.7854   18.3764   21.4530 C   0  0  0  0  0  0  0  0  0  0  0  0
   21.6382   18.1748   22.1159 H   0  0  0  0  0  0  0  0  0  0  0  0
   21.1797   18.3621   20.4275 H   0  0  0  0  0  0  0  0  0  0  0  0
   20.2171   19.7852   21.7459 C   0  0  0  0  0  0  0  0  0  0  0  0
   19.3701   19.9871   21.0758 H   0  0  0  0  0  0  0  0  0  0  0  0
   20.9884   20.5294   21.5046 H   0  0  0  0  0  0  0  0  0  0  0  0
   19.7765   19.9769   23.2144 C   0  0  0  0  0  0  0  0  0  0  0  0
   18.9520   19.2930   23.4549 H   0  0  0  0  0  0  0  0  0  0  0  0
   20.6085   19.7259   23.8868 H   0  0  0  0  0  0  0  0  0  0  0  0
   19.3206   21.4252   23.4829 C   0  0  0  0  0  0  0  0  0  0  0  0
   19.0083   21.5447   24.5285 H   0  0  0  0  0  0  0  0  0  0  0  0
   20.1346   22.1360   23.2892 H   0  0  0  0  0  0  0  0  0  0  0  0
   18.4705   21.6941   22.8423 H   0  0  0  0  0  0  0  0  0  0  0  0
  1  2  1  0  0  0  0
  1  3  2  0  0  0  0
  1  4  1  0  0  0  0
  4  5  1  0  0  0  0
  4  6  1  0  0  0  0
  4  7  1  0  0  0  0
  7  8  1  0  0  0  0
  7  9  1  0  0  0  0
  7 10  1  0  0  0  0
 10 11  1  0  0  0  0
 10 12  1  0  0  0  0
 10 13  1  0  0  0  0
 13 14  1  0  0  0  0
 13 15  1  0  0  0  0
 13 16  1  0  0  0  0
 16 17  1  0  0  0  0
 16 18  1  0  0  0  0
 16 19  1  0  0  0  0
M  END
> <VConfSearch Rank>
459

> <Conf_Id>
34

> <Delta U+W>
-0.563

> <U+W>
-55.455

> <U>
6.914

> <W>
-62.369

> <W(PB)>
-64.446

> <W(SA)>
2.077

> <Valence>
7.196

> <Coulomb>
-1.020

> <VdW>
0.738

> <VdW6>
-6.010

> <VdW12>
6.748

> <Bond>
0.126

> <Angle>
2.499

> <Pdih>
4.570

> <Idih>
0.001

> <Tether>
0.000

$$$$
VeraChem MOL file


 19 18  0  0  0  0  0  0  0  0999 V2000     
   23.1778   19.1731   22.1416 C   0  0  0  0  0  0  0  0  0  0  0  0
   23.7695   20.1731   21.7863 O   0  5  0  0  0  0  0  0  0  0  0  0
   23.6941   18.0755   22.2113 O   0  0  0  0  0  0  0  0  0  0  0  0
   21.7008   19.2986   22.4982 C   0  0  0  0  0  0  0  0  0  0  0  0
   21.5367   20.2967   22.9219 H   0  0  0  0  0  0  0  0  0  0  0  0
   21.4856   18.5703   23.2881 H   0  0  0  0  0  0  0  0  0  0  0  0
   20.7680   19.0751   21.2796 C   0  0  0  0  0  0  0  0  0  0  0  0
   21.0704   19.7588   20.4742 H   0  0  0  0  0  0  0  0  0  0  0  0
   20.9091   18.0570   20.8913 H   0  0  0  0  0  0  0  0  0  0  0  0
   19.2720   19.3118   21.5950 C   0  0  0  0  0  0  0  0  0  0  0  0
   18.7038   19.2492   20.6568 H   0  0  0  0  0  0  0  0  0  0  0  0
   19.1330   20.3333   21.9749 H   0  0  0  0  0  0  0  0  0  0  0  0
   18.6888   18.2971   22.6038 C   0  0  0  0  0  0  0  0  0  0  0  0
   18.8729   17.2737   22.2486 H   0  0  0  0  0  0  0  0  0  0  0  0
   19.1927   18.3955   23.5742 H   0  0  0  0  0  0  0  0  0  0  0  0
   17.1740   18.5050   22.8024 C   0  0  0  0  0  0  0  0  0  0  0  0
   16.9629   19.5127   23.1837 H   0  0  0  0  0  0  0  0  0  0  0  0
   16.6319   18.3756   21.8565 H   0  0  0  0  0  0  0  0  0  0  0  0
   16.7753   17.7794   23.5232 H   0  0  0  0  0  0  0  0  0  0  0  0
  1  2  1  0  0  0  0
  1  3  2  0  0  0  0
  1  4  1  0  0  0  0
  4  5  1  0  0  0  0
  4  6  1  0  0  0  0
  4  7  1  0  0  0  0
  7  8  1  0  0  0  0
  7  9  1  0  0  0  0
  7 10  1  0  0  0  0
 10 11  1  0  0  0  0
 10 12  1  0  0  0  0
 10 13  1  0  0  0  0
 13 14  1  0  0  0  0
 13 15  1  0  0  0  0
 13 16  1  0  0  0  0
 16 17  1  0  0  0  0
 16 18  1  0  0  0  0
 16 19  1  0  0  0  0
M  END
> <VConfSearch Rank>
460

> <Conf_Id>
33

> <Delta U+W>
-0.526

> <U+W>
-55.418

> <U>
6.914

> <W>
-62.332

> <W(PB)>
-64.421

> <W(SA)>
2.090

> <Valence>
7.196

> <Coulomb>
-1.020

> <VdW>
0.738

> <VdW6>
-6.010

> <VdW12>
6.748

> <Bond>
0.126

> <Angle>
2.499

> <Pdih>
4.570

> <Idih>
0.001

> <Tether>
0.000

$$$$
VeraChem MOL file


 19 18  0  0  0  0  0  0  0  0999 V2000     
   19.4761   16.5752   20.1867 C   0  0  0  0  0  0  0  0  0  0  0  0
   18.2878   16.3786   20.0273 O   0  5  0  0  0  0  0  0  0  0  0  0
   20.3034   16.4446   19.3065 O   0  0  0  0  0  0  0  0  0  0  0  0
   19.9533   17.0277   21.5623 C   0  0  0  0  0  0  0  0  0  0  0  0
   20.9595   16.6225   21.7239 H   0  0  0  0  0  0  0  0  0  0  0  0
   19.2971   16.5765   22.3163 H   0  0  0  0  0  0  0  0  0  0  0  0
   19.9655   18.5684   21.7187 C   0  0  0  0  0  0  0  0  0  0  0  0
   20.6190   19.0057   20.9513 H   0  0  0  0  0  0  0  0  0  0  0  0
   18.9535   18.9523   21.5344 H   0  0  0  0  0  0  0  0  0  0  0  0
   20.4498   18.9982   23.1228 C   0  0  0  0  0  0  0  0  0  0  0  0
   21.4320   18.5457   23.3163 H   0  0  0  0  0  0  0  0  0  0  0  0
   19.7680   18.6014   23.8875 H   0  0  0  0  0  0  0  0  0  0  0  0
   20.5745   20.5306   23.2866 C   0  0  0  0  0  0  0  0  0  0  0  0
   21.0330   20.7447   24.2619 H   0  0  0  0  0  0  0  0  0  0  0  0
   21.2602   20.9306   22.5269 H   0  0  0  0  0  0  0  0  0  0  0  0
   19.2197   21.2663   23.2024 C   0  0  0  0  0  0  0  0  0  0  0  0
   18.5074   20.8630   23.9339 H   0  0  0  0  0  0  0  0  0  0  0  0
   19.3503   22.3359   23.4121 H   0  0  0  0  0  0  0  0  0  0  0  0
   18.7759   21.1758   22.2031 H   0  0  0  0  0  0  0  0  0  0  0  0
  1  2  1  0  0  0  0
  1  3  2  0  0  0  0
  1  4  1  0  0  0  0
  4  5  1  0  0  0  0
  4  6  1  0  0  0  0
  4  7  1  0  0  0  0
  7  8  1  0  0  0  0
  7  9  1  0  0  0  0
  7 10  1  0  0  0  0
 10 11  1  0  0  0  0
 10 12  1  0  0  0  0
 10 13  1  0  0  0  0
 13 14  1  0  0  0  0
 13 15  1  0  0  0  0
 13 16  1  0  0  0  0
 16 17  1  0  0  0  0
 16 18  1  0  0  0  0
 16 19  1  0  0  0  0
M  END
> <VConfSearch Rank>
461

> <Conf_Id>
42

> <Delta U+W>
-0.344

> <U+W>
-55.236

> <U>
7.244

> <W>
-62.479

> <W(PB)>
-64.610

> <W(SA)>
2.130

> <Valence>
7.174

> <Coulomb>
-0.669

> <VdW>
0.739

> <VdW6>
-5.969

> <VdW12>
6.708

> <Bond>
0.116

> <Angle>
2.481

> <Pdih>
4.576

> <Idih>
0.000

> <Tether>
0.000

$$$$
VeraChem MOL file


 19 18  0  0  0  0  0  0  0  0999 V2000     
   21.7253   19.2422   19.5560 C   0  0  0  0  0  0  0  0  0  0  0  0
   22.0034   20.4109   19.3738 O   0  5  0  0  0  0  0  0  0  0  0  0
   21.4780   18.4619   18.6582 O   0  0  0  0  0  0  0  0  0  0  0  0
   21.6656   18.7312   20.9912 C   0  0  0  0  0  0  0  0  0  0  0  0
   22.4020   19.2885   21.5826 H   0  0  0  0  0  0  0  0  0  0  0  0
   21.9780   17.6799   20.9917 H   0  0  0  0  0  0  0  0  0  0  0  0
   20.2583   18.8713   21.6223 C   0  0  0  0  0  0  0  0  0  0  0  0
   19.9596   19.9275   21.5938 H   0  0  0  0  0  0  0  0  0  0  0  0
   19.5311   18.3160   21.0140 H   0  0  0  0  0  0  0  0  0  0  0  0
   20.2279   18.3492   23.0774 C   0  0  0  0  0  0  0  0  0  0  0  0
   20.9192   18.9372   23.6965 H   0  0  0  0  0  0  0  0  0  0  0  0
   20.5978   17.3149   23.0939 H   0  0  0  0  0  0  0  0  0  0  0  0
   18.8172   18.3761   23.7098 C   0  0  0  0  0  0  0  0  0  0  0  0
   18.1239   17.7843   23.0963 H   0  0  0  0  0  0  0  0  0  0  0  0
   18.8613   17.8834   24.6909 H   0  0  0  0  0  0  0  0  0  0  0  0
   18.2581   19.8033   23.8953 C   0  0  0  0  0  0  0  0  0  0  0  0
   18.0881   20.2958   22.9298 H   0  0  0  0  0  0  0  0  0  0  0  0
   17.2977   19.7731   24.4262 H   0  0  0  0  0  0  0  0  0  0  0  0
   18.9490   20.4229   24.4818 H   0  0  0  0  0  0  0  0  0  0  0  0
  1  2  1  0  0  0  0
  1  3  2  0  0  0  0
  1  4  1  0  0  0  0
  4  5  1  0  0  0  0
  4  6  1  0  0  0  0
  4  7  1  0  0  0  0
  7  8  1  0  0  0  0
  7  9  1  0  0  0  0
  7 10  1  0  0  0  0
 10 11  1  0  0  0  0
 10 12  1  0  0  0  0
 10 13  1  0  0  0  0
 13 14  1  0  0  0  0
 13 15  1  0  0  0  0
 13 16  1  0  0  0  0
 16 17  1  0  0  0  0
 16 18  1  0  0  0  0
 16 19  1  0  0  0  0
M  END
> <VConfSearch Rank>
462

> <Conf_Id>
41

> <Delta U+W>
-0.361

> <U+W>
-55.252

> <U>
7.244

> <W>
-62.496

> <W(PB)>
-64.596

> <W(SA)>
2.099

> <Valence>
7.174

> <Coulomb>
-0.669

> <VdW>
0.739

> <VdW6>
-5.969

> <VdW12>
6.708

> <Bond>
0.116

> <Angle>
2.481

> <Pdih>
4.576

> <Idih>
0.000

> <Tether>
0.000

$$$$
VeraChem MOL file


 19 18  0  0  0  0  0  0  0  0999 V2000     
   20.3566   19.4725   19.5707 C   0  0  0  0  0  0  0  0  0  0  0  0
   21.5320   19.7743   19.6322 O   0  5  0  0  0  0  0  0  0  0  0  0
   19.9179   18.6310   18.8117 O   0  0  0  0  0  0  0  0  0  0  0  0
   19.3728   20.2043   20.4795 C   0  0  0  0  0  0  0  0  0  0  0  0
   18.5154   20.5003   19.8636 H   0  0  0  0  0  0  0  0  0  0  0  0
   19.8440   21.1294   20.8331 H   0  0  0  0  0  0  0  0  0  0  0  0
   18.8785   19.3613   21.6837 C   0  0  0  0  0  0  0  0  0  0  0  0
   18.0777   19.9098   22.1978 H   0  0  0  0  0  0  0  0  0  0  0  0
   18.4352   18.4256   21.3154 H   0  0  0  0  0  0  0  0  0  0  0  0
   20.0069   19.0450   22.6908 C   0  0  0  0  0  0  0  0  0  0  0  0
   20.4554   19.9828   23.0460 H   0  0  0  0  0  0  0  0  0  0  0  0
   20.8047   18.4811   22.1879 H   0  0  0  0  0  0  0  0  0  0  0  0
   19.4865   18.2332   23.8953 C   0  0  0  0  0  0  0  0  0  0  0  0
   18.6909   18.7943   24.4049 H   0  0  0  0  0  0  0  0  0  0  0  0
   19.0394   17.2933   23.5429 H   0  0  0  0  0  0  0  0  0  0  0  0
   20.6146   17.9193   24.8982 C   0  0  0  0  0  0  0  0  0  0  0  0
   21.0592   18.8432   25.2909 H   0  0  0  0  0  0  0  0  0  0  0  0
   20.2274   17.3417   25.7476 H   0  0  0  0  0  0  0  0  0  0  0  0
   21.4103   17.3311   24.4226 H   0  0  0  0  0  0  0  0  0  0  0  0
  1  2  1  0  0  0  0
  1  3  2  0  0  0  0
  1  4  1  0  0  0  0
  4  5  1  0  0  0  0
  4  6  1  0  0  0  0
  4  7  1  0  0  0  0
  7  8  1  0  0  0  0
  7  9  1  0  0  0  0
  7 10  1  0  0  0  0
 10 11  1  0  0  0  0
 10 12  1  0  0  0  0
 10 13  1  0  0  0  0
 13 14  1  0  0  0  0
 13 15  1  0  0  0  0
 13 16  1  0  0  0  0
 16 17  1  0  0  0  0
 16 18  1  0  0  0  0
 16 19  1  0  0  0  0
M  END
> <VConfSearch Rank>
463

> <Conf_Id>
36

> <Delta U+W>
-0.079

> <U+W>
-54.971

> <U>
8.266

> <W>
-63.237

> <W(PB)>
-65.340

> <W(SA)>
2.103

> <Valence>
6.935

> <Coulomb>
0.874

> <VdW>
0.457

> <VdW6>
-6.205

> <VdW12>
6.662

> <Bond>
0.107

> <Angle>
2.420

> <Pdih>
4.407

> <Idih>
0.001

> <Tether>
0.000

$$$$
VeraChem MOL file


 19 18  0  0  0  0  0  0  0  0999 V2000     
   18.6459   19.4951   19.9603 C   0  0  0  0  0  0  0  0  0  0  0  0
   18.5324   18.3668   19.5238 O   0  5  0  0  0  0  0  0  0  0  0  0
   19.0561   20.4315   19.3034 O   0  0  0  0  0  0  0  0  0  0  0  0
   18.2311   19.7573   21.4055 C   0  0  0  0  0  0  0  0  0  0  0  0
   17.5867   18.9351   21.7397 H   0  0  0  0  0  0  0  0  0  0  0  0
   17.6159   20.6648   21.4106 H   0  0  0  0  0  0  0  0  0  0  0  0
   19.4226   19.9343   22.3823 C   0  0  0  0  0  0  0  0  0  0  0  0
   20.0740   20.7415   22.0192 H   0  0  0  0  0  0  0  0  0  0  0  0
   19.0374   20.2543   23.3599 H   0  0  0  0  0  0  0  0  0  0  0  0
   20.2444   18.6378   22.5583 C   0  0  0  0  0  0  0  0  0  0  0  0
   20.6478   18.3202   21.5867 H   0  0  0  0  0  0  0  0  0  0  0  0
   19.5865   17.8307   22.9087 H   0  0  0  0  0  0  0  0  0  0  0  0
   21.4047   18.8281   23.5574 C   0  0  0  0  0  0  0  0  0  0  0  0
   22.0658   19.6333   23.2080 H   0  0  0  0  0  0  0  0  0  0  0  0
   21.0068   19.1417   24.5325 H   0  0  0  0  0  0  0  0  0  0  0  0
   22.2226   17.5328   23.7309 C   0  0  0  0  0  0  0  0  0  0  0  0
   22.6588   17.2130   22.7754 H   0  0  0  0  0  0  0  0  0  0  0  0
   23.0432   17.6859   24.4438 H   0  0  0  0  0  0  0  0  0  0  0  0
   21.5920   16.7178   24.1097 H   0  0  0  0  0  0  0  0  0  0  0  0
  1  2  1  0  0  0  0
  1  3  2  0  0  0  0
  1  4  1  0  0  0  0
  4  5  1  0  0  0  0
  4  6  1  0  0  0  0
  4  7  1  0  0  0  0
  7  8  1  0  0  0  0
  7  9  1  0  0  0  0
  7 10  1  0  0  0  0
 10 11  1  0  0  0  0
 10 12  1  0  0  0  0
 10 13  1  0  0  0  0
 13 14  1  0  0  0  0
 13 15  1  0  0  0  0
 13 16  1  0  0  0  0
 16 17  1  0  0  0  0
 16 18  1  0  0  0  0
 16 19  1  0  0  0  0
M  END
> <VConfSearch Rank>
464

> <Conf_Id>
35

> <Delta U+W>
-0.030

> <U+W>
-54.921

> <U>
8.267

> <W>
-63.188

> <W(PB)>
-65.294

> <W(SA)>
2.106

> <Valence>
6.935

> <Coulomb>
0.875

> <VdW>
0.457

> <VdW6>
-6.205

> <VdW12>
6.662

> <Bond>
0.107

> <Angle>
2.420

> <Pdih>
4.407

> <Idih>
0.001

> <Tether>
0.000

$$$$
VeraChem MOL file


 19 18  0  0  0  0  0  0  0  0999 V2000     
   21.4415   19.4001   24.8485 C   0  0  0  0  0  0  0  0  0  0  0  0
   22.0106   18.4249   25.2975 O   0  5  0  0  0  0  0  0  0  0  0  0
   20.7107   20.1137   25.5069 O   0  0  0  0  0  0  0  0  0  0  0  0
   21.6758   19.7589   23.3836 C   0  0  0  0  0  0  0  0  0  0  0  0
   22.7544   19.6923   23.1990 H   0  0  0  0  0  0  0  0  0  0  0  0
   21.3916   20.8070   23.2293 H   0  0  0  0  0  0  0  0  0  0  0  0
   20.9224   18.8472   22.3802 C   0  0  0  0  0  0  0  0  0  0  0  0
   21.2718   19.0817   21.3666 H   0  0  0  0  0  0  0  0  0  0  0  0
   21.1866   17.7981   22.5725 H   0  0  0  0  0  0  0  0  0  0  0  0
   19.3868   19.0237   22.4547 C   0  0  0  0  0  0  0  0  0  0  0  0
   19.1220   20.0647   22.2244 H   0  0  0  0  0  0  0  0  0  0  0  0
   19.0519   18.8398   23.4848 H   0  0  0  0  0  0  0  0  0  0  0  0
   18.6127   18.0720   21.5134 C   0  0  0  0  0  0  0  0  0  0  0  0
   18.8740   17.0297   21.7429 H   0  0  0  0  0  0  0  0  0  0  0  0
   17.5377   18.1742   21.7161 H   0  0  0  0  0  0  0  0  0  0  0  0
   18.8643   18.3535   20.0163 C   0  0  0  0  0  0  0  0  0  0  0  0
   19.9062   18.1500   19.7394 H   0  0  0  0  0  0  0  0  0  0  0  0
   18.2247   17.7150   19.3933 H   0  0  0  0  0  0  0  0  0  0  0  0
   18.6398   19.3995   19.7700 H   0  0  0  0  0  0  0  0  0  0  0  0
  1  2  1  0  0  0  0
  1  3  2  0  0  0  0
  1  4  1  0  0  0  0
  4  5  1  0  0  0  0
  4  6  1  0  0  0  0
  4  7  1  0  0  0  0
  7  8  1  0  0  0  0
  7  9  1  0  0  0  0
  7 10  1  0  0  0  0
 10 11  1  0  0  0  0
 10 12  1  0  0  0  0
 10 13  1  0  0  0  0
 13 14  1  0  0  0  0
 13 15  1  0  0  0  0
 13 16  1  0  0  0  0
 16 17  1  0  0  0  0
 16 18  1  0  0  0  0
 16 19  1  0  0  0  0
M  END
> <VConfSearch Rank>
465

> <Conf_Id>
74

> <Delta U+W>
0.797

> <U+W>
-54.095

> <U>
8.869

> <W>
-62.964

> <W(PB)>
-65.046

> <W(SA)>
2.082

> <Valence>
7.469

> <Coulomb>
0.762

> <VdW>
0.639

> <VdW6>
-6.782

> <VdW12>
7.421

> <Bond>
0.141

> <Angle>
2.667

> <Pdih>
4.660

> <Idih>
0.001

> <Tether>
0.000

$$$$
VeraChem MOL file


 19 18  0  0  0  0  0  0  0  0999 V2000     
   22.5824   19.4376   21.0561 C   0  0  0  0  0  0  0  0  0  0  0  0
   22.8471   20.0846   20.0623 O   0  5  0  0  0  0  0  0  0  0  0  0
   23.3834   19.2045   21.9394 O   0  0  0  0  0  0  0  0  0  0  0  0
   21.1622   18.9054   21.2116 C   0  0  0  0  0  0  0  0  0  0  0  0
   21.2195   17.9553   21.7550 H   0  0  0  0  0  0  0  0  0  0  0  0
   20.7687   18.6862   20.2118 H   0  0  0  0  0  0  0  0  0  0  0  0
   20.2263   19.8976   21.9491 C   0  0  0  0  0  0  0  0  0  0  0  0
   20.6093   20.0799   22.9620 H   0  0  0  0  0  0  0  0  0  0  0  0
   20.2621   20.8664   21.4321 H   0  0  0  0  0  0  0  0  0  0  0  0
   18.7514   19.4271   22.0126 C   0  0  0  0  0  0  0  0  0  0  0  0
   18.3582   19.3500   20.9898 H   0  0  0  0  0  0  0  0  0  0  0  0
   18.1545   20.2043   22.5090 H   0  0  0  0  0  0  0  0  0  0  0  0
   18.5196   18.0788   22.7381 C   0  0  0  0  0  0  0  0  0  0  0  0
   17.4466   17.8447   22.7060 H   0  0  0  0  0  0  0  0  0  0  0  0
   19.0232   17.2661   22.1982 H   0  0  0  0  0  0  0  0  0  0  0  0
   18.9812   18.0898   24.2112 C   0  0  0  0  0  0  0  0  0  0  0  0
   18.5068   18.9099   24.7655 H   0  0  0  0  0  0  0  0  0  0  0  0
   18.7124   17.1471   24.7051 H   0  0  0  0  0  0  0  0  0  0  0  0
   20.0698   18.2062   24.2870 H   0  0  0  0  0  0  0  0  0  0  0  0
  1  2  1  0  0  0  0
  1  3  2  0  0  0  0
  1  4  1  0  0  0  0
  4  5  1  0  0  0  0
  4  6  1  0  0  0  0
  4  7  1  0  0  0  0
  7  8  1  0  0  0  0
  7  9  1  0  0  0  0
  7 10  1  0  0  0  0
 10 11  1  0  0  0  0
 10 12  1  0  0  0  0
 10 13  1  0  0  0  0
 13 14  1  0  0  0  0
 13 15  1  0  0  0  0
 13 16  1  0  0  0  0
 16 17  1  0  0  0  0
 16 18  1  0  0  0  0
 16 19  1  0  0  0  0
M  END
> <VConfSearch Rank>
466

> <Conf_Id>
67

> <Delta U+W>
0.308

> <U+W>
-54.583

> <U>
8.219

> <W>
-62.802

> <W(PB)>
-64.859

> <W(SA)>
2.057

> <Valence>
7.609

> <Coulomb>
-0.089

> <VdW>
0.699

> <VdW6>
-6.924

> <VdW12>
7.623

> <Bond>
0.163

> <Angle>
2.870

> <Pdih>
4.576

> <Idih>
0.001

> <Tether>
0.000

$$$$
VeraChem MOL file


 19 18  0  0  0  0  0  0  0  0999 V2000     
   21.9950   21.0437   22.0475 C   0  0  0  0  0  0  0  0  0  0  0  0
   23.0640   21.1605   22.6132 O   0  5  0  0  0  0  0  0  0  0  0  0
   21.3847   21.9768   21.5646 O   0  0  0  0  0  0  0  0  0  0  0  0
   21.3770   19.6531   21.9561 C   0  0  0  0  0  0  0  0  0  0  0  0
   22.1911   18.9216   21.8901 H   0  0  0  0  0  0  0  0  0  0  0  0
   20.8134   19.5993   21.0176 H   0  0  0  0  0  0  0  0  0  0  0  0
   20.4583   19.3237   23.1611 C   0  0  0  0  0  0  0  0  0  0  0  0
   21.0265   19.4752   24.0892 H   0  0  0  0  0  0  0  0  0  0  0  0
   19.6259   20.0391   23.1948 H   0  0  0  0  0  0  0  0  0  0  0  0
   19.9150   17.8727   23.1473 C   0  0  0  0  0  0  0  0  0  0  0  0
   19.3144   17.7125   24.0530 H   0  0  0  0  0  0  0  0  0  0  0  0
   20.7610   17.1754   23.2174 H   0  0  0  0  0  0  0  0  0  0  0  0
   19.0630   17.4989   21.9095 C   0  0  0  0  0  0  0  0  0  0  0  0
   19.6740   17.5508   20.9987 H   0  0  0  0  0  0  0  0  0  0  0  0
   18.7494   16.4502   22.0048 H   0  0  0  0  0  0  0  0  0  0  0  0
   17.8059   18.3796   21.7439 C   0  0  0  0  0  0  0  0  0  0  0  0
   18.0747   19.4219   21.5304 H   0  0  0  0  0  0  0  0  0  0  0  0
   17.1902   18.0175   20.9104 H   0  0  0  0  0  0  0  0  0  0  0  0
   17.1906   18.3609   22.6528 H   0  0  0  0  0  0  0  0  0  0  0  0
  1  2  1  0  0  0  0
  1  3  2  0  0  0  0
  1  4  1  0  0  0  0
  4  5  1  0  0  0  0
  4  6  1  0  0  0  0
  4  7  1  0  0  0  0
  7  8  1  0  0  0  0
  7  9  1  0  0  0  0
  7 10  1  0  0  0  0
 10 11  1  0  0  0  0
 10 12  1  0  0  0  0
 10 13  1  0  0  0  0
 13 14  1  0  0  0  0
 13 15  1  0  0  0  0
 13 16  1  0  0  0  0
 16 17  1  0  0  0  0
 16 18  1  0  0  0  0
 16 19  1  0  0  0  0
M  END
> <VConfSearch Rank>
467

> <Conf_Id>
21

> <Delta U+W>
0.319

> <U+W>
-54.572

> <U>
8.220

> <W>
-62.792

> <W(PB)>
-64.830

> <W(SA)>
2.038

> <Valence>
7.609

> <Coulomb>
-0.088

> <VdW>
0.699

> <VdW6>
-6.924

> <VdW12>
7.623

> <Bond>
0.163

> <Angle>
2.870

> <Pdih>
4.576

> <Idih>
0.000

> <Tether>
0.000

$$$$
VeraChem MOL file


 19 18  0  0  0  0  0  0  0  0999 V2000     
   19.3889   16.4271   20.9786 C   0  0  0  0  0  0  0  0  0  0  0  0
   19.8215   15.3073   21.1668 O   0  5  0  0  0  0  0  0  0  0  0  0
   18.3271   16.6547   20.4337 O   0  0  0  0  0  0  0  0  0  0  0  0
   20.2157   17.6101   21.4695 C   0  0  0  0  0  0  0  0  0  0  0  0
   20.0407   18.4480   20.7876 H   0  0  0  0  0  0  0  0  0  0  0  0
   21.2753   17.3423   21.3806 H   0  0  0  0  0  0  0  0  0  0  0  0
   19.8888   18.0048   22.9341 C   0  0  0  0  0  0  0  0  0  0  0  0
   18.8158   18.2171   23.0383 H   0  0  0  0  0  0  0  0  0  0  0  0
   20.0913   17.1332   23.5719 H   0  0  0  0  0  0  0  0  0  0  0  0
   20.7254   19.2025   23.4515 C   0  0  0  0  0  0  0  0  0  0  0  0
   21.7036   19.2278   22.9523 H   0  0  0  0  0  0  0  0  0  0  0  0
   20.9379   19.0356   24.5164 H   0  0  0  0  0  0  0  0  0  0  0  0
   20.0285   20.5797   23.3268 C   0  0  0  0  0  0  0  0  0  0  0  0
   19.0934   20.5728   23.9037 H   0  0  0  0  0  0  0  0  0  0  0  0
   20.6714   21.3388   23.7932 H   0  0  0  0  0  0  0  0  0  0  0  0
   19.7308   21.0092   21.8754 C   0  0  0  0  0  0  0  0  0  0  0  0
   19.3605   22.0422   21.8495 H   0  0  0  0  0  0  0  0  0  0  0  0
   20.6352   20.9578   21.2553 H   0  0  0  0  0  0  0  0  0  0  0  0
   18.9603   20.3715   21.4244 H   0  0  0  0  0  0  0  0  0  0  0  0
  1  2  1  0  0  0  0
  1  3  2  0  0  0  0
  1  4  1  0  0  0  0
  4  5  1  0  0  0  0
  4  6  1  0  0  0  0
  4  7  1  0  0  0  0
  7  8  1  0  0  0  0
  7  9  1  0  0  0  0
  7 10  1  0  0  0  0
 10 11  1  0  0  0  0
 10 12  1  0  0  0  0
 10 13  1  0  0  0  0
 13 14  1  0  0  0  0
 13 15  1  0  0  0  0
 13 16  1  0  0  0  0
 16 17  1  0  0  0  0
 16 18  1  0  0  0  0
 16 19  1  0  0  0  0
M  END
> <VConfSearch Rank>
468

> <Conf_Id>
24

> <Delta U+W>
2.477

> <U+W>
-52.414

> <U>
10.422

> <W>
-62.836

> <W(PB)>
-64.906

> <W(SA)>
2.070

> <Valence>
9.628

> <Coulomb>
0.101

> <VdW>
0.693

> <VdW6>
-6.927

> <VdW12>
7.620

> <Bond>
0.173

> <Angle>
2.989

> <Pdih>
6.465

> <Idih>
0.001

> <Tether>
0.000

$$$$
VeraChem MOL file


 19 18  0  0  0  0  0  0  0  0999 V2000     
   18.4588   19.3114   24.5773 C   0  0  0  0  0  0  0  0  0  0  0  0
   18.9140   18.3426   25.1524 O   0  5  0  0  0  0  0  0  0  0  0  0
   18.0662   20.3085   25.1506 O   0  0  0  0  0  0  0  0  0  0  0  0
   18.3459   19.2652   23.0556 C   0  0  0  0  0  0  0  0  0  0  0  0
   17.3302   19.5861   22.7966 H   0  0  0  0  0  0  0  0  0  0  0  0
   18.4367   18.2228   22.7342 H   0  0  0  0  0  0  0  0  0  0  0  0
   19.3734   20.1685   22.3186 C   0  0  0  0  0  0  0  0  0  0  0  0
   19.1056   20.2464   21.2563 H   0  0  0  0  0  0  0  0  0  0  0  0
   19.2863   21.1850   22.7271 H   0  0  0  0  0  0  0  0  0  0  0  0
   20.8456   19.6999   22.4548 C   0  0  0  0  0  0  0  0  0  0  0  0
   20.9975   19.1807   23.4109 H   0  0  0  0  0  0  0  0  0  0  0  0
   21.4846   20.5925   22.4964 H   0  0  0  0  0  0  0  0  0  0  0  0
   21.3533   18.8182   21.2875 C   0  0  0  0  0  0  0  0  0  0  0  0
   21.2821   19.3775   20.3444 H   0  0  0  0  0  0  0  0  0  0  0  0
   22.4216   18.6149   21.4442 H   0  0  0  0  0  0  0  0  0  0  0  0
   20.6112   17.4736   21.1431 C   0  0  0  0  0  0  0  0  0  0  0  0
   19.5747   17.6268   20.8183 H   0  0  0  0  0  0  0  0  0  0  0  0
   21.1031   16.8423   20.3919 H   0  0  0  0  0  0  0  0  0  0  0  0
   20.6021   16.9251   22.0942 H   0  0  0  0  0  0  0  0  0  0  0  0
  1  2  1  0  0  0  0
  1  3  2  0  0  0  0
  1  4  1  0  0  0  0
  4  5  1  0  0  0  0
  4  6  1  0  0  0  0
  4  7  1  0  0  0  0
  7  8  1  0  0  0  0
  7  9  1  0  0  0  0
  7 10  1  0  0  0  0
 10 11  1  0  0  0  0
 10 12  1  0  0  0  0
 10 13  1  0  0  0  0
 13 14  1  0  0  0  0
 13 15  1  0  0  0  0
 13 16  1  0  0  0  0
 16 17  1  0  0  0  0
 16 18  1  0  0  0  0
 16 19  1  0  0  0  0
M  END
> <VConfSearch Rank>
469

> <Conf_Id>
4

> <Delta U+W>
3.753

> <U+W>
-51.138

> <U>
12.334

> <W>
-63.472

> <W(PB)>
-65.500

> <W(SA)>
2.028

> <Valence>
9.984

> <Coulomb>
1.767

> <VdW>
0.583

> <VdW6>
-7.767

> <VdW12>
8.349

> <Bond>
0.203

> <Angle>
3.191

> <Pdih>
6.589

> <Idih>
0.001

> <Tether>
0.000

$$$$
VeraChem MOL file


 19 18  0  0  0  0  0  0  0  0999 V2000     
   17.4363   19.6065   22.0690 C   0  0  0  0  0  0  0  0  0  0  0  0
   16.9470   20.6898   21.8154 O   0  5  0  0  0  0  0  0  0  0  0  0
   17.0741   18.5691   21.5501 O   0  0  0  0  0  0  0  0  0  0  0  0
   18.5447   19.5455   23.1168 C   0  0  0  0  0  0  0  0  0  0  0  0
   18.6488   18.5078   23.4492 H   0  0  0  0  0  0  0  0  0  0  0  0
   18.2013   20.1202   23.9849 H   0  0  0  0  0  0  0  0  0  0  0  0
   19.9060   20.1153   22.6298 C   0  0  0  0  0  0  0  0  0  0  0  0
   19.7314   21.1298   22.2451 H   0  0  0  0  0  0  0  0  0  0  0  0
   20.5881   20.2295   23.4829 H   0  0  0  0  0  0  0  0  0  0  0  0
   20.5892   19.2719   21.5219 C   0  0  0  0  0  0  0  0  0  0  0  0
   21.1102   19.9601   20.8425 H   0  0  0  0  0  0  0  0  0  0  0  0
   19.8357   18.7609   20.9072 H   0  0  0  0  0  0  0  0  0  0  0  0
   21.6317   18.2501   22.0387 C   0  0  0  0  0  0  0  0  0  0  0  0
   22.1088   17.7715   21.1724 H   0  0  0  0  0  0  0  0  0  0  0  0
   22.4310   18.7782   22.5767 H   0  0  0  0  0  0  0  0  0  0  0  0
   21.0422   17.1512   22.9467 C   0  0  0  0  0  0  0  0  0  0  0  0
   20.1907   16.6554   22.4623 H   0  0  0  0  0  0  0  0  0  0  0  0
   21.7994   16.3877   23.1666 H   0  0  0  0  0  0  0  0  0  0  0  0
   20.7054   17.5678   23.9040 H   0  0  0  0  0  0  0  0  0  0  0  0
  1  2  1  0  0  0  0
  1  3  2  0  0  0  0
  1  4  1  0  0  0  0
  4  5  1  0  0  0  0
  4  6  1  0  0  0  0
  4  7  1  0  0  0  0
  7  8  1  0  0  0  0
  7  9  1  0  0  0  0
  7 10  1  0  0  0  0
 10 11  1  0  0  0  0
 10 12  1  0  0  0  0
 10 13  1  0  0  0  0
 13 14  1  0  0  0  0
 13 15  1  0  0  0  0
 13 16  1  0  0  0  0
 16 17  1  0  0  0  0
 16 18  1  0  0  0  0
 16 19  1  0  0  0  0
M  END
> <VConfSearch Rank>
470

> <Conf_Id>
73

> <Delta U+W>
3.707

> <U+W>
-51.184

> <U>
12.334

> <W>
-63.519

> <W(PB)>
-65.541

> <W(SA)>
2.022

> <Valence>
9.984

> <Coulomb>
1.768

> <VdW>
0.583

> <VdW6>
-7.767

> <VdW12>
8.350

> <Bond>
0.203

> <Angle>
3.192

> <Pdih>
6.589

> <Idih>
0.001

> <Tether>
0.000

$$$$
VeraChem MOL file


 19 18  0  0  0  0  0  0  0  0999 V2000     
   18.7852   18.4108   24.6719 C   0  0  0  0  0  0  0  0  0  0  0  0
   19.8055   18.4753   25.3288 O   0  5  0  0  0  0  0  0  0  0  0  0
   17.6900   18.7155   25.1018 O   0  0  0  0  0  0  0  0  0  0  0  0
   18.8763   17.8891   23.2405 C   0  0  0  0  0  0  0  0  0  0  0  0
   18.1198   17.1034   23.1307 H   0  0  0  0  0  0  0  0  0  0  0  0
   19.8496   17.4040   23.1041 H   0  0  0  0  0  0  0  0  0  0  0  0
   18.6504   18.9750   22.1533 C   0  0  0  0  0  0  0  0  0  0  0  0
   18.6592   18.5023   21.1627 H   0  0  0  0  0  0  0  0  0  0  0  0
   17.6424   19.3937   22.2786 H   0  0  0  0  0  0  0  0  0  0  0  0
   19.6769   20.1367   22.1854 C   0  0  0  0  0  0  0  0  0  0  0  0
   19.5748   20.6789   23.1355 H   0  0  0  0  0  0  0  0  0  0  0  0
   19.4184   20.8572   21.3976 H   0  0  0  0  0  0  0  0  0  0  0  0
   21.1563   19.7143   22.0116 C   0  0  0  0  0  0  0  0  0  0  0  0
   21.7853   20.6133   22.0683 H   0  0  0  0  0  0  0  0  0  0  0  0
   21.4669   19.0748   22.8489 H   0  0  0  0  0  0  0  0  0  0  0  0
   21.4350   18.9965   20.6735 C   0  0  0  0  0  0  0  0  0  0  0  0
   20.9128   18.0329   20.6216 H   0  0  0  0  0  0  0  0  0  0  0  0
   21.1113   19.6109   19.8233 H   0  0  0  0  0  0  0  0  0  0  0  0
   22.5088   18.7995   20.5597 H   0  0  0  0  0  0  0  0  0  0  0  0
  1  2  1  0  0  0  0
  1  3  2  0  0  0  0
  1  4  1  0  0  0  0
  4  5  1  0  0  0  0
  4  6  1  0  0  0  0
  4  7  1  0  0  0  0
  7  8  1  0  0  0  0
  7  9  1  0  0  0  0
  7 10  1  0  0  0  0
 10 11  1  0  0  0  0
 10 12  1  0  0  0  0
 10 13  1  0  0  0  0
 13 14  1  0  0  0  0
 13 15  1  0  0  0  0
 13 16  1  0  0  0  0
 16 17  1  0  0  0  0
 16 18  1  0  0  0  0
 16 19  1  0  0  0  0
M  END
> <VConfSearch Rank>
471

> <Conf_Id>
56

> <Delta U+W>
1.735

> <U+W>
-53.156

> <U>
10.214

> <W>
-63.370

> <W(PB)>
-65.388

> <W(SA)>
2.018

> <Valence>
7.868

> <Coulomb>
1.968

> <VdW>
0.378

> <VdW6>
-8.067

> <VdW12>
8.445

> <Bond>
0.191

> <Angle>
3.117

> <Pdih>
4.559

> <Idih>
0.001

> <Tether>
0.000

$$$$
VeraChem MOL file


 19 18  0  0  0  0  0  0  0  0999 V2000     
   22.0604   19.9516   20.5153 C   0  0  0  0  0  0  0  0  0  0  0  0
   23.0517   20.5232   20.9238 O   0  5  0  0  0  0  0  0  0  0  0  0
   21.7409   19.9146   19.3436 O   0  0  0  0  0  0  0  0  0  0  0  0
   21.1568   19.2617   21.5311 C   0  0  0  0  0  0  0  0  0  0  0  0
   21.7823   18.9064   22.3587 H   0  0  0  0  0  0  0  0  0  0  0  0
   20.7221   18.3818   21.0440 H   0  0  0  0  0  0  0  0  0  0  0  0
   20.0362   20.1888   22.0657 C   0  0  0  0  0  0  0  0  0  0  0  0
   20.4924   21.1242   22.4183 H   0  0  0  0  0  0  0  0  0  0  0  0
   19.3697   20.4652   21.2371 H   0  0  0  0  0  0  0  0  0  0  0  0
   19.2034   19.5826   23.2230 C   0  0  0  0  0  0  0  0  0  0  0  0
   18.4845   20.3472   23.5481 H   0  0  0  0  0  0  0  0  0  0  0  0
   19.8480   19.3908   24.0917 H   0  0  0  0  0  0  0  0  0  0  0  0
   18.4116   18.3047   22.8501 C   0  0  0  0  0  0  0  0  0  0  0  0
   17.4546   18.3154   23.3899 H   0  0  0  0  0  0  0  0  0  0  0  0
   18.1591   18.3110   21.7808 H   0  0  0  0  0  0  0  0  0  0  0  0
   19.1514   16.9994   23.2185 C   0  0  0  0  0  0  0  0  0  0  0  0
   18.5434   16.1256   22.9511 H   0  0  0  0  0  0  0  0  0  0  0  0
   20.1106   16.9115   22.6962 H   0  0  0  0  0  0  0  0  0  0  0  0
   19.3478   16.9536   24.2976 H   0  0  0  0  0  0  0  0  0  0  0  0
  1  2  1  0  0  0  0
  1  3  2  0  0  0  0
  1  4  1  0  0  0  0
  4  5  1  0  0  0  0
  4  6  1  0  0  0  0
  4  7  1  0  0  0  0
  7  8  1  0  0  0  0
  7  9  1  0  0  0  0
  7 10  1  0  0  0  0
 10 11  1  0  0  0  0
 10 12  1  0  0  0  0
 10 13  1  0  0  0  0
 13 14  1  0  0  0  0
 13 15  1  0  0  0  0
 13 16  1  0  0  0  0
 16 17  1  0  0  0  0
 16 18  1  0  0  0  0
 16 19  1  0  0  0  0
M  END
> <VConfSearch Rank>
472

> <Conf_Id>
53

> <Delta U+W>
2.279

> <U+W>
-52.612

> <U>
10.231

> <W>
-62.843

> <W(PB)>
-64.893

> <W(SA)>
2.050

> <Valence>
9.644

> <Coulomb>
-0.164

> <VdW>
0.751

> <VdW6>
-6.881

> <VdW12>
7.631

> <Bond>
0.163

> <Angle>
2.998

> <Pdih>
6.482

> <Idih>
0.001

> <Tether>
0.000

$$$$
VeraChem MOL file


 19 18  0  0  0  0  0  0  0  0999 V2000     
   20.2029   16.7143   23.5241 C   0  0  0  0  0  0  0  0  0  0  0  0
   19.0892   16.6076   23.9987 O   0  5  0  0  0  0  0  0  0  0  0  0
   21.2221   16.6119   24.1783 O   0  0  0  0  0  0  0  0  0  0  0  0
   20.3265   16.9179   22.0152 C   0  0  0  0  0  0  0  0  0  0  0  0
   19.3226   16.9326   21.5737 H   0  0  0  0  0  0  0  0  0  0  0  0
   20.8280   16.0252   21.6238 H   0  0  0  0  0  0  0  0  0  0  0  0
   21.1249   18.1784   21.5784 C   0  0  0  0  0  0  0  0  0  0  0  0
   22.0408   18.2684   22.1788 H   0  0  0  0  0  0  0  0  0  0  0  0
   21.4567   18.0270   20.5424 H   0  0  0  0  0  0  0  0  0  0  0  0
   20.3248   19.5036   21.6281 C   0  0  0  0  0  0  0  0  0  0  0  0
   19.4146   19.4092   21.0203 H   0  0  0  0  0  0  0  0  0  0  0  0
   20.9318   20.2876   21.1547 H   0  0  0  0  0  0  0  0  0  0  0  0
   19.9509   19.9606   23.0553 C   0  0  0  0  0  0  0  0  0  0  0  0
   19.2367   19.2568   23.5012 H   0  0  0  0  0  0  0  0  0  0  0  0
   20.8455   19.9587   23.6934 H   0  0  0  0  0  0  0  0  0  0  0  0
   19.3247   21.3698   23.0519 C   0  0  0  0  0  0  0  0  0  0  0  0
   18.4129   21.3922   22.4409 H   0  0  0  0  0  0  0  0  0  0  0  0
   19.0571   21.6759   24.0716 H   0  0  0  0  0  0  0  0  0  0  0  0
   20.0266   22.1115   22.6489 H   0  0  0  0  0  0  0  0  0  0  0  0
  1  2  1  0  0  0  0
  1  3  2  0  0  0  0
  1  4  1  0  0  0  0
  4  5  1  0  0  0  0
  4  6  1  0  0  0  0
  4  7  1  0  0  0  0
  7  8  1  0  0  0  0
  7  9  1  0  0  0  0
  7 10  1  0  0  0  0
 10 11  1  0  0  0  0
 10 12  1  0  0  0  0
 10 13  1  0  0  0  0
 13 14  1  0  0  0  0
 13 15  1  0  0  0  0
 13 16  1  0  0  0  0
 16 17  1  0  0  0  0
 16 18  1  0  0  0  0
 16 19  1  0  0  0  0
M  END
> <VConfSearch Rank>
473

> <Conf_Id>
25

> <Delta U+W>
2.065

> <U+W>
-52.826

> <U>
10.967

> <W>
-63.794

> <W(PB)>
-65.830

> <W(SA)>
2.036

> <Valence>
8.609

> <Coulomb>
1.892

> <VdW>
0.467

> <VdW6>
-7.569

> <VdW12>
8.036

> <Bond>
0.170

> <Angle>
3.195

> <Pdih>
5.237

> <Idih>
0.007

> <Tether>
0.000

$$$$
VeraChem MOL file


 19 18  0  0  0  0  0  0  0  0999 V2000     
   19.7639   17.9364   24.7179 C   0  0  0  0  0  0  0  0  0  0  0  0
   19.9318   16.7335   24.6708 O   0  5  0  0  0  0  0  0  0  0  0  0
   18.7230   18.4536   25.0727 O   0  0  0  0  0  0  0  0  0  0  0  0
   20.9430   18.8474   24.3814 C   0  0  0  0  0  0  0  0  0  0  0  0
   21.7172   18.6382   25.1287 H   0  0  0  0  0  0  0  0  0  0  0  0
   20.6403   19.8914   24.5274 H   0  0  0  0  0  0  0  0  0  0  0  0
   21.5463   18.6556   22.9615 C   0  0  0  0  0  0  0  0  0  0  0  0
   22.5648   19.0669   22.9678 H   0  0  0  0  0  0  0  0  0  0  0  0
   21.6546   17.5843   22.7420 H   0  0  0  0  0  0  0  0  0  0  0  0
   20.7629   19.3546   21.8229 C   0  0  0  0  0  0  0  0  0  0  0  0
   21.3599   19.2837   20.9034 H   0  0  0  0  0  0  0  0  0  0  0  0
   20.6646   20.4259   22.0451 H   0  0  0  0  0  0  0  0  0  0  0  0
   19.3671   18.7498   21.5551 C   0  0  0  0  0  0  0  0  0  0  0  0
   19.4502   17.6610   21.4326 H   0  0  0  0  0  0  0  0  0  0  0  0
   18.7085   18.9270   22.4149 H   0  0  0  0  0  0  0  0  0  0  0  0
   18.7180   19.3609   20.2970 C   0  0  0  0  0  0  0  0  0  0  0  0
   17.7242   18.9272   20.1258 H   0  0  0  0  0  0  0  0  0  0  0  0
   18.5999   20.4471   20.4049 H   0  0  0  0  0  0  0  0  0  0  0  0
   19.3295   19.1687   19.4057 H   0  0  0  0  0  0  0  0  0  0  0  0
  1  2  1  0  0  0  0
  1  3  2  0  0  0  0
  1  4  1  0  0  0  0
  4  5  1  0  0  0  0
  4  6  1  0  0  0  0
  4  7  1  0  0  0  0
  7  8  1  0  0  0  0
  7  9  1  0  0  0  0
  7 10  1  0  0  0  0
 10 11  1  0  0  0  0
 10 12  1  0  0  0  0
 10 13  1  0  0  0  0
 13 14  1  0  0  0  0
 13 15  1  0  0  0  0
 13 16  1  0  0  0  0
 16 17  1  0  0  0  0
 16 18  1  0  0  0  0
 16 19  1  0  0  0  0
M  END
> <VConfSearch Rank>
474

> <Conf_Id>
52

> <Delta U+W>
2.070

> <U+W>
-52.822

> <U>
10.967

> <W>
-63.789

> <W(PB)>
-65.837

> <W(SA)>
2.048

> <Valence>
8.609

> <Coulomb>
1.892

> <VdW>
0.467

> <VdW6>
-7.569

> <VdW12>
8.035

> <Bond>
0.170

> <Angle>
3.196

> <Pdih>
5.237

> <Idih>
0.007

> <Tether>
0.000

$$$$
VeraChem MOL file


 19 18  0  0  0  0  0  0  0  0999 V2000     
   18.7409   20.6135   21.9789 C   0  0  0  0  0  0  0  0  0  0  0  0
   19.2919   21.0691   20.9956 O   0  5  0  0  0  0  0  0  0  0  0  0
   17.5529   20.3611   22.0185 O   0  0  0  0  0  0  0  0  0  0  0  0
   19.5470   20.4670   23.2705 C   0  0  0  0  0  0  0  0  0  0  0  0
   18.9512   19.9081   24.0022 H   0  0  0  0  0  0  0  0  0  0  0  0
   19.6631   21.4804   23.6714 H   0  0  0  0  0  0  0  0  0  0  0  0
   20.9546   19.8226   23.1194 C   0  0  0  0  0  0  0  0  0  0  0  0
   21.4474   20.2049   22.2148 H   0  0  0  0  0  0  0  0  0  0  0  0
   21.5731   20.1626   23.9609 H   0  0  0  0  0  0  0  0  0  0  0  0
   20.9799   18.2726   23.1194 C   0  0  0  0  0  0  0  0  0  0  0  0
   20.5787   17.8908   24.0683 H   0  0  0  0  0  0  0  0  0  0  0  0
   22.0330   17.9604   23.0968 H   0  0  0  0  0  0  0  0  0  0  0  0
   20.2577   17.6064   21.9233 C   0  0  0  0  0  0  0  0  0  0  0  0
   20.1877   18.3058   21.0788 H   0  0  0  0  0  0  0  0  0  0  0  0
   20.8641   16.7615   21.5689 H   0  0  0  0  0  0  0  0  0  0  0  0
   18.8581   17.0706   22.2937 C   0  0  0  0  0  0  0  0  0  0  0  0
   18.9279   16.2968   23.0692 H   0  0  0  0  0  0  0  0  0  0  0  0
   18.2086   17.8695   22.6701 H   0  0  0  0  0  0  0  0  0  0  0  0
   18.3711   16.6264   21.4162 H   0  0  0  0  0  0  0  0  0  0  0  0
  1  2  1  0  0  0  0
  1  3  2  0  0  0  0
  1  4  1  0  0  0  0
  4  5  1  0  0  0  0
  4  6  1  0  0  0  0
  4  7  1  0  0  0  0
  7  8  1  0  0  0  0
  7  9  1  0  0  0  0
  7 10  1  0  0  0  0
 10 11  1  0  0  0  0
 10 12  1  0  0  0  0
 10 13  1  0  0  0  0
 13 14  1  0  0  0  0
 13 15  1  0  0  0  0
 13 16  1  0  0  0  0
 16 17  1  0  0  0  0
 16 18  1  0  0  0  0
 16 19  1  0  0  0  0
M  END
> <VConfSearch Rank>
475

> <Conf_Id>
66

> <Delta U+W>
5.819

> <U+W>
-49.072

> <U>
15.324

> <W>
-64.396

> <W(PB)>
-66.382

> <W(SA)>
1.986

> <Valence>
11.748

> <Coulomb>
3.201

> <VdW>
0.375

> <VdW6>
-8.854

> <VdW12>
9.229

> <Bond>
0.216

> <Angle>
3.812

> <Pdih>
7.699

> <Idih>
0.022

> <Tether>
0.000

$$$$
VeraChem MOL file


 19 18  0  0  0  0  0  0  0  0999 V2000     
   20.0225   17.2972   25.1468 C   0  0  0  0  0  0  0  0  0  0  0  0
   19.6690   16.2617   25.6744 O   0  5  0  0  0  0  0  0  0  0  0  0
   20.6069   18.1803   25.7440 O   0  0  0  0  0  0  0  0  0  0  0  0
   19.7026   17.4682   23.6608 C   0  0  0  0  0  0  0  0  0  0  0  0
   18.6170   17.3669   23.5461 H   0  0  0  0  0  0  0  0  0  0  0  0
   20.1614   16.6267   23.1284 H   0  0  0  0  0  0  0  0  0  0  0  0
   20.1736   18.8061   23.0309 C   0  0  0  0  0  0  0  0  0  0  0  0
   19.7151   19.6452   23.5724 H   0  0  0  0  0  0  0  0  0  0  0  0
   21.2611   18.9041   23.1544 H   0  0  0  0  0  0  0  0  0  0  0  0
   19.8108   18.8944   21.5326 C   0  0  0  0  0  0  0  0  0  0  0  0
   18.7232   18.7960   21.4115 H   0  0  0  0  0  0  0  0  0  0  0  0
   20.2701   18.0546   20.9933 H   0  0  0  0  0  0  0  0  0  0  0  0
   20.2798   20.2251   20.9085 C   0  0  0  0  0  0  0  0  0  0  0  0
   19.8210   21.0678   21.4441 H   0  0  0  0  0  0  0  0  0  0  0  0
   21.3677   20.3264   21.0258 H   0  0  0  0  0  0  0  0  0  0  0  0
   19.9159   20.3099   19.4127 C   0  0  0  0  0  0  0  0  0  0  0  0
   18.8296   20.2429   19.2683 H   0  0  0  0  0  0  0  0  0  0  0  0
   20.2565   21.2619   18.9851 H   0  0  0  0  0  0  0  0  0  0  0  0
   20.3879   19.4960   18.8468 H   0  0  0  0  0  0  0  0  0  0  0  0
  1  2  1  0  0  0  0
  1  3  2  0  0  0  0
  1  4  1  0  0  0  0
  4  5  1  0  0  0  0
  4  6  1  0  0  0  0
  4  7  1  0  0  0  0
  7  8  1  0  0  0  0
  7  9  1  0  0  0  0
  7 10  1  0  0  0  0
 10 11  1  0  0  0  0
 10 12  1  0  0  0  0
 10 13  1  0  0  0  0
 13 14  1  0  0  0  0
 13 15  1  0  0  0  0
 13 16  1  0  0  0  0
 16 17  1  0  0  0  0
 16 18  1  0  0  0  0
 16 19  1  0  0  0  0
M  END
> <VConfSearch Rank>
476

> <Conf_Id>
0

> <Delta U+W>
0.000

> <U+W>
-54.891

> <U>
6.966

> <W>
-61.857

> <W(PB)>
-63.965

> <W(SA)>
2.108

> <Valence>
7.175

> <Coulomb>
-1.360

> <VdW>
1.151

> <VdW6>
-5.641

> <VdW12>
6.792

> <Bond>
0.119

> <Angle>
2.715

> <Pdih>
4.340

> <Idih>
0.000

> <Tether>
0.000

$$$$
VeraChem MOL file


 19 18  0  0  0  0  0  0  0  0999 V2000     
   23.3051   18.8083   22.3747 C   0  0  0  0  0  0  0  0  0  0  0  0
   23.8952   18.8643   21.3142 O   0  5  0  0  0  0  0  0  0  0  0  0
   23.7623   19.2226   23.4215 O   0  0  0  0  0  0  0  0  0  0  0  0
   21.9057   18.2035   22.3893 C   0  0  0  0  0  0  0  0  0  0  0  0
   21.7554   17.7153   23.3597 H   0  0  0  0  0  0  0  0  0  0  0  0
   21.8648   17.4204   21.6227 H   0  0  0  0  0  0  0  0  0  0  0  0
   20.7938   19.2525   22.1411 C   0  0  0  0  0  0  0  0  0  0  0  0
   20.8562   20.0359   22.9091 H   0  0  0  0  0  0  0  0  0  0  0  0
   20.9657   19.7411   21.1720 H   0  0  0  0  0  0  0  0  0  0  0  0
   19.3878   18.6151   22.1606 C   0  0  0  0  0  0  0  0  0  0  0  0
   19.2195   18.1262   23.1301 H   0  0  0  0  0  0  0  0  0  0  0  0
   19.3290   17.8315   21.3927 H   0  0  0  0  0  0  0  0  0  0  0  0
   18.2821   19.6623   21.9133 C   0  0  0  0  0  0  0  0  0  0  0  0
   18.3364   20.4469   22.6806 H   0  0  0  0  0  0  0  0  0  0  0  0
   18.4459   20.1521   20.9434 H   0  0  0  0  0  0  0  0  0  0  0  0
   16.8796   19.0224   21.9335 C   0  0  0  0  0  0  0  0  0  0  0  0
   16.1059   19.7807   21.7561 H   0  0  0  0  0  0  0  0  0  0  0  0
   16.7868   18.2547   21.1541 H   0  0  0  0  0  0  0  0  0  0  0  0
   16.6765   18.5517   22.9044 H   0  0  0  0  0  0  0  0  0  0  0  0
  1  2  1  0  0  0  0
  1  3  2  0  0  0  0
  1  4  1  0  0  0  0
  4  5  1  0  0  0  0
  4  6  1  0  0  0  0
  4  7  1  0  0  0  0
  7  8  1  0  0  0  0
  7  9  1  0  0  0  0
  7 10  1  0  0  0  0
 10 11  1  0  0  0  0
 10 12  1  0  0  0  0
 10 13  1  0  0  0  0
 13 14  1  0  0  0  0
 13 15  1  0  0  0  0
 13 16  1  0  0  0  0
 16 17  1  0  0  0  0
 16 18  1  0  0  0  0
 16 19  1  0  0  0  0
M  END
> <VConfSearch Rank>
477

> <Conf_Id>
18

> <Delta U+W>
-1.199

> <U+W>
-56.090

> <U>
5.975

> <W>
-62.066

> <W(PB)>
-64.219

> <W(SA)>
2.153

> <Valence>
6.673

> <Coulomb>
-1.307

> <VdW>
0.610

> <VdW6>
-5.351

> <VdW12>
5.961

> <Bond>
0.086

> <Angle>
2.253

> <Pdih>
4.333

> <Idih>
0.001

> <Tether>
0.000

$$$$
VeraChem MOL file


 19 18  0  0  0  0  0  0  0  0999 V2000     
   21.4104   20.2701   19.6408 C   0  0  0  0  0  0  0  0  0  0  0  0
   22.5434   20.0096   19.2876 O   0  5  0  0  0  0  0  0  0  0  0  0
   20.5884   20.8042   18.9229 O   0  0  0  0  0  0  0  0  0  0  0  0
   20.9908   19.8863   21.0554 C   0  0  0  0  0  0  0  0  0  0  0  0
   20.2677   20.6328   21.4027 H   0  0  0  0  0  0  0  0  0  0  0  0
   21.8722   19.9604   21.7037 H   0  0  0  0  0  0  0  0  0  0  0  0
   20.3860   18.4605   21.1361 C   0  0  0  0  0  0  0  0  0  0  0  0
   19.4790   18.4111   20.5179 H   0  0  0  0  0  0  0  0  0  0  0  0
   21.0997   17.7496   20.6970 H   0  0  0  0  0  0  0  0  0  0  0  0
   20.0606   18.0082   22.5794 C   0  0  0  0  0  0  0  0  0  0  0  0
   20.9711   18.0506   23.1926 H   0  0  0  0  0  0  0  0  0  0  0  0
   19.7524   16.9540   22.5532 H   0  0  0  0  0  0  0  0  0  0  0  0
   18.9436   18.8413   23.2471 C   0  0  0  0  0  0  0  0  0  0  0  0
   19.2623   19.8866   23.3524 H   0  0  0  0  0  0  0  0  0  0  0  0
   18.0491   18.8410   22.6091 H   0  0  0  0  0  0  0  0  0  0  0  0
   18.5798   18.2858   24.6387 C   0  0  0  0  0  0  0  0  0  0  0  0
   17.7879   18.8893   25.1010 H   0  0  0  0  0  0  0  0  0  0  0  0
   18.2192   17.2513   24.5672 H   0  0  0  0  0  0  0  0  0  0  0  0
   19.4509   18.3001   25.3069 H   0  0  0  0  0  0  0  0  0  0  0  0
  1  2  1  0  0  0  0
  1  3  2  0  0  0  0
  1  4  1  0  0  0  0
  4  5  1  0  0  0  0
  4  6  1  0  0  0  0
  4  7  1  0  0  0  0
  7  8  1  0  0  0  0
  7  9  1  0  0  0  0
  7 10  1  0  0  0  0
 10 11  1  0  0  0  0
 10 12  1  0  0  0  0
 10 13  1  0  0  0  0
 13 14  1  0  0  0  0
 13 15  1  0  0  0  0
 13 16  1  0  0  0  0
 16 17  1  0  0  0  0
 16 18  1  0  0  0  0
 16 19  1  0  0  0  0
M  END
> <VConfSearch Rank>
478

> <Conf_Id>
34

> <Delta U+W>
-0.563

> <U+W>
-55.455

> <U>
6.914

> <W>
-62.369

> <W(PB)>
-64.446

> <W(SA)>
2.077

> <Valence>
7.196

> <Coulomb>
-1.020

> <VdW>
0.738

> <VdW6>
-6.010

> <VdW12>
6.748

> <Bond>
0.126

> <Angle>
2.499

> <Pdih>
4.570

> <Idih>
0.001

> <Tether>
0.000

$$$$
VeraChem MOL file


 19 18  0  0  0  0  0  0  0  0999 V2000     
   20.8047   18.7344   25.2833 C   0  0  0  0  0  0  0  0  0  0  0  0
   21.6405   19.4489   25.8004 O   0  5  0  0  0  0  0  0  0  0  0  0
   20.4263   17.6851   25.7650 O   0  0  0  0  0  0  0  0  0  0  0  0
   20.2147   19.1677   23.9460 C   0  0  0  0  0  0  0  0  0  0  0  0
   20.1888   20.2638   23.9245 H   0  0  0  0  0  0  0  0  0  0  0  0
   19.1772   18.8169   23.9101 H   0  0  0  0  0  0  0  0  0  0  0  0
   21.0165   18.6280   22.7331 C   0  0  0  0  0  0  0  0  0  0  0  0
   22.0693   18.9210   22.8481 H   0  0  0  0  0  0  0  0  0  0  0  0
   20.9979   17.5294   22.7405 H   0  0  0  0  0  0  0  0  0  0  0  0
   20.5026   19.1507   21.3707 C   0  0  0  0  0  0  0  0  0  0  0  0
   21.1950   18.8171   20.5857 H   0  0  0  0  0  0  0  0  0  0  0  0
   20.5305   20.2489   21.3635 H   0  0  0  0  0  0  0  0  0  0  0  0
   19.0779   18.6636   21.0236 C   0  0  0  0  0  0  0  0  0  0  0  0
   19.0369   17.5671   21.0806 H   0  0  0  0  0  0  0  0  0  0  0  0
   18.3567   19.0501   21.7555 H   0  0  0  0  0  0  0  0  0  0  0  0
   18.6533   19.1189   19.6131 C   0  0  0  0  0  0  0  0  0  0  0  0
   18.6589   20.2141   19.5360 H   0  0  0  0  0  0  0  0  0  0  0  0
   19.3322   18.7177   18.8492 H   0  0  0  0  0  0  0  0  0  0  0  0
   17.6389   18.7681   19.3825 H   0  0  0  0  0  0  0  0  0  0  0  0
  1  2  1  0  0  0  0
  1  3  2  0  0  0  0
  1  4  1  0  0  0  0
  4  5  1  0  0  0  0
  4  6  1  0  0  0  0
  4  7  1  0  0  0  0
  7  8  1  0  0  0  0
  7  9  1  0  0  0  0
  7 10  1  0  0  0  0
 10 11  1  0  0  0  0
 10 12  1  0  0  0  0
 10 13  1  0  0  0  0
 13 14  1  0  0  0  0
 13 15  1  0  0  0  0
 13 16  1  0  0  0  0
 16 17  1  0  0  0  0
 16 18  1  0  0  0  0
 16 19  1  0  0  0  0
M  END
> <VConfSearch Rank>
479

> <Conf_Id>
33

> <Delta U+W>
-0.526

> <U+W>
-55.418

> <U>
6.914

> <W>
-62.332

> <W(PB)>
-64.421

> <W(SA)>
2.090

> <Valence>
7.196

> <Coulomb>
-1.020

> <VdW>
0.738

> <VdW6>
-6.010

> <VdW12>
6.748

> <Bond>
0.126

> <Angle>
2.499

> <Pdih>
4.570

> <Idih>
0.001

> <Tether>
0.000

$$$$
VeraChem MOL file


 19 18  0  0  0  0  0  0  0  0999 V2000     
   19.9439   15.9125   21.3485 C   0  0  0  0  0  0  0  0  0  0  0  0
   20.3866   15.8186   20.2209 O   0  5  0  0  0  0  0  0  0  0  0  0
   20.1327   15.0833   22.2163 O   0  0  0  0  0  0  0  0  0  0  0  0
   19.1209   17.1472   21.6988 C   0  0  0  0  0  0  0  0  0  0  0  0
   18.3671   16.8550   22.4398 H   0  0  0  0  0  0  0  0  0  0  0  0
   18.5832   17.4657   20.7976 H   0  0  0  0  0  0  0  0  0  0  0  0
   19.9842   18.3114   22.2445 C   0  0  0  0  0  0  0  0  0  0  0  0
   20.5232   17.9743   23.1406 H   0  0  0  0  0  0  0  0  0  0  0  0
   20.7421   18.5736   21.4945 H   0  0  0  0  0  0  0  0  0  0  0  0
   19.1250   19.5502   22.5878 C   0  0  0  0  0  0  0  0  0  0  0  0
   18.3292   19.2516   23.2838 H   0  0  0  0  0  0  0  0  0  0  0  0
   18.6245   19.9168   21.6812 H   0  0  0  0  0  0  0  0  0  0  0  0
   19.9346   20.6993   23.2318 C   0  0  0  0  0  0  0  0  0  0  0  0
   19.2372   21.4861   23.5509 H   0  0  0  0  0  0  0  0  0  0  0  0
   20.4324   20.3380   24.1423 H   0  0  0  0  0  0  0  0  0  0  0  0
   20.9800   21.3186   22.2792 C   0  0  0  0  0  0  0  0  0  0  0  0
   20.5093   21.6610   21.3484 H   0  0  0  0  0  0  0  0  0  0  0  0
   21.4642   22.1835   22.7510 H   0  0  0  0  0  0  0  0  0  0  0  0
   21.7659   20.5972   22.0231 H   0  0  0  0  0  0  0  0  0  0  0  0
  1  2  1  0  0  0  0
  1  3  2  0  0  0  0
  1  4  1  0  0  0  0
  4  5  1  0  0  0  0
  4  6  1  0  0  0  0
  4  7  1  0  0  0  0
  7  8  1  0  0  0  0
  7  9  1  0  0  0  0
  7 10  1  0  0  0  0
 10 11  1  0  0  0  0
 10 12  1  0  0  0  0
 10 13  1  0  0  0  0
 13 14  1  0  0  0  0
 13 15  1  0  0  0  0
 13 16  1  0  0  0  0
 16 17  1  0  0  0  0
 16 18  1  0  0  0  0
 16 19  1  0  0  0  0
M  END
> <VConfSearch Rank>
480

> <Conf_Id>
42

> <Delta U+W>
-0.344

> <U+W>
-55.236

> <U>
7.244

> <W>
-62.479

> <W(PB)>
-64.610

> <W(SA)>
2.130

> <Valence>
7.174

> <Coulomb>
-0.669

> <VdW>
0.739

> <VdW6>
-5.969

> <VdW12>
6.708

> <Bond>
0.116

> <Angle>
2.481

> <Pdih>
4.576

> <Idih>
0.000

> <Tether>
0.000

$$$$
VeraChem MOL file


 19 18  0  0  0  0  0  0  0  0999 V2000     
   21.2474   17.9421   19.4720 C   0  0  0  0  0  0  0  0  0  0  0  0
   20.9289   18.7100   18.5860 O   0  5  0  0  0  0  0  0  0  0  0  0
   21.3551   16.7421   19.3154 O   0  0  0  0  0  0  0  0  0  0  0  0
   21.5087   18.5135   20.8612 C   0  0  0  0  0  0  0  0  0  0  0  0
   21.9214   19.5226   20.7428 H   0  0  0  0  0  0  0  0  0  0  0  0
   22.2817   17.9014   21.3413 H   0  0  0  0  0  0  0  0  0  0  0  0
   20.2366   18.5574   21.7433 C   0  0  0  0  0  0  0  0  0  0  0  0
   19.4719   19.1590   21.2345 H   0  0  0  0  0  0  0  0  0  0  0  0
   19.8302   17.5416   21.8446 H   0  0  0  0  0  0  0  0  0  0  0  0
   20.5298   19.1439   23.1436 C   0  0  0  0  0  0  0  0  0  0  0  0
   20.8897   20.1772   23.0445 H   0  0  0  0  0  0  0  0  0  0  0  0
   21.3461   18.5728   23.6066 H   0  0  0  0  0  0  0  0  0  0  0  0
   19.3085   19.1106   24.0911 C   0  0  0  0  0  0  0  0  0  0  0  0
   18.9489   18.0778   24.1972 H   0  0  0  0  0  0  0  0  0  0  0  0
   19.6296   19.4317   25.0916 H   0  0  0  0  0  0  0  0  0  0  0  0
   18.1496   20.0188   23.6262 C   0  0  0  0  0  0  0  0  0  0  0  0
   17.7187   19.6663   22.6808 H   0  0  0  0  0  0  0  0  0  0  0  0
   17.3462   20.0287   24.3741 H   0  0  0  0  0  0  0  0  0  0  0  0
   18.4925   21.0521   23.4849 H   0  0  0  0  0  0  0  0  0  0  0  0
  1  2  1  0  0  0  0
  1  3  2  0  0  0  0
  1  4  1  0  0  0  0
  4  5  1  0  0  0  0
  4  6  1  0  0  0  0
  4  7  1  0  0  0  0
  7  8  1  0  0  0  0
  7  9  1  0  0  0  0
  7 10  1  0  0  0  0
 10 11  1  0  0  0  0
 10 12  1  0  0  0  0
 10 13  1  0  0  0  0
 13 14  1  0  0  0  0
 13 15  1  0  0  0  0
 13 16  1  0  0  0  0
 16 17  1  0  0  0  0
 16 18  1  0  0  0  0
 16 19  1  0  0  0  0
M  END
> <VConfSearch Rank>
481

> <Conf_Id>
41

> <Delta U+W>
-0.361

> <U+W>
-55.252

> <U>
7.244

> <W>
-62.496

> <W(PB)>
-64.596

> <W(SA)>
2.099

> <Valence>
7.174

> <Coulomb>
-0.669

> <VdW>
0.739

> <VdW6>
-5.969

> <VdW12>
6.708

> <Bond>
0.116

> <Angle>
2.481

> <Pdih>
4.576

> <Idih>
0.000

> <Tether>
0.000

$$$$
VeraChem MOL file


 19 18  0  0  0  0  0  0  0  0999 V2000     
   17.1086   19.6200   21.7061 C   0  0  0  0  0  0  0  0  0  0  0  0
   16.7807   20.1849   22.7307 O   0  5  0  0  0  0  0  0  0  0  0  0
   16.9411   20.0886   20.5974 O   0  0  0  0  0  0  0  0  0  0  0  0
   17.7455   18.2372   21.8138 C   0  0  0  0  0  0  0  0  0  0  0  0
   17.2517   17.5906   21.0789 H   0  0  0  0  0  0  0  0  0  0  0  0
   17.5189   17.8231   22.8038 H   0  0  0  0  0  0  0  0  0  0  0  0
   19.2765   18.2262   21.5668 C   0  0  0  0  0  0  0  0  0  0  0  0
   19.6233   17.1847   21.5257 H   0  0  0  0  0  0  0  0  0  0  0  0
   19.4898   18.6697   20.5842 H   0  0  0  0  0  0  0  0  0  0  0  0
   20.0608   18.9812   22.6632 C   0  0  0  0  0  0  0  0  0  0  0  0
   19.8342   18.5426   23.6447 H   0  0  0  0  0  0  0  0  0  0  0  0
   19.7316   20.0289   22.6992 H   0  0  0  0  0  0  0  0  0  0  0  0
   21.5827   18.9305   22.4144 C   0  0  0  0  0  0  0  0  0  0  0  0
   21.9186   17.8848   22.3817 H   0  0  0  0  0  0  0  0  0  0  0  0
   21.8125   19.3709   21.4342 H   0  0  0  0  0  0  0  0  0  0  0  0
   22.3624   19.6845   23.5101 C   0  0  0  0  0  0  0  0  0  0  0  0
   22.1754   19.2447   24.4985 H   0  0  0  0  0  0  0  0  0  0  0  0
   23.4422   19.6389   23.3175 H   0  0  0  0  0  0  0  0  0  0  0  0
   22.0684   20.7418   23.5441 H   0  0  0  0  0  0  0  0  0  0  0  0
  1  2  1  0  0  0  0
  1  3  2  0  0  0  0
  1  4  1  0  0  0  0
  4  5  1  0  0  0  0
  4  6  1  0  0  0  0
  4  7  1  0  0  0  0
  7  8  1  0  0  0  0
  7  9  1  0  0  0  0
  7 10  1  0  0  0  0
 10 11  1  0  0  0  0
 10 12  1  0  0  0  0
 10 13  1  0  0  0  0
 13 14  1  0  0  0  0
 13 15  1  0  0  0  0
 13 16  1  0  0  0  0
 16 17  1  0  0  0  0
 16 18  1  0  0  0  0
 16 19  1  0  0  0  0
M  END
> <VConfSearch Rank>
482

> <Conf_Id>
36

> <Delta U+W>
-0.079

> <U+W>
-54.971

> <U>
8.266

> <W>
-63.237

> <W(PB)>
-65.340

> <W(SA)>
2.103

> <Valence>
6.935

> <Coulomb>
0.874

> <VdW>
0.457

> <VdW6>
-6.205

> <VdW12>
6.662

> <Bond>
0.107

> <Angle>
2.420

> <Pdih>
4.407

> <Idih>
0.001

> <Tether>
0.000

$$$$
VeraChem MOL file


 19 18  0  0  0  0  0  0  0  0999 V2000     
   18.9267   17.4312   20.2424 C   0  0  0  0  0  0  0  0  0  0  0  0
   19.4288   17.9705   19.2761 O   0  5  0  0  0  0  0  0  0  0  0  0
   17.7309   17.2543   20.3671 O   0  0  0  0  0  0  0  0  0  0  0  0
   19.8477   16.9287   21.3508 C   0  0  0  0  0  0  0  0  0  0  0  0
   20.8662   16.8502   20.9514 H   0  0  0  0  0  0  0  0  0  0  0  0
   19.5280   15.9117   21.6068 H   0  0  0  0  0  0  0  0  0  0  0  0
   19.8397   17.8103   22.6266 C   0  0  0  0  0  0  0  0  0  0  0  0
   18.8097   17.9031   22.9983 H   0  0  0  0  0  0  0  0  0  0  0  0
   20.4153   17.3039   23.4132 H   0  0  0  0  0  0  0  0  0  0  0  0
   20.4366   19.2144   22.3825 C   0  0  0  0  0  0  0  0  0  0  0  0
   19.8554   19.7344   21.6084 H   0  0  0  0  0  0  0  0  0  0  0  0
   21.4613   19.1161   21.9988 H   0  0  0  0  0  0  0  0  0  0  0  0
   20.4475   20.0624   23.6715 C   0  0  0  0  0  0  0  0  0  0  0  0
   19.4233   20.1644   24.0562 H   0  0  0  0  0  0  0  0  0  0  0  0
   21.0311   19.5492   24.4483 H   0  0  0  0  0  0  0  0  0  0  0  0
   21.0436   21.4627   23.4246 C   0  0  0  0  0  0  0  0  0  0  0  0
   20.4600   22.0110   22.6735 H   0  0  0  0  0  0  0  0  0  0  0  0
   21.0433   22.0521   24.3507 H   0  0  0  0  0  0  0  0  0  0  0  0
   22.0797   21.3912   23.0685 H   0  0  0  0  0  0  0  0  0  0  0  0
  1  2  1  0  0  0  0
  1  3  2  0  0  0  0
  1  4  1  0  0  0  0
  4  5  1  0  0  0  0
  4  6  1  0  0  0  0
  4  7  1  0  0  0  0
  7  8  1  0  0  0  0
  7  9  1  0  0  0  0
  7 10  1  0  0  0  0
 10 11  1  0  0  0  0
 10 12  1  0  0  0  0
 10 13  1  0  0  0  0
 13 14  1  0  0  0  0
 13 15  1  0  0  0  0
 13 16  1  0  0  0  0
 16 17  1  0  0  0  0
 16 18  1  0  0  0  0
 16 19  1  0  0  0  0
M  END
> <VConfSearch Rank>
483

> <Conf_Id>
35

> <Delta U+W>
-0.030

> <U+W>
-54.921

> <U>
8.267

> <W>
-63.188

> <W(PB)>
-65.294

> <W(SA)>
2.106

> <Valence>
6.935

> <Coulomb>
0.875

> <VdW>
0.457

> <VdW6>
-6.205

> <VdW12>
6.662

> <Bond>
0.107

> <Angle>
2.420

> <Pdih>
4.407

> <Idih>
0.001

> <Tether>
0.000

$$$$
VeraChem MOL file


 19 18  0  0  0  0  0  0  0  0999 V2000     
   18.7398   20.4516   20.2338 C   0  0  0  0  0  0  0  0  0  0  0  0
   18.9969   21.6381   20.2866 O   0  5  0  0  0  0  0  0  0  0  0  0
   17.6117   20.0130   20.1258 O   0  0  0  0  0  0  0  0  0  0  0  0
   19.8999   19.4611   20.2839 C   0  0  0  0  0  0  0  0  0  0  0  0
   20.6721   19.8266   19.5968 H   0  0  0  0  0  0  0  0  0  0  0  0
   19.5554   18.4971   19.8902 H   0  0  0  0  0  0  0  0  0  0  0  0
   20.5118   19.2738   21.6968 C   0  0  0  0  0  0  0  0  0  0  0  0
   21.4245   18.6715   21.6038 H   0  0  0  0  0  0  0  0  0  0  0  0
   20.8159   20.2520   22.0942 H   0  0  0  0  0  0  0  0  0  0  0  0
   19.5343   18.5883   22.6813 C   0  0  0  0  0  0  0  0  0  0  0  0
   19.2615   17.5946   22.3008 H   0  0  0  0  0  0  0  0  0  0  0  0
   18.6025   19.1686   22.7275 H   0  0  0  0  0  0  0  0  0  0  0  0
   20.0981   18.4570   24.1151 C   0  0  0  0  0  0  0  0  0  0  0  0
   20.3699   19.4499   24.4993 H   0  0  0  0  0  0  0  0  0  0  0  0
   19.3037   18.0770   24.7722 H   0  0  0  0  0  0  0  0  0  0  0  0
   21.3152   17.5117   24.2101 C   0  0  0  0  0  0  0  0  0  0  0  0
   22.1774   17.9116   23.6621 H   0  0  0  0  0  0  0  0  0  0  0  0
   21.6189   17.3816   25.2569 H   0  0  0  0  0  0  0  0  0  0  0  0
   21.0761   16.5211   23.8020 H   0  0  0  0  0  0  0  0  0  0  0  0
  1  2  1  0  0  0  0
  1  3  2  0  0  0  0
  1  4  1  0  0  0  0
  4  5  1  0  0  0  0
  4  6  1  0  0  0  0
  4  7  1  0  0  0  0
  7  8  1  0  0  0  0
  7  9  1  0  0  0  0
  7 10  1  0  0  0  0
 10 11  1  0  0  0  0
 10 12  1  0  0  0  0
 10 13  1  0  0  0  0
 13 14  1  0  0  0  0
 13 15  1  0  0  0  0
 13 16  1  0  0  0  0
 16 17  1  0  0  0  0
 16 18  1  0  0  0  0
 16 19  1  0  0  0  0
M  END
> <VConfSearch Rank>
484

> <Conf_Id>
74

> <Delta U+W>
0.797

> <U+W>
-54.095

> <U>
8.869

> <W>
-62.964

> <W(PB)>
-65.046

> <W(SA)>
2.082

> <Valence>
7.469

> <Coulomb>
0.762

> <VdW>
0.639

> <VdW6>
-6.782

> <VdW12>
7.421

> <Bond>
0.141

> <Angle>
2.667

> <Pdih>
4.660

> <Idih>
0.001

> <Tether>
0.000

$$$$
VeraChem MOL file


 19 18  0  0  0  0  0  0  0  0999 V2000     
   20.4524   21.1632   20.4644 C   0  0  0  0  0  0  0  0  0  0  0  0
   21.1875   21.2231   19.4987 O   0  5  0  0  0  0  0  0  0  0  0  0
   19.4872   21.8847   20.6201 O   0  0  0  0  0  0  0  0  0  0  0  0
   20.7469   20.1127   21.5293 C   0  0  0  0  0  0  0  0  0  0  0  0
   20.4344   20.5217   22.4969 H   0  0  0  0  0  0  0  0  0  0  0  0
   21.8326   19.9658   21.5725 H   0  0  0  0  0  0  0  0  0  0  0  0
   20.0349   18.7629   21.2545 C   0  0  0  0  0  0  0  0  0  0  0  0
   18.9474   18.9151   21.2514 H   0  0  0  0  0  0  0  0  0  0  0  0
   20.2971   18.4258   20.2421 H   0  0  0  0  0  0  0  0  0  0  0  0
   20.4149   17.6464   22.2594 C   0  0  0  0  0  0  0  0  0  0  0  0
   21.4903   17.4400   22.1719 H   0  0  0  0  0  0  0  0  0  0  0  0
   19.9035   16.7194   21.9664 H   0  0  0  0  0  0  0  0  0  0  0  0
   20.0856   17.9524   23.7413 C   0  0  0  0  0  0  0  0  0  0  0  0
   20.4117   17.1013   24.3547 H   0  0  0  0  0  0  0  0  0  0  0  0
   20.6673   18.8165   24.0885 H   0  0  0  0  0  0  0  0  0  0  0  0
   18.5831   18.2003   23.9952 C   0  0  0  0  0  0  0  0  0  0  0  0
   17.9794   17.3575   23.6344 H   0  0  0  0  0  0  0  0  0  0  0  0
   18.3897   18.3205   25.0689 H   0  0  0  0  0  0  0  0  0  0  0  0
   18.2388   19.1123   23.4912 H   0  0  0  0  0  0  0  0  0  0  0  0
  1  2  1  0  0  0  0
  1  3  2  0  0  0  0
  1  4  1  0  0  0  0
  4  5  1  0  0  0  0
  4  6  1  0  0  0  0
  4  7  1  0  0  0  0
  7  8  1  0  0  0  0
  7  9  1  0  0  0  0
  7 10  1  0  0  0  0
 10 11  1  0  0  0  0
 10 12  1  0  0  0  0
 10 13  1  0  0  0  0
 13 14  1  0  0  0  0
 13 15  1  0  0  0  0
 13 16  1  0  0  0  0
 16 17  1  0  0  0  0
 16 18  1  0  0  0  0
 16 19  1  0  0  0  0
M  END
> <VConfSearch Rank>
485

> <Conf_Id>
67

> <Delta U+W>
0.308

> <U+W>
-54.583

> <U>
8.219

> <W>
-62.802

> <W(PB)>
-64.859

> <W(SA)>
2.057

> <Valence>
7.609

> <Coulomb>
-0.089

> <VdW>
0.699

> <VdW6>
-6.924

> <VdW12>
7.623

> <Bond>
0.163

> <Angle>
2.870

> <Pdih>
4.576

> <Idih>
0.001

> <Tether>
0.000

$$$$
VeraChem MOL file


 19 18  0  0  0  0  0  0  0  0999 V2000     
   21.2339   19.5366   24.8795 C   0  0  0  0  0  0  0  0  0  0  0  0
   21.5741   18.7800   25.7673 O   0  5  0  0  0  0  0  0  0  0  0  0
   20.9909   20.7139   25.0562 O   0  0  0  0  0  0  0  0  0  0  0  0
   21.0851   18.9730   23.4708 C   0  0  0  0  0  0  0  0  0  0  0  0
   21.8199   18.1687   23.3458 H   0  0  0  0  0  0  0  0  0  0  0  0
   21.3484   19.7679   22.7637 H   0  0  0  0  0  0  0  0  0  0  0  0
   19.6567   18.4420   23.1840 C   0  0  0  0  0  0  0  0  0  0  0  0
   19.3883   17.7146   23.9625 H   0  0  0  0  0  0  0  0  0  0  0  0
   18.9343   19.2640   23.2747 H   0  0  0  0  0  0  0  0  0  0  0  0
   19.5164   17.7579   21.8009 C   0  0  0  0  0  0  0  0  0  0  0  0
   18.4919   17.3745   21.6996 H   0  0  0  0  0  0  0  0  0  0  0  0
   20.1736   16.8781   21.7709 H   0  0  0  0  0  0  0  0  0  0  0  0
   19.8357   18.6597   20.5832 C   0  0  0  0  0  0  0  0  0  0  0  0
   20.8883   18.9713   20.6076 H   0  0  0  0  0  0  0  0  0  0  0  0
   19.7168   18.0649   19.6671 H   0  0  0  0  0  0  0  0  0  0  0  0
   18.9265   19.9038   20.4886 C   0  0  0  0  0  0  0  0  0  0  0  0
   19.0969   20.5870   21.3303 H   0  0  0  0  0  0  0  0  0  0  0  0
   19.1296   20.4586   19.5636 H   0  0  0  0  0  0  0  0  0  0  0  0
   17.8670   19.6168   20.4859 H   0  0  0  0  0  0  0  0  0  0  0  0
  1  2  1  0  0  0  0
  1  3  2  0  0  0  0
  1  4  1  0  0  0  0
  4  5  1  0  0  0  0
  4  6  1  0  0  0  0
  4  7  1  0  0  0  0
  7  8  1  0  0  0  0
  7  9  1  0  0  0  0
  7 10  1  0  0  0  0
 10 11  1  0  0  0  0
 10 12  1  0  0  0  0
 10 13  1  0  0  0  0
 13 14  1  0  0  0  0
 13 15  1  0  0  0  0
 13 16  1  0  0  0  0
 16 17  1  0  0  0  0
 16 18  1  0  0  0  0
 16 19  1  0  0  0  0
M  END
> <VConfSearch Rank>
486

> <Conf_Id>
21

> <Delta U+W>
0.319

> <U+W>
-54.572

> <U>
8.220

> <W>
-62.792

> <W(PB)>
-64.830

> <W(SA)>
2.038

> <Valence>
7.609

> <Coulomb>
-0.088

> <VdW>
0.699

> <VdW6>
-6.924

> <VdW12>
7.623

> <Bond>
0.163

> <Angle>
2.870

> <Pdih>
4.576

> <Idih>
0.000

> <Tether>
0.000

$$$$
VeraChem MOL file


 19 18  0  0  0  0  0  0  0  0999 V2000     
   19.5289   21.5826   21.2836 C   0  0  0  0  0  0  0  0  0  0  0  0
   19.3377   22.6329   21.8640 O   0  5  0  0  0  0  0  0  0  0  0  0
   19.9483   21.5102   20.1456 O   0  0  0  0  0  0  0  0  0  0  0  0
   19.2442   20.2849   22.0312 C   0  0  0  0  0  0  0  0  0  0  0  0
   18.9134   19.5414   21.2992 H   0  0  0  0  0  0  0  0  0  0  0  0
   18.4005   20.4630   22.7086 H   0  0  0  0  0  0  0  0  0  0  0  0
   20.4698   19.7720   22.8328 C   0  0  0  0  0  0  0  0  0  0  0  0
   21.3337   19.6486   22.1652 H   0  0  0  0  0  0  0  0  0  0  0  0
   20.7505   20.5508   23.5553 H   0  0  0  0  0  0  0  0  0  0  0  0
   20.1955   18.4561   23.6042 C   0  0  0  0  0  0  0  0  0  0  0  0
   19.1356   18.3938   23.8863 H   0  0  0  0  0  0  0  0  0  0  0  0
   20.7543   18.4919   24.5495 H   0  0  0  0  0  0  0  0  0  0  0  0
   20.6245   17.1684   22.8589 C   0  0  0  0  0  0  0  0  0  0  0  0
   21.7046   17.2005   22.6600 H   0  0  0  0  0  0  0  0  0  0  0  0
   20.4603   16.3097   23.5245 H   0  0  0  0  0  0  0  0  0  0  0  0
   19.8683   16.9202   21.5374 C   0  0  0  0  0  0  0  0  0  0  0  0
   20.1227   15.9335   21.1295 H   0  0  0  0  0  0  0  0  0  0  0  0
   18.7820   16.9531   21.6923 H   0  0  0  0  0  0  0  0  0  0  0  0
   20.1371   17.6687   20.7815 H   0  0  0  0  0  0  0  0  0  0  0  0
  1  2  1  0  0  0  0
  1  3  2  0  0  0  0
  1  4  1  0  0  0  0
  4  5  1  0  0  0  0
  4  6  1  0  0  0  0
  4  7  1  0  0  0  0
  7  8  1  0  0  0  0
  7  9  1  0  0  0  0
  7 10  1  0  0  0  0
 10 11  1  0  0  0  0
 10 12  1  0  0  0  0
 10 13  1  0  0  0  0
 13 14  1  0  0  0  0
 13 15  1  0  0  0  0
 13 16  1  0  0  0  0
 16 17  1  0  0  0  0
 16 18  1  0  0  0  0
 16 19  1  0  0  0  0
M  END
> <VConfSearch Rank>
487

> <Conf_Id>
24

> <Delta U+W>
2.477

> <U+W>
-52.414

> <U>
10.422

> <W>
-62.836

> <W(PB)>
-64.906

> <W(SA)>
2.070

> <Valence>
9.628

> <Coulomb>
0.101

> <VdW>
0.693

> <VdW6>
-6.927

> <VdW12>
7.620

> <Bond>
0.173

> <Angle>
2.989

> <Pdih>
6.465

> <Idih>
0.001

> <Tether>
0.000

$$$$
VeraChem MOL file


 19 18  0  0  0  0  0  0  0  0999 V2000     
   19.2212   17.6389   20.3031 C   0  0  0  0  0  0  0  0  0  0  0  0
   19.9041   16.6708   20.5732 O   0  5  0  0  0  0  0  0  0  0  0  0
   18.1761   17.5714   19.6863 O   0  0  0  0  0  0  0  0  0  0  0  0
   19.7139   19.0177   20.7346 C   0  0  0  0  0  0  0  0  0  0  0  0
   19.6416   19.6754   19.8606 H   0  0  0  0  0  0  0  0  0  0  0  0
   20.7774   18.9422   20.9828 H   0  0  0  0  0  0  0  0  0  0  0  0
   18.9084   19.6365   21.9107 C   0  0  0  0  0  0  0  0  0  0  0  0
   19.1776   20.6946   22.0299 H   0  0  0  0  0  0  0  0  0  0  0  0
   17.8443   19.6248   21.6367 H   0  0  0  0  0  0  0  0  0  0  0  0
   19.0843   18.8956   23.2619 C   0  0  0  0  0  0  0  0  0  0  0  0
   19.2810   17.8281   23.0929 H   0  0  0  0  0  0  0  0  0  0  0  0
   18.1286   18.9401   23.8016 H   0  0  0  0  0  0  0  0  0  0  0  0
   20.1708   19.4933   24.1894 C   0  0  0  0  0  0  0  0  0  0  0  0
   19.9201   20.5362   24.4273 H   0  0  0  0  0  0  0  0  0  0  0  0
   20.1526   18.9477   25.1429 H   0  0  0  0  0  0  0  0  0  0  0  0
   21.5995   19.4287   23.6112 C   0  0  0  0  0  0  0  0  0  0  0  0
   21.7077   20.0981   22.7489 H   0  0  0  0  0  0  0  0  0  0  0  0
   22.3334   19.7402   24.3656 H   0  0  0  0  0  0  0  0  0  0  0  0
   21.8502   18.4076   23.2949 H   0  0  0  0  0  0  0  0  0  0  0  0
  1  2  1  0  0  0  0
  1  3  2  0  0  0  0
  1  4  1  0  0  0  0
  4  5  1  0  0  0  0
  4  6  1  0  0  0  0
  4  7  1  0  0  0  0
  7  8  1  0  0  0  0
  7  9  1  0  0  0  0
  7 10  1  0  0  0  0
 10 11  1  0  0  0  0
 10 12  1  0  0  0  0
 10 13  1  0  0  0  0
 13 14  1  0  0  0  0
 13 15  1  0  0  0  0
 13 16  1  0  0  0  0
 16 17  1  0  0  0  0
 16 18  1  0  0  0  0
 16 19  1  0  0  0  0
M  END
> <VConfSearch Rank>
488

> <Conf_Id>
4

> <Delta U+W>
3.753

> <U+W>
-51.138

> <U>
12.334

> <W>
-63.472

> <W(PB)>
-65.500

> <W(SA)>
2.028

> <Valence>
9.984

> <Coulomb>
1.767

> <VdW>
0.583

> <VdW6>
-7.767

> <VdW12>
8.349

> <Bond>
0.203

> <Angle>
3.191

> <Pdih>
6.589

> <Idih>
0.001

> <Tether>
0.000

$$$$
VeraChem MOL file


 19 18  0  0  0  0  0  0  0  0999 V2000     
   17.6756   17.5923   22.1955 C   0  0  0  0  0  0  0  0  0  0  0  0
   17.3861   16.4528   22.5031 O   0  5  0  0  0  0  0  0  0  0  0  0
   16.9485   18.5457   22.3933 O   0  0  0  0  0  0  0  0  0  0  0  0
   19.0119   17.8314   21.4973 C   0  0  0  0  0  0  0  0  0  0  0  0
   18.9802   18.8153   21.0186 H   0  0  0  0  0  0  0  0  0  0  0  0
   19.0925   17.0928   20.6913 H   0  0  0  0  0  0  0  0  0  0  0  0
   20.2452   17.7055   22.4343 C   0  0  0  0  0  0  0  0  0  0  0  0
   20.1904   16.7308   22.9387 H   0  0  0  0  0  0  0  0  0  0  0  0
   21.1661   17.6842   21.8362 H   0  0  0  0  0  0  0  0  0  0  0  0
   20.3442   18.8192   23.5091 C   0  0  0  0  0  0  0  0  0  0  0  0
   20.7677   18.3761   24.4207 H   0  0  0  0  0  0  0  0  0  0  0  0
   19.3430   19.1745   23.7887 H   0  0  0  0  0  0  0  0  0  0  0  0
   21.2404   20.0191   23.1153 C   0  0  0  0  0  0  0  0  0  0  0  0
   21.3052   20.7014   23.9740 H   0  0  0  0  0  0  0  0  0  0  0  0
   22.2638   19.6682   22.9237 H   0  0  0  0  0  0  0  0  0  0  0  0
   20.7330   20.8113   21.8928 C   0  0  0  0  0  0  0  0  0  0  0  0
   19.6852   21.1113   22.0255 H   0  0  0  0  0  0  0  0  0  0  0  0
   21.3308   21.7206   21.7495 H   0  0  0  0  0  0  0  0  0  0  0  0
   20.8123   20.2158   20.9750 H   0  0  0  0  0  0  0  0  0  0  0  0
  1  2  1  0  0  0  0
  1  3  2  0  0  0  0
  1  4  1  0  0  0  0
  4  5  1  0  0  0  0
  4  6  1  0  0  0  0
  4  7  1  0  0  0  0
  7  8  1  0  0  0  0
  7  9  1  0  0  0  0
  7 10  1  0  0  0  0
 10 11  1  0  0  0  0
 10 12  1  0  0  0  0
 10 13  1  0  0  0  0
 13 14  1  0  0  0  0
 13 15  1  0  0  0  0
 13 16  1  0  0  0  0
 16 17  1  0  0  0  0
 16 18  1  0  0  0  0
 16 19  1  0  0  0  0
M  END
> <VConfSearch Rank>
489

> <Conf_Id>
73

> <Delta U+W>
3.707

> <U+W>
-51.184

> <U>
12.334

> <W>
-63.519

> <W(PB)>
-65.541

> <W(SA)>
2.022

> <Valence>
9.984

> <Coulomb>
1.768

> <VdW>
0.583

> <VdW6>
-7.767

> <VdW12>
8.350

> <Bond>
0.203

> <Angle>
3.192

> <Pdih>
6.589

> <Idih>
0.001

> <Tether>
0.000

$$$$
VeraChem MOL file


 19 18  0  0  0  0  0  0  0  0999 V2000     
   21.8100   18.6297   24.0346 C   0  0  0  0  0  0  0  0  0  0  0  0
   21.1332   18.4533   25.0284 O   0  5  0  0  0  0  0  0  0  0  0  0
   22.8649   18.0614   23.8315 O   0  0  0  0  0  0  0  0  0  0  0  0
   21.3277   19.6423   22.9995 C   0  0  0  0  0  0  0  0  0  0  0  0
   22.1649   20.3180   22.7892 H   0  0  0  0  0  0  0  0  0  0  0  0
   20.5388   20.2562   23.4489 H   0  0  0  0  0  0  0  0  0  0  0  0
   20.8346   19.0066   21.6710 C   0  0  0  0  0  0  0  0  0  0  0  0
   20.5785   19.8042   20.9616 H   0  0  0  0  0  0  0  0  0  0  0  0
   21.6677   18.4541   21.2152 H   0  0  0  0  0  0  0  0  0  0  0  0
   19.6296   18.0440   21.8300 C   0  0  0  0  0  0  0  0  0  0  0  0
   19.9353   17.1858   22.4442 H   0  0  0  0  0  0  0  0  0  0  0  0
   19.3741   17.6333   20.8438 H   0  0  0  0  0  0  0  0  0  0  0  0
   18.3604   18.6738   22.4542 C   0  0  0  0  0  0  0  0  0  0  0  0
   17.5868   17.8975   22.5312 H   0  0  0  0  0  0  0  0  0  0  0  0
   18.5671   18.9979   23.4832 H   0  0  0  0  0  0  0  0  0  0  0  0
   17.7980   19.8563   21.6362 C   0  0  0  0  0  0  0  0  0  0  0  0
   18.4955   20.7033   21.6284 H   0  0  0  0  0  0  0  0  0  0  0  0
   17.6048   19.5585   20.5974 H   0  0  0  0  0  0  0  0  0  0  0  0
   16.8527   20.2077   22.0693 H   0  0  0  0  0  0  0  0  0  0  0  0
  1  2  1  0  0  0  0
  1  3  2  0  0  0  0
  1  4  1  0  0  0  0
  4  5  1  0  0  0  0
  4  6  1  0  0  0  0
  4  7  1  0  0  0  0
  7  8  1  0  0  0  0
  7  9  1  0  0  0  0
  7 10  1  0  0  0  0
 10 11  1  0  0  0  0
 10 12  1  0  0  0  0
 10 13  1  0  0  0  0
 13 14  1  0  0  0  0
 13 15  1  0  0  0  0
 13 16  1  0  0  0  0
 16 17  1  0  0  0  0
 16 18  1  0  0  0  0
 16 19  1  0  0  0  0
M  END
> <VConfSearch Rank>
490

> <Conf_Id>
56

> <Delta U+W>
1.735

> <U+W>
-53.156

> <U>
10.214

> <W>
-63.370

> <W(PB)>
-65.388

> <W(SA)>
2.018

> <Valence>
7.868

> <Coulomb>
1.968

> <VdW>
0.378

> <VdW6>
-8.067

> <VdW12>
8.445

> <Bond>
0.191

> <Angle>
3.117

> <Pdih>
4.559

> <Idih>
0.001

> <Tether>
0.000

$$$$
VeraChem MOL file


 19 18  0  0  0  0  0  0  0  0999 V2000     
   18.9984   16.3045   23.1296 C   0  0  0  0  0  0  0  0  0  0  0  0
   17.8329   15.9687   23.0565 O   0  5  0  0  0  0  0  0  0  0  0  0
   19.8430   15.6731   23.7333 O   0  0  0  0  0  0  0  0  0  0  0  0
   19.4191   17.5998   22.4445 C   0  0  0  0  0  0  0  0  0  0  0  0
   18.7866   17.7392   21.5597 H   0  0  0  0  0  0  0  0  0  0  0  0
   20.4501   17.4709   22.0968 H   0  0  0  0  0  0  0  0  0  0  0  0
   19.3164   18.8333   23.3766 C   0  0  0  0  0  0  0  0  0  0  0  0
   18.3118   18.8549   23.8215 H   0  0  0  0  0  0  0  0  0  0  0  0
   20.0199   18.7147   24.2122 H   0  0  0  0  0  0  0  0  0  0  0  0
   19.5699   20.1896   22.6719 C   0  0  0  0  0  0  0  0  0  0  0  0
   19.4173   20.9823   23.4171 H   0  0  0  0  0  0  0  0  0  0  0  0
   18.8109   20.3594   21.8960 H   0  0  0  0  0  0  0  0  0  0  0  0
   20.9907   20.3543   22.0776 C   0  0  0  0  0  0  0  0  0  0  0  0
   21.3012   21.4016   22.1966 H   0  0  0  0  0  0  0  0  0  0  0  0
   21.7142   19.7548   22.6472 H   0  0  0  0  0  0  0  0  0  0  0  0
   21.0681   20.0026   20.5752 C   0  0  0  0  0  0  0  0  0  0  0  0
   22.0882   20.1519   20.1986 H   0  0  0  0  0  0  0  0  0  0  0  0
   20.7908   18.9599   20.3843 H   0  0  0  0  0  0  0  0  0  0  0  0
   20.3972   20.6443   19.9893 H   0  0  0  0  0  0  0  0  0  0  0  0
  1  2  1  0  0  0  0
  1  3  2  0  0  0  0
  1  4  1  0  0  0  0
  4  5  1  0  0  0  0
  4  6  1  0  0  0  0
  4  7  1  0  0  0  0
  7  8  1  0  0  0  0
  7  9  1  0  0  0  0
  7 10  1  0  0  0  0
 10 11  1  0  0  0  0
 10 12  1  0  0  0  0
 10 13  1  0  0  0  0
 13 14  1  0  0  0  0
 13 15  1  0  0  0  0
 13 16  1  0  0  0  0
 16 17  1  0  0  0  0
 16 18  1  0  0  0  0
 16 19  1  0  0  0  0
M  END
> <VConfSearch Rank>
491

> <Conf_Id>
53

> <Delta U+W>
2.279

> <U+W>
-52.612

> <U>
10.231

> <W>
-62.843

> <W(PB)>
-64.893

> <W(SA)>
2.050

> <Valence>
9.644

> <Coulomb>
-0.164

> <VdW>
0.751

> <VdW6>
-6.881

> <VdW12>
7.631

> <Bond>
0.163

> <Angle>
2.998

> <Pdih>
6.482

> <Idih>
0.001

> <Tether>
0.000

$$$$
VeraChem MOL file


 19 18  0  0  0  0  0  0  0  0999 V2000     
   21.8994   17.5433   21.5033 C   0  0  0  0  0  0  0  0  0  0  0  0
   21.7546   16.4652   22.0451 O   0  5  0  0  0  0  0  0  0  0  0  0
   22.9413   18.1688   21.5245 O   0  0  0  0  0  0  0  0  0  0  0  0
   20.7314   18.1063   20.6957 C   0  0  0  0  0  0  0  0  0  0  0  0
   19.8956   17.3971   20.7352 H   0  0  0  0  0  0  0  0  0  0  0  0
   21.0655   18.1390   19.6522 H   0  0  0  0  0  0  0  0  0  0  0  0
   20.2543   19.5244   21.1181 C   0  0  0  0  0  0  0  0  0  0  0  0
   21.1220   20.1793   21.2785 H   0  0  0  0  0  0  0  0  0  0  0  0
   19.6990   19.9597   20.2763 H   0  0  0  0  0  0  0  0  0  0  0  0
   19.3287   19.5554   22.3595 C   0  0  0  0  0  0  0  0  0  0  0  0
   18.4601   18.9045   22.1896 H   0  0  0  0  0  0  0  0  0  0  0  0
   18.9338   20.5750   22.4664 H   0  0  0  0  0  0  0  0  0  0  0  0
   20.0280   19.1543   23.6769 C   0  0  0  0  0  0  0  0  0  0  0  0
   20.3148   18.0955   23.6440 H   0  0  0  0  0  0  0  0  0  0  0  0
   20.9531   19.7345   23.7991 H   0  0  0  0  0  0  0  0  0  0  0  0
   19.1121   19.3840   24.8960 C   0  0  0  0  0  0  0  0  0  0  0  0
   18.1901   18.7941   24.8104 H   0  0  0  0  0  0  0  0  0  0  0  0
   19.6203   19.0863   25.8224 H   0  0  0  0  0  0  0  0  0  0  0  0
   18.8354   20.4425   24.9866 H   0  0  0  0  0  0  0  0  0  0  0  0
  1  2  1  0  0  0  0
  1  3  2  0  0  0  0
  1  4  1  0  0  0  0
  4  5  1  0  0  0  0
  4  6  1  0  0  0  0
  4  7  1  0  0  0  0
  7  8  1  0  0  0  0
  7  9  1  0  0  0  0
  7 10  1  0  0  0  0
 10 11  1  0  0  0  0
 10 12  1  0  0  0  0
 10 13  1  0  0  0  0
 13 14  1  0  0  0  0
 13 15  1  0  0  0  0
 13 16  1  0  0  0  0
 16 17  1  0  0  0  0
 16 18  1  0  0  0  0
 16 19  1  0  0  0  0
M  END
> <VConfSearch Rank>
492

> <Conf_Id>
25

> <Delta U+W>
2.065

> <U+W>
-52.826

> <U>
10.967

> <W>
-63.794

> <W(PB)>
-65.830

> <W(SA)>
2.036

> <Valence>
8.609

> <Coulomb>
1.892

> <VdW>
0.467

> <VdW6>
-7.569

> <VdW12>
8.036

> <Bond>
0.170

> <Angle>
3.195

> <Pdih>
5.237

> <Idih>
0.007

> <Tether>
0.000

$$$$
VeraChem MOL file


 19 18  0  0  0  0  0  0  0  0999 V2000     
   21.3519   19.5186   24.4721 C   0  0  0  0  0  0  0  0  0  0  0  0
   21.2202   20.7177   24.6208 O   0  5  0  0  0  0  0  0  0  0  0  0
   22.4296   18.9768   24.3238 O   0  0  0  0  0  0  0  0  0  0  0  0
   20.1065   18.6372   24.5454 C   0  0  0  0  0  0  0  0  0  0  0  0
   19.7035   18.7563   25.5578 H   0  0  0  0  0  0  0  0  0  0  0  0
   20.4066   17.5867   24.4490 H   0  0  0  0  0  0  0  0  0  0  0  0
   18.9922   18.9751   23.5152 C   0  0  0  0  0  0  0  0  0  0  0  0
   18.0481   18.5550   23.8873 H   0  0  0  0  0  0  0  0  0  0  0  0
   18.8416   20.0627   23.4694 H   0  0  0  0  0  0  0  0  0  0  0  0
   19.2303   18.4115   22.0924 C   0  0  0  0  0  0  0  0  0  0  0  0
   18.3180   18.5752   21.5025 H   0  0  0  0  0  0  0  0  0  0  0  0
   19.3728   17.3235   22.1446 H   0  0  0  0  0  0  0  0  0  0  0  0
   20.4220   19.0561   21.3507 C   0  0  0  0  0  0  0  0  0  0  0  0
   20.3338   20.1508   21.3849 H   0  0  0  0  0  0  0  0  0  0  0  0
   21.3632   18.7938   21.8505 H   0  0  0  0  0  0  0  0  0  0  0  0
   20.4922   18.5914   19.8821 C   0  0  0  0  0  0  0  0  0  0  0  0
   21.3486   19.0513   19.3720 H   0  0  0  0  0  0  0  0  0  0  0  0
   20.6066   17.5012   19.8208 H   0  0  0  0  0  0  0  0  0  0  0  0
   19.5820   18.8724   19.3363 H   0  0  0  0  0  0  0  0  0  0  0  0
  1  2  1  0  0  0  0
  1  3  2  0  0  0  0
  1  4  1  0  0  0  0
  4  5  1  0  0  0  0
  4  6  1  0  0  0  0
  4  7  1  0  0  0  0
  7  8  1  0  0  0  0
  7  9  1  0  0  0  0
  7 10  1  0  0  0  0
 10 11  1  0  0  0  0
 10 12  1  0  0  0  0
 10 13  1  0  0  0  0
 13 14  1  0  0  0  0
 13 15  1  0  0  0  0
 13 16  1  0  0  0  0
 16 17  1  0  0  0  0
 16 18  1  0  0  0  0
 16 19  1  0  0  0  0
M  END
> <VConfSearch Rank>
493

> <Conf_Id>
52

> <Delta U+W>
2.070

> <U+W>
-52.822

> <U>
10.967

> <W>
-63.789

> <W(PB)>
-65.837

> <W(SA)>
2.048

> <Valence>
8.609

> <Coulomb>
1.892

> <VdW>
0.467

> <VdW6>
-7.569

> <VdW12>
8.035

> <Bond>
0.170

> <Angle>
3.196

> <Pdih>
5.237

> <Idih>
0.007

> <Tether>
0.000

$$$$
VeraChem MOL file


 19 18  0  0  0  0  0  0  0  0999 V2000     
   19.4994   17.0276   21.5818 C   0  0  0  0  0  0  0  0  0  0  0  0
   18.4509   17.1254   20.9742 O   0  5  0  0  0  0  0  0  0  0  0  0
   20.5375   16.6670   21.0630 O   0  0  0  0  0  0  0  0  0  0  0  0
   19.4937   17.2444   23.0958 C   0  0  0  0  0  0  0  0  0  0  0  0
   20.5288   17.2699   23.4571 H   0  0  0  0  0  0  0  0  0  0  0  0
   19.0343   16.3481   23.5281 H   0  0  0  0  0  0  0  0  0  0  0  0
   18.7190   18.4968   23.5965 C   0  0  0  0  0  0  0  0  0  0  0  0
   17.7843   18.6114   23.0303 H   0  0  0  0  0  0  0  0  0  0  0  0
   18.4160   18.3125   24.6360 H   0  0  0  0  0  0  0  0  0  0  0  0
   19.5169   19.8257   23.5728 C   0  0  0  0  0  0  0  0  0  0  0  0
   20.4005   19.7445   24.2205 H   0  0  0  0  0  0  0  0  0  0  0  0
   18.8842   20.5979   24.0314 H   0  0  0  0  0  0  0  0  0  0  0  0
   19.9265   20.3179   22.1635 C   0  0  0  0  0  0  0  0  0  0  0  0
   19.2701   19.8812   21.3982 H   0  0  0  0  0  0  0  0  0  0  0  0
   19.7752   21.4047   22.1096 H   0  0  0  0  0  0  0  0  0  0  0  0
   21.4055   20.0224   21.8341 C   0  0  0  0  0  0  0  0  0  0  0  0
   22.0734   20.5378   22.5365 H   0  0  0  0  0  0  0  0  0  0  0  0
   21.6222   18.9491   21.8866 H   0  0  0  0  0  0  0  0  0  0  0  0
   21.6505   20.3660   20.8210 H   0  0  0  0  0  0  0  0  0  0  0  0
  1  2  1  0  0  0  0
  1  3  2  0  0  0  0
  1  4  1  0  0  0  0
  4  5  1  0  0  0  0
  4  6  1  0  0  0  0
  4  7  1  0  0  0  0
  7  8  1  0  0  0  0
  7  9  1  0  0  0  0
  7 10  1  0  0  0  0
 10 11  1  0  0  0  0
 10 12  1  0  0  0  0
 10 13  1  0  0  0  0
 13 14  1  0  0  0  0
 13 15  1  0  0  0  0
 13 16  1  0  0  0  0
 16 17  1  0  0  0  0
 16 18  1  0  0  0  0
 16 19  1  0  0  0  0
M  END
> <VConfSearch Rank>
494

> <Conf_Id>
66

> <Delta U+W>
5.819

> <U+W>
-49.072

> <U>
15.324

> <W>
-64.396

> <W(PB)>
-66.382

> <W(SA)>
1.986

> <Valence>
11.748

> <Coulomb>
3.201

> <VdW>
0.375

> <VdW6>
-8.854

> <VdW12>
9.229

> <Bond>
0.216

> <Angle>
3.812

> <Pdih>
7.699

> <Idih>
0.022

> <Tether>
0.000

$$$$
VeraChem MOL file


 19 18  0  0  0  0  0  0  0  0999 V2000     
   21.9006   18.9036   19.3035 C   0  0  0  0  0  0  0  0  0  0  0  0
   21.9554   18.4111   18.1944 O   0  5  0  0  0  0  0  0  0  0  0  0
   22.7302   19.6871   19.7232 O   0  0  0  0  0  0  0  0  0  0  0  0
   20.7213   18.4992   20.1896 C   0  0  0  0  0  0  0  0  0  0  0  0
   20.7464   17.4077   20.2895 H   0  0  0  0  0  0  0  0  0  0  0  0
   19.8027   18.7505   19.6464 H   0  0  0  0  0  0  0  0  0  0  0  0
   20.6939   19.1537   21.5965 C   0  0  0  0  0  0  0  0  0  0  0  0
   21.6193   18.9029   22.1332 H   0  0  0  0  0  0  0  0  0  0  0  0
   20.6747   20.2472   21.4893 H   0  0  0  0  0  0  0  0  0  0  0  0
   19.4733   18.6910   22.4213 C   0  0  0  0  0  0  0  0  0  0  0  0
   19.4944   17.5976   22.5270 H   0  0  0  0  0  0  0  0  0  0  0  0
   18.5492   18.9427   21.8829 H   0  0  0  0  0  0  0  0  0  0  0  0
   19.4480   19.3428   23.8195 C   0  0  0  0  0  0  0  0  0  0  0  0
   20.3700   19.0919   24.3621 H   0  0  0  0  0  0  0  0  0  0  0  0
   19.4249   20.4368   23.7180 H   0  0  0  0  0  0  0  0  0  0  0  0
   18.2282   18.8786   24.6402 C   0  0  0  0  0  0  0  0  0  0  0  0
   18.2428   17.7903   24.7841 H   0  0  0  0  0  0  0  0  0  0  0  0
   18.2260   19.3515   25.6309 H   0  0  0  0  0  0  0  0  0  0  0  0
   17.2905   19.1452   24.1352 H   0  0  0  0  0  0  0  0  0  0  0  0
  1  2  1  0  0  0  0
  1  3  2  0  0  0  0
  1  4  1  0  0  0  0
  4  5  1  0  0  0  0
  4  6  1  0  0  0  0
  4  7  1  0  0  0  0
  7  8  1  0  0  0  0
  7  9  1  0  0  0  0
  7 10  1  0  0  0  0
 10 11  1  0  0  0  0
 10 12  1  0  0  0  0
 10 13  1  0  0  0  0
 13 14  1  0  0  0  0
 13 15  1  0  0  0  0
 13 16  1  0  0  0  0
 16 17  1  0  0  0  0
 16 18  1  0  0  0  0
 16 19  1  0  0  0  0
M  END
> <VConfSearch Rank>
495

> <Conf_Id>
0

> <Delta U+W>
0.000

> <U+W>
-54.891

> <U>
6.966

> <W>
-61.857

> <W(PB)>
-63.965

> <W(SA)>
2.108

> <Valence>
7.175

> <Coulomb>
-1.360

> <VdW>
1.151

> <VdW6>
-5.641

> <VdW12>
6.792

> <Bond>
0.119

> <Angle>
2.715

> <Pdih>
4.340

> <Idih>
0.000

> <Tether>
0.000

$$$$
VeraChem MOL file


 19 18  0  0  0  0  0  0  0  0999 V2000     
   21.7804   20.2713   24.6432 C   0  0  0  0  0  0  0  0  0  0  0  0
   22.7888   19.6533   24.9212 O   0  5  0  0  0  0  0  0  0  0  0  0
   21.6704   21.4740   24.7762 O   0  0  0  0  0  0  0  0  0  0  0  0
   20.5947   19.4979   24.0771 C   0  0  0  0  0  0  0  0  0  0  0  0
   19.6746   19.9969   24.4045 H   0  0  0  0  0  0  0  0  0  0  0  0
   20.5966   18.4962   24.5236 H   0  0  0  0  0  0  0  0  0  0  0  0
   20.6256   19.3943   22.5323 C   0  0  0  0  0  0  0  0  0  0  0  0
   20.6362   20.4049   22.1010 H   0  0  0  0  0  0  0  0  0  0  0  0
   21.5583   18.9043   22.2201 H   0  0  0  0  0  0  0  0  0  0  0  0
   19.4155   18.6072   21.9848 C   0  0  0  0  0  0  0  0  0  0  0  0
   18.4847   19.0987   22.2997 H   0  0  0  0  0  0  0  0  0  0  0  0
   19.4070   17.5978   22.4188 H   0  0  0  0  0  0  0  0  0  0  0  0
   19.4488   18.5056   20.4457 C   0  0  0  0  0  0  0  0  0  0  0  0
   19.4555   19.5134   20.0078 H   0  0  0  0  0  0  0  0  0  0  0  0
   20.3777   18.0126   20.1268 H   0  0  0  0  0  0  0  0  0  0  0  0
   18.2391   17.7191   19.9025 C   0  0  0  0  0  0  0  0  0  0  0  0
   18.2786   17.6566   18.8072 H   0  0  0  0  0  0  0  0  0  0  0  0
   18.2252   16.6959   20.3002 H   0  0  0  0  0  0  0  0  0  0  0  0
   17.2960   18.2079   20.1803 H   0  0  0  0  0  0  0  0  0  0  0  0
  1  2  1  0  0  0  0
  1  3  2  0  0  0  0
  1  4  1  0  0  0  0
  4  5  1  0  0  0  0
  4  6  1  0  0  0  0
  4  7  1  0  0  0  0
  7  8  1  0  0  0  0
  7  9  1  0  0  0  0
  7 10  1  0  0  0  0
 10 11  1  0  0  0  0
 10 12  1  0  0  0  0
 10 13  1  0  0  0  0
 13 14  1  0  0  0  0
 13 15  1  0  0  0  0
 13 16  1  0  0  0  0
 16 17  1  0  0  0  0
 16 18  1  0  0  0  0
 16 19  1  0  0  0  0
M  END
> <VConfSearch Rank>
496

> <Conf_Id>
18

> <Delta U+W>
-1.199

> <U+W>
-56.090

> <U>
5.975

> <W>
-62.066

> <W(PB)>
-64.219

> <W(SA)>
2.153

> <Valence>
6.673

> <Coulomb>
-1.307

> <VdW>
0.610

> <VdW6>
-5.351

> <VdW12>
5.961

> <Bond>
0.086

> <Angle>
2.253

> <Pdih>
4.333

> <Idih>
0.001

> <Tether>
0.000

$$$$
VeraChem MOL file


 19 18  0  0  0  0  0  0  0  0999 V2000     
   17.2213   18.2703   23.6895 C   0  0  0  0  0  0  0  0  0  0  0  0
   17.1224   17.4712   24.5994 O   0  5  0  0  0  0  0  0  0  0  0  0
   16.3947   19.1299   23.4569 O   0  0  0  0  0  0  0  0  0  0  0  0
   18.4610   18.2042   22.8045 C   0  0  0  0  0  0  0  0  0  0  0  0
   18.1669   18.5136   21.7952 H   0  0  0  0  0  0  0  0  0  0  0  0
   18.7805   17.1570   22.7440 H   0  0  0  0  0  0  0  0  0  0  0  0
   19.6218   19.0879   23.3305 C   0  0  0  0  0  0  0  0  0  0  0  0
   19.3049   20.1399   23.3447 H   0  0  0  0  0  0  0  0  0  0  0  0
   19.8295   18.8125   24.3738 H   0  0  0  0  0  0  0  0  0  0  0  0
   20.9266   18.9458   22.5114 C   0  0  0  0  0  0  0  0  0  0  0  0
   21.2454   17.8945   22.5063 H   0  0  0  0  0  0  0  0  0  0  0  0
   21.7209   19.5089   23.0205 H   0  0  0  0  0  0  0  0  0  0  0  0
   20.7994   19.4586   21.0594 C   0  0  0  0  0  0  0  0  0  0  0  0
   20.0631   18.8584   20.5089 H   0  0  0  0  0  0  0  0  0  0  0  0
   20.4317   20.4940   21.0627 H   0  0  0  0  0  0  0  0  0  0  0  0
   22.1502   19.3976   20.3184 C   0  0  0  0  0  0  0  0  0  0  0  0
   22.0430   19.7619   19.2884 H   0  0  0  0  0  0  0  0  0  0  0  0
   22.9028   20.0191   20.8210 H   0  0  0  0  0  0  0  0  0  0  0  0
   22.5284   18.3677   20.2761 H   0  0  0  0  0  0  0  0  0  0  0  0
  1  2  1  0  0  0  0
  1  3  2  0  0  0  0
  1  4  1  0  0  0  0
  4  5  1  0  0  0  0
  4  6  1  0  0  0  0
  4  7  1  0  0  0  0
  7  8  1  0  0  0  0
  7  9  1  0  0  0  0
  7 10  1  0  0  0  0
 10 11  1  0  0  0  0
 10 12  1  0  0  0  0
 10 13  1  0  0  0  0
 13 14  1  0  0  0  0
 13 15  1  0  0  0  0
 13 16  1  0  0  0  0
 16 17  1  0  0  0  0
 16 18  1  0  0  0  0
 16 19  1  0  0  0  0
M  END
> <VConfSearch Rank>
497

> <Conf_Id>
34

> <Delta U+W>
-0.563

> <U+W>
-55.455

> <U>
6.914

> <W>
-62.369

> <W(PB)>
-64.446

> <W(SA)>
2.077

> <Valence>
7.196

> <Coulomb>
-1.020

> <VdW>
0.738

> <VdW6>
-6.010

> <VdW12>
6.748

> <Bond>
0.126

> <Angle>
2.499

> <Pdih>
4.570

> <Idih>
0.001

> <Tether>
0.000

$$$$
VeraChem MOL file


 19 18  0  0  0  0  0  0  0  0999 V2000     
   21.5973   16.9302   24.1151 C   0  0  0  0  0  0  0  0  0  0  0  0
   22.4463   17.2991   24.9022 O   0  5  0  0  0  0  0  0  0  0  0  0
   21.4863   15.7814   23.7354 O   0  0  0  0  0  0  0  0  0  0  0  0
   20.6324   17.9701   23.5566 C   0  0  0  0  0  0  0  0  0  0  0  0
   20.4700   18.7325   24.3279 H   0  0  0  0  0  0  0  0  0  0  0  0
   19.6713   17.4734   23.3824 H   0  0  0  0  0  0  0  0  0  0  0  0
   21.1507   18.6306   22.2527 C   0  0  0  0  0  0  0  0  0  0  0  0
   22.1540   19.0384   22.4389 H   0  0  0  0  0  0  0  0  0  0  0  0
   21.2672   17.8640   21.4742 H   0  0  0  0  0  0  0  0  0  0  0  0
   20.2415   19.7695   21.7333 C   0  0  0  0  0  0  0  0  0  0  0  0
   20.7412   20.2546   20.8836 H   0  0  0  0  0  0  0  0  0  0  0  0
   20.1340   20.5383   22.5107 H   0  0  0  0  0  0  0  0  0  0  0  0
   18.8450   19.2843   21.2840 C   0  0  0  0  0  0  0  0  0  0  0  0
   18.9526   18.4796   20.5436 H   0  0  0  0  0  0  0  0  0  0  0  0
   18.2974   18.8637   22.1376 H   0  0  0  0  0  0  0  0  0  0  0  0
   18.0169   20.4332   20.6745 C   0  0  0  0  0  0  0  0  0  0  0  0
   17.8703   21.2409   21.4035 H   0  0  0  0  0  0  0  0  0  0  0  0
   18.5174   20.8538   19.7924 H   0  0  0  0  0  0  0  0  0  0  0  0
   17.0274   20.0738   20.3631 H   0  0  0  0  0  0  0  0  0  0  0  0
  1  2  1  0  0  0  0
  1  3  2  0  0  0  0
  1  4  1  0  0  0  0
  4  5  1  0  0  0  0
  4  6  1  0  0  0  0
  4  7  1  0  0  0  0
  7  8  1  0  0  0  0
  7  9  1  0  0  0  0
  7 10  1  0  0  0  0
 10 11  1  0  0  0  0
 10 12  1  0  0  0  0
 10 13  1  0  0  0  0
 13 14  1  0  0  0  0
 13 15  1  0  0  0  0
 13 16  1  0  0  0  0
 16 17  1  0  0  0  0
 16 18  1  0  0  0  0
 16 19  1  0  0  0  0
M  END
> <VConfSearch Rank>
498

> <Conf_Id>
33

> <Delta U+W>
-0.526

> <U+W>
-55.418

> <U>
6.914

> <W>
-62.332

> <W(PB)>
-64.421

> <W(SA)>
2.090

> <Valence>
7.196

> <Coulomb>
-1.020

> <VdW>
0.738

> <VdW6>
-6.010

> <VdW12>
6.748

> <Bond>
0.126

> <Angle>
2.499

> <Pdih>
4.570

> <Idih>
0.001

> <Tether>
0.000

$$$$
VeraChem MOL file


 19 18  0  0  0  0  0  0  0  0999 V2000     
   17.6289   19.8759   20.2312 C   0  0  0  0  0  0  0  0  0  0  0  0
   16.9940   18.9097   19.8577 O   0  5  0  0  0  0  0  0  0  0  0  0
   17.1393   20.9729   20.4130 O   0  0  0  0  0  0  0  0  0  0  0  0
   19.1183   19.6978   20.5036 C   0  0  0  0  0  0  0  0  0  0  0  0
   19.6238   20.6407   20.2623 H   0  0  0  0  0  0  0  0  0  0  0  0
   19.5029   18.9377   19.8129 H   0  0  0  0  0  0  0  0  0  0  0  0
   19.4183   19.2894   21.9671 C   0  0  0  0  0  0  0  0  0  0  0  0
   19.0190   20.0551   22.6464 H   0  0  0  0  0  0  0  0  0  0  0  0
   18.8877   18.3545   22.1909 H   0  0  0  0  0  0  0  0  0  0  0  0
   20.9344   19.1125   22.2138 C   0  0  0  0  0  0  0  0  0  0  0  0
   21.4547   20.0333   21.9166 H   0  0  0  0  0  0  0  0  0  0  0  0
   21.3238   18.3128   21.5690 H   0  0  0  0  0  0  0  0  0  0  0  0
   21.2846   18.8048   23.6879 C   0  0  0  0  0  0  0  0  0  0  0  0
   22.3777   18.8119   23.7994 H   0  0  0  0  0  0  0  0  0  0  0  0
   20.9015   19.6055   24.3355 H   0  0  0  0  0  0  0  0  0  0  0  0
   20.7447   17.4419   24.1724 C   0  0  0  0  0  0  0  0  0  0  0  0
   21.0913   16.6282   23.5220 H   0  0  0  0  0  0  0  0  0  0  0  0
   21.0934   17.2315   25.1918 H   0  0  0  0  0  0  0  0  0  0  0  0
   19.6477   17.4277   24.1875 H   0  0  0  0  0  0  0  0  0  0  0  0
  1  2  1  0  0  0  0
  1  3  2  0  0  0  0
  1  4  1  0  0  0  0
  4  5  1  0  0  0  0
  4  6  1  0  0  0  0
  4  7  1  0  0  0  0
  7  8  1  0  0  0  0
  7  9  1  0  0  0  0
  7 10  1  0  0  0  0
 10 11  1  0  0  0  0
 10 12  1  0  0  0  0
 10 13  1  0  0  0  0
 13 14  1  0  0  0  0
 13 15  1  0  0  0  0
 13 16  1  0  0  0  0
 16 17  1  0  0  0  0
 16 18  1  0  0  0  0
 16 19  1  0  0  0  0
M  END
> <VConfSearch Rank>
499

> <Conf_Id>
42

> <Delta U+W>
-0.344

> <U+W>
-55.236

> <U>
7.244

> <W>
-62.479

> <W(PB)>
-64.610

> <W(SA)>
2.130

> <Valence>
7.174

> <Coulomb>
-0.669

> <VdW>
0.739

> <VdW6>
-5.969

> <VdW12>
6.708

> <Bond>
0.116

> <Angle>
2.481

> <Pdih>
4.576

> <Idih>
0.000

> <Tether>
0.000

$$$$
VeraChem MOL file


 19 18  0  0  0  0  0  0  0  0999 V2000     
   22.6340   20.2344   23.5573 C   0  0  0  0  0  0  0  0  0  0  0  0
   22.3021   21.0063   24.4349 O   0  5  0  0  0  0  0  0  0  0  0  0
   23.5991   20.4070   22.8395 O   0  0  0  0  0  0  0  0  0  0  0  0
   21.7824   18.9900   23.3322 C   0  0  0  0  0  0  0  0  0  0  0  0
   21.3671   18.6815   24.2992 H   0  0  0  0  0  0  0  0  0  0  0  0
   22.4419   18.1833   22.9903 H   0  0  0  0  0  0  0  0  0  0  0  0
   20.6416   19.2178   22.3099 C   0  0  0  0  0  0  0  0  0  0  0  0
   20.0066   20.0408   22.6636 H   0  0  0  0  0  0  0  0  0  0  0  0
   21.0725   19.5351   21.3503 H   0  0  0  0  0  0  0  0  0  0  0  0
   19.7928   17.9420   22.1041 C   0  0  0  0  0  0  0  0  0  0  0  0
   19.3222   17.6528   23.0538 H   0  0  0  0  0  0  0  0  0  0  0  0
   20.4559   17.1133   21.8202 H   0  0  0  0  0  0  0  0  0  0  0  0
   18.7064   18.0965   21.0149 C   0  0  0  0  0  0  0  0  0  0  0  0
   19.1739   18.3802   20.0618 H   0  0  0  0  0  0  0  0  0  0  0  0
   18.2320   17.1194   20.8490 H   0  0  0  0  0  0  0  0  0  0  0  0
   17.6136   19.1231   21.3833 C   0  0  0  0  0  0  0  0  0  0  0  0
   18.0232   20.1389   21.4473 H   0  0  0  0  0  0  0  0  0  0  0  0
   16.8227   19.1313   20.6221 H   0  0  0  0  0  0  0  0  0  0  0  0
   17.1516   18.8760   22.3480 H   0  0  0  0  0  0  0  0  0  0  0  0
  1  2  1  0  0  0  0
  1  3  2  0  0  0  0
  1  4  1  0  0  0  0
  4  5  1  0  0  0  0
  4  6  1  0  0  0  0
  4  7  1  0  0  0  0
  7  8  1  0  0  0  0
  7  9  1  0  0  0  0
  7 10  1  0  0  0  0
 10 11  1  0  0  0  0
 10 12  1  0  0  0  0
 10 13  1  0  0  0  0
 13 14  1  0  0  0  0
 13 15  1  0  0  0  0
 13 16  1  0  0  0  0
 16 17  1  0  0  0  0
 16 18  1  0  0  0  0
 16 19  1  0  0  0  0
M  END
> <VConfSearch Rank>
500

> <Conf_Id>
41

> <Delta U+W>
-0.361

> <U+W>
-55.252

> <U>
7.244

> <W>
-62.496

> <W(PB)>
-64.596

> <W(SA)>
2.099

> <Valence>
7.174

> <Coulomb>
-0.669

> <VdW>
0.739

> <VdW6>
-5.969

> <VdW12>
6.708

> <Bond>
0.116

> <Angle>
2.481

> <Pdih>
4.576

> <Idih>
0.000

> <Tether>
0.000

$$$$
VeraChem MOL file


 19 18  0  0  0  0  0  0  0  0999 V2000     
   17.3790   20.4679   22.4019 C   0  0  0  0  0  0  0  0  0  0  0  0
   17.2274   20.5734   23.6029 O   0  5  0  0  0  0  0  0  0  0  0  0
   17.3347   21.4085   21.6339 O   0  0  0  0  0  0  0  0  0  0  0  0
   17.6161   19.0762   21.8218 C   0  0  0  0  0  0  0  0  0  0  0  0
   16.9577   18.9670   20.9520 H   0  0  0  0  0  0  0  0  0  0  0  0
   17.2949   18.3300   22.5587 H   0  0  0  0  0  0  0  0  0  0  0  0
   19.0837   18.8111   21.3965 C   0  0  0  0  0  0  0  0  0  0  0  0
   19.1332   17.8496   20.8677 H   0  0  0  0  0  0  0  0  0  0  0  0
   19.4002   19.5825   20.6807 H   0  0  0  0  0  0  0  0  0  0  0  0
   20.0547   18.7820   22.5981 C   0  0  0  0  0  0  0  0  0  0  0  0
   19.7267   18.0184   23.3167 H   0  0  0  0  0  0  0  0  0  0  0  0
   20.0237   19.7470   23.1227 H   0  0  0  0  0  0  0  0  0  0  0  0
   21.5027   18.4856   22.1553 C   0  0  0  0  0  0  0  0  0  0  0  0
   21.5406   17.5193   21.6335 H   0  0  0  0  0  0  0  0  0  0  0  0
   21.8342   19.2493   21.4381 H   0  0  0  0  0  0  0  0  0  0  0  0
   22.4690   18.4572   23.3564 C   0  0  0  0  0  0  0  0  0  0  0  0
   22.1787   17.6800   24.0755 H   0  0  0  0  0  0  0  0  0  0  0  0
   23.4935   18.2458   23.0237 H   0  0  0  0  0  0  0  0  0  0  0  0
   22.4745   19.4228   23.8787 H   0  0  0  0  0  0  0  0  0  0  0  0
  1  2  1  0  0  0  0
  1  3  2  0  0  0  0
  1  4  1  0  0  0  0
  4  5  1  0  0  0  0
  4  6  1  0  0  0  0
  4  7  1  0  0  0  0
  7  8  1  0  0  0  0
  7  9  1  0  0  0  0
  7 10  1  0  0  0  0
 10 11  1  0  0  0  0
 10 12  1  0  0  0  0
 10 13  1  0  0  0  0
 13 14  1  0  0  0  0
 13 15  1  0  0  0  0
 13 16  1  0  0  0  0
 16 17  1  0  0  0  0
 16 18  1  0  0  0  0
 16 19  1  0  0  0  0
M  END
> <VConfSearch Rank>
501

> <Conf_Id>
36

> <Delta U+W>
-0.079

> <U+W>
-54.971

> <U>
8.266

> <W>
-63.237

> <W(PB)>
-65.340

> <W(SA)>
2.103

> <Valence>
6.935

> <Coulomb>
0.874

> <VdW>
0.457

> <VdW6>
-6.205

> <VdW12>
6.662

> <Bond>
0.107

> <Angle>
2.420

> <Pdih>
4.407

> <Idih>
0.001

> <Tether>
0.000

$$$$
VeraChem MOL file


 19 18  0  0  0  0  0  0  0  0999 V2000     
   21.3042   18.8503   19.7276 C   0  0  0  0  0  0  0  0  0  0  0  0
   21.9740   19.8638   19.7564 O   0  5  0  0  0  0  0  0  0  0  0  0
   20.5250   18.5853   18.8336 O   0  0  0  0  0  0  0  0  0  0  0  0
   21.4645   17.8442   20.8639 C   0  0  0  0  0  0  0  0  0  0  0  0
   22.4092   18.0486   21.3823 H   0  0  0  0  0  0  0  0  0  0  0  0
   21.5600   16.8503   20.4108 H   0  0  0  0  0  0  0  0  0  0  0  0
   20.2888   17.8411   21.8752 C   0  0  0  0  0  0  0  0  0  0  0  0
   19.3469   17.6637   21.3377 H   0  0  0  0  0  0  0  0  0  0  0  0
   20.4192   17.0010   22.5706 H   0  0  0  0  0  0  0  0  0  0  0  0
   20.1929   19.1573   22.6789 C   0  0  0  0  0  0  0  0  0  0  0  0
   20.0451   20.0013   21.9910 H   0  0  0  0  0  0  0  0  0  0  0  0
   21.1411   19.3369   23.2039 H   0  0  0  0  0  0  0  0  0  0  0  0
   19.0368   19.1200   23.7001 C   0  0  0  0  0  0  0  0  0  0  0  0
   18.0867   18.9429   23.1773 H   0  0  0  0  0  0  0  0  0  0  0  0
   19.1815   18.2801   24.3936 H   0  0  0  0  0  0  0  0  0  0  0  0
   18.9438   20.4345   24.5003 C   0  0  0  0  0  0  0  0  0  0  0  0
   18.7677   21.2886   23.8332 H   0  0  0  0  0  0  0  0  0  0  0  0
   18.1168   20.3911   25.2209 H   0  0  0  0  0  0  0  0  0  0  0  0
   19.8706   20.6209   25.0586 H   0  0  0  0  0  0  0  0  0  0  0  0
  1  2  1  0  0  0  0
  1  3  2  0  0  0  0
  1  4  1  0  0  0  0
  4  5  1  0  0  0  0
  4  6  1  0  0  0  0
  4  7  1  0  0  0  0
  7  8  1  0  0  0  0
  7  9  1  0  0  0  0
  7 10  1  0  0  0  0
 10 11  1  0  0  0  0
 10 12  1  0  0  0  0
 10 13  1  0  0  0  0
 13 14  1  0  0  0  0
 13 15  1  0  0  0  0
 13 16  1  0  0  0  0
 16 17  1  0  0  0  0
 16 18  1  0  0  0  0
 16 19  1  0  0  0  0
M  END
> <VConfSearch Rank>
502

> <Conf_Id>
35

> <Delta U+W>
-0.030

> <U+W>
-54.921

> <U>
8.267

> <W>
-63.188

> <W(PB)>
-65.294

> <W(SA)>
2.106

> <Valence>
6.935

> <Coulomb>
0.875

> <VdW>
0.457

> <VdW6>
-6.205

> <VdW12>
6.662

> <Bond>
0.107

> <Angle>
2.420

> <Pdih>
4.407

> <Idih>
0.001

> <Tether>
0.000

$$$$
VeraChem MOL file


 19 18  0  0  0  0  0  0  0  0999 V2000     
   21.9280   17.7421   24.2747 C   0  0  0  0  0  0  0  0  0  0  0  0
   23.0668   17.6395   23.8633 O   0  5  0  0  0  0  0  0  0  0  0  0
   21.3366   16.8466   24.8448 O   0  0  0  0  0  0  0  0  0  0  0  0
   21.2112   19.0760   24.0833 C   0  0  0  0  0  0  0  0  0  0  0  0
   21.9110   19.8682   24.3745 H   0  0  0  0  0  0  0  0  0  0  0  0
   20.3680   19.1247   24.7830 H   0  0  0  0  0  0  0  0  0  0  0  0
   20.7190   19.3280   22.6342 C   0  0  0  0  0  0  0  0  0  0  0  0
   20.3608   20.3629   22.5632 H   0  0  0  0  0  0  0  0  0  0  0  0
   21.5666   19.2370   21.9410 H   0  0  0  0  0  0  0  0  0  0  0  0
   19.5902   18.3568   22.2130 C   0  0  0  0  0  0  0  0  0  0  0  0
   18.7288   18.4768   22.8842 H   0  0  0  0  0  0  0  0  0  0  0  0
   19.9385   17.3224   22.3383 H   0  0  0  0  0  0  0  0  0  0  0  0
   19.1345   18.5435   20.7473 C   0  0  0  0  0  0  0  0  0  0  0  0
   19.9937   18.4220   20.0733 H   0  0  0  0  0  0  0  0  0  0  0  0
   18.4262   17.7426   20.4943 H   0  0  0  0  0  0  0  0  0  0  0  0
   18.4570   19.9060   20.4856 C   0  0  0  0  0  0  0  0  0  0  0  0
   19.1633   20.7360   20.6119 H   0  0  0  0  0  0  0  0  0  0  0  0
   18.0717   19.9517   19.4588 H   0  0  0  0  0  0  0  0  0  0  0  0
   17.6135   20.0634   21.1703 H   0  0  0  0  0  0  0  0  0  0  0  0
  1  2  1  0  0  0  0
  1  3  2  0  0  0  0
  1  4  1  0  0  0  0
  4  5  1  0  0  0  0
  4  6  1  0  0  0  0
  4  7  1  0  0  0  0
  7  8  1  0  0  0  0
  7  9  1  0  0  0  0
  7 10  1  0  0  0  0
 10 11  1  0  0  0  0
 10 12  1  0  0  0  0
 10 13  1  0  0  0  0
 13 14  1  0  0  0  0
 13 15  1  0  0  0  0
 13 16  1  0  0  0  0
 16 17  1  0  0  0  0
 16 18  1  0  0  0  0
 16 19  1  0  0  0  0
M  END
> <VConfSearch Rank>
503

> <Conf_Id>
74

> <Delta U+W>
0.797

> <U+W>
-54.095

> <U>
8.869

> <W>
-62.964

> <W(PB)>
-65.046

> <W(SA)>
2.082

> <Valence>
7.469

> <Coulomb>
0.762

> <VdW>
0.639

> <VdW6>
-6.782

> <VdW12>
7.421

> <Bond>
0.141

> <Angle>
2.667

> <Pdih>
4.660

> <Idih>
0.001

> <Tether>
0.000

$$$$
VeraChem MOL file


 19 18  0  0  0  0  0  0  0  0999 V2000     
   21.0156   21.5824   22.9852 C   0  0  0  0  0  0  0  0  0  0  0  0
   20.5837   22.3966   23.7769 O   0  5  0  0  0  0  0  0  0  0  0  0
   22.1726   21.5529   22.6153 O   0  0  0  0  0  0  0  0  0  0  0  0
   20.0574   20.5289   22.4408 C   0  0  0  0  0  0  0  0  0  0  0  0
   20.3702   20.2899   21.4180 H   0  0  0  0  0  0  0  0  0  0  0  0
   19.0578   20.9757   22.3803 H   0  0  0  0  0  0  0  0  0  0  0  0
   20.0180   19.2459   23.3108 C   0  0  0  0  0  0  0  0  0  0  0  0
   21.0151   18.7864   23.3330 H   0  0  0  0  0  0  0  0  0  0  0  0
   19.7916   19.5301   24.3478 H   0  0  0  0  0  0  0  0  0  0  0  0
   18.9638   18.2118   22.8419 C   0  0  0  0  0  0  0  0  0  0  0  0
   17.9643   18.6599   22.9253 H   0  0  0  0  0  0  0  0  0  0  0  0
   18.9729   17.3599   23.5354 H   0  0  0  0  0  0  0  0  0  0  0  0
   19.1539   17.6839   21.3986 C   0  0  0  0  0  0  0  0  0  0  0  0
   18.3445   16.9748   21.1764 H   0  0  0  0  0  0  0  0  0  0  0  0
   19.0444   18.5043   20.6771 H   0  0  0  0  0  0  0  0  0  0  0  0
   20.5081   16.9755   21.1800 C   0  0  0  0  0  0  0  0  0  0  0  0
   20.6492   16.1648   21.9065 H   0  0  0  0  0  0  0  0  0  0  0  0
   20.5560   16.5405   20.1734 H   0  0  0  0  0  0  0  0  0  0  0  0
   21.3457   17.6774   21.2791 H   0  0  0  0  0  0  0  0  0  0  0  0
  1  2  1  0  0  0  0
  1  3  2  0  0  0  0
  1  4  1  0  0  0  0
  4  5  1  0  0  0  0
  4  6  1  0  0  0  0
  4  7  1  0  0  0  0
  7  8  1  0  0  0  0
  7  9  1  0  0  0  0
  7 10  1  0  0  0  0
 10 11  1  0  0  0  0
 10 12  1  0  0  0  0
 10 13  1  0  0  0  0
 13 14  1  0  0  0  0
 13 15  1  0  0  0  0
 13 16  1  0  0  0  0
 16 17  1  0  0  0  0
 16 18  1  0  0  0  0
 16 19  1  0  0  0  0
M  END
> <VConfSearch Rank>
504

> <Conf_Id>
67

> <Delta U+W>
0.308

> <U+W>
-54.583

> <U>
8.219

> <W>
-62.802

> <W(PB)>
-64.859

> <W(SA)>
2.057

> <Valence>
7.609

> <Coulomb>
-0.089

> <VdW>
0.699

> <VdW6>
-6.924

> <VdW12>
7.623

> <Bond>
0.163

> <Angle>
2.870

> <Pdih>
4.576

> <Idih>
0.001

> <Tether>
0.000

$$$$
VeraChem MOL file


 19 18  0  0  0  0  0  0  0  0999 V2000     
   21.6127   16.6949   23.2724 C   0  0  0  0  0  0  0  0  0  0  0  0
   22.7996   16.4846   23.1192 O   0  5  0  0  0  0  0  0  0  0  0  0
   20.8029   15.8247   23.5238 O   0  0  0  0  0  0  0  0  0  0  0  0
   21.1097   18.1262   23.1215 C   0  0  0  0  0  0  0  0  0  0  0  0
   21.9032   18.8039   23.4584 H   0  0  0  0  0  0  0  0  0  0  0  0
   20.2602   18.2549   23.8018 H   0  0  0  0  0  0  0  0  0  0  0  0
   20.6970   18.4675   21.6662 C   0  0  0  0  0  0  0  0  0  0  0  0
   21.5398   18.2413   20.9986 H   0  0  0  0  0  0  0  0  0  0  0  0
   19.8765   17.8083   21.3530 H   0  0  0  0  0  0  0  0  0  0  0  0
   20.2956   19.9508   21.4681 C   0  0  0  0  0  0  0  0  0  0  0  0
   20.0625   20.1142   20.4070 H   0  0  0  0  0  0  0  0  0  0  0  0
   21.1635   20.5868   21.6892 H   0  0  0  0  0  0  0  0  0  0  0  0
   19.0966   20.4299   22.3230 C   0  0  0  0  0  0  0  0  0  0  0  0
   19.3459   20.3739   23.3909 H   0  0  0  0  0  0  0  0  0  0  0  0
   18.9171   21.4924   22.1089 H   0  0  0  0  0  0  0  0  0  0  0  0
   17.7973   19.6422   22.0497 C   0  0  0  0  0  0  0  0  0  0  0  0
   17.8942   18.5937   22.3587 H   0  0  0  0  0  0  0  0  0  0  0  0
   16.9592   20.0776   22.6091 H   0  0  0  0  0  0  0  0  0  0  0  0
   17.5408   19.6654   20.9826 H   0  0  0  0  0  0  0  0  0  0  0  0
  1  2  1  0  0  0  0
  1  3  2  0  0  0  0
  1  4  1  0  0  0  0
  4  5  1  0  0  0  0
  4  6  1  0  0  0  0
  4  7  1  0  0  0  0
  7  8  1  0  0  0  0
  7  9  1  0  0  0  0
  7 10  1  0  0  0  0
 10 11  1  0  0  0  0
 10 12  1  0  0  0  0
 10 13  1  0  0  0  0
 13 14  1  0  0  0  0
 13 15  1  0  0  0  0
 13 16  1  0  0  0  0
 16 17  1  0  0  0  0
 16 18  1  0  0  0  0
 16 19  1  0  0  0  0
M  END
> <VConfSearch Rank>
505

> <Conf_Id>
21

> <Delta U+W>
0.319

> <U+W>
-54.572

> <U>
8.220

> <W>
-62.792

> <W(PB)>
-64.830

> <W(SA)>
2.038

> <Valence>
7.609

> <Coulomb>
-0.088

> <VdW>
0.699

> <VdW6>
-6.924

> <VdW12>
7.623

> <Bond>
0.163

> <Angle>
2.870

> <Pdih>
4.576

> <Idih>
0.000

> <Tether>
0.000

$$$$
VeraChem MOL file


 19 18  0  0  0  0  0  0  0  0999 V2000     
   19.6896   17.5614   24.8595 C   0  0  0  0  0  0  0  0  0  0  0  0
   20.2620   16.5854   25.3024 O   0  5  0  0  0  0  0  0  0  0  0  0
   19.1439   18.3942   25.5558 O   0  0  0  0  0  0  0  0  0  0  0  0
   19.6714   17.7612   23.3482 C   0  0  0  0  0  0  0  0  0  0  0  0
   18.7350   18.2640   23.0873 H   0  0  0  0  0  0  0  0  0  0  0  0
   19.6442   16.7716   22.8766 H   0  0  0  0  0  0  0  0  0  0  0  0
   20.8969   18.5615   22.8332 C   0  0  0  0  0  0  0  0  0  0  0  0
   20.9593   19.5304   23.3475 H   0  0  0  0  0  0  0  0  0  0  0  0
   21.8037   18.0077   23.1133 H   0  0  0  0  0  0  0  0  0  0  0  0
   20.8973   18.7683   21.2972 C   0  0  0  0  0  0  0  0  0  0  0  0
   20.3841   17.9336   20.8003 H   0  0  0  0  0  0  0  0  0  0  0  0
   21.9382   18.7292   20.9479 H   0  0  0  0  0  0  0  0  0  0  0  0
   20.2992   20.1168   20.8263 C   0  0  0  0  0  0  0  0  0  0  0  0
   20.8758   20.9463   21.2585 H   0  0  0  0  0  0  0  0  0  0  0  0
   20.4232   20.1913   19.7372 H   0  0  0  0  0  0  0  0  0  0  0  0
   18.8058   20.3001   21.1667 C   0  0  0  0  0  0  0  0  0  0  0  0
   18.4137   21.2098   20.6940 H   0  0  0  0  0  0  0  0  0  0  0  0
   18.2122   19.4491   20.8084 H   0  0  0  0  0  0  0  0  0  0  0  0
   18.6564   20.4003   22.2491 H   0  0  0  0  0  0  0  0  0  0  0  0
  1  2  1  0  0  0  0
  1  3  2  0  0  0  0
  1  4  1  0  0  0  0
  4  5  1  0  0  0  0
  4  6  1  0  0  0  0
  4  7  1  0  0  0  0
  7  8  1  0  0  0  0
  7  9  1  0  0  0  0
  7 10  1  0  0  0  0
 10 11  1  0  0  0  0
 10 12  1  0  0  0  0
 10 13  1  0  0  0  0
 13 14  1  0  0  0  0
 13 15  1  0  0  0  0
 13 16  1  0  0  0  0
 16 17  1  0  0  0  0
 16 18  1  0  0  0  0
 16 19  1  0  0  0  0
M  END
> <VConfSearch Rank>
506

> <Conf_Id>
24

> <Delta U+W>
2.477

> <U+W>
-52.414

> <U>
10.422

> <W>
-62.836

> <W(PB)>
-64.906

> <W(SA)>
2.070

> <Valence>
9.628

> <Coulomb>
0.101

> <VdW>
0.693

> <VdW6>
-6.927

> <VdW12>
7.620

> <Bond>
0.173

> <Angle>
2.989

> <Pdih>
6.465

> <Idih>
0.001

> <Tether>
0.000

$$$$
VeraChem MOL file


 19 18  0  0  0  0  0  0  0  0999 V2000     
   19.3164   18.4318   19.9290 C   0  0  0  0  0  0  0  0  0  0  0  0
   19.4961   17.2354   20.0439 O   0  5  0  0  0  0  0  0  0  0  0  0
   18.5196   18.9187   19.1512 O   0  0  0  0  0  0  0  0  0  0  0  0
   20.1553   19.3770   20.7852 C   0  0  0  0  0  0  0  0  0  0  0  0
   20.5616   20.1447   20.1164 H   0  0  0  0  0  0  0  0  0  0  0  0
   21.0111   18.8190   21.1782 H   0  0  0  0  0  0  0  0  0  0  0  0
   19.3614   20.0628   21.9316 C   0  0  0  0  0  0  0  0  0  0  0  0
   19.9631   20.8708   22.3691 H   0  0  0  0  0  0  0  0  0  0  0  0
   18.4794   20.5480   21.4909 H   0  0  0  0  0  0  0  0  0  0  0  0
   18.8928   19.0946   23.0489 C   0  0  0  0  0  0  0  0  0  0  0  0
   18.7159   18.0908   22.6393 H   0  0  0  0  0  0  0  0  0  0  0  0
   17.9170   19.4428   23.4142 H   0  0  0  0  0  0  0  0  0  0  0  0
   19.8426   19.0083   24.2690 C   0  0  0  0  0  0  0  0  0  0  0  0
   19.9442   20.0011   24.7286 H   0  0  0  0  0  0  0  0  0  0  0  0
   19.3765   18.3648   25.0277 H   0  0  0  0  0  0  0  0  0  0  0  0
   21.2425   18.4498   23.9407 C   0  0  0  0  0  0  0  0  0  0  0  0
   21.8111   19.1499   23.3163 H   0  0  0  0  0  0  0  0  0  0  0  0
   21.8167   18.2872   24.8619 H   0  0  0  0  0  0  0  0  0  0  0  0
   21.1694   17.4901   23.4124 H   0  0  0  0  0  0  0  0  0  0  0  0
  1  2  1  0  0  0  0
  1  3  2  0  0  0  0
  1  4  1  0  0  0  0
  4  5  1  0  0  0  0
  4  6  1  0  0  0  0
  4  7  1  0  0  0  0
  7  8  1  0  0  0  0
  7  9  1  0  0  0  0
  7 10  1  0  0  0  0
 10 11  1  0  0  0  0
 10 12  1  0  0  0  0
 10 13  1  0  0  0  0
 13 14  1  0  0  0  0
 13 15  1  0  0  0  0
 13 16  1  0  0  0  0
 16 17  1  0  0  0  0
 16 18  1  0  0  0  0
 16 19  1  0  0  0  0
M  END
> <VConfSearch Rank>
507

> <Conf_Id>
4

> <Delta U+W>
3.753

> <U+W>
-51.138

> <U>
12.334

> <W>
-63.472

> <W(PB)>
-65.500

> <W(SA)>
2.028

> <Valence>
9.984

> <Coulomb>
1.767

> <VdW>
0.583

> <VdW6>
-7.767

> <VdW12>
8.349

> <Bond>
0.203

> <Angle>
3.191

> <Pdih>
6.589

> <Idih>
0.001

> <Tether>
0.000

$$$$
VeraChem MOL file


 19 18  0  0  0  0  0  0  0  0999 V2000     
   17.6957   17.6182   22.8675 C   0  0  0  0  0  0  0  0  0  0  0  0
   17.4315   16.7427   23.6680 O   0  5  0  0  0  0  0  0  0  0  0  0
   16.9553   18.5508   22.6251 O   0  0  0  0  0  0  0  0  0  0  0  0
   19.0156   17.5228   22.1066 C   0  0  0  0  0  0  0  0  0  0  0  0
   18.9585   18.1792   21.2325 H   0  0  0  0  0  0  0  0  0  0  0  0
   19.0957   16.4983   21.7250 H   0  0  0  0  0  0  0  0  0  0  0  0
   20.2666   17.8487   22.9691 C   0  0  0  0  0  0  0  0  0  0  0  0
   20.2374   17.2115   23.8639 H   0  0  0  0  0  0  0  0  0  0  0  0
   21.1775   17.5640   22.4256 H   0  0  0  0  0  0  0  0  0  0  0  0
   20.3638   19.3311   23.4145 C   0  0  0  0  0  0  0  0  0  0  0  0
   20.8104   19.3566   24.4179 H   0  0  0  0  0  0  0  0  0  0  0  0
   19.3613   19.7668   23.5242 H   0  0  0  0  0  0  0  0  0  0  0  0
   21.2319   20.2258   22.4960 C   0  0  0  0  0  0  0  0  0  0  0  0
   21.2991   21.2255   22.9468 H   0  0  0  0  0  0  0  0  0  0  0  0
   22.2580   19.8344   22.4622 H   0  0  0  0  0  0  0  0  0  0  0  0
   20.6902   20.3682   21.0587 C   0  0  0  0  0  0  0  0  0  0  0  0
   19.6396   20.6872   21.0639 H   0  0  0  0  0  0  0  0  0  0  0  0
   21.2693   21.1164   20.5024 H   0  0  0  0  0  0  0  0  0  0  0  0
   20.7645   19.4199   20.5123 H   0  0  0  0  0  0  0  0  0  0  0  0
  1  2  1  0  0  0  0
  1  3  2  0  0  0  0
  1  4  1  0  0  0  0
  4  5  1  0  0  0  0
  4  6  1  0  0  0  0
  4  7  1  0  0  0  0
  7  8  1  0  0  0  0
  7  9  1  0  0  0  0
  7 10  1  0  0  0  0
 10 11  1  0  0  0  0
 10 12  1  0  0  0  0
 10 13  1  0  0  0  0
 13 14  1  0  0  0  0
 13 15  1  0  0  0  0
 13 16  1  0  0  0  0
 16 17  1  0  0  0  0
 16 18  1  0  0  0  0
 16 19  1  0  0  0  0
M  END
> <VConfSearch Rank>
508

> <Conf_Id>
73

> <Delta U+W>
3.707

> <U+W>
-51.184

> <U>
12.334

> <W>
-63.519

> <W(PB)>
-65.541

> <W(SA)>
2.022

> <Valence>
9.984

> <Coulomb>
1.768

> <VdW>
0.583

> <VdW6>
-7.767

> <VdW12>
8.350

> <Bond>
0.203

> <Angle>
3.192

> <Pdih>
6.589

> <Idih>
0.001

> <Tether>
0.000

$$$$
VeraChem MOL file


 19 18  0  0  0  0  0  0  0  0999 V2000     
   22.3888   19.2061   21.9452 C   0  0  0  0  0  0  0  0  0  0  0  0
   22.3145   19.9977   21.0262 O   0  5  0  0  0  0  0  0  0  0  0  0
   23.3024   19.1920   22.7465 O   0  0  0  0  0  0  0  0  0  0  0  0
   21.2942   18.1516   22.0840 C   0  0  0  0  0  0  0  0  0  0  0  0
   21.7890   17.1780   22.1789 H   0  0  0  0  0  0  0  0  0  0  0  0
   20.7184   18.1174   21.1520 H   0  0  0  0  0  0  0  0  0  0  0  0
   20.3526   18.3699   23.2997 C   0  0  0  0  0  0  0  0  0  0  0  0
   19.6473   17.5314   23.3660 H   0  0  0  0  0  0  0  0  0  0  0  0
   20.9520   18.3330   24.2197 H   0  0  0  0  0  0  0  0  0  0  0  0
   19.5699   19.7081   23.2715 C   0  0  0  0  0  0  0  0  0  0  0  0
   20.2834   20.5416   23.3281 H   0  0  0  0  0  0  0  0  0  0  0  0
   18.9547   19.7756   24.1790 H   0  0  0  0  0  0  0  0  0  0  0  0
   18.6621   19.9151   22.0345 C   0  0  0  0  0  0  0  0  0  0  0  0
   18.1767   20.8971   22.1178 H   0  0  0  0  0  0  0  0  0  0  0  0
   19.2717   19.9555   21.1217 H   0  0  0  0  0  0  0  0  0  0  0  0
   17.5711   18.8325   21.8877 C   0  0  0  0  0  0  0  0  0  0  0  0
   18.0112   17.8474   21.6881 H   0  0  0  0  0  0  0  0  0  0  0  0
   16.9636   18.7611   22.7992 H   0  0  0  0  0  0  0  0  0  0  0  0
   16.9013   19.0732   21.0521 H   0  0  0  0  0  0  0  0  0  0  0  0
  1  2  1  0  0  0  0
  1  3  2  0  0  0  0
  1  4  1  0  0  0  0
  4  5  1  0  0  0  0
  4  6  1  0  0  0  0
  4  7  1  0  0  0  0
  7  8  1  0  0  0  0
  7  9  1  0  0  0  0
  7 10  1  0  0  0  0
 10 11  1  0  0  0  0
 10 12  1  0  0  0  0
 10 13  1  0  0  0  0
 13 14  1  0  0  0  0
 13 15  1  0  0  0  0
 13 16  1  0  0  0  0
 16 17  1  0  0  0  0
 16 18  1  0  0  0  0
 16 19  1  0  0  0  0
M  END
> <VConfSearch Rank>
509

> <Conf_Id>
56

> <Delta U+W>
1.735

> <U+W>
-53.156

> <U>
10.214

> <W>
-63.370

> <W(PB)>
-65.388

> <W(SA)>
2.018

> <Valence>
7.868

> <Coulomb>
1.968

> <VdW>
0.378

> <VdW6>
-8.067

> <VdW12>
8.445

> <Bond>
0.191

> <Angle>
3.117

> <Pdih>
4.559

> <Idih>
0.001

> <Tether>
0.000

$$$$
VeraChem MOL file


 19 18  0  0  0  0  0  0  0  0999 V2000     
   18.8197   16.9812   24.1460 C   0  0  0  0  0  0  0  0  0  0  0  0
   19.1060   16.9448   25.3263 O   0  5  0  0  0  0  0  0  0  0  0  0
   18.2031   16.1025   23.5767 O   0  0  0  0  0  0  0  0  0  0  0  0
   19.2778   18.1850   23.3305 C   0  0  0  0  0  0  0  0  0  0  0  0
   19.2966   19.0589   23.9927 H   0  0  0  0  0  0  0  0  0  0  0  0
   18.5213   18.3705   22.5599 H   0  0  0  0  0  0  0  0  0  0  0  0
   20.6683   17.9757   22.6796 C   0  0  0  0  0  0  0  0  0  0  0  0
   21.3749   17.6521   23.4564 H   0  0  0  0  0  0  0  0  0  0  0  0
   20.6083   17.1512   21.9560 H   0  0  0  0  0  0  0  0  0  0  0  0
   21.2452   19.2353   21.9860 C   0  0  0  0  0  0  0  0  0  0  0  0
   22.2465   18.9780   21.6142 H   0  0  0  0  0  0  0  0  0  0  0  0
   21.3973   20.0358   22.7230 H   0  0  0  0  0  0  0  0  0  0  0  0
   20.4076   19.7575   20.7923 C   0  0  0  0  0  0  0  0  0  0  0  0
   21.0932   20.1452   20.0260 H   0  0  0  0  0  0  0  0  0  0  0  0
   19.8590   18.9305   20.3207 H   0  0  0  0  0  0  0  0  0  0  0  0
   19.4353   20.8937   21.1799 C   0  0  0  0  0  0  0  0  0  0  0  0
   18.8795   21.2400   20.2989 H   0  0  0  0  0  0  0  0  0  0  0  0
   18.7048   20.5692   21.9294 H   0  0  0  0  0  0  0  0  0  0  0  0
   19.9825   21.7525   21.5899 H   0  0  0  0  0  0  0  0  0  0  0  0
  1  2  1  0  0  0  0
  1  3  2  0  0  0  0
  1  4  1  0  0  0  0
  4  5  1  0  0  0  0
  4  6  1  0  0  0  0
  4  7  1  0  0  0  0
  7  8  1  0  0  0  0
  7  9  1  0  0  0  0
  7 10  1  0  0  0  0
 10 11  1  0  0  0  0
 10 12  1  0  0  0  0
 10 13  1  0  0  0  0
 13 14  1  0  0  0  0
 13 15  1  0  0  0  0
 13 16  1  0  0  0  0
 16 17  1  0  0  0  0
 16 18  1  0  0  0  0
 16 19  1  0  0  0  0
M  END
> <VConfSearch Rank>
510

> <Conf_Id>
53

> <Delta U+W>
2.279

> <U+W>
-52.612

> <U>
10.231

> <W>
-62.843

> <W(PB)>
-64.893

> <W(SA)>
2.050

> <Valence>
9.644

> <Coulomb>
-0.164

> <VdW>
0.751

> <VdW6>
-6.881

> <VdW12>
7.631

> <Bond>
0.163

> <Angle>
2.998

> <Pdih>
6.482

> <Idih>
0.001

> <Tether>
0.000

$$$$
VeraChem MOL file


 19 18  0  0  0  0  0  0  0  0999 V2000     
   18.5838   19.1686   20.6866 C   0  0  0  0  0  0  0  0  0  0  0  0
   19.2559   18.9612   19.6956 O   0  5  0  0  0  0  0  0  0  0  0  0
   17.9564   20.1938   20.8676 O   0  0  0  0  0  0  0  0  0  0  0  0
   18.4668   18.0535   21.7240 C   0  0  0  0  0  0  0  0  0  0  0  0
   19.0446   17.1862   21.3823 H   0  0  0  0  0  0  0  0  0  0  0  0
   17.4145   17.7466   21.7294 H   0  0  0  0  0  0  0  0  0  0  0  0
   18.8865   18.4443   23.1691 C   0  0  0  0  0  0  0  0  0  0  0  0
   18.4650   19.4251   23.4294 H   0  0  0  0  0  0  0  0  0  0  0  0
   18.4278   17.7252   23.8612 H   0  0  0  0  0  0  0  0  0  0  0  0
   20.4138   18.4373   23.4263 C   0  0  0  0  0  0  0  0  0  0  0  0
   20.8274   17.4521   23.1710 H   0  0  0  0  0  0  0  0  0  0  0  0
   20.5797   18.5716   24.5040 H   0  0  0  0  0  0  0  0  0  0  0  0
   21.1858   19.5375   22.6653 C   0  0  0  0  0  0  0  0  0  0  0  0
   21.1448   19.3479   21.5851 H   0  0  0  0  0  0  0  0  0  0  0  0
   20.7114   20.5133   22.8389 H   0  0  0  0  0  0  0  0  0  0  0  0
   22.6628   19.5983   23.1040 C   0  0  0  0  0  0  0  0  0  0  0  0
   23.1672   18.6413   22.9168 H   0  0  0  0  0  0  0  0  0  0  0  0
   23.1989   20.3786   22.5483 H   0  0  0  0  0  0  0  0  0  0  0  0
   22.7464   19.8269   24.1746 H   0  0  0  0  0  0  0  0  0  0  0  0
  1  2  1  0  0  0  0
  1  3  2  0  0  0  0
  1  4  1  0  0  0  0
  4  5  1  0  0  0  0
  4  6  1  0  0  0  0
  4  7  1  0  0  0  0
  7  8  1  0  0  0  0
  7  9  1  0  0  0  0
  7 10  1  0  0  0  0
 10 11  1  0  0  0  0
 10 12  1  0  0  0  0
 10 13  1  0  0  0  0
 13 14  1  0  0  0  0
 13 15  1  0  0  0  0
 13 16  1  0  0  0  0
 16 17  1  0  0  0  0
 16 18  1  0  0  0  0
 16 19  1  0  0  0  0
M  END
> <VConfSearch Rank>
511

> <Conf_Id>
25

> <Delta U+W>
2.065

> <U+W>
-52.826

> <U>
10.967

> <W>
-63.794

> <W(PB)>
-65.830

> <W(SA)>
2.036

> <Valence>
8.609

> <Coulomb>
1.892

> <VdW>
0.467

> <VdW6>
-7.569

> <VdW12>
8.036

> <Bond>
0.170

> <Angle>
3.195

> <Pdih>
5.237

> <Idih>
0.007

> <Tether>
0.000

$$$$
VeraChem MOL file


 19 18  0  0  0  0  0  0  0  0999 V2000     
   21.1393   19.8565   20.5581 C   0  0  0  0  0  0  0  0  0  0  0  0
   22.0772   19.1643   20.2137 O   0  5  0  0  0  0  0  0  0  0  0  0
   21.2498   21.0250   20.8731 O   0  0  0  0  0  0  0  0  0  0  0  0
   19.7384   19.2482   20.5267 C   0  0  0  0  0  0  0  0  0  0  0  0
   19.5360   18.9943   19.4797 H   0  0  0  0  0  0  0  0  0  0  0  0
   19.0092   20.0171   20.8095 H   0  0  0  0  0  0  0  0  0  0  0  0
   19.5467   17.9771   21.4011 C   0  0  0  0  0  0  0  0  0  0  0  0
   18.6659   17.4381   21.0266 H   0  0  0  0  0  0  0  0  0  0  0  0
   20.3982   17.2962   21.2641 H   0  0  0  0  0  0  0  0  0  0  0  0
   19.3244   18.2532   22.9087 C   0  0  0  0  0  0  0  0  0  0  0  0
   19.0474   17.3065   23.3926 H   0  0  0  0  0  0  0  0  0  0  0  0
   18.4677   18.9284   23.0388 H   0  0  0  0  0  0  0  0  0  0  0  0
   20.5590   18.8359   23.6311 C   0  0  0  0  0  0  0  0  0  0  0  0
   21.4414   18.2164   23.4192 H   0  0  0  0  0  0  0  0  0  0  0  0
   20.7756   19.8434   23.2537 H   0  0  0  0  0  0  0  0  0  0  0  0
   20.3384   18.9126   25.1554 C   0  0  0  0  0  0  0  0  0  0  0  0
   21.2207   19.3364   25.6524 H   0  0  0  0  0  0  0  0  0  0  0  0
   19.4760   19.5482   25.3953 H   0  0  0  0  0  0  0  0  0  0  0  0
   20.1581   17.9153   25.5776 H   0  0  0  0  0  0  0  0  0  0  0  0
  1  2  1  0  0  0  0
  1  3  2  0  0  0  0
  1  4  1  0  0  0  0
  4  5  1  0  0  0  0
  4  6  1  0  0  0  0
  4  7  1  0  0  0  0
  7  8  1  0  0  0  0
  7  9  1  0  0  0  0
  7 10  1  0  0  0  0
 10 11  1  0  0  0  0
 10 12  1  0  0  0  0
 10 13  1  0  0  0  0
 13 14  1  0  0  0  0
 13 15  1  0  0  0  0
 13 16  1  0  0  0  0
 16 17  1  0  0  0  0
 16 18  1  0  0  0  0
 16 19  1  0  0  0  0
M  END
> <VConfSearch Rank>
512

> <Conf_Id>
52

> <Delta U+W>
2.070

> <U+W>
-52.822

> <U>
10.967

> <W>
-63.789

> <W(PB)>
-65.837

> <W(SA)>
2.048

> <Valence>
8.609

> <Coulomb>
1.892

> <VdW>
0.467

> <VdW6>
-7.569

> <VdW12>
8.035

> <Bond>
0.170

> <Angle>
3.196

> <Pdih>
5.237

> <Idih>
0.007

> <Tether>
0.000

$$$$
VeraChem MOL file


 19 18  0  0  0  0  0  0  0  0999 V2000     
   18.3672   17.7348   21.5503 C   0  0  0  0  0  0  0  0  0  0  0  0
   17.8611   16.9605   22.3392 O   0  5  0  0  0  0  0  0  0  0  0  0
   17.7199   18.4815   20.8431 O   0  0  0  0  0  0  0  0  0  0  0  0
   19.8814   17.6842   21.3405 C   0  0  0  0  0  0  0  0  0  0  0  0
   20.1852   18.5370   20.7216 H   0  0  0  0  0  0  0  0  0  0  0  0
   20.0746   16.7833   20.7469 H   0  0  0  0  0  0  0  0  0  0  0  0
   20.7417   17.6263   22.6350 C   0  0  0  0  0  0  0  0  0  0  0  0
   20.2743   16.9529   23.3667 H   0  0  0  0  0  0  0  0  0  0  0  0
   21.7049   17.1647   22.3793 H   0  0  0  0  0  0  0  0  0  0  0  0
   21.0426   18.9963   23.2953 C   0  0  0  0  0  0  0  0  0  0  0  0
   21.5999   19.6352   22.5965 H   0  0  0  0  0  0  0  0  0  0  0  0
   21.7247   18.8136   24.1369 H   0  0  0  0  0  0  0  0  0  0  0  0
   19.8028   19.7471   23.8386 C   0  0  0  0  0  0  0  0  0  0  0  0
   18.9802   19.0437   24.0282 H   0  0  0  0  0  0  0  0  0  0  0  0
   20.0548   20.1897   24.8121 H   0  0  0  0  0  0  0  0  0  0  0  0
   19.3338   20.8816   22.9027 C   0  0  0  0  0  0  0  0  0  0  0  0
   20.1168   21.6422   22.7868 H   0  0  0  0  0  0  0  0  0  0  0  0
   19.0809   20.5016   21.9060 H   0  0  0  0  0  0  0  0  0  0  0  0
   18.4421   21.3741   23.3112 H   0  0  0  0  0  0  0  0  0  0  0  0
  1  2  1  0  0  0  0
  1  3  2  0  0  0  0
  1  4  1  0  0  0  0
  4  5  1  0  0  0  0
  4  6  1  0  0  0  0
  4  7  1  0  0  0  0
  7  8  1  0  0  0  0
  7  9  1  0  0  0  0
  7 10  1  0  0  0  0
 10 11  1  0  0  0  0
 10 12  1  0  0  0  0
 10 13  1  0  0  0  0
 13 14  1  0  0  0  0
 13 15  1  0  0  0  0
 13 16  1  0  0  0  0
 16 17  1  0  0  0  0
 16 18  1  0  0  0  0
 16 19  1  0  0  0  0
M  END
> <VConfSearch Rank>
513

> <Conf_Id>
66

> <Delta U+W>
5.819

> <U+W>
-49.072

> <U>
15.324

> <W>
-64.396

> <W(PB)>
-66.382

> <W(SA)>
1.986

> <Valence>
11.748

> <Coulomb>
3.201

> <VdW>
0.375

> <VdW6>
-8.854

> <VdW12>
9.229

> <Bond>
0.216

> <Angle>
3.812

> <Pdih>
7.699

> <Idih>
0.022

> <Tether>
0.000

$$$$
VeraChem MOL file


 19 18  0  0  0  0  0  0  0  0999 V2000     
   19.4167   15.5944   22.7633 C   0  0  0  0  0  0  0  0  0  0  0  0
   19.9041   14.6429   23.3402 O   0  5  0  0  0  0  0  0  0  0  0  0
   18.3717   15.5312   22.1451 O   0  0  0  0  0  0  0  0  0  0  0  0
   20.1770   16.9196   22.8364 C   0  0  0  0  0  0  0  0  0  0  0  0
   21.1824   16.7424   22.4368 H   0  0  0  0  0  0  0  0  0  0  0  0
   20.2932   17.1720   23.8970 H   0  0  0  0  0  0  0  0  0  0  0  0
   19.5158   18.1056   22.0849 C   0  0  0  0  0  0  0  0  0  0  0  0
   19.3970   17.8441   21.0243 H   0  0  0  0  0  0  0  0  0  0  0  0
   18.5068   18.2741   22.4860 H   0  0  0  0  0  0  0  0  0  0  0  0
   20.3478   19.4003   22.2107 C   0  0  0  0  0  0  0  0  0  0  0  0
   21.3562   19.2296   21.8093 H   0  0  0  0  0  0  0  0  0  0  0  0
   20.4655   19.6598   23.2718 H   0  0  0  0  0  0  0  0  0  0  0  0
   19.6888   20.5781   21.4629 C   0  0  0  0  0  0  0  0  0  0  0  0
   19.5710   20.3231   20.4005 H   0  0  0  0  0  0  0  0  0  0  0  0
   18.6805   20.7534   21.8629 H   0  0  0  0  0  0  0  0  0  0  0  0
   20.5221   21.8689   21.5905 C   0  0  0  0  0  0  0  0  0  0  0  0
   21.5265   21.7314   21.1689 H   0  0  0  0  0  0  0  0  0  0  0  0
   20.0393   22.6956   21.0533 H   0  0  0  0  0  0  0  0  0  0  0  0
   20.6293   22.1649   22.6423 H   0  0  0  0  0  0  0  0  0  0  0  0
  1  2  1  0  0  0  0
  1  3  2  0  0  0  0
  1  4  1  0  0  0  0
  4  5  1  0  0  0  0
  4  6  1  0  0  0  0
  4  7  1  0  0  0  0
  7  8  1  0  0  0  0
  7  9  1  0  0  0  0
  7 10  1  0  0  0  0
 10 11  1  0  0  0  0
 10 12  1  0  0  0  0
 10 13  1  0  0  0  0
 13 14  1  0  0  0  0
 13 15  1  0  0  0  0
 13 16  1  0  0  0  0
 16 17  1  0  0  0  0
 16 18  1  0  0  0  0
 16 19  1  0  0  0  0
M  END
> <VConfSearch Rank>
514

> <Conf_Id>
0

> <Delta U+W>
0.000

> <U+W>
-54.891

> <U>
6.966

> <W>
-61.857

> <W(PB)>
-63.965

> <W(SA)>
2.108

> <Valence>
7.175

> <Coulomb>
-1.360

> <VdW>
1.151

> <VdW6>
-5.641

> <VdW12>
6.792

> <Bond>
0.119

> <Angle>
2.715

> <Pdih>
4.340

> <Idih>
0.000

> <Tether>
0.000

$$$$
VeraChem MOL file


 19 18  0  0  0  0  0  0  0  0999 V2000     
   16.6268   18.2643   22.5725 C   0  0  0  0  0  0  0  0  0  0  0  0
   16.3811   17.1637   23.0247 O   0  5  0  0  0  0  0  0  0  0  0  0
   15.9261   19.2394   22.7579 O   0  0  0  0  0  0  0  0  0  0  0  0
   17.8950   18.4358   21.7438 C   0  0  0  0  0  0  0  0  0  0  0  0
   17.7066   19.2080   20.9882 H   0  0  0  0  0  0  0  0  0  0  0  0
   18.0819   17.4971   21.2084 H   0  0  0  0  0  0  0  0  0  0  0  0
   19.1274   18.8165   22.6008 C   0  0  0  0  0  0  0  0  0  0  0  0
   18.9196   19.7512   23.1400 H   0  0  0  0  0  0  0  0  0  0  0  0
   19.2948   18.0403   23.3604 H   0  0  0  0  0  0  0  0  0  0  0  0
   20.3972   18.9840   21.7388 C   0  0  0  0  0  0  0  0  0  0  0  0
   20.2262   19.7596   20.9796 H   0  0  0  0  0  0  0  0  0  0  0  0
   20.6015   18.0484   21.2001 H   0  0  0  0  0  0  0  0  0  0  0  0
   21.6233   19.3633   22.5951 C   0  0  0  0  0  0  0  0  0  0  0  0
   21.4235   20.2998   23.1341 H   0  0  0  0  0  0  0  0  0  0  0  0
   21.7989   18.5888   23.3546 H   0  0  0  0  0  0  0  0  0  0  0  0
   22.8893   19.5298   21.7312 C   0  0  0  0  0  0  0  0  0  0  0  0
   23.7510   19.7993   22.3557 H   0  0  0  0  0  0  0  0  0  0  0  0
   23.1309   18.5972   21.2045 H   0  0  0  0  0  0  0  0  0  0  0  0
   22.7527   20.3210   20.9824 H   0  0  0  0  0  0  0  0  0  0  0  0
  1  2  1  0  0  0  0
  1  3  2  0  0  0  0
  1  4  1  0  0  0  0
  4  5  1  0  0  0  0
  4  6  1  0  0  0  0
  4  7  1  0  0  0  0
  7  8  1  0  0  0  0
  7  9  1  0  0  0  0
  7 10  1  0  0  0  0
 10 11  1  0  0  0  0
 10 12  1  0  0  0  0
 10 13  1  0  0  0  0
 13 14  1  0  0  0  0
 13 15  1  0  0  0  0
 13 16  1  0  0  0  0
 16 17  1  0  0  0  0
 16 18  1  0  0  0  0
 16 19  1  0  0  0  0
M  END
> <VConfSearch Rank>
515

> <Conf_Id>
18

> <Delta U+W>
-1.199

> <U+W>
-56.090

> <U>
5.975

> <W>
-62.066

> <W(PB)>
-64.219

> <W(SA)>
2.153

> <Valence>
6.673

> <Coulomb>
-1.307

> <VdW>
0.610

> <VdW6>
-5.351

> <VdW12>
5.961

> <Bond>
0.086

> <Angle>
2.253

> <Pdih>
4.333

> <Idih>
0.001

> <Tether>
0.000

$$$$
VeraChem MOL file


 19 18  0  0  0  0  0  0  0  0999 V2000     
   19.0444   17.4392   24.8765 C   0  0  0  0  0  0  0  0  0  0  0  0
   18.9559   16.2322   24.9846 O   0  5  0  0  0  0  0  0  0  0  0  0
   19.1030   18.1966   25.8248 O   0  0  0  0  0  0  0  0  0  0  0  0
   19.1067   18.0341   23.4742 C   0  0  0  0  0  0  0  0  0  0  0  0
   18.6178   19.0143   23.5059 H   0  0  0  0  0  0  0  0  0  0  0  0
   18.5144   17.3962   22.8073 H   0  0  0  0  0  0  0  0  0  0  0  0
   20.5573   18.1637   22.9411 C   0  0  0  0  0  0  0  0  0  0  0  0
   21.1284   18.8400   23.5920 H   0  0  0  0  0  0  0  0  0  0  0  0
   21.0464   17.1821   23.0083 H   0  0  0  0  0  0  0  0  0  0  0  0
   20.6357   18.6572   21.4769 C   0  0  0  0  0  0  0  0  0  0  0  0
   20.0708   17.9743   20.8275 H   0  0  0  0  0  0  0  0  0  0  0  0
   21.6823   18.6051   21.1470 H   0  0  0  0  0  0  0  0  0  0  0  0
   20.1208   20.1016   21.2870 C   0  0  0  0  0  0  0  0  0  0  0  0
   19.0539   20.1597   21.5394 H   0  0  0  0  0  0  0  0  0  0  0  0
   20.6503   20.7771   21.9730 H   0  0  0  0  0  0  0  0  0  0  0  0
   20.3197   20.5861   19.8368 C   0  0  0  0  0  0  0  0  0  0  0  0
   19.9468   21.6116   19.7171 H   0  0  0  0  0  0  0  0  0  0  0  0
   21.3825   20.5779   19.5617 H   0  0  0  0  0  0  0  0  0  0  0  0
   19.7776   19.9436   19.1306 H   0  0  0  0  0  0  0  0  0  0  0  0
  1  2  1  0  0  0  0
  1  3  2  0  0  0  0
  1  4  1  0  0  0  0
  4  5  1  0  0  0  0
  4  6  1  0  0  0  0
  4  7  1  0  0  0  0
  7  8  1  0  0  0  0
  7  9  1  0  0  0  0
  7 10  1  0  0  0  0
 10 11  1  0  0  0  0
 10 12  1  0  0  0  0
 10 13  1  0  0  0  0
 13 14  1  0  0  0  0
 13 15  1  0  0  0  0
 13 16  1  0  0  0  0
 16 17  1  0  0  0  0
 16 18  1  0  0  0  0
 16 19  1  0  0  0  0
M  END
> <VConfSearch Rank>
516

> <Conf_Id>
34

> <Delta U+W>
-0.563

> <U+W>
-55.455

> <U>
6.914

> <W>
-62.369

> <W(PB)>
-64.446

> <W(SA)>
2.077

> <Valence>
7.196

> <Coulomb>
-1.020

> <VdW>
0.738

> <VdW6>
-6.010

> <VdW12>
6.748

> <Bond>
0.126

> <Angle>
2.499

> <Pdih>
4.570

> <Idih>
0.001

> <Tether>
0.000

$$$$
VeraChem MOL file


 19 18  0  0  0  0  0  0  0  0999 V2000     
   16.8861   18.5002   22.9646 C   0  0  0  0  0  0  0  0  0  0  0  0
   16.2860   19.2121   23.7452 O   0  5  0  0  0  0  0  0  0  0  0  0
   16.5107   17.3908   22.6413 O   0  0  0  0  0  0  0  0  0  0  0  0
   18.1931   19.0189   22.3753 C   0  0  0  0  0  0  0  0  0  0  0  0
   18.1161   20.1089   22.2834 H   0  0  0  0  0  0  0  0  0  0  0  0
   18.2863   18.6126   21.3619 H   0  0  0  0  0  0  0  0  0  0  0  0
   19.4295   18.6406   23.2318 C   0  0  0  0  0  0  0  0  0  0  0  0
   19.2624   18.9832   24.2624 H   0  0  0  0  0  0  0  0  0  0  0  0
   19.5219   17.5468   23.2797 H   0  0  0  0  0  0  0  0  0  0  0  0
   20.7514   19.2549   22.7135 C   0  0  0  0  0  0  0  0  0  0  0  0
   21.5460   19.0359   23.4400 H   0  0  0  0  0  0  0  0  0  0  0  0
   20.6587   20.3490   22.6748 H   0  0  0  0  0  0  0  0  0  0  0  0
   21.1764   18.7189   21.3280 C   0  0  0  0  0  0  0  0  0  0  0  0
   21.2197   17.6213   21.3525 H   0  0  0  0  0  0  0  0  0  0  0  0
   20.4306   18.9937   20.5706 H   0  0  0  0  0  0  0  0  0  0  0  0
   22.5501   19.2759   20.9039 C   0  0  0  0  0  0  0  0  0  0  0  0
   22.5278   20.3720   20.8445 H   0  0  0  0  0  0  0  0  0  0  0  0
   23.3300   18.9870   21.6206 H   0  0  0  0  0  0  0  0  0  0  0  0
   22.8365   18.8887   19.9174 H   0  0  0  0  0  0  0  0  0  0  0  0
  1  2  1  0  0  0  0
  1  3  2  0  0  0  0
  1  4  1  0  0  0  0
  4  5  1  0  0  0  0
  4  6  1  0  0  0  0
  4  7  1  0  0  0  0
  7  8  1  0  0  0  0
  7  9  1  0  0  0  0
  7 10  1  0  0  0  0
 10 11  1  0  0  0  0
 10 12  1  0  0  0  0
 10 13  1  0  0  0  0
 13 14  1  0  0  0  0
 13 15  1  0  0  0  0
 13 16  1  0  0  0  0
 16 17  1  0  0  0  0
 16 18  1  0  0  0  0
 16 19  1  0  0  0  0
M  END
> <VConfSearch Rank>
517

> <Conf_Id>
33

> <Delta U+W>
-0.526

> <U+W>
-55.418

> <U>
6.914

> <W>
-62.332

> <W(PB)>
-64.421

> <W(SA)>
2.090

> <Valence>
7.196

> <Coulomb>
-1.020

> <VdW>
0.738

> <VdW6>
-6.010

> <VdW12>
6.748

> <Bond>
0.126

> <Angle>
2.499

> <Pdih>
4.570

> <Idih>
0.001

> <Tether>
0.000

$$$$
VeraChem MOL file


 19 18  0  0  0  0  0  0  0  0999 V2000     
   19.2913   16.4693   24.1043 C   0  0  0  0  0  0  0  0  0  0  0  0
   20.3120   15.8399   24.2998 O   0  5  0  0  0  0  0  0  0  0  0  0
   18.4134   16.6014   24.9339 O   0  0  0  0  0  0  0  0  0  0  0  0
   19.1099   17.1453   22.7498 C   0  0  0  0  0  0  0  0  0  0  0  0
   18.0393   17.1494   22.5119 H   0  0  0  0  0  0  0  0  0  0  0  0
   19.6082   16.5291   21.9917 H   0  0  0  0  0  0  0  0  0  0  0  0
   19.6707   18.5885   22.7171 C   0  0  0  0  0  0  0  0  0  0  0  0
   19.1690   19.1901   23.4875 H   0  0  0  0  0  0  0  0  0  0  0  0
   20.7373   18.5612   22.9761 H   0  0  0  0  0  0  0  0  0  0  0  0
   19.4765   19.2478   21.3320 C   0  0  0  0  0  0  0  0  0  0  0  0
   18.4132   19.2009   21.0597 H   0  0  0  0  0  0  0  0  0  0  0  0
   20.0190   18.6731   20.5688 H   0  0  0  0  0  0  0  0  0  0  0  0
   19.9302   20.7251   21.2863 C   0  0  0  0  0  0  0  0  0  0  0  0
   19.6511   21.1497   20.3121 H   0  0  0  0  0  0  0  0  0  0  0  0
   19.3856   21.3044   22.0447 H   0  0  0  0  0  0  0  0  0  0  0  0
   21.4503   20.9039   21.4890 C   0  0  0  0  0  0  0  0  0  0  0  0
   22.0165   20.3101   20.7596 H   0  0  0  0  0  0  0  0  0  0  0  0
   21.7334   21.9566   21.3602 H   0  0  0  0  0  0  0  0  0  0  0  0
   21.7591   20.5981   22.4964 H   0  0  0  0  0  0  0  0  0  0  0  0
  1  2  1  0  0  0  0
  1  3  2  0  0  0  0
  1  4  1  0  0  0  0
  4  5  1  0  0  0  0
  4  6  1  0  0  0  0
  4  7  1  0  0  0  0
  7  8  1  0  0  0  0
  7  9  1  0  0  0  0
  7 10  1  0  0  0  0
 10 11  1  0  0  0  0
 10 12  1  0  0  0  0
 10 13  1  0  0  0  0
 13 14  1  0  0  0  0
 13 15  1  0  0  0  0
 13 16  1  0  0  0  0
 16 17  1  0  0  0  0
 16 18  1  0  0  0  0
 16 19  1  0  0  0  0
M  END
> <VConfSearch Rank>
518

> <Conf_Id>
42

> <Delta U+W>
-0.344

> <U+W>
-55.236

> <U>
7.244

> <W>
-62.479

> <W(PB)>
-64.610

> <W(SA)>
2.130

> <Valence>
7.174

> <Coulomb>
-0.669

> <VdW>
0.739

> <VdW6>
-5.969

> <VdW12>
6.708

> <Bond>
0.116

> <Angle>
2.481

> <Pdih>
4.576

> <Idih>
0.000

> <Tether>
0.000

$$$$
VeraChem MOL file


 19 18  0  0  0  0  0  0  0  0999 V2000     
   20.1480   19.9774   25.2296 C   0  0  0  0  0  0  0  0  0  0  0  0
   19.9937   19.0447   25.9928 O   0  5  0  0  0  0  0  0  0  0  0  0
   19.7259   21.0969   25.4418 O   0  0  0  0  0  0  0  0  0  0  0  0
   20.8966   19.7251   23.9256 C   0  0  0  0  0  0  0  0  0  0  0  0
   21.6488   18.9484   24.1090 H   0  0  0  0  0  0  0  0  0  0  0  0
   21.4358   20.6423   23.6596 H   0  0  0  0  0  0  0  0  0  0  0  0
   19.9614   19.2992   22.7670 C   0  0  0  0  0  0  0  0  0  0  0  0
   19.4194   18.3914   23.0632 H   0  0  0  0  0  0  0  0  0  0  0  0
   19.2086   20.0824   22.6019 H   0  0  0  0  0  0  0  0  0  0  0  0
   20.7469   19.0468   21.4594 C   0  0  0  0  0  0  0  0  0  0  0  0
   21.4658   18.2299   21.6108 H   0  0  0  0  0  0  0  0  0  0  0  0
   21.3378   19.9411   21.2189 H   0  0  0  0  0  0  0  0  0  0  0  0
   19.8390   18.7190   20.2515 C   0  0  0  0  0  0  0  0  0  0  0  0
   19.1221   19.5365   20.0933 H   0  0  0  0  0  0  0  0  0  0  0  0
   20.4601   18.6715   19.3463 H   0  0  0  0  0  0  0  0  0  0  0  0
   19.0790   17.3837   20.4031 C   0  0  0  0  0  0  0  0  0  0  0  0
   18.3586   17.4241   21.2297 H   0  0  0  0  0  0  0  0  0  0  0  0
   18.5201   17.1541   19.4866 H   0  0  0  0  0  0  0  0  0  0  0  0
   19.7741   16.5551   20.5915 H   0  0  0  0  0  0  0  0  0  0  0  0
  1  2  1  0  0  0  0
  1  3  2  0  0  0  0
  1  4  1  0  0  0  0
  4  5  1  0  0  0  0
  4  6  1  0  0  0  0
  4  7  1  0  0  0  0
  7  8  1  0  0  0  0
  7  9  1  0  0  0  0
  7 10  1  0  0  0  0
 10 11  1  0  0  0  0
 10 12  1  0  0  0  0
 10 13  1  0  0  0  0
 13 14  1  0  0  0  0
 13 15  1  0  0  0  0
 13 16  1  0  0  0  0
 16 17  1  0  0  0  0
 16 18  1  0  0  0  0
 16 19  1  0  0  0  0
M  END
> <VConfSearch Rank>
519

> <Conf_Id>
41

> <Delta U+W>
-0.361

> <U+W>
-55.252

> <U>
7.244

> <W>
-62.496

> <W(PB)>
-64.596

> <W(SA)>
2.099

> <Valence>
7.174

> <Coulomb>
-0.669

> <VdW>
0.739

> <VdW6>
-5.969

> <VdW12>
6.708

> <Bond>
0.116

> <Angle>
2.481

> <Pdih>
4.576

> <Idih>
0.000

> <Tether>
0.000

$$$$
VeraChem MOL file


 19 18  0  0  0  0  0  0  0  0999 V2000     
   18.2273   20.7786   23.8981 C   0  0  0  0  0  0  0  0  0  0  0  0
   19.0845   21.2544   24.6159 O   0  5  0  0  0  0  0  0  0  0  0  0
   17.4414   21.4473   23.2562 O   0  0  0  0  0  0  0  0  0  0  0  0
   18.1154   19.2588   23.8136 C   0  0  0  0  0  0  0  0  0  0  0  0
   17.0547   19.0018   23.9183 H   0  0  0  0  0  0  0  0  0  0  0  0
   18.6345   18.8208   24.6748 H   0  0  0  0  0  0  0  0  0  0  0  0
   18.6659   18.6575   22.4944 C   0  0  0  0  0  0  0  0  0  0  0  0
   18.4199   17.5875   22.4607 H   0  0  0  0  0  0  0  0  0  0  0  0
   18.1569   19.1262   21.6406 H   0  0  0  0  0  0  0  0  0  0  0  0
   20.1944   18.8333   22.3534 C   0  0  0  0  0  0  0  0  0  0  0  0
   20.6978   18.3747   23.2156 H   0  0  0  0  0  0  0  0  0  0  0  0
   20.4472   19.9025   22.3691 H   0  0  0  0  0  0  0  0  0  0  0  0
   20.7244   18.2004   21.0499 C   0  0  0  0  0  0  0  0  0  0  0  0
   20.4781   17.1297   21.0305 H   0  0  0  0  0  0  0  0  0  0  0  0
   20.2243   18.6591   20.1857 H   0  0  0  0  0  0  0  0  0  0  0  0
   22.2498   18.3774   20.9123 C   0  0  0  0  0  0  0  0  0  0  0  0
   22.7775   17.9003   21.7484 H   0  0  0  0  0  0  0  0  0  0  0  0
   22.6095   17.9223   19.9803 H   0  0  0  0  0  0  0  0  0  0  0  0
   22.5218   19.4410   20.8973 H   0  0  0  0  0  0  0  0  0  0  0  0
  1  2  1  0  0  0  0
  1  3  2  0  0  0  0
  1  4  1  0  0  0  0
  4  5  1  0  0  0  0
  4  6  1  0  0  0  0
  4  7  1  0  0  0  0
  7  8  1  0  0  0  0
  7  9  1  0  0  0  0
  7 10  1  0  0  0  0
 10 11  1  0  0  0  0
 10 12  1  0  0  0  0
 10 13  1  0  0  0  0
 13 14  1  0  0  0  0
 13 15  1  0  0  0  0
 13 16  1  0  0  0  0
 16 17  1  0  0  0  0
 16 18  1  0  0  0  0
 16 19  1  0  0  0  0
M  END
> <VConfSearch Rank>
520

> <Conf_Id>
36

> <Delta U+W>
-0.079

> <U+W>
-54.971

> <U>
8.266

> <W>
-63.237

> <W(PB)>
-65.340

> <W(SA)>
2.103

> <Valence>
6.935

> <Coulomb>
0.874

> <VdW>
0.457

> <VdW6>
-6.205

> <VdW12>
6.662

> <Bond>
0.107

> <Angle>
2.420

> <Pdih>
4.407

> <Idih>
0.001

> <Tether>
0.000

$$$$
VeraChem MOL file


 19 18  0  0  0  0  0  0  0  0999 V2000     
   22.0035   21.0815   21.8875 C   0  0  0  0  0  0  0  0  0  0  0  0
   22.6703   20.9959   22.8997 O   0  5  0  0  0  0  0  0  0  0  0  0
   21.5061   22.1189   21.4963 O   0  0  0  0  0  0  0  0  0  0  0  0
   21.7961   19.8233   21.0488 C   0  0  0  0  0  0  0  0  0  0  0  0
   22.5579   19.0857   21.3292 H   0  0  0  0  0  0  0  0  0  0  0  0
   21.9845   20.0918   20.0026 H   0  0  0  0  0  0  0  0  0  0  0  0
   20.3797   19.2051   21.1774 C   0  0  0  0  0  0  0  0  0  0  0  0
   19.6269   19.9636   20.9211 H   0  0  0  0  0  0  0  0  0  0  0  0
   20.2761   18.3957   20.4421 H   0  0  0  0  0  0  0  0  0  0  0  0
   20.1008   18.6476   22.5912 C   0  0  0  0  0  0  0  0  0  0  0  0
   20.1857   19.4554   23.3312 H   0  0  0  0  0  0  0  0  0  0  0  0
   20.8633   17.8995   22.8479 H   0  0  0  0  0  0  0  0  0  0  0  0
   18.6992   18.0097   22.6874 C   0  0  0  0  0  0  0  0  0  0  0  0
   17.9343   18.7566   22.4334 H   0  0  0  0  0  0  0  0  0  0  0  0
   18.6098   17.1979   21.9522 H   0  0  0  0  0  0  0  0  0  0  0  0
   18.4239   17.4544   24.0991 C   0  0  0  0  0  0  0  0  0  0  0  0
   18.4761   18.2521   24.8518 H   0  0  0  0  0  0  0  0  0  0  0  0
   17.4236   17.0052   24.1499 H   0  0  0  0  0  0  0  0  0  0  0  0
   19.1566   16.6819   24.3670 H   0  0  0  0  0  0  0  0  0  0  0  0
  1  2  1  0  0  0  0
  1  3  2  0  0  0  0
  1  4  1  0  0  0  0
  4  5  1  0  0  0  0
  4  6  1  0  0  0  0
  4  7  1  0  0  0  0
  7  8  1  0  0  0  0
  7  9  1  0  0  0  0
  7 10  1  0  0  0  0
 10 11  1  0  0  0  0
 10 12  1  0  0  0  0
 10 13  1  0  0  0  0
 13 14  1  0  0  0  0
 13 15  1  0  0  0  0
 13 16  1  0  0  0  0
 16 17  1  0  0  0  0
 16 18  1  0  0  0  0
 16 19  1  0  0  0  0
M  END
> <VConfSearch Rank>
521

> <Conf_Id>
35

> <Delta U+W>
-0.030

> <U+W>
-54.921

> <U>
8.267

> <W>
-63.188

> <W(PB)>
-65.294

> <W(SA)>
2.106

> <Valence>
6.935

> <Coulomb>
0.875

> <VdW>
0.457

> <VdW6>
-6.205

> <VdW12>
6.662

> <Bond>
0.107

> <Angle>
2.420

> <Pdih>
4.407

> <Idih>
0.001

> <Tether>
0.000

$$$$
VeraChem MOL file


 19 18  0  0  0  0  0  0  0  0999 V2000     
   18.4922   19.5770   24.6642 C   0  0  0  0  0  0  0  0  0  0  0  0
   18.9546   20.5033   25.3004 O   0  5  0  0  0  0  0  0  0  0  0  0
   18.1220   18.5348   25.1677 O   0  0  0  0  0  0  0  0  0  0  0  0
   18.3493   19.7419   23.1536 C   0  0  0  0  0  0  0  0  0  0  0  0
   17.9088   20.7294   22.9725 H   0  0  0  0  0  0  0  0  0  0  0  0
   17.6288   19.0010   22.7864 H   0  0  0  0  0  0  0  0  0  0  0  0
   19.6849   19.6209   22.3744 C   0  0  0  0  0  0  0  0  0  0  0  0
   19.5054   19.9047   21.3296 H   0  0  0  0  0  0  0  0  0  0  0  0
   20.4090   20.3415   22.7793 H   0  0  0  0  0  0  0  0  0  0  0  0
   20.2783   18.1928   22.4309 C   0  0  0  0  0  0  0  0  0  0  0  0
   19.5686   17.4792   21.9905 H   0  0  0  0  0  0  0  0  0  0  0  0
   20.4046   17.8957   23.4810 H   0  0  0  0  0  0  0  0  0  0  0  0
   21.6462   18.0675   21.7211 C   0  0  0  0  0  0  0  0  0  0  0  0
   22.3589   18.7788   22.1610 H   0  0  0  0  0  0  0  0  0  0  0  0
   22.0513   17.0643   21.9123 H   0  0  0  0  0  0  0  0  0  0  0  0
   21.5666   18.2880   20.1950 C   0  0  0  0  0  0  0  0  0  0  0  0
   21.2780   19.3184   19.9531 H   0  0  0  0  0  0  0  0  0  0  0  0
   22.5421   18.0985   19.7288 H   0  0  0  0  0  0  0  0  0  0  0  0
   20.8358   17.6084   19.7375 H   0  0  0  0  0  0  0  0  0  0  0  0
  1  2  1  0  0  0  0
  1  3  2  0  0  0  0
  1  4  1  0  0  0  0
  4  5  1  0  0  0  0
  4  6  1  0  0  0  0
  4  7  1  0  0  0  0
  7  8  1  0  0  0  0
  7  9  1  0  0  0  0
  7 10  1  0  0  0  0
 10 11  1  0  0  0  0
 10 12  1  0  0  0  0
 10 13  1  0  0  0  0
 13 14  1  0  0  0  0
 13 15  1  0  0  0  0
 13 16  1  0  0  0  0
 16 17  1  0  0  0  0
 16 18  1  0  0  0  0
 16 19  1  0  0  0  0
M  END
> <VConfSearch Rank>
522

> <Conf_Id>
74

> <Delta U+W>
0.797

> <U+W>
-54.095

> <U>
8.869

> <W>
-62.964

> <W(PB)>
-65.046

> <W(SA)>
2.082

> <Valence>
7.469

> <Coulomb>
0.762

> <VdW>
0.639

> <VdW6>
-6.782

> <VdW12>
7.421

> <Bond>
0.141

> <Angle>
2.667

> <Pdih>
4.660

> <Idih>
0.001

> <Tether>
0.000

$$$$
VeraChem MOL file


 19 18  0  0  0  0  0  0  0  0999 V2000     
   17.8712   17.6951   23.9213 C   0  0  0  0  0  0  0  0  0  0  0  0
   17.7063   16.5261   24.2086 O   0  5  0  0  0  0  0  0  0  0  0  0
   17.4191   18.6171   24.5709 O   0  0  0  0  0  0  0  0  0  0  0  0
   18.7070   18.0227   22.6891 C   0  0  0  0  0  0  0  0  0  0  0  0
   18.3100   18.9462   22.2524 H   0  0  0  0  0  0  0  0  0  0  0  0
   18.5578   17.2235   21.9534 H   0  0  0  0  0  0  0  0  0  0  0  0
   20.2159   18.1787   23.0109 C   0  0  0  0  0  0  0  0  0  0  0  0
   20.3568   19.0062   23.7188 H   0  0  0  0  0  0  0  0  0  0  0  0
   20.5611   17.2736   23.5293 H   0  0  0  0  0  0  0  0  0  0  0  0
   21.0979   18.3941   21.7553 C   0  0  0  0  0  0  0  0  0  0  0  0
   21.0202   17.5086   21.1099 H   0  0  0  0  0  0  0  0  0  0  0  0
   22.1494   18.4497   22.0684 H   0  0  0  0  0  0  0  0  0  0  0  0
   20.7581   19.6517   20.9181 C   0  0  0  0  0  0  0  0  0  0  0  0
   21.4346   19.6891   20.0532 H   0  0  0  0  0  0  0  0  0  0  0  0
   19.7437   19.5704   20.5060 H   0  0  0  0  0  0  0  0  0  0  0  0
   20.8937   20.9693   21.7113 C   0  0  0  0  0  0  0  0  0  0  0  0
   21.8948   21.0611   22.1523 H   0  0  0  0  0  0  0  0  0  0  0  0
   20.7332   21.8325   21.0526 H   0  0  0  0  0  0  0  0  0  0  0  0
   20.1539   21.0258   22.5198 H   0  0  0  0  0  0  0  0  0  0  0  0
  1  2  1  0  0  0  0
  1  3  2  0  0  0  0
  1  4  1  0  0  0  0
  4  5  1  0  0  0  0
  4  6  1  0  0  0  0
  4  7  1  0  0  0  0
  7  8  1  0  0  0  0
  7  9  1  0  0  0  0
  7 10  1  0  0  0  0
 10 11  1  0  0  0  0
 10 12  1  0  0  0  0
 10 13  1  0  0  0  0
 13 14  1  0  0  0  0
 13 15  1  0  0  0  0
 13 16  1  0  0  0  0
 16 17  1  0  0  0  0
 16 18  1  0  0  0  0
 16 19  1  0  0  0  0
M  END
> <VConfSearch Rank>
523

> <Conf_Id>
67

> <Delta U+W>
0.308

> <U+W>
-54.583

> <U>
8.219

> <W>
-62.802

> <W(PB)>
-64.859

> <W(SA)>
2.057

> <Valence>
7.609

> <Coulomb>
-0.089

> <VdW>
0.699

> <VdW6>
-6.924

> <VdW12>
7.623

> <Bond>
0.163

> <Angle>
2.870

> <Pdih>
4.576

> <Idih>
0.001

> <Tether>
0.000

$$$$
VeraChem MOL file


 19 18  0  0  0  0  0  0  0  0999 V2000     
   22.2167   20.7449   21.7543 C   0  0  0  0  0  0  0  0  0  0  0  0
   22.2153   21.9550   21.6453 O   0  5  0  0  0  0  0  0  0  0  0  0
   23.0708   20.0276   21.2723 O   0  0  0  0  0  0  0  0  0  0  0  0
   21.0734   20.0898   22.5210 C   0  0  0  0  0  0  0  0  0  0  0  0
   20.7548   20.7784   23.3126 H   0  0  0  0  0  0  0  0  0  0  0  0
   21.4701   19.1925   23.0096 H   0  0  0  0  0  0  0  0  0  0  0  0
   19.8708   19.7266   21.6119 C   0  0  0  0  0  0  0  0  0  0  0  0
   19.5554   20.6277   21.0681 H   0  0  0  0  0  0  0  0  0  0  0  0
   20.1926   19.0076   20.8469 H   0  0  0  0  0  0  0  0  0  0  0  0
   18.6524   19.1690   22.3900 C   0  0  0  0  0  0  0  0  0  0  0  0
   17.8361   18.9814   21.6792 H   0  0  0  0  0  0  0  0  0  0  0  0
   18.2843   19.9432   23.0769 H   0  0  0  0  0  0  0  0  0  0  0  0
   18.9207   17.8745   23.1964 C   0  0  0  0  0  0  0  0  0  0  0  0
   19.6608   18.0653   23.9848 H   0  0  0  0  0  0  0  0  0  0  0  0
   17.9949   17.5864   23.7130 H   0  0  0  0  0  0  0  0  0  0  0  0
   19.3876   16.6932   22.3189 C   0  0  0  0  0  0  0  0  0  0  0  0
   20.3700   16.8923   21.8722 H   0  0  0  0  0  0  0  0  0  0  0  0
   19.4748   15.7790   22.9202 H   0  0  0  0  0  0  0  0  0  0  0  0
   18.6728   16.4990   21.5088 H   0  0  0  0  0  0  0  0  0  0  0  0
  1  2  1  0  0  0  0
  1  3  2  0  0  0  0
  1  4  1  0  0  0  0
  4  5  1  0  0  0  0
  4  6  1  0  0  0  0
  4  7  1  0  0  0  0
  7  8  1  0  0  0  0
  7  9  1  0  0  0  0
  7 10  1  0  0  0  0
 10 11  1  0  0  0  0
 10 12  1  0  0  0  0
 10 13  1  0  0  0  0
 13 14  1  0  0  0  0
 13 15  1  0  0  0  0
 13 16  1  0  0  0  0
 16 17  1  0  0  0  0
 16 18  1  0  0  0  0
 16 19  1  0  0  0  0
M  END
> <VConfSearch Rank>
524

> <Conf_Id>
21

> <Delta U+W>
0.319

> <U+W>
-54.572

> <U>
8.220

> <W>
-62.792

> <W(PB)>
-64.830

> <W(SA)>
2.038

> <Valence>
7.609

> <Coulomb>
-0.088

> <VdW>
0.699

> <VdW6>
-6.924

> <VdW12>
7.623

> <Bond>
0.163

> <Angle>
2.870

> <Pdih>
4.576

> <Idih>
0.000

> <Tether>
0.000

$$$$
VeraChem MOL file


 19 18  0  0  0  0  0  0  0  0999 V2000     
   20.6452   17.3173   24.6387 C   0  0  0  0  0  0  0  0  0  0  0  0
   21.6260   16.6402   24.8753 O   0  5  0  0  0  0  0  0  0  0  0  0
   19.9119   17.7621   25.4993 O   0  0  0  0  0  0  0  0  0  0  0  0
   20.3282   17.6413   23.1831 C   0  0  0  0  0  0  0  0  0  0  0  0
   19.2409   17.7194   23.0856 H   0  0  0  0  0  0  0  0  0  0  0  0
   20.6431   16.7882   22.5704 H   0  0  0  0  0  0  0  0  0  0  0  0
   21.0271   18.9360   22.6900 C   0  0  0  0  0  0  0  0  0  0  0  0
   20.7586   19.7814   23.3385 H   0  0  0  0  0  0  0  0  0  0  0  0
   22.1114   18.7976   22.8013 H   0  0  0  0  0  0  0  0  0  0  0  0
   20.7204   19.2769   21.2095 C   0  0  0  0  0  0  0  0  0  0  0  0
   20.5305   18.3578   20.6384 H   0  0  0  0  0  0  0  0  0  0  0  0
   21.6227   19.7217   20.7679 H   0  0  0  0  0  0  0  0  0  0  0  0
   19.5591   20.2804   21.0044 C   0  0  0  0  0  0  0  0  0  0  0  0
   19.7988   21.2285   21.5054 H   0  0  0  0  0  0  0  0  0  0  0  0
   19.4826   20.5102   19.9327 H   0  0  0  0  0  0  0  0  0  0  0  0
   18.1890   19.7727   21.4993 C   0  0  0  0  0  0  0  0  0  0  0  0
   17.3933   20.4702   21.2073 H   0  0  0  0  0  0  0  0  0  0  0  0
   17.9534   18.7906   21.0692 H   0  0  0  0  0  0  0  0  0  0  0  0
   18.1696   19.6897   22.5932 H   0  0  0  0  0  0  0  0  0  0  0  0
  1  2  1  0  0  0  0
  1  3  2  0  0  0  0
  1  4  1  0  0  0  0
  4  5  1  0  0  0  0
  4  6  1  0  0  0  0
  4  7  1  0  0  0  0
  7  8  1  0  0  0  0
  7  9  1  0  0  0  0
  7 10  1  0  0  0  0
 10 11  1  0  0  0  0
 10 12  1  0  0  0  0
 10 13  1  0  0  0  0
 13 14  1  0  0  0  0
 13 15  1  0  0  0  0
 13 16  1  0  0  0  0
 16 17  1  0  0  0  0
 16 18  1  0  0  0  0
 16 19  1  0  0  0  0
M  END
> <VConfSearch Rank>
525

> <Conf_Id>
24

> <Delta U+W>
2.477

> <U+W>
-52.414

> <U>
10.422

> <W>
-62.836

> <W(PB)>
-64.906

> <W(SA)>
2.070

> <Valence>
9.628

> <Coulomb>
0.101

> <VdW>
0.693

> <VdW6>
-6.927

> <VdW12>
7.620

> <Bond>
0.173

> <Angle>
2.989

> <Pdih>
6.465

> <Idih>
0.001

> <Tether>
0.000

$$$$
VeraChem MOL file


 19 18  0  0  0  0  0  0  0  0999 V2000     
   22.0213   17.5697   22.5506 C   0  0  0  0  0  0  0  0  0  0  0  0
   21.4937   16.5306   22.2060 O   0  5  0  0  0  0  0  0  0  0  0  0
   23.1849   17.8381   22.3251 O   0  0  0  0  0  0  0  0  0  0  0  0
   21.1886   18.5812   23.3341 C   0  0  0  0  0  0  0  0  0  0  0  0
   21.7795   18.8788   24.2082 H   0  0  0  0  0  0  0  0  0  0  0  0
   20.2978   18.0728   23.7164 H   0  0  0  0  0  0  0  0  0  0  0  0
   20.8030   19.8473   22.5197 C   0  0  0  0  0  0  0  0  0  0  0  0
   20.3909   20.6112   23.1927 H   0  0  0  0  0  0  0  0  0  0  0  0
   21.7247   20.2771   22.1036 H   0  0  0  0  0  0  0  0  0  0  0  0
   19.8088   19.5795   21.3598 C   0  0  0  0  0  0  0  0  0  0  0  0
   19.9418   18.5628   20.9657 H   0  0  0  0  0  0  0  0  0  0  0  0
   20.0621   20.2550   20.5314 H   0  0  0  0  0  0  0  0  0  0  0  0
   18.3209   19.8182   21.7165 C   0  0  0  0  0  0  0  0  0  0  0  0
   18.1782   20.8632   22.0246 H   0  0  0  0  0  0  0  0  0  0  0  0
   17.7190   19.6810   20.8077 H   0  0  0  0  0  0  0  0  0  0  0  0
   17.7770   18.8813   22.8146 C   0  0  0  0  0  0  0  0  0  0  0  0
   18.2352   19.1031   23.7863 H   0  0  0  0  0  0  0  0  0  0  0  0
   16.6922   19.0074   22.9242 H   0  0  0  0  0  0  0  0  0  0  0  0
   17.9733   17.8297   22.5674 H   0  0  0  0  0  0  0  0  0  0  0  0
  1  2  1  0  0  0  0
  1  3  2  0  0  0  0
  1  4  1  0  0  0  0
  4  5  1  0  0  0  0
  4  6  1  0  0  0  0
  4  7  1  0  0  0  0
  7  8  1  0  0  0  0
  7  9  1  0  0  0  0
  7 10  1  0  0  0  0
 10 11  1  0  0  0  0
 10 12  1  0  0  0  0
 10 13  1  0  0  0  0
 13 14  1  0  0  0  0
 13 15  1  0  0  0  0
 13 16  1  0  0  0  0
 16 17  1  0  0  0  0
 16 18  1  0  0  0  0
 16 19  1  0  0  0  0
M  END
> <VConfSearch Rank>
526

> <Conf_Id>
4

> <Delta U+W>
3.753

> <U+W>
-51.138

> <U>
12.334

> <W>
-63.472

> <W(PB)>
-65.500

> <W(SA)>
2.028

> <Valence>
9.984

> <Coulomb>
1.767

> <VdW>
0.583

> <VdW6>
-7.767

> <VdW12>
8.349

> <Bond>
0.203

> <Angle>
3.191

> <Pdih>
6.589

> <Idih>
0.001

> <Tether>
0.000

$$$$
VeraChem MOL file


 19 18  0  0  0  0  0  0  0  0999 V2000     
   21.0887   17.3924   20.6338 C   0  0  0  0  0  0  0  0  0  0  0  0
   21.9966   17.6326   19.8623 O   0  5  0  0  0  0  0  0  0  0  0  0
   20.9960   16.3537   21.2576 O   0  0  0  0  0  0  0  0  0  0  0  0
   19.9929   18.4413   20.8039 C   0  0  0  0  0  0  0  0  0  0  0  0
   19.1232   17.9607   21.2632 H   0  0  0  0  0  0  0  0  0  0  0  0
   19.6848   18.7533   19.7992 H   0  0  0  0  0  0  0  0  0  0  0  0
   20.4349   19.6902   21.6163 C   0  0  0  0  0  0  0  0  0  0  0  0
   21.3474   20.0908   21.1534 H   0  0  0  0  0  0  0  0  0  0  0  0
   19.6780   20.4807   21.5245 H   0  0  0  0  0  0  0  0  0  0  0  0
   20.7178   19.4072   23.1147 C   0  0  0  0  0  0  0  0  0  0  0  0
   21.5470   20.0537   23.4327 H   0  0  0  0  0  0  0  0  0  0  0  0
   21.0746   18.3772   23.2513 H   0  0  0  0  0  0  0  0  0  0  0  0
   19.5234   19.6831   24.0608 C   0  0  0  0  0  0  0  0  0  0  0  0
   19.8575   19.5307   25.0963 H   0  0  0  0  0  0  0  0  0  0  0  0
   19.2288   20.7389   23.9852 H   0  0  0  0  0  0  0  0  0  0  0  0
   18.2937   18.7883   23.8025 C   0  0  0  0  0  0  0  0  0  0  0  0
   18.5736   17.7266   23.7981 H   0  0  0  0  0  0  0  0  0  0  0  0
   17.5392   18.9372   24.5855 H   0  0  0  0  0  0  0  0  0  0  0  0
   17.8240   19.0297   22.8410 H   0  0  0  0  0  0  0  0  0  0  0  0
  1  2  1  0  0  0  0
  1  3  2  0  0  0  0
  1  4  1  0  0  0  0
  4  5  1  0  0  0  0
  4  6  1  0  0  0  0
  4  7  1  0  0  0  0
  7  8  1  0  0  0  0
  7  9  1  0  0  0  0
  7 10  1  0  0  0  0
 10 11  1  0  0  0  0
 10 12  1  0  0  0  0
 10 13  1  0  0  0  0
 13 14  1  0  0  0  0
 13 15  1  0  0  0  0
 13 16  1  0  0  0  0
 16 17  1  0  0  0  0
 16 18  1  0  0  0  0
 16 19  1  0  0  0  0
M  END
> <VConfSearch Rank>
527

> <Conf_Id>
73

> <Delta U+W>
3.707

> <U+W>
-51.184

> <U>
12.334

> <W>
-63.519

> <W(PB)>
-65.541

> <W(SA)>
2.022

> <Valence>
9.984

> <Coulomb>
1.768

> <VdW>
0.583

> <VdW6>
-7.767

> <VdW12>
8.350

> <Bond>
0.203

> <Angle>
3.192

> <Pdih>
6.589

> <Idih>
0.001

> <Tether>
0.000

$$$$
VeraChem MOL file


 19 18  0  0  0  0  0  0  0  0999 V2000     
   17.5194   18.7197   21.3117 C   0  0  0  0  0  0  0  0  0  0  0  0
   16.9241   19.4948   22.0339 O   0  5  0  0  0  0  0  0  0  0  0  0
   17.2455   18.5492   20.1399 O   0  0  0  0  0  0  0  0  0  0  0  0
   18.6509   17.8912   21.9137 C   0  0  0  0  0  0  0  0  0  0  0  0
   18.4665   16.8441   21.6468 H   0  0  0  0  0  0  0  0  0  0  0  0
   18.5864   17.9488   23.0064 H   0  0  0  0  0  0  0  0  0  0  0  0
   20.0675   18.3032   21.4282 C   0  0  0  0  0  0  0  0  0  0  0  0
   20.8093   17.6127   21.8498 H   0  0  0  0  0  0  0  0  0  0  0  0
   20.1179   18.1712   20.3386 H   0  0  0  0  0  0  0  0  0  0  0  0
   20.4619   19.7635   21.7691 C   0  0  0  0  0  0  0  0  0  0  0  0
   19.7845   20.4497   21.2425 H   0  0  0  0  0  0  0  0  0  0  0  0
   21.4644   19.9610   21.3660 H   0  0  0  0  0  0  0  0  0  0  0  0
   20.4504   20.1147   23.2770 C   0  0  0  0  0  0  0  0  0  0  0  0
   20.7277   21.1715   23.3917 H   0  0  0  0  0  0  0  0  0  0  0  0
   19.4317   20.0242   23.6776 H   0  0  0  0  0  0  0  0  0  0  0  0
   21.4202   19.2528   24.1137 C   0  0  0  0  0  0  0  0  0  0  0  0
   21.1133   18.1994   24.1203 H   0  0  0  0  0  0  0  0  0  0  0  0
   22.4416   19.3124   23.7159 H   0  0  0  0  0  0  0  0  0  0  0  0
   21.4414   19.5997   25.1549 H   0  0  0  0  0  0  0  0  0  0  0  0
  1  2  1  0  0  0  0
  1  3  2  0  0  0  0
  1  4  1  0  0  0  0
  4  5  1  0  0  0  0
  4  6  1  0  0  0  0
  4  7  1  0  0  0  0
  7  8  1  0  0  0  0
  7  9  1  0  0  0  0
  7 10  1  0  0  0  0
 10 11  1  0  0  0  0
 10 12  1  0  0  0  0
 10 13  1  0  0  0  0
 13 14  1  0  0  0  0
 13 15  1  0  0  0  0
 13 16  1  0  0  0  0
 16 17  1  0  0  0  0
 16 18  1  0  0  0  0
 16 19  1  0  0  0  0
M  END
> <VConfSearch Rank>
528

> <Conf_Id>
56

> <Delta U+W>
1.735

> <U+W>
-53.156

> <U>
10.214

> <W>
-63.370

> <W(PB)>
-65.388

> <W(SA)>
2.018

> <Valence>
7.868

> <Coulomb>
1.968

> <VdW>
0.378

> <VdW6>
-8.067

> <VdW12>
8.445

> <Bond>
0.191

> <Angle>
3.117

> <Pdih>
4.559

> <Idih>
0.001

> <Tether>
0.000

$$$$
VeraChem MOL file


 19 18  0  0  0  0  0  0  0  0999 V2000     
   17.5621   19.6675   23.8220 C   0  0  0  0  0  0  0  0  0  0  0  0
   17.3902   19.3312   24.9768 O   0  5  0  0  0  0  0  0  0  0  0  0
   16.6924   20.1553   23.1275 O   0  0  0  0  0  0  0  0  0  0  0  0
   18.9381   19.4454   23.2042 C   0  0  0  0  0  0  0  0  0  0  0  0
   19.6884   19.5424   23.9979 H   0  0  0  0  0  0  0  0  0  0  0  0
   19.1123   20.2528   22.4843 H   0  0  0  0  0  0  0  0  0  0  0  0
   19.0688   18.0672   22.5084 C   0  0  0  0  0  0  0  0  0  0  0  0
   18.7507   17.2862   23.2128 H   0  0  0  0  0  0  0  0  0  0  0  0
   18.3692   18.0214   21.6624 H   0  0  0  0  0  0  0  0  0  0  0  0
   20.4999   17.7321   22.0182 C   0  0  0  0  0  0  0  0  0  0  0  0
   20.4752   16.7183   21.5956 H   0  0  0  0  0  0  0  0  0  0  0  0
   21.1894   17.6826   22.8721 H   0  0  0  0  0  0  0  0  0  0  0  0
   21.0544   18.6916   20.9361 C   0  0  0  0  0  0  0  0  0  0  0  0
   21.6663   18.1102   20.2325 H   0  0  0  0  0  0  0  0  0  0  0  0
   20.2312   19.1168   20.3455 H   0  0  0  0  0  0  0  0  0  0  0  0
   21.9371   19.8195   21.5152 C   0  0  0  0  0  0  0  0  0  0  0  0
   22.3187   20.4597   20.7094 H   0  0  0  0  0  0  0  0  0  0  0  0
   21.3818   20.4561   22.2131 H   0  0  0  0  0  0  0  0  0  0  0  0
   22.8007   19.4033   22.0502 H   0  0  0  0  0  0  0  0  0  0  0  0
  1  2  1  0  0  0  0
  1  3  2  0  0  0  0
  1  4  1  0  0  0  0
  4  5  1  0  0  0  0
  4  6  1  0  0  0  0
  4  7  1  0  0  0  0
  7  8  1  0  0  0  0
  7  9  1  0  0  0  0
  7 10  1  0  0  0  0
 10 11  1  0  0  0  0
 10 12  1  0  0  0  0
 10 13  1  0  0  0  0
 13 14  1  0  0  0  0
 13 15  1  0  0  0  0
 13 16  1  0  0  0  0
 16 17  1  0  0  0  0
 16 18  1  0  0  0  0
 16 19  1  0  0  0  0
M  END
> <VConfSearch Rank>
529

> <Conf_Id>
53

> <Delta U+W>
2.279

> <U+W>
-52.612

> <U>
10.231

> <W>
-62.843

> <W(PB)>
-64.893

> <W(SA)>
2.050

> <Valence>
9.644

> <Coulomb>
-0.164

> <VdW>
0.751

> <VdW6>
-6.881

> <VdW12>
7.631

> <Bond>
0.163

> <Angle>
2.998

> <Pdih>
6.482

> <Idih>
0.001

> <Tether>
0.000

$$$$
VeraChem MOL file


 19 18  0  0  0  0  0  0  0  0999 V2000     
   17.7635   18.8031   22.2237 C   0  0  0  0  0  0  0  0  0  0  0  0
   17.4395   19.9720   22.1500 O   0  5  0  0  0  0  0  0  0  0  0  0
   17.3129   18.0343   23.0503 O   0  0  0  0  0  0  0  0  0  0  0  0
   18.7345   18.2574   21.1783 C   0  0  0  0  0  0  0  0  0  0  0  0
   18.9975   19.0622   20.4812 H   0  0  0  0  0  0  0  0  0  0  0  0
   18.1774   17.5113   20.5999 H   0  0  0  0  0  0  0  0  0  0  0  0
   20.0215   17.5970   21.7481 C   0  0  0  0  0  0  0  0  0  0  0  0
   19.7643   16.9418   22.5920 H   0  0  0  0  0  0  0  0  0  0  0  0
   20.4373   16.9404   20.9720 H   0  0  0  0  0  0  0  0  0  0  0  0
   21.1313   18.5925   22.1675 C   0  0  0  0  0  0  0  0  0  0  0  0
   21.3886   19.2392   21.3176 H   0  0  0  0  0  0  0  0  0  0  0  0
   22.0369   18.0162   22.4019 H   0  0  0  0  0  0  0  0  0  0  0  0
   20.7676   19.4627   23.3907 C   0  0  0  0  0  0  0  0  0  0  0  0
   19.9463   20.1448   23.1368 H   0  0  0  0  0  0  0  0  0  0  0  0
   20.4129   18.8230   24.2106 H   0  0  0  0  0  0  0  0  0  0  0  0
   21.9739   20.2940   23.8720 C   0  0  0  0  0  0  0  0  0  0  0  0
   22.3320   20.9617   23.0774 H   0  0  0  0  0  0  0  0  0  0  0  0
   21.6968   20.9126   24.7354 H   0  0  0  0  0  0  0  0  0  0  0  0
   22.8049   19.6433   24.1743 H   0  0  0  0  0  0  0  0  0  0  0  0
  1  2  1  0  0  0  0
  1  3  2  0  0  0  0
  1  4  1  0  0  0  0
  4  5  1  0  0  0  0
  4  6  1  0  0  0  0
  4  7  1  0  0  0  0
  7  8  1  0  0  0  0
  7  9  1  0  0  0  0
  7 10  1  0  0  0  0
 10 11  1  0  0  0  0
 10 12  1  0  0  0  0
 10 13  1  0  0  0  0
 13 14  1  0  0  0  0
 13 15  1  0  0  0  0
 13 16  1  0  0  0  0
 16 17  1  0  0  0  0
 16 18  1  0  0  0  0
 16 19  1  0  0  0  0
M  END
> <VConfSearch Rank>
530

> <Conf_Id>
25

> <Delta U+W>
2.065

> <U+W>
-52.826

> <U>
10.967

> <W>
-63.794

> <W(PB)>
-65.830

> <W(SA)>
2.036

> <Valence>
8.609

> <Coulomb>
1.892

> <VdW>
0.467

> <VdW6>
-7.569

> <VdW12>
8.036

> <Bond>
0.170

> <Angle>
3.195

> <Pdih>
5.237

> <Idih>
0.007

> <Tether>
0.000

$$$$
VeraChem MOL file


 19 18  0  0  0  0  0  0  0  0999 V2000     
   19.8252   17.0765   20.8814 C   0  0  0  0  0  0  0  0  0  0  0  0
   18.7771   17.2590   20.2937 O   0  5  0  0  0  0  0  0  0  0  0  0
   20.0695   16.0706   21.5179 O   0  0  0  0  0  0  0  0  0  0  0  0
   20.9204   18.1342   20.7571 C   0  0  0  0  0  0  0  0  0  0  0  0
   21.1918   18.1737   19.6958 H   0  0  0  0  0  0  0  0  0  0  0  0
   21.8115   17.7901   21.2961 H   0  0  0  0  0  0  0  0  0  0  0  0
   20.5227   19.5607   21.2303 C   0  0  0  0  0  0  0  0  0  0  0  0
   21.2157   20.2765   20.7678 H   0  0  0  0  0  0  0  0  0  0  0  0
   19.5245   19.8173   20.8489 H   0  0  0  0  0  0  0  0  0  0  0  0
   20.5770   19.7754   22.7632 C   0  0  0  0  0  0  0  0  0  0  0  0
   20.4324   20.8458   22.9639 H   0  0  0  0  0  0  0  0  0  0  0  0
   21.5792   19.5242   23.1365 H   0  0  0  0  0  0  0  0  0  0  0  0
   19.5147   18.9760   23.5493 C   0  0  0  0  0  0  0  0  0  0  0  0
   18.5210   19.1474   23.1126 H   0  0  0  0  0  0  0  0  0  0  0  0
   19.7187   17.9005   23.4715 H   0  0  0  0  0  0  0  0  0  0  0  0
   19.4968   19.3725   25.0394 C   0  0  0  0  0  0  0  0  0  0  0  0
   18.7433   18.7898   25.5850 H   0  0  0  0  0  0  0  0  0  0  0  0
   20.4728   19.1863   25.5063 H   0  0  0  0  0  0  0  0  0  0  0  0
   19.2554   20.4366   25.1607 H   0  0  0  0  0  0  0  0  0  0  0  0
  1  2  1  0  0  0  0
  1  3  2  0  0  0  0
  1  4  1  0  0  0  0
  4  5  1  0  0  0  0
  4  6  1  0  0  0  0
  4  7  1  0  0  0  0
  7  8  1  0  0  0  0
  7  9  1  0  0  0  0
  7 10  1  0  0  0  0
 10 11  1  0  0  0  0
 10 12  1  0  0  0  0
 10 13  1  0  0  0  0
 13 14  1  0  0  0  0
 13 15  1  0  0  0  0
 13 16  1  0  0  0  0
 16 17  1  0  0  0  0
 16 18  1  0  0  0  0
 16 19  1  0  0  0  0
M  END
> <VConfSearch Rank>
531

> <Conf_Id>
52

> <Delta U+W>
2.070

> <U+W>
-52.822

> <U>
10.967

> <W>
-63.789

> <W(PB)>
-65.837

> <W(SA)>
2.048

> <Valence>
8.609

> <Coulomb>
1.892

> <VdW>
0.467

> <VdW6>
-7.569

> <VdW12>
8.035

> <Bond>
0.170

> <Angle>
3.196

> <Pdih>
5.237

> <Idih>
0.007

> <Tether>
0.000

$$$$
VeraChem MOL file


 19 18  0  0  0  0  0  0  0  0999 V2000     
   19.2795   17.0369   21.6654 C   0  0  0  0  0  0  0  0  0  0  0  0
   19.6108   17.0985   20.4972 O   0  5  0  0  0  0  0  0  0  0  0  0
   19.5829   16.1137   22.3949 O   0  0  0  0  0  0  0  0  0  0  0  0
   18.3312   18.1028   22.2168 C   0  0  0  0  0  0  0  0  0  0  0  0
   18.2582   17.9878   23.3049 H   0  0  0  0  0  0  0  0  0  0  0  0
   17.3410   17.8660   21.8109 H   0  0  0  0  0  0  0  0  0  0  0  0
   18.6835   19.5738   21.8544 C   0  0  0  0  0  0  0  0  0  0  0  0
   19.0151   19.6338   20.8086 H   0  0  0  0  0  0  0  0  0  0  0  0
   17.7592   20.1647   21.9074 H   0  0  0  0  0  0  0  0  0  0  0  0
   19.7253   20.2550   22.7784 C   0  0  0  0  0  0  0  0  0  0  0  0
   19.3489   20.2852   23.8101 H   0  0  0  0  0  0  0  0  0  0  0  0
   19.8088   21.3042   22.4634 H   0  0  0  0  0  0  0  0  0  0  0  0
   21.1410   19.6302   22.7406 C   0  0  0  0  0  0  0  0  0  0  0  0
   21.2918   19.0767   21.8034 H   0  0  0  0  0  0  0  0  0  0  0  0
   21.8854   20.4383   22.7394 H   0  0  0  0  0  0  0  0  0  0  0  0
   21.4243   18.7187   23.9538 C   0  0  0  0  0  0  0  0  0  0  0  0
   21.3738   19.2877   24.8911 H   0  0  0  0  0  0  0  0  0  0  0  0
   20.7009   17.8974   24.0170 H   0  0  0  0  0  0  0  0  0  0  0  0
   22.4271   18.2787   23.8793 H   0  0  0  0  0  0  0  0  0  0  0  0
  1  2  1  0  0  0  0
  1  3  2  0  0  0  0
  1  4  1  0  0  0  0
  4  5  1  0  0  0  0
  4  6  1  0  0  0  0
  4  7  1  0  0  0  0
  7  8  1  0  0  0  0
  7  9  1  0  0  0  0
  7 10  1  0  0  0  0
 10 11  1  0  0  0  0
 10 12  1  0  0  0  0
 10 13  1  0  0  0  0
 13 14  1  0  0  0  0
 13 15  1  0  0  0  0
 13 16  1  0  0  0  0
 16 17  1  0  0  0  0
 16 18  1  0  0  0  0
 16 19  1  0  0  0  0
M  END
> <VConfSearch Rank>
532

> <Conf_Id>
66

> <Delta U+W>
5.819

> <U+W>
-49.072

> <U>
15.324

> <W>
-64.396

> <W(PB)>
-66.382

> <W(SA)>
1.986

> <Valence>
11.748

> <Coulomb>
3.201

> <VdW>
0.375

> <VdW6>
-8.854

> <VdW12>
9.229

> <Bond>
0.216

> <Angle>
3.812

> <Pdih>
7.699

> <Idih>
0.022

> <Tether>
0.000

$$$$
VeraChem MOL file


 19 18  0  0  0  0  0  0  0  0999 V2000     
   21.5568   19.6747   25.0649 C   0  0  0  0  0  0  0  0  0  0  0  0
   21.4193   19.5821   26.2683 O   0  5  0  0  0  0  0  0  0  0  0  0
   22.5287   20.1886   24.5457 O   0  0  0  0  0  0  0  0  0  0  0  0
   20.4377   19.1092   24.1887 C   0  0  0  0  0  0  0  0  0  0  0  0
   19.5089   19.6153   24.4773 H   0  0  0  0  0  0  0  0  0  0  0  0
   20.3209   18.0508   24.4499 H   0  0  0  0  0  0  0  0  0  0  0  0
   20.6579   19.2502   22.6590 C   0  0  0  0  0  0  0  0  0  0  0  0
   20.7800   20.3123   22.4048 H   0  0  0  0  0  0  0  0  0  0  0  0
   21.5928   18.7462   22.3774 H   0  0  0  0  0  0  0  0  0  0  0  0
   19.4834   18.6547   21.8526 C   0  0  0  0  0  0  0  0  0  0  0  0
   18.5497   19.1599   22.1359 H   0  0  0  0  0  0  0  0  0  0  0  0
   19.3630   17.5930   22.1084 H   0  0  0  0  0  0  0  0  0  0  0  0
   19.7042   18.7960   20.3322 C   0  0  0  0  0  0  0  0  0  0  0  0
   19.8232   19.8570   20.0720 H   0  0  0  0  0  0  0  0  0  0  0  0
   20.6363   18.2902   20.0445 H   0  0  0  0  0  0  0  0  0  0  0  0
   18.5297   18.2006   19.5303 C   0  0  0  0  0  0  0  0  0  0  0  0
   17.5885   18.7099   19.7754 H   0  0  0  0  0  0  0  0  0  0  0  0
   18.7031   18.3095   18.4518 H   0  0  0  0  0  0  0  0  0  0  0  0
   18.4077   17.1313   19.7477 H   0  0  0  0  0  0  0  0  0  0  0  0
  1  2  1  0  0  0  0
  1  3  2  0  0  0  0
  1  4  1  0  0  0  0
  4  5  1  0  0  0  0
  4  6  1  0  0  0  0
  4  7  1  0  0  0  0
  7  8  1  0  0  0  0
  7  9  1  0  0  0  0
  7 10  1  0  0  0  0
 10 11  1  0  0  0  0
 10 12  1  0  0  0  0
 10 13  1  0  0  0  0
 13 14  1  0  0  0  0
 13 15  1  0  0  0  0
 13 16  1  0  0  0  0
 16 17  1  0  0  0  0
 16 18  1  0  0  0  0
 16 19  1  0  0  0  0
M  END
> <VConfSearch Rank>
533

> <Conf_Id>
0

> <Delta U+W>
0.000

> <U+W>
-54.891

> <U>
6.966

> <W>
-61.857

> <W(PB)>
-63.965

> <W(SA)>
2.108

> <Valence>
7.175

> <Coulomb>
-1.360

> <VdW>
1.151

> <VdW6>
-5.641

> <VdW12>
6.792

> <Bond>
0.119

> <Angle>
2.715

> <Pdih>
4.340

> <Idih>
0.000

> <Tether>
0.000

$$$$
VeraChem MOL file


 19 18  0  0  0  0  0  0  0  0999 V2000     
   21.5055   19.2377   25.1253 C   0  0  0  0  0  0  0  0  0  0  0  0
   22.2159   18.2996   25.4280 O   0  5  0  0  0  0  0  0  0  0  0  0
   21.7129   20.3807   25.4811 O   0  0  0  0  0  0  0  0  0  0  0  0
   20.2988   18.9688   24.2331 C   0  0  0  0  0  0  0  0  0  0  0  0
   19.5087   19.6791   24.5051 H   0  0  0  0  0  0  0  0  0  0  0  0
   19.9235   17.9638   24.4609 H   0  0  0  0  0  0  0  0  0  0  0  0
   20.6273   19.0871   22.7244 C   0  0  0  0  0  0  0  0  0  0  0  0
   21.0135   20.0944   22.5150 H   0  0  0  0  0  0  0  0  0  0  0  0
   21.4285   18.3790   22.4709 H   0  0  0  0  0  0  0  0  0  0  0  0
   19.3899   18.8104   21.8434 C   0  0  0  0  0  0  0  0  0  0  0  0
   18.5904   19.5189   22.1002 H   0  0  0  0  0  0  0  0  0  0  0  0
   19.0055   17.8033   22.0559 H   0  0  0  0  0  0  0  0  0  0  0  0
   19.7200   18.9290   20.3410 C   0  0  0  0  0  0  0  0  0  0  0  0
   20.1032   19.9358   20.1240 H   0  0  0  0  0  0  0  0  0  0  0  0
   20.5182   18.2203   20.0798 H   0  0  0  0  0  0  0  0  0  0  0  0
   18.4823   18.6522   19.4644 C   0  0  0  0  0  0  0  0  0  0  0  0
   18.7348   18.7408   18.3997 H   0  0  0  0  0  0  0  0  0  0  0  0
   18.0966   17.6391   19.6381 H   0  0  0  0  0  0  0  0  0  0  0  0
   17.6784   19.3674   19.6827 H   0  0  0  0  0  0  0  0  0  0  0  0
  1  2  1  0  0  0  0
  1  3  2  0  0  0  0
  1  4  1  0  0  0  0
  4  5  1  0  0  0  0
  4  6  1  0  0  0  0
  4  7  1  0  0  0  0
  7  8  1  0  0  0  0
  7  9  1  0  0  0  0
  7 10  1  0  0  0  0
 10 11  1  0  0  0  0
 10 12  1  0  0  0  0
 10 13  1  0  0  0  0
 13 14  1  0  0  0  0
 13 15  1  0  0  0  0
 13 16  1  0  0  0  0
 16 17  1  0  0  0  0
 16 18  1  0  0  0  0
 16 19  1  0  0  0  0
M  END
> <VConfSearch Rank>
534

> <Conf_Id>
18

> <Delta U+W>
-1.199

> <U+W>
-56.090

> <U>
5.975

> <W>
-62.066

> <W(PB)>
-64.219

> <W(SA)>
2.153

> <Valence>
6.673

> <Coulomb>
-1.307

> <VdW>
0.610

> <VdW6>
-5.351

> <VdW12>
5.961

> <Bond>
0.086

> <Angle>
2.253

> <Pdih>
4.333

> <Idih>
0.001

> <Tether>
0.000

$$$$
VeraChem MOL file


 19 18  0  0  0  0  0  0  0  0999 V2000     
   20.6076   15.7889   21.8253 C   0  0  0  0  0  0  0  0  0  0  0  0
   20.0079   15.0680   21.0526 O   0  5  0  0  0  0  0  0  0  0  0  0
   21.6892   15.5099   22.3033 O   0  0  0  0  0  0  0  0  0  0  0  0
   19.9781   17.1264   22.1986 C   0  0  0  0  0  0  0  0  0  0  0  0
   20.2690   17.3554   23.2300 H   0  0  0  0  0  0  0  0  0  0  0  0
   18.8883   17.0046   22.1870 H   0  0  0  0  0  0  0  0  0  0  0  0
   20.3980   18.2746   21.2444 C   0  0  0  0  0  0  0  0  0  0  0  0
   21.4862   18.4167   21.2979 H   0  0  0  0  0  0  0  0  0  0  0  0
   20.1750   17.9736   20.2114 H   0  0  0  0  0  0  0  0  0  0  0  0
   19.6806   19.6139   21.5361 C   0  0  0  0  0  0  0  0  0  0  0  0
   18.5932   19.4703   21.4735 H   0  0  0  0  0  0  0  0  0  0  0  0
   19.9455   20.3304   20.7466 H   0  0  0  0  0  0  0  0  0  0  0  0
   20.0476   20.2211   22.9088 C   0  0  0  0  0  0  0  0  0  0  0  0
   19.7221   19.5537   23.7174 H   0  0  0  0  0  0  0  0  0  0  0  0
   21.1390   20.3175   22.9917 H   0  0  0  0  0  0  0  0  0  0  0  0
   19.3952   21.6040   23.1073 C   0  0  0  0  0  0  0  0  0  0  0  0
   19.6626   22.0206   24.0871 H   0  0  0  0  0  0  0  0  0  0  0  0
   19.7289   22.3107   22.3363 H   0  0  0  0  0  0  0  0  0  0  0  0
   18.3008   21.5325   23.0565 H   0  0  0  0  0  0  0  0  0  0  0  0
  1  2  1  0  0  0  0
  1  3  2  0  0  0  0
  1  4  1  0  0  0  0
  4  5  1  0  0  0  0
  4  6  1  0  0  0  0
  4  7  1  0  0  0  0
  7  8  1  0  0  0  0
  7  9  1  0  0  0  0
  7 10  1  0  0  0  0
 10 11  1  0  0  0  0
 10 12  1  0  0  0  0
 10 13  1  0  0  0  0
 13 14  1  0  0  0  0
 13 15  1  0  0  0  0
 13 16  1  0  0  0  0
 16 17  1  0  0  0  0
 16 18  1  0  0  0  0
 16 19  1  0  0  0  0
M  END
> <VConfSearch Rank>
535

> <Conf_Id>
34

> <Delta U+W>
-0.563

> <U+W>
-55.455

> <U>
6.914

> <W>
-62.369

> <W(PB)>
-64.446

> <W(SA)>
2.077

> <Valence>
7.196

> <Coulomb>
-1.020

> <VdW>
0.738

> <VdW6>
-6.010

> <VdW12>
6.748

> <Bond>
0.126

> <Angle>
2.499

> <Pdih>
4.570

> <Idih>
0.001

> <Tether>
0.000

$$$$
VeraChem MOL file


 19 18  0  0  0  0  0  0  0  0999 V2000     
   21.3310   17.1579   24.5031 C   0  0  0  0  0  0  0  0  0  0  0  0
   20.7959   16.9197   25.5676 O   0  5  0  0  0  0  0  0  0  0  0  0
   22.5251   17.0434   24.3104 O   0  0  0  0  0  0  0  0  0  0  0  0
   20.4591   17.6482   23.3525 C   0  0  0  0  0  0  0  0  0  0  0  0
   19.4685   17.1897   23.4568 H   0  0  0  0  0  0  0  0  0  0  0  0
   20.8952   17.2722   22.4202 H   0  0  0  0  0  0  0  0  0  0  0  0
   20.3317   19.1933   23.3122 C   0  0  0  0  0  0  0  0  0  0  0  0
   19.9786   19.5434   24.2921 H   0  0  0  0  0  0  0  0  0  0  0  0
   21.3246   19.6396   23.1628 H   0  0  0  0  0  0  0  0  0  0  0  0
   19.3591   19.7049   22.2233 C   0  0  0  0  0  0  0  0  0  0  0  0
   19.2397   20.7903   22.3445 H   0  0  0  0  0  0  0  0  0  0  0  0
   18.3653   19.2635   22.3805 H   0  0  0  0  0  0  0  0  0  0  0  0
   19.8381   19.4102   20.7841 C   0  0  0  0  0  0  0  0  0  0  0  0
   20.8528   19.8071   20.6426 H   0  0  0  0  0  0  0  0  0  0  0  0
   19.8914   18.3264   20.6172 H   0  0  0  0  0  0  0  0  0  0  0  0
   18.8942   20.0328   19.7360 C   0  0  0  0  0  0  0  0  0  0  0  0
   17.8769   19.6324   19.8371 H   0  0  0  0  0  0  0  0  0  0  0  0
   18.8462   21.1238   19.8487 H   0  0  0  0  0  0  0  0  0  0  0  0
   19.2458   19.8125   18.7197 H   0  0  0  0  0  0  0  0  0  0  0  0
  1  2  1  0  0  0  0
  1  3  2  0  0  0  0
  1  4  1  0  0  0  0
  4  5  1  0  0  0  0
  4  6  1  0  0  0  0
  4  7  1  0  0  0  0
  7  8  1  0  0  0  0
  7  9  1  0  0  0  0
  7 10  1  0  0  0  0
 10 11  1  0  0  0  0
 10 12  1  0  0  0  0
 10 13  1  0  0  0  0
 13 14  1  0  0  0  0
 13 15  1  0  0  0  0
 13 16  1  0  0  0  0
 16 17  1  0  0  0  0
 16 18  1  0  0  0  0
 16 19  1  0  0  0  0
M  END
> <VConfSearch Rank>
536

> <Conf_Id>
33

> <Delta U+W>
-0.526

> <U+W>
-55.418

> <U>
6.914

> <W>
-62.332

> <W(PB)>
-64.421

> <W(SA)>
2.090

> <Valence>
7.196

> <Coulomb>
-1.020

> <VdW>
0.738

> <VdW6>
-6.010

> <VdW12>
6.748

> <Bond>
0.126

> <Angle>
2.499

> <Pdih>
4.570

> <Idih>
0.001

> <Tether>
0.000

$$$$
VeraChem MOL file


 19 18  0  0  0  0  0  0  0  0999 V2000     
   18.0326   19.0776   24.7905 C   0  0  0  0  0  0  0  0  0  0  0  0
   18.6348   18.6653   25.7619 O   0  5  0  0  0  0  0  0  0  0  0  0
   17.2149   19.9751   24.8372 O   0  0  0  0  0  0  0  0  0  0  0  0
   18.3322   18.4460   23.4356 C   0  0  0  0  0  0  0  0  0  0  0  0
   17.4120   18.4666   22.8393 H   0  0  0  0  0  0  0  0  0  0  0  0
   18.5888   17.3925   23.5996 H   0  0  0  0  0  0  0  0  0  0  0  0
   19.4771   19.1621   22.6773 C   0  0  0  0  0  0  0  0  0  0  0  0
   19.2095   20.2175   22.5291 H   0  0  0  0  0  0  0  0  0  0  0  0
   20.3810   19.1453   23.3004 H   0  0  0  0  0  0  0  0  0  0  0  0
   19.7615   18.4992   21.3097 C   0  0  0  0  0  0  0  0  0  0  0  0
   18.8291   18.4613   20.7299 H   0  0  0  0  0  0  0  0  0  0  0  0
   20.0765   17.4577   21.4612 H   0  0  0  0  0  0  0  0  0  0  0  0
   20.8281   19.2457   20.4757 C   0  0  0  0  0  0  0  0  0  0  0  0
   20.8843   18.7837   19.4804 H   0  0  0  0  0  0  0  0  0  0  0  0
   20.5138   20.2866   20.3172 H   0  0  0  0  0  0  0  0  0  0  0  0
   22.2329   19.2190   21.1157 C   0  0  0  0  0  0  0  0  0  0  0  0
   22.5563   18.1882   21.3106 H   0  0  0  0  0  0  0  0  0  0  0  0
   22.9685   19.6831   20.4461 H   0  0  0  0  0  0  0  0  0  0  0  0
   22.2521   19.7714   22.0635 H   0  0  0  0  0  0  0  0  0  0  0  0
  1  2  1  0  0  0  0
  1  3  2  0  0  0  0
  1  4  1  0  0  0  0
  4  5  1  0  0  0  0
  4  6  1  0  0  0  0
  4  7  1  0  0  0  0
  7  8  1  0  0  0  0
  7  9  1  0  0  0  0
  7 10  1  0  0  0  0
 10 11  1  0  0  0  0
 10 12  1  0  0  0  0
 10 13  1  0  0  0  0
 13 14  1  0  0  0  0
 13 15  1  0  0  0  0
 13 16  1  0  0  0  0
 16 17  1  0  0  0  0
 16 18  1  0  0  0  0
 16 19  1  0  0  0  0
M  END
> <VConfSearch Rank>
537

> <Conf_Id>
42

> <Delta U+W>
-0.344

> <U+W>
-55.236

> <U>
7.244

> <W>
-62.479

> <W(PB)>
-64.610

> <W(SA)>
2.130

> <Valence>
7.174

> <Coulomb>
-0.669

> <VdW>
0.739

> <VdW6>
-5.969

> <VdW12>
6.708

> <Bond>
0.116

> <Angle>
2.481

> <Pdih>
4.576

> <Idih>
0.000

> <Tether>
0.000

$$$$
VeraChem MOL file


 19 18  0  0  0  0  0  0  0  0999 V2000     
   19.3193   18.1310   19.2624 C   0  0  0  0  0  0  0  0  0  0  0  0
   19.7888   17.0407   19.0037 O   0  5  0  0  0  0  0  0  0  0  0  0
   19.2195   19.0299   18.4511 O   0  0  0  0  0  0  0  0  0  0  0  0
   18.8460   18.3918   20.6881 C   0  0  0  0  0  0  0  0  0  0  0  0
   18.4738   17.4469   21.1021 H   0  0  0  0  0  0  0  0  0  0  0  0
   17.9961   19.0834   20.6436 H   0  0  0  0  0  0  0  0  0  0  0  0
   19.9595   18.9701   21.5959 C   0  0  0  0  0  0  0  0  0  0  0  0
   20.8057   18.2706   21.6100 H   0  0  0  0  0  0  0  0  0  0  0  0
   20.3281   19.9105   21.1635 H   0  0  0  0  0  0  0  0  0  0  0  0
   19.4532   19.2211   23.0351 C   0  0  0  0  0  0  0  0  0  0  0  0
   19.1302   18.2722   23.4850 H   0  0  0  0  0  0  0  0  0  0  0  0
   18.5639   19.8649   22.9941 H   0  0  0  0  0  0  0  0  0  0  0  0
   20.5047   19.8941   23.9472 C   0  0  0  0  0  0  0  0  0  0  0  0
   20.8261   20.8465   23.5032 H   0  0  0  0  0  0  0  0  0  0  0  0
   20.0312   20.1433   24.9069 H   0  0  0  0  0  0  0  0  0  0  0  0
   21.7376   19.0049   24.2177 C   0  0  0  0  0  0  0  0  0  0  0  0
   22.3100   18.8233   23.2995 H   0  0  0  0  0  0  0  0  0  0  0  0
   22.4097   19.4896   24.9376 H   0  0  0  0  0  0  0  0  0  0  0  0
   21.4382   18.0346   24.6351 H   0  0  0  0  0  0  0  0  0  0  0  0
  1  2  1  0  0  0  0
  1  3  2  0  0  0  0
  1  4  1  0  0  0  0
  4  5  1  0  0  0  0
  4  6  1  0  0  0  0
  4  7  1  0  0  0  0
  7  8  1  0  0  0  0
  7  9  1  0  0  0  0
  7 10  1  0  0  0  0
 10 11  1  0  0  0  0
 10 12  1  0  0  0  0
 10 13  1  0  0  0  0
 13 14  1  0  0  0  0
 13 15  1  0  0  0  0
 13 16  1  0  0  0  0
 16 17  1  0  0  0  0
 16 18  1  0  0  0  0
 16 19  1  0  0  0  0
M  END
> <VConfSearch Rank>
538

> <Conf_Id>
41

> <Delta U+W>
-0.361

> <U+W>
-55.252

> <U>
7.244

> <W>
-62.496

> <W(PB)>
-64.596

> <W(SA)>
2.099

> <Valence>
7.174

> <Coulomb>
-0.669

> <VdW>
0.739

> <VdW6>
-5.969

> <VdW12>
6.708

> <Bond>
0.116

> <Angle>
2.481

> <Pdih>
4.576

> <Idih>
0.000

> <Tether>
0.000

$$$$
VeraChem MOL file


 19 18  0  0  0  0  0  0  0  0999 V2000     
   20.0783   21.1871   20.5311 C   0  0  0  0  0  0  0  0  0  0  0  0
   18.9044   21.4169   20.3177 O   0  5  0  0  0  0  0  0  0  0  0  0
   20.8785   22.0368   20.8696 O   0  0  0  0  0  0  0  0  0  0  0  0
   20.5821   19.7588   20.3430 C   0  0  0  0  0  0  0  0  0  0  0  0
   21.5124   19.8126   19.7652 H   0  0  0  0  0  0  0  0  0  0  0  0
   19.8582   19.2099   19.7285 H   0  0  0  0  0  0  0  0  0  0  0  0
   20.8408   19.0005   21.6708 C   0  0  0  0  0  0  0  0  0  0  0  0
   21.3282   18.0424   21.4448 H   0  0  0  0  0  0  0  0  0  0  0  0
   21.5452   19.5761   22.2874 H   0  0  0  0  0  0  0  0  0  0  0  0
   19.5432   18.7364   22.4669 C   0  0  0  0  0  0  0  0  0  0  0  0
   18.8375   18.1722   21.8419 H   0  0  0  0  0  0  0  0  0  0  0  0
   19.0582   19.6915   22.7118 H   0  0  0  0  0  0  0  0  0  0  0  0
   19.8202   17.9539   23.7675 C   0  0  0  0  0  0  0  0  0  0  0  0
   20.3017   16.9956   23.5284 H   0  0  0  0  0  0  0  0  0  0  0  0
   20.5241   18.5173   24.3957 H   0  0  0  0  0  0  0  0  0  0  0  0
   18.5236   17.6920   24.5595 C   0  0  0  0  0  0  0  0  0  0  0  0
   17.8129   17.1026   23.9654 H   0  0  0  0  0  0  0  0  0  0  0  0
   18.7388   17.1354   25.4809 H   0  0  0  0  0  0  0  0  0  0  0  0
   18.0369   18.6356   24.8391 H   0  0  0  0  0  0  0  0  0  0  0  0
  1  2  1  0  0  0  0
  1  3  2  0  0  0  0
  1  4  1  0  0  0  0
  4  5  1  0  0  0  0
  4  6  1  0  0  0  0
  4  7  1  0  0  0  0
  7  8  1  0  0  0  0
  7  9  1  0  0  0  0
  7 10  1  0  0  0  0
 10 11  1  0  0  0  0
 10 12  1  0  0  0  0
 10 13  1  0  0  0  0
 13 14  1  0  0  0  0
 13 15  1  0  0  0  0
 13 16  1  0  0  0  0
 16 17  1  0  0  0  0
 16 18  1  0  0  0  0
 16 19  1  0  0  0  0
M  END
> <VConfSearch Rank>
539

> <Conf_Id>
36

> <Delta U+W>
-0.079

> <U+W>
-54.971

> <U>
8.266

> <W>
-63.237

> <W(PB)>
-65.340

> <W(SA)>
2.103

> <Valence>
6.935

> <Coulomb>
0.874

> <VdW>
0.457

> <VdW6>
-6.205

> <VdW12>
6.662

> <Bond>
0.107

> <Angle>
2.420

> <Pdih>
4.407

> <Idih>
0.001

> <Tether>
0.000

$$$$
VeraChem MOL file


 19 18  0  0  0  0  0  0  0  0999 V2000     
   21.7487   21.0286   21.1966 C   0  0  0  0  0  0  0  0  0  0  0  0
   22.6836   21.0216   21.9728 O   0  5  0  0  0  0  0  0  0  0  0  0
   21.1393   22.0336   20.8880 O   0  0  0  0  0  0  0  0  0  0  0  0
   21.3291   19.7080   20.5569 C   0  0  0  0  0  0  0  0  0  0  0  0
   22.1534   18.9916   20.6590 H   0  0  0  0  0  0  0  0  0  0  0  0
   21.1985   19.8904   19.4836 H   0  0  0  0  0  0  0  0  0  0  0  0
   20.0240   19.1092   21.1426 C   0  0  0  0  0  0  0  0  0  0  0  0
   19.2150   19.8483   21.0592 H   0  0  0  0  0  0  0  0  0  0  0  0
   19.7254   18.2437   20.5357 H   0  0  0  0  0  0  0  0  0  0  0  0
   20.1808   18.6688   22.6153 C   0  0  0  0  0  0  0  0  0  0  0  0
   20.4630   19.5332   23.2322 H   0  0  0  0  0  0  0  0  0  0  0  0
   20.9990   17.9400   22.6954 H   0  0  0  0  0  0  0  0  0  0  0  0
   18.8808   18.0477   23.1673 C   0  0  0  0  0  0  0  0  0  0  0  0
   18.0611   18.7755   23.0905 H   0  0  0  0  0  0  0  0  0  0  0  0
   18.5958   17.1798   22.5566 H   0  0  0  0  0  0  0  0  0  0  0  0
   19.0405   17.6093   24.6368 C   0  0  0  0  0  0  0  0  0  0  0  0
   19.2953   18.4648   25.2761 H   0  0  0  0  0  0  0  0  0  0  0  0
   18.1073   17.1706   25.0133 H   0  0  0  0  0  0  0  0  0  0  0  0
   19.8339   16.8572   24.7382 H   0  0  0  0  0  0  0  0  0  0  0  0
  1  2  1  0  0  0  0
  1  3  2  0  0  0  0
  1  4  1  0  0  0  0
  4  5  1  0  0  0  0
  4  6  1  0  0  0  0
  4  7  1  0  0  0  0
  7  8  1  0  0  0  0
  7  9  1  0  0  0  0
  7 10  1  0  0  0  0
 10 11  1  0  0  0  0
 10 12  1  0  0  0  0
 10 13  1  0  0  0  0
 13 14  1  0  0  0  0
 13 15  1  0  0  0  0
 13 16  1  0  0  0  0
 16 17  1  0  0  0  0
 16 18  1  0  0  0  0
 16 19  1  0  0  0  0
M  END
> <VConfSearch Rank>
540

> <Conf_Id>
35

> <Delta U+W>
-0.030

> <U+W>
-54.921

> <U>
8.267

> <W>
-63.188

> <W(PB)>
-65.294

> <W(SA)>
2.106

> <Valence>
6.935

> <Coulomb>
0.875

> <VdW>
0.457

> <VdW6>
-6.205

> <VdW12>
6.662

> <Bond>
0.107

> <Angle>
2.420

> <Pdih>
4.407

> <Idih>
0.001

> <Tether>
0.000

$$$$
VeraChem MOL file


 19 18  0  0  0  0  0  0  0  0999 V2000     
   19.0513   20.2298   19.9225 C   0  0  0  0  0  0  0  0  0  0  0  0
   18.4407   19.4890   19.1775 O   0  5  0  0  0  0  0  0  0  0  0  0
   19.9112   21.0015   19.5460 O   0  0  0  0  0  0  0  0  0  0  0  0
   18.7024   20.2035   21.4082 C   0  0  0  0  0  0  0  0  0  0  0  0
   17.6090   20.2202   21.4878 H   0  0  0  0  0  0  0  0  0  0  0  0
   19.0683   21.1282   21.8709 H   0  0  0  0  0  0  0  0  0  0  0  0
   19.2572   18.9698   22.1671 C   0  0  0  0  0  0  0  0  0  0  0  0
   18.8289   18.9612   23.1775 H   0  0  0  0  0  0  0  0  0  0  0  0
   18.9149   18.0521   21.6691 H   0  0  0  0  0  0  0  0  0  0  0  0
   20.8020   18.9731   22.2569 C   0  0  0  0  0  0  0  0  0  0  0  0
   21.1402   19.8727   22.7890 H   0  0  0  0  0  0  0  0  0  0  0  0
   21.2224   19.0363   21.2438 H   0  0  0  0  0  0  0  0  0  0  0  0
   21.3798   17.7156   22.9466 C   0  0  0  0  0  0  0  0  0  0  0  0
   21.0449   16.8141   22.4152 H   0  0  0  0  0  0  0  0  0  0  0  0
   22.4749   17.7382   22.8594 H   0  0  0  0  0  0  0  0  0  0  0  0
   21.0030   17.6089   24.4401 C   0  0  0  0  0  0  0  0  0  0  0  0
   19.9234   17.4653   24.5722 H   0  0  0  0  0  0  0  0  0  0  0  0
   21.5107   16.7529   24.9034 H   0  0  0  0  0  0  0  0  0  0  0  0
   21.3002   18.5138   24.9860 H   0  0  0  0  0  0  0  0  0  0  0  0
  1  2  1  0  0  0  0
  1  3  2  0  0  0  0
  1  4  1  0  0  0  0
  4  5  1  0  0  0  0
  4  6  1  0  0  0  0
  4  7  1  0  0  0  0
  7  8  1  0  0  0  0
  7  9  1  0  0  0  0
  7 10  1  0  0  0  0
 10 11  1  0  0  0  0
 10 12  1  0  0  0  0
 10 13  1  0  0  0  0
 13 14  1  0  0  0  0
 13 15  1  0  0  0  0
 13 16  1  0  0  0  0
 16 17  1  0  0  0  0
 16 18  1  0  0  0  0
 16 19  1  0  0  0  0
M  END
> <VConfSearch Rank>
541

> <Conf_Id>
74

> <Delta U+W>
0.797

> <U+W>
-54.095

> <U>
8.869

> <W>
-62.964

> <W(PB)>
-65.046

> <W(SA)>
2.082

> <Valence>
7.469

> <Coulomb>
0.762

> <VdW>
0.639

> <VdW6>
-6.782

> <VdW12>
7.421

> <Bond>
0.141

> <Angle>
2.667

> <Pdih>
4.660

> <Idih>
0.001

> <Tether>
0.000

$$$$
VeraChem MOL file


 19 18  0  0  0  0  0  0  0  0999 V2000     
   17.9927   16.8053   21.9276 C   0  0  0  0  0  0  0  0  0  0  0  0
   17.8167   15.7937   22.5773 O   0  5  0  0  0  0  0  0  0  0  0  0
   17.1336   17.3203   21.2398 O   0  0  0  0  0  0  0  0  0  0  0  0
   19.3607   17.4750   21.9943 C   0  0  0  0  0  0  0  0  0  0  0  0
   19.5503   17.9442   21.0221 H   0  0  0  0  0  0  0  0  0  0  0  0
   20.1169   16.6931   22.1323 H   0  0  0  0  0  0  0  0  0  0  0  0
   19.4614   18.5234   23.1324 C   0  0  0  0  0  0  0  0  0  0  0  0
   18.7258   19.3209   22.9633 H   0  0  0  0  0  0  0  0  0  0  0  0
   19.1770   18.0440   24.0793 H   0  0  0  0  0  0  0  0  0  0  0  0
   20.8784   19.1292   23.2928 C   0  0  0  0  0  0  0  0  0  0  0  0
   21.5796   18.3276   23.5623 H   0  0  0  0  0  0  0  0  0  0  0  0
   20.8705   19.8239   24.1437 H   0  0  0  0  0  0  0  0  0  0  0  0
   21.4241   19.8701   22.0473 C   0  0  0  0  0  0  0  0  0  0  0  0
   22.4334   20.2398   22.2749 H   0  0  0  0  0  0  0  0  0  0  0  0
   21.5398   19.1696   21.2097 H   0  0  0  0  0  0  0  0  0  0  0  0
   20.5456   21.0623   21.6114 C   0  0  0  0  0  0  0  0  0  0  0  0
   20.3974   21.7654   22.4413 H   0  0  0  0  0  0  0  0  0  0  0  0
   21.0206   21.6080   20.7859 H   0  0  0  0  0  0  0  0  0  0  0  0
   19.5605   20.7257   21.2641 H   0  0  0  0  0  0  0  0  0  0  0  0
  1  2  1  0  0  0  0
  1  3  2  0  0  0  0
  1  4  1  0  0  0  0
  4  5  1  0  0  0  0
  4  6  1  0  0  0  0
  4  7  1  0  0  0  0
  7  8  1  0  0  0  0
  7  9  1  0  0  0  0
  7 10  1  0  0  0  0
 10 11  1  0  0  0  0
 10 12  1  0  0  0  0
 10 13  1  0  0  0  0
 13 14  1  0  0  0  0
 13 15  1  0  0  0  0
 13 16  1  0  0  0  0
 16 17  1  0  0  0  0
 16 18  1  0  0  0  0
 16 19  1  0  0  0  0
M  END
> <VConfSearch Rank>
542

> <Conf_Id>
67

> <Delta U+W>
0.308

> <U+W>
-54.583

> <U>
8.219

> <W>
-62.802

> <W(PB)>
-64.859

> <W(SA)>
2.057

> <Valence>
7.609

> <Coulomb>
-0.089

> <VdW>
0.699

> <VdW6>
-6.924

> <VdW12>
7.623

> <Bond>
0.163

> <Angle>
2.870

> <Pdih>
4.576

> <Idih>
0.001

> <Tether>
0.000

$$$$
VeraChem MOL file


 19 18  0  0  0  0  0  0  0  0999 V2000     
   18.0948   19.1210   24.5332 C   0  0  0  0  0  0  0  0  0  0  0  0
   16.9745   18.6619   24.6356 O   0  5  0  0  0  0  0  0  0  0  0  0
   18.4927   20.0722   25.1761 O   0  0  0  0  0  0  0  0  0  0  0  0
   19.0465   18.4805   23.5291 C   0  0  0  0  0  0  0  0  0  0  0  0
   18.8123   17.4108   23.4716 H   0  0  0  0  0  0  0  0  0  0  0  0
   20.0631   18.5707   23.9283 H   0  0  0  0  0  0  0  0  0  0  0  0
   18.9565   19.1242   22.1212 C   0  0  0  0  0  0  0  0  0  0  0  0
   17.9096   19.0997   21.7888 H   0  0  0  0  0  0  0  0  0  0  0  0
   19.2299   20.1858   22.1846 H   0  0  0  0  0  0  0  0  0  0  0  0
   19.8282   18.4109   21.0572 C   0  0  0  0  0  0  0  0  0  0  0  0
   19.6712   18.9010   20.0867 H   0  0  0  0  0  0  0  0  0  0  0  0
   19.4701   17.3793   20.9373 H   0  0  0  0  0  0  0  0  0  0  0  0
   21.3462   18.3787   21.3616 C   0  0  0  0  0  0  0  0  0  0  0  0
   21.5376   17.8018   22.2760 H   0  0  0  0  0  0  0  0  0  0  0  0
   21.8538   17.8386   20.5506 H   0  0  0  0  0  0  0  0  0  0  0  0
   21.9737   19.7833   21.4912 C   0  0  0  0  0  0  0  0  0  0  0  0
   21.5768   20.3184   22.3632 H   0  0  0  0  0  0  0  0  0  0  0  0
   23.0619   19.7080   21.6141 H   0  0  0  0  0  0  0  0  0  0  0  0
   21.7749   20.3866   20.5959 H   0  0  0  0  0  0  0  0  0  0  0  0
  1  2  1  0  0  0  0
  1  3  2  0  0  0  0
  1  4  1  0  0  0  0
  4  5  1  0  0  0  0
  4  6  1  0  0  0  0
  4  7  1  0  0  0  0
  7  8  1  0  0  0  0
  7  9  1  0  0  0  0
  7 10  1  0  0  0  0
 10 11  1  0  0  0  0
 10 12  1  0  0  0  0
 10 13  1  0  0  0  0
 13 14  1  0  0  0  0
 13 15  1  0  0  0  0
 13 16  1  0  0  0  0
 16 17  1  0  0  0  0
 16 18  1  0  0  0  0
 16 19  1  0  0  0  0
M  END
> <VConfSearch Rank>
543

> <Conf_Id>
21

> <Delta U+W>
0.319

> <U+W>
-54.572

> <U>
8.220

> <W>
-62.792

> <W(PB)>
-64.830

> <W(SA)>
2.038

> <Valence>
7.609

> <Coulomb>
-0.088

> <VdW>
0.699

> <VdW6>
-6.924

> <VdW12>
7.623

> <Bond>
0.163

> <Angle>
2.870

> <Pdih>
4.576

> <Idih>
0.000

> <Tether>
0.000

$$$$
VeraChem MOL file


 19 18  0  0  0  0  0  0  0  0999 V2000     
   22.4009   19.5690   23.7761 C   0  0  0  0  0  0  0  0  0  0  0  0
   23.0179   18.9295   24.6048 O   0  5  0  0  0  0  0  0  0  0  0  0
   22.8934   20.4576   23.1096 O   0  0  0  0  0  0  0  0  0  0  0  0
   20.9335   19.2247   23.5474 C   0  0  0  0  0  0  0  0  0  0  0  0
   20.4123   20.1455   23.2674 H   0  0  0  0  0  0  0  0  0  0  0  0
   20.5101   18.8967   24.5042 H   0  0  0  0  0  0  0  0  0  0  0  0
   20.7354   18.1227   22.4732 C   0  0  0  0  0  0  0  0  0  0  0  0
   21.2102   18.4245   21.5294 H   0  0  0  0  0  0  0  0  0  0  0  0
   21.2691   17.2232   22.8100 H   0  0  0  0  0  0  0  0  0  0  0  0
   19.2489   17.7559   22.2327 C   0  0  0  0  0  0  0  0  0  0  0  0
   18.6649   17.9112   23.1502 H   0  0  0  0  0  0  0  0  0  0  0  0
   19.1929   16.6791   22.0219 H   0  0  0  0  0  0  0  0  0  0  0  0
   18.5839   18.4971   21.0469 C   0  0  0  0  0  0  0  0  0  0  0  0
   19.1227   18.2639   20.1181 H   0  0  0  0  0  0  0  0  0  0  0  0
   17.5657   18.1048   20.9179 H   0  0  0  0  0  0  0  0  0  0  0  0
   18.5046   20.0278   21.2215 C   0  0  0  0  0  0  0  0  0  0  0  0
   17.9098   20.4754   20.4150 H   0  0  0  0  0  0  0  0  0  0  0  0
   18.0331   20.2919   22.1770 H   0  0  0  0  0  0  0  0  0  0  0  0
   19.5027   20.4820   21.1861 H   0  0  0  0  0  0  0  0  0  0  0  0
  1  2  1  0  0  0  0
  1  3  2  0  0  0  0
  1  4  1  0  0  0  0
  4  5  1  0  0  0  0
  4  6  1  0  0  0  0
  4  7  1  0  0  0  0
  7  8  1  0  0  0  0
  7  9  1  0  0  0  0
  7 10  1  0  0  0  0
 10 11  1  0  0  0  0
 10 12  1  0  0  0  0
 10 13  1  0  0  0  0
 13 14  1  0  0  0  0
 13 15  1  0  0  0  0
 13 16  1  0  0  0  0
 16 17  1  0  0  0  0
 16 18  1  0  0  0  0
 16 19  1  0  0  0  0
M  END
> <VConfSearch Rank>
544

> <Conf_Id>
24

> <Delta U+W>
2.477

> <U+W>
-52.414

> <U>
10.422

> <W>
-62.836

> <W(PB)>
-64.906

> <W(SA)>
2.070

> <Valence>
9.628

> <Coulomb>
0.101

> <VdW>
0.693

> <VdW6>
-6.927

> <VdW12>
7.620

> <Bond>
0.173

> <Angle>
2.989

> <Pdih>
6.465

> <Idih>
0.001

> <Tether>
0.000

$$$$
VeraChem MOL file


 19 18  0  0  0  0  0  0  0  0999 V2000     
   21.6006   20.7233   21.4081 C   0  0  0  0  0  0  0  0  0  0  0  0
   21.2714   20.5799   20.2471 O   0  5  0  0  0  0  0  0  0  0  0  0
   22.0463   21.7617   21.8555 O   0  0  0  0  0  0  0  0  0  0  0  0
   21.4760   19.5289   22.3504 C   0  0  0  0  0  0  0  0  0  0  0  0
   22.4283   19.4386   22.8860 H   0  0  0  0  0  0  0  0  0  0  0  0
   21.3690   18.6223   21.7465 H   0  0  0  0  0  0  0  0  0  0  0  0
   20.3182   19.6545   23.3794 C   0  0  0  0  0  0  0  0  0  0  0  0
   20.4144   18.8729   24.1449 H   0  0  0  0  0  0  0  0  0  0  0  0
   20.4359   20.6107   23.9079 H   0  0  0  0  0  0  0  0  0  0  0  0
   18.9008   19.6018   22.7520 C   0  0  0  0  0  0  0  0  0  0  0  0
   18.9164   20.0069   21.7309 H   0  0  0  0  0  0  0  0  0  0  0  0
   18.2483   20.2722   23.3279 H   0  0  0  0  0  0  0  0  0  0  0  0
   18.2452   18.1989   22.7546 C   0  0  0  0  0  0  0  0  0  0  0  0
   18.1507   17.8375   23.7878 H   0  0  0  0  0  0  0  0  0  0  0  0
   17.2214   18.2927   22.3671 H   0  0  0  0  0  0  0  0  0  0  0  0
   18.9976   17.1491   21.9112 C   0  0  0  0  0  0  0  0  0  0  0  0
   19.9654   16.8988   22.3629 H   0  0  0  0  0  0  0  0  0  0  0  0
   18.4147   16.2215   21.8435 H   0  0  0  0  0  0  0  0  0  0  0  0
   19.1722   17.5155   20.8911 H   0  0  0  0  0  0  0  0  0  0  0  0
  1  2  1  0  0  0  0
  1  3  2  0  0  0  0
  1  4  1  0  0  0  0
  4  5  1  0  0  0  0
  4  6  1  0  0  0  0
  4  7  1  0  0  0  0
  7  8  1  0  0  0  0
  7  9  1  0  0  0  0
  7 10  1  0  0  0  0
 10 11  1  0  0  0  0
 10 12  1  0  0  0  0
 10 13  1  0  0  0  0
 13 14  1  0  0  0  0
 13 15  1  0  0  0  0
 13 16  1  0  0  0  0
 16 17  1  0  0  0  0
 16 18  1  0  0  0  0
 16 19  1  0  0  0  0
M  END
> <VConfSearch Rank>
545

> <Conf_Id>
4

> <Delta U+W>
3.753

> <U+W>
-51.138

> <U>
12.334

> <W>
-63.472

> <W(PB)>
-65.500

> <W(SA)>
2.028

> <Valence>
9.984

> <Coulomb>
1.767

> <VdW>
0.583

> <VdW6>
-7.767

> <VdW12>
8.349

> <Bond>
0.203

> <Angle>
3.191

> <Pdih>
6.589

> <Idih>
0.001

> <Tether>
0.000

$$$$
VeraChem MOL file


 19 18  0  0  0  0  0  0  0  0999 V2000     
   20.5371   16.3798   22.1321 C   0  0  0  0  0  0  0  0  0  0  0  0
   19.8341   15.4074   21.9392 O   0  5  0  0  0  0  0  0  0  0  0  0
   21.5958   16.5650   21.5651 O   0  0  0  0  0  0  0  0  0  0  0  0
   20.0770   17.4068   23.1635 C   0  0  0  0  0  0  0  0  0  0  0  0
   20.9361   18.0256   23.4416 H   0  0  0  0  0  0  0  0  0  0  0  0
   19.7847   16.8531   24.0633 H   0  0  0  0  0  0  0  0  0  0  0  0
   18.8852   18.2854   22.6915 C   0  0  0  0  0  0  0  0  0  0  0  0
   18.0795   17.6153   22.3608 H   0  0  0  0  0  0  0  0  0  0  0  0
   18.4788   18.8490   23.5420 H   0  0  0  0  0  0  0  0  0  0  0  0
   19.2313   19.2591   21.5350 C   0  0  0  0  0  0  0  0  0  0  0  0
   18.3492   19.3441   20.8858 H   0  0  0  0  0  0  0  0  0  0  0  0
   20.0261   18.8396   20.9032 H   0  0  0  0  0  0  0  0  0  0  0  0
   19.6151   20.6893   21.9880 C   0  0  0  0  0  0  0  0  0  0  0  0
   19.7576   21.3110   21.0934 H   0  0  0  0  0  0  0  0  0  0  0  0
   18.7797   21.1372   22.5435 H   0  0  0  0  0  0  0  0  0  0  0  0
   20.8958   20.7575   22.8452 C   0  0  0  0  0  0  0  0  0  0  0  0
   21.7314   20.2501   22.3454 H   0  0  0  0  0  0  0  0  0  0  0  0
   21.1871   21.8016   23.0179 H   0  0  0  0  0  0  0  0  0  0  0  0
   20.7404   20.2914   23.8260 H   0  0  0  0  0  0  0  0  0  0  0  0
  1  2  1  0  0  0  0
  1  3  2  0  0  0  0
  1  4  1  0  0  0  0
  4  5  1  0  0  0  0
  4  6  1  0  0  0  0
  4  7  1  0  0  0  0
  7  8  1  0  0  0  0
  7  9  1  0  0  0  0
  7 10  1  0  0  0  0
 10 11  1  0  0  0  0
 10 12  1  0  0  0  0
 10 13  1  0  0  0  0
 13 14  1  0  0  0  0
 13 15  1  0  0  0  0
 13 16  1  0  0  0  0
 16 17  1  0  0  0  0
 16 18  1  0  0  0  0
 16 19  1  0  0  0  0
M  END
> <VConfSearch Rank>
546

> <Conf_Id>
73

> <Delta U+W>
3.707

> <U+W>
-51.184

> <U>
12.334

> <W>
-63.519

> <W(PB)>
-65.541

> <W(SA)>
2.022

> <Valence>
9.984

> <Coulomb>
1.768

> <VdW>
0.583

> <VdW6>
-7.767

> <VdW12>
8.350

> <Bond>
0.203

> <Angle>
3.192

> <Pdih>
6.589

> <Idih>
0.001

> <Tether>
0.000

$$$$
VeraChem MOL file


 19 18  0  0  0  0  0  0  0  0999 V2000     
   19.1584   17.8480   20.1951 C   0  0  0  0  0  0  0  0  0  0  0  0
   19.9882   18.3783   19.4831 O   0  5  0  0  0  0  0  0  0  0  0  0
   18.7665   16.7087   20.0351 O   0  0  0  0  0  0  0  0  0  0  0  0
   18.5505   18.6645   21.3322 C   0  0  0  0  0  0  0  0  0  0  0  0
   17.4609   18.5749   21.2522 H   0  0  0  0  0  0  0  0  0  0  0  0
   18.7875   19.7225   21.1714 H   0  0  0  0  0  0  0  0  0  0  0  0
   19.0002   18.2136   22.7488 C   0  0  0  0  0  0  0  0  0  0  0  0
   18.4617   18.8014   23.5033 H   0  0  0  0  0  0  0  0  0  0  0  0
   18.6894   17.1708   22.9010 H   0  0  0  0  0  0  0  0  0  0  0  0
   20.5268   18.3173   22.9994 C   0  0  0  0  0  0  0  0  0  0  0  0
   21.0491   17.6317   22.3180 H   0  0  0  0  0  0  0  0  0  0  0  0
   20.7426   17.9565   24.0142 H   0  0  0  0  0  0  0  0  0  0  0  0
   21.1275   19.7346   22.8337 C   0  0  0  0  0  0  0  0  0  0  0  0
   22.2090   19.6795   23.0181 H   0  0  0  0  0  0  0  0  0  0  0  0
   21.0147   20.0730   21.7948 H   0  0  0  0  0  0  0  0  0  0  0  0
   20.5122   20.7763   23.7929 C   0  0  0  0  0  0  0  0  0  0  0  0
   19.4520   20.9478   23.5685 H   0  0  0  0  0  0  0  0  0  0  0  0
   20.5953   20.4464   24.8366 H   0  0  0  0  0  0  0  0  0  0  0  0
   21.0320   21.7385   23.6994 H   0  0  0  0  0  0  0  0  0  0  0  0
  1  2  1  0  0  0  0
  1  3  2  0  0  0  0
  1  4  1  0  0  0  0
  4  5  1  0  0  0  0
  4  6  1  0  0  0  0
  4  7  1  0  0  0  0
  7  8  1  0  0  0  0
  7  9  1  0  0  0  0
  7 10  1  0  0  0  0
 10 11  1  0  0  0  0
 10 12  1  0  0  0  0
 10 13  1  0  0  0  0
 13 14  1  0  0  0  0
 13 15  1  0  0  0  0
 13 16  1  0  0  0  0
 16 17  1  0  0  0  0
 16 18  1  0  0  0  0
 16 19  1  0  0  0  0
M  END
> <VConfSearch Rank>
547

> <Conf_Id>
56

> <Delta U+W>
1.735

> <U+W>
-53.156

> <U>
10.214

> <W>
-63.370

> <W(PB)>
-65.388

> <W(SA)>
2.018

> <Valence>
7.868

> <Coulomb>
1.968

> <VdW>
0.378

> <VdW6>
-8.067

> <VdW12>
8.445

> <Bond>
0.191

> <Angle>
3.117

> <Pdih>
4.559

> <Idih>
0.001

> <Tether>
0.000

$$$$
VeraChem MOL file


 19 18  0  0  0  0  0  0  0  0999 V2000     
   20.5117   17.5976   24.8317 C   0  0  0  0  0  0  0  0  0  0  0  0
   21.3878   17.9575   25.5928 O   0  5  0  0  0  0  0  0  0  0  0  0
   19.9182   16.5429   24.9408 O   0  0  0  0  0  0  0  0  0  0  0  0
   20.1525   18.5095   23.6640 C   0  0  0  0  0  0  0  0  0  0  0  0
   20.3146   19.5473   23.9787 H   0  0  0  0  0  0  0  0  0  0  0  0
   19.0819   18.3877   23.4656 H   0  0  0  0  0  0  0  0  0  0  0  0
   20.9744   18.2021   22.3868 C   0  0  0  0  0  0  0  0  0  0  0  0
   22.0413   18.1917   22.6495 H   0  0  0  0  0  0  0  0  0  0  0  0
   20.7340   17.1885   22.0375 H   0  0  0  0  0  0  0  0  0  0  0  0
   20.7634   19.2137   21.2324 C   0  0  0  0  0  0  0  0  0  0  0  0
   21.4331   18.9223   20.4117 H   0  0  0  0  0  0  0  0  0  0  0  0
   21.0911   20.2151   21.5435 H   0  0  0  0  0  0  0  0  0  0  0  0
   19.3183   19.2705   20.6778 C   0  0  0  0  0  0  0  0  0  0  0  0
   19.3655   19.4419   19.5935 H   0  0  0  0  0  0  0  0  0  0  0  0
   18.8200   18.3004   20.8121 H   0  0  0  0  0  0  0  0  0  0  0  0
   18.4693   20.4002   21.3020 C   0  0  0  0  0  0  0  0  0  0  0  0
   17.4625   20.4095   20.8647 H   0  0  0  0  0  0  0  0  0  0  0  0
   18.3617   20.2801   22.3858 H   0  0  0  0  0  0  0  0  0  0  0  0
   18.9257   21.3807   21.1136 H   0  0  0  0  0  0  0  0  0  0  0  0
  1  2  1  0  0  0  0
  1  3  2  0  0  0  0
  1  4  1  0  0  0  0
  4  5  1  0  0  0  0
  4  6  1  0  0  0  0
  4  7  1  0  0  0  0
  7  8  1  0  0  0  0
  7  9  1  0  0  0  0
  7 10  1  0  0  0  0
 10 11  1  0  0  0  0
 10 12  1  0  0  0  0
 10 13  1  0  0  0  0
 13 14  1  0  0  0  0
 13 15  1  0  0  0  0
 13 16  1  0  0  0  0
 16 17  1  0  0  0  0
 16 18  1  0  0  0  0
 16 19  1  0  0  0  0
M  END
> <VConfSearch Rank>
548

> <Conf_Id>
53

> <Delta U+W>
2.279

> <U+W>
-52.612

> <U>
10.231

> <W>
-62.843

> <W(PB)>
-64.893

> <W(SA)>
2.050

> <Valence>
9.644

> <Coulomb>
-0.164

> <VdW>
0.751

> <VdW6>
-6.881

> <VdW12>
7.631

> <Bond>
0.163

> <Angle>
2.998

> <Pdih>
6.482

> <Idih>
0.001

> <Tether>
0.000

$$$$
VeraChem MOL file


 19 18  0  0  0  0  0  0  0  0999 V2000     
   22.4800   18.8390   23.2004 C   0  0  0  0  0  0  0  0  0  0  0  0
   23.0887   19.1133   22.1850 O   0  5  0  0  0  0  0  0  0  0  0  0
   22.6616   17.8183   23.8348 O   0  0  0  0  0  0  0  0  0  0  0  0
   21.4860   19.8638   23.7436 C   0  0  0  0  0  0  0  0  0  0  0  0
   21.4846   20.7423   23.0869 H   0  0  0  0  0  0  0  0  0  0  0  0
   21.8826   20.1957   24.7101 H   0  0  0  0  0  0  0  0  0  0  0  0
   20.0360   19.3404   23.9452 C   0  0  0  0  0  0  0  0  0  0  0  0
   20.0578   18.3519   24.4246 H   0  0  0  0  0  0  0  0  0  0  0  0
   19.5302   20.0090   24.6548 H   0  0  0  0  0  0  0  0  0  0  0  0
   19.1796   19.2867   22.6559 C   0  0  0  0  0  0  0  0  0  0  0  0
   19.1561   20.2794   22.1858 H   0  0  0  0  0  0  0  0  0  0  0  0
   18.1442   19.0565   22.9423 H   0  0  0  0  0  0  0  0  0  0  0  0
   19.6542   18.2365   21.6276 C   0  0  0  0  0  0  0  0  0  0  0  0
   20.6360   18.5188   21.2267 H   0  0  0  0  0  0  0  0  0  0  0  0
   19.7759   17.2617   22.1199 H   0  0  0  0  0  0  0  0  0  0  0  0
   18.6592   18.1010   20.4574 C   0  0  0  0  0  0  0  0  0  0  0  0
   18.5394   19.0574   19.9318 H   0  0  0  0  0  0  0  0  0  0  0  0
   19.0151   17.3578   19.7320 H   0  0  0  0  0  0  0  0  0  0  0  0
   17.6723   17.7796   20.8150 H   0  0  0  0  0  0  0  0  0  0  0  0
  1  2  1  0  0  0  0
  1  3  2  0  0  0  0
  1  4  1  0  0  0  0
  4  5  1  0  0  0  0
  4  6  1  0  0  0  0
  4  7  1  0  0  0  0
  7  8  1  0  0  0  0
  7  9  1  0  0  0  0
  7 10  1  0  0  0  0
 10 11  1  0  0  0  0
 10 12  1  0  0  0  0
 10 13  1  0  0  0  0
 13 14  1  0  0  0  0
 13 15  1  0  0  0  0
 13 16  1  0  0  0  0
 16 17  1  0  0  0  0
 16 18  1  0  0  0  0
 16 19  1  0  0  0  0
M  END
> <VConfSearch Rank>
549

> <Conf_Id>
25

> <Delta U+W>
2.065

> <U+W>
-52.826

> <U>
10.967

> <W>
-63.794

> <W(PB)>
-65.830

> <W(SA)>
2.036

> <Valence>
8.609

> <Coulomb>
1.892

> <VdW>
0.467

> <VdW6>
-7.569

> <VdW12>
8.036

> <Bond>
0.170

> <Angle>
3.195

> <Pdih>
5.237

> <Idih>
0.007

> <Tether>
0.000

$$$$
VeraChem MOL file


 19 18  0  0  0  0  0  0  0  0999 V2000     
   18.4935   17.5973   21.2141 C   0  0  0  0  0  0  0  0  0  0  0  0
   17.6340   18.3644   20.8267 O   0  5  0  0  0  0  0  0  0  0  0  0
   18.2626   16.6315   21.9146 O   0  0  0  0  0  0  0  0  0  0  0  0
   19.9289   17.8165   20.7397 C   0  0  0  0  0  0  0  0  0  0  0  0
   19.9143   17.7013   19.6497 H   0  0  0  0  0  0  0  0  0  0  0  0
   20.5612   17.0106   21.1317 H   0  0  0  0  0  0  0  0  0  0  0  0
   20.5411   19.2012   21.0933 C   0  0  0  0  0  0  0  0  0  0  0  0
   21.3852   19.3817   20.4141 H   0  0  0  0  0  0  0  0  0  0  0  0
   19.8119   19.9969   20.8869 H   0  0  0  0  0  0  0  0  0  0  0  0
   21.0683   19.3270   22.5441 C   0  0  0  0  0  0  0  0  0  0  0  0
   21.6122   20.2778   22.6291 H   0  0  0  0  0  0  0  0  0  0  0  0
   21.8018   18.5334   22.7413 H   0  0  0  0  0  0  0  0  0  0  0  0
   19.9623   19.2911   23.6216 C   0  0  0  0  0  0  0  0  0  0  0  0
   19.1750   20.0157   23.3716 H   0  0  0  0  0  0  0  0  0  0  0  0
   19.4912   18.3001   23.6450 H   0  0  0  0  0  0  0  0  0  0  0  0
   20.5262   19.6070   25.0216 C   0  0  0  0  0  0  0  0  0  0  0  0
   19.7299   19.5690   25.7763 H   0  0  0  0  0  0  0  0  0  0  0  0
   21.2984   18.8804   25.3065 H   0  0  0  0  0  0  0  0  0  0  0  0
   20.9716   20.6101   25.0494 H   0  0  0  0  0  0  0  0  0  0  0  0
  1  2  1  0  0  0  0
  1  3  2  0  0  0  0
  1  4  1  0  0  0  0
  4  5  1  0  0  0  0
  4  6  1  0  0  0  0
  4  7  1  0  0  0  0
  7  8  1  0  0  0  0
  7  9  1  0  0  0  0
  7 10  1  0  0  0  0
 10 11  1  0  0  0  0
 10 12  1  0  0  0  0
 10 13  1  0  0  0  0
 13 14  1  0  0  0  0
 13 15  1  0  0  0  0
 13 16  1  0  0  0  0
 16 17  1  0  0  0  0
 16 18  1  0  0  0  0
 16 19  1  0  0  0  0
M  END
> <VConfSearch Rank>
550

> <Conf_Id>
52

> <Delta U+W>
2.070

> <U+W>
-52.822

> <U>
10.967

> <W>
-63.789

> <W(PB)>
-65.837

> <W(SA)>
2.048

> <Valence>
8.609

> <Coulomb>
1.892

> <VdW>
0.467

> <VdW6>
-7.569

> <VdW12>
8.035

> <Bond>
0.170

> <Angle>
3.196

> <Pdih>
5.237

> <Idih>
0.007

> <Tether>
0.000

$$$$
VeraChem MOL file


 19 18  0  0  0  0  0  0  0  0999 V2000     
   20.5120   20.8409   23.1707 C   0  0  0  0  0  0  0  0  0  0  0  0
   20.0574   21.6351   22.3703 O   0  5  0  0  0  0  0  0  0  0  0  0
   20.3933   20.9671   24.3735 O   0  0  0  0  0  0  0  0  0  0  0  0
   21.3831   19.6948   22.6540 C   0  0  0  0  0  0  0  0  0  0  0  0
   21.5803   18.9968   23.4765 H   0  0  0  0  0  0  0  0  0  0  0  0
   22.3470   20.1436   22.3878 H   0  0  0  0  0  0  0  0  0  0  0  0
   20.8287   18.9276   21.4197 C   0  0  0  0  0  0  0  0  0  0  0  0
   20.3867   19.6355   20.7050 H   0  0  0  0  0  0  0  0  0  0  0  0
   21.6795   18.4701   20.8971 H   0  0  0  0  0  0  0  0  0  0  0  0
   19.8160   17.7980   21.7387 C   0  0  0  0  0  0  0  0  0  0  0  0
   20.2906   17.0368   22.3730 H   0  0  0  0  0  0  0  0  0  0  0  0
   19.5806   17.2901   20.7934 H   0  0  0  0  0  0  0  0  0  0  0  0
   18.4852   18.2718   22.3715 C   0  0  0  0  0  0  0  0  0  0  0  0
   18.3035   19.3298   22.1370 H   0  0  0  0  0  0  0  0  0  0  0  0
   17.6568   17.7128   21.9151 H   0  0  0  0  0  0  0  0  0  0  0  0
   18.4348   18.0439   23.8975 C   0  0  0  0  0  0  0  0  0  0  0  0
   18.5157   16.9756   24.1365 H   0  0  0  0  0  0  0  0  0  0  0  0
   19.2504   18.5680   24.4092 H   0  0  0  0  0  0  0  0  0  0  0  0
   17.4870   18.4118   24.3108 H   0  0  0  0  0  0  0  0  0  0  0  0
  1  2  1  0  0  0  0
  1  3  2  0  0  0  0
  1  4  1  0  0  0  0
  4  5  1  0  0  0  0
  4  6  1  0  0  0  0
  4  7  1  0  0  0  0
  7  8  1  0  0  0  0
  7  9  1  0  0  0  0
  7 10  1  0  0  0  0
 10 11  1  0  0  0  0
 10 12  1  0  0  0  0
 10 13  1  0  0  0  0
 13 14  1  0  0  0  0
 13 15  1  0  0  0  0
 13 16  1  0  0  0  0
 16 17  1  0  0  0  0
 16 18  1  0  0  0  0
 16 19  1  0  0  0  0
M  END
> <VConfSearch Rank>
551

> <Conf_Id>
66

> <Delta U+W>
5.819

> <U+W>
-49.072

> <U>
15.324

> <W>
-64.396

> <W(PB)>
-66.382

> <W(SA)>
1.986

> <Valence>
11.748

> <Coulomb>
3.201

> <VdW>
0.375

> <VdW6>
-8.854

> <VdW12>
9.229

> <Bond>
0.216

> <Angle>
3.812

> <Pdih>
7.699

> <Idih>
0.022

> <Tether>
0.000

$$$$
VeraChem MOL file


 19 18  0  0  0  0  0  0  0  0999 V2000     
   21.6946   16.7837   24.1889 C   0  0  0  0  0  0  0  0  0  0  0  0
   21.6804   16.3416   25.3203 O   0  5  0  0  0  0  0  0  0  0  0  0
   22.5358   16.4759   23.3669 O   0  0  0  0  0  0  0  0  0  0  0  0
   20.5896   17.7717   23.8115 C   0  0  0  0  0  0  0  0  0  0  0  0
   20.6439   18.6087   24.5176 H   0  0  0  0  0  0  0  0  0  0  0  0
   19.6298   17.2699   23.9820 H   0  0  0  0  0  0  0  0  0  0  0  0
   20.6489   18.3087   22.3567 C   0  0  0  0  0  0  0  0  0  0  0  0
   21.6151   18.8052   22.1906 H   0  0  0  0  0  0  0  0  0  0  0  0
   20.6000   17.4650   21.6544 H   0  0  0  0  0  0  0  0  0  0  0  0
   19.4997   19.2970   22.0621 C   0  0  0  0  0  0  0  0  0  0  0  0
   19.5504   20.1397   22.7654 H   0  0  0  0  0  0  0  0  0  0  0  0
   18.5348   18.7987   22.2289 H   0  0  0  0  0  0  0  0  0  0  0  0
   19.5606   19.8297   20.6154 C   0  0  0  0  0  0  0  0  0  0  0  0
   20.5237   20.3306   20.4452 H   0  0  0  0  0  0  0  0  0  0  0  0
   19.5081   18.9899   19.9088 H   0  0  0  0  0  0  0  0  0  0  0  0
   18.4118   20.8162   20.3250 C   0  0  0  0  0  0  0  0  0  0  0  0
   18.4587   21.6827   20.9975 H   0  0  0  0  0  0  0  0  0  0  0  0
   18.4704   21.1849   19.2926 H   0  0  0  0  0  0  0  0  0  0  0  0
   17.4354   20.3319   20.4571 H   0  0  0  0  0  0  0  0  0  0  0  0
  1  2  1  0  0  0  0
  1  3  2  0  0  0  0
  1  4  1  0  0  0  0
  4  5  1  0  0  0  0
  4  6  1  0  0  0  0
  4  7  1  0  0  0  0
  7  8  1  0  0  0  0
  7  9  1  0  0  0  0
  7 10  1  0  0  0  0
 10 11  1  0  0  0  0
 10 12  1  0  0  0  0
 10 13  1  0  0  0  0
 13 14  1  0  0  0  0
 13 15  1  0  0  0  0
 13 16  1  0  0  0  0
 16 17  1  0  0  0  0
 16 18  1  0  0  0  0
 16 19  1  0  0  0  0
M  END
> <VConfSearch Rank>
552

> <Conf_Id>
0

> <Delta U+W>
0.000

> <U+W>
-54.891

> <U>
6.966

> <W>
-61.857

> <W(PB)>
-63.965

> <W(SA)>
2.108

> <Valence>
7.175

> <Coulomb>
-1.360

> <VdW>
1.151

> <VdW6>
-5.641

> <VdW12>
6.792

> <Bond>
0.119

> <Angle>
2.715

> <Pdih>
4.340

> <Idih>
0.000

> <Tether>
0.000

$$$$
VeraChem MOL file


 19 18  0  0  0  0  0  0  0  0999 V2000     
   21.4117   16.3440   20.5307 C   0  0  0  0  0  0  0  0  0  0  0  0
   22.2260   16.6642   19.6877 O   0  5  0  0  0  0  0  0  0  0  0  0
   21.4737   15.3113   21.1677 O   0  0  0  0  0  0  0  0  0  0  0  0
   20.2601   17.3004   20.8197 C   0  0  0  0  0  0  0  0  0  0  0  0
   19.3857   16.7042   21.1072 H   0  0  0  0  0  0  0  0  0  0  0  0
   20.0060   17.8195   19.8876 H   0  0  0  0  0  0  0  0  0  0  0  0
   20.5944   18.3277   21.9292 C   0  0  0  0  0  0  0  0  0  0  0  0
   20.8588   17.7923   22.8517 H   0  0  0  0  0  0  0  0  0  0  0  0
   21.4793   18.9076   21.6320 H   0  0  0  0  0  0  0  0  0  0  0  0
   19.4131   19.2835   22.2023 C   0  0  0  0  0  0  0  0  0  0  0  0
   18.5298   18.7007   22.4977 H   0  0  0  0  0  0  0  0  0  0  0  0
   19.1505   19.8163   21.2780 H   0  0  0  0  0  0  0  0  0  0  0  0
   19.7490   20.3057   23.3080 C   0  0  0  0  0  0  0  0  0  0  0  0
   20.0104   19.7766   24.2349 H   0  0  0  0  0  0  0  0  0  0  0  0
   20.6310   20.8921   23.0153 H   0  0  0  0  0  0  0  0  0  0  0  0
   18.5673   21.2584   23.5782 C   0  0  0  0  0  0  0  0  0  0  0  0
   18.8231   21.9781   24.3666 H   0  0  0  0  0  0  0  0  0  0  0  0
   18.3046   21.8244   22.6748 H   0  0  0  0  0  0  0  0  0  0  0  0
   17.6794   20.7005   23.9036 H   0  0  0  0  0  0  0  0  0  0  0  0
  1  2  1  0  0  0  0
  1  3  2  0  0  0  0
  1  4  1  0  0  0  0
  4  5  1  0  0  0  0
  4  6  1  0  0  0  0
  4  7  1  0  0  0  0
  7  8  1  0  0  0  0
  7  9  1  0  0  0  0
  7 10  1  0  0  0  0
 10 11  1  0  0  0  0
 10 12  1  0  0  0  0
 10 13  1  0  0  0  0
 13 14  1  0  0  0  0
 13 15  1  0  0  0  0
 13 16  1  0  0  0  0
 16 17  1  0  0  0  0
 16 18  1  0  0  0  0
 16 19  1  0  0  0  0
M  END
> <VConfSearch Rank>
553

> <Conf_Id>
18

> <Delta U+W>
-1.199

> <U+W>
-56.090

> <U>
5.975

> <W>
-62.066

> <W(PB)>
-64.219

> <W(SA)>
2.153

> <Valence>
6.673

> <Coulomb>
-1.307

> <VdW>
0.610

> <VdW6>
-5.351

> <VdW12>
5.961

> <Bond>
0.086

> <Angle>
2.253

> <Pdih>
4.333

> <Idih>
0.001

> <Tether>
0.000

$$$$
VeraChem MOL file


 19 18  0  0  0  0  0  0  0  0999 V2000     
   20.3367   20.6789   19.5184 C   0  0  0  0  0  0  0  0  0  0  0  0
   20.5200   20.2009   18.4165 O   0  5  0  0  0  0  0  0  0  0  0  0
   19.9522   21.8167   19.7022 O   0  0  0  0  0  0  0  0  0  0  0  0
   20.5823   19.7957   20.7366 C   0  0  0  0  0  0  0  0  0  0  0  0
   20.9400   20.4392   21.5483 H   0  0  0  0  0  0  0  0  0  0  0  0
   21.3925   19.0979   20.4932 H   0  0  0  0  0  0  0  0  0  0  0  0
   19.3171   19.0138   21.1760 C   0  0  0  0  0  0  0  0  0  0  0  0
   18.5274   19.7231   21.4597 H   0  0  0  0  0  0  0  0  0  0  0  0
   18.9334   18.4511   20.3136 H   0  0  0  0  0  0  0  0  0  0  0  0
   19.5742   18.0252   22.3380 C   0  0  0  0  0  0  0  0  0  0  0  0
   20.3581   17.3122   22.0481 H   0  0  0  0  0  0  0  0  0  0  0  0
   18.6623   17.4349   22.5017 H   0  0  0  0  0  0  0  0  0  0  0  0
   19.9662   18.7207   23.6609 C   0  0  0  0  0  0  0  0  0  0  0  0
   20.9173   19.2557   23.5403 H   0  0  0  0  0  0  0  0  0  0  0  0
   19.2073   19.4703   23.9247 H   0  0  0  0  0  0  0  0  0  0  0  0
   20.1050   17.7057   24.8132 C   0  0  0  0  0  0  0  0  0  0  0  0
   20.3863   18.2141   25.7446 H   0  0  0  0  0  0  0  0  0  0  0  0
   19.1585   17.1775   24.9882 H   0  0  0  0  0  0  0  0  0  0  0  0
   20.8778   16.9592   24.5876 H   0  0  0  0  0  0  0  0  0  0  0  0
  1  2  1  0  0  0  0
  1  3  2  0  0  0  0
  1  4  1  0  0  0  0
  4  5  1  0  0  0  0
  4  6  1  0  0  0  0
  4  7  1  0  0  0  0
  7  8  1  0  0  0  0
  7  9  1  0  0  0  0
  7 10  1  0  0  0  0
 10 11  1  0  0  0  0
 10 12  1  0  0  0  0
 10 13  1  0  0  0  0
 13 14  1  0  0  0  0
 13 15  1  0  0  0  0
 13 16  1  0  0  0  0
 16 17  1  0  0  0  0
 16 18  1  0  0  0  0
 16 19  1  0  0  0  0
M  END
> <VConfSearch Rank>
554

> <Conf_Id>
34

> <Delta U+W>
-0.563

> <U+W>
-55.455

> <U>
6.914

> <W>
-62.369

> <W(PB)>
-64.446

> <W(SA)>
2.077

> <Valence>
7.196

> <Coulomb>
-1.020

> <VdW>
0.738

> <VdW6>
-6.010

> <VdW12>
6.748

> <Bond>
0.126

> <Angle>
2.499

> <Pdih>
4.570

> <Idih>
0.001

> <Tether>
0.000

$$$$
VeraChem MOL file


 19 18  0  0  0  0  0  0  0  0999 V2000     
   22.6087   19.6703   20.5036 C   0  0  0  0  0  0  0  0  0  0  0  0
   22.6174   19.8200   19.2978 O   0  5  0  0  0  0  0  0  0  0  0  0
   23.6089   19.4690   21.1633 O   0  0  0  0  0  0  0  0  0  0  0  0
   21.2665   19.7156   21.2253 C   0  0  0  0  0  0  0  0  0  0  0  0
   20.6126   20.4102   20.6845 H   0  0  0  0  0  0  0  0  0  0  0  0
   21.4378   20.1388   22.2215 H   0  0  0  0  0  0  0  0  0  0  0  0
   20.5947   18.3218   21.3315 C   0  0  0  0  0  0  0  0  0  0  0  0
   20.5214   17.8883   20.3245 H   0  0  0  0  0  0  0  0  0  0  0  0
   21.2385   17.6476   21.9132 H   0  0  0  0  0  0  0  0  0  0  0  0
   19.1805   18.3636   21.9573 C   0  0  0  0  0  0  0  0  0  0  0  0
   18.7370   17.3611   21.8840 H   0  0  0  0  0  0  0  0  0  0  0  0
   18.5370   19.0318   21.3686 H   0  0  0  0  0  0  0  0  0  0  0  0
   19.1764   18.8074   23.4374 C   0  0  0  0  0  0  0  0  0  0  0  0
   19.8593   18.1711   24.0170 H   0  0  0  0  0  0  0  0  0  0  0  0
   19.5457   19.8376   23.5249 H   0  0  0  0  0  0  0  0  0  0  0  0
   17.7623   18.7286   24.0468 C   0  0  0  0  0  0  0  0  0  0  0  0
   17.0637   19.3775   23.5026 H   0  0  0  0  0  0  0  0  0  0  0  0
   17.3754   17.7017   24.0112 H   0  0  0  0  0  0  0  0  0  0  0  0
   17.7752   19.0494   25.0966 H   0  0  0  0  0  0  0  0  0  0  0  0
  1  2  1  0  0  0  0
  1  3  2  0  0  0  0
  1  4  1  0  0  0  0
  4  5  1  0  0  0  0
  4  6  1  0  0  0  0
  4  7  1  0  0  0  0
  7  8  1  0  0  0  0
  7  9  1  0  0  0  0
  7 10  1  0  0  0  0
 10 11  1  0  0  0  0
 10 12  1  0  0  0  0
 10 13  1  0  0  0  0
 13 14  1  0  0  0  0
 13 15  1  0  0  0  0
 13 16  1  0  0  0  0
 16 17  1  0  0  0  0
 16 18  1  0  0  0  0
 16 19  1  0  0  0  0
M  END
> <VConfSearch Rank>
555

> <Conf_Id>
33

> <Delta U+W>
-0.526

> <U+W>
-55.418

> <U>
6.914

> <W>
-62.332

> <W(PB)>
-64.421

> <W(SA)>
2.090

> <Valence>
7.196

> <Coulomb>
-1.020

> <VdW>
0.738

> <VdW6>
-6.010

> <VdW12>
6.748

> <Bond>
0.126

> <Angle>
2.499

> <Pdih>
4.570

> <Idih>
0.001

> <Tether>
0.000

$$$$
VeraChem MOL file


 19 18  0  0  0  0  0  0  0  0999 V2000     
   21.6357   18.8381   19.5835 C   0  0  0  0  0  0  0  0  0  0  0  0
   21.6955   17.6931   19.1815 O   0  5  0  0  0  0  0  0  0  0  0  0
   21.5957   19.8067   18.8512 O   0  0  0  0  0  0  0  0  0  0  0  0
   21.5906   19.0714   21.0895 C   0  0  0  0  0  0  0  0  0  0  0  0
   22.0974   20.0204   21.3024 H   0  0  0  0  0  0  0  0  0  0  0  0
   22.1711   18.2777   21.5751 H   0  0  0  0  0  0  0  0  0  0  0  0
   20.1479   19.0976   21.6519 C   0  0  0  0  0  0  0  0  0  0  0  0
   19.5770   19.8906   21.1494 H   0  0  0  0  0  0  0  0  0  0  0  0
   19.6552   18.1464   21.4109 H   0  0  0  0  0  0  0  0  0  0  0  0
   20.1324   19.3321   23.1801 C   0  0  0  0  0  0  0  0  0  0  0  0
   20.6913   20.2504   23.4066 H   0  0  0  0  0  0  0  0  0  0  0  0
   20.6614   18.5128   23.6861 H   0  0  0  0  0  0  0  0  0  0  0  0
   18.7080   19.4674   23.7660 C   0  0  0  0  0  0  0  0  0  0  0  0
   18.7877   19.7480   24.8253 H   0  0  0  0  0  0  0  0  0  0  0  0
   18.1775   20.2897   23.2663 H   0  0  0  0  0  0  0  0  0  0  0  0
   17.8769   18.1708   23.6569 C   0  0  0  0  0  0  0  0  0  0  0  0
   18.4013   17.3274   24.1246 H   0  0  0  0  0  0  0  0  0  0  0  0
   16.9105   18.2907   24.1636 H   0  0  0  0  0  0  0  0  0  0  0  0
   17.6729   17.9124   22.6103 H   0  0  0  0  0  0  0  0  0  0  0  0
  1  2  1  0  0  0  0
  1  3  2  0  0  0  0
  1  4  1  0  0  0  0
  4  5  1  0  0  0  0
  4  6  1  0  0  0  0
  4  7  1  0  0  0  0
  7  8  1  0  0  0  0
  7  9  1  0  0  0  0
  7 10  1  0  0  0  0
 10 11  1  0  0  0  0
 10 12  1  0  0  0  0
 10 13  1  0  0  0  0
 13 14  1  0  0  0  0
 13 15  1  0  0  0  0
 13 16  1  0  0  0  0
 16 17  1  0  0  0  0
 16 18  1  0  0  0  0
 16 19  1  0  0  0  0
M  END
> <VConfSearch Rank>
556

> <Conf_Id>
42

> <Delta U+W>
-0.344

> <U+W>
-55.236

> <U>
7.244

> <W>
-62.479

> <W(PB)>
-64.610

> <W(SA)>
2.130

> <Valence>
7.174

> <Coulomb>
-0.669

> <VdW>
0.739

> <VdW6>
-5.969

> <VdW12>
6.708

> <Bond>
0.116

> <Angle>
2.481

> <Pdih>
4.576

> <Idih>
0.000

> <Tether>
0.000

$$$$
VeraChem MOL file


 19 18  0  0  0  0  0  0  0  0999 V2000     
   18.4581   16.9729   20.3365 C   0  0  0  0  0  0  0  0  0  0  0  0
   17.8314   16.1751   21.0050 O   0  5  0  0  0  0  0  0  0  0  0  0
   18.9629   16.7025   19.2649 O   0  0  0  0  0  0  0  0  0  0  0  0
   18.6366   18.3859   20.8806 C   0  0  0  0  0  0  0  0  0  0  0  0
   17.7463   18.6399   21.4686 H   0  0  0  0  0  0  0  0  0  0  0  0
   18.6711   19.0767   20.0296 H   0  0  0  0  0  0  0  0  0  0  0  0
   19.9105   18.5409   21.7475 C   0  0  0  0  0  0  0  0  0  0  0  0
   19.8622   17.8277   22.5809 H   0  0  0  0  0  0  0  0  0  0  0  0
   20.7918   18.2742   21.1480 H   0  0  0  0  0  0  0  0  0  0  0  0
   20.0641   19.9812   22.2884 C   0  0  0  0  0  0  0  0  0  0  0  0
   19.2062   20.2303   22.9280 H   0  0  0  0  0  0  0  0  0  0  0  0
   20.0383   20.6846   21.4449 H   0  0  0  0  0  0  0  0  0  0  0  0
   21.3768   20.2051   23.0742 C   0  0  0  0  0  0  0  0  0  0  0  0
   22.2376   19.9624   22.4358 H   0  0  0  0  0  0  0  0  0  0  0  0
   21.4634   21.2727   23.3190 H   0  0  0  0  0  0  0  0  0  0  0  0
   21.4530   19.3878   24.3818 C   0  0  0  0  0  0  0  0  0  0  0  0
   21.4855   18.3099   24.1795 H   0  0  0  0  0  0  0  0  0  0  0  0
   22.3592   19.6474   24.9443 H   0  0  0  0  0  0  0  0  0  0  0  0
   20.5865   19.5922   25.0241 H   0  0  0  0  0  0  0  0  0  0  0  0
  1  2  1  0  0  0  0
  1  3  2  0  0  0  0
  1  4  1  0  0  0  0
  4  5  1  0  0  0  0
  4  6  1  0  0  0  0
  4  7  1  0  0  0  0
  7  8  1  0  0  0  0
  7  9  1  0  0  0  0
  7 10  1  0  0  0  0
 10 11  1  0  0  0  0
 10 12  1  0  0  0  0
 10 13  1  0  0  0  0
 13 14  1  0  0  0  0
 13 15  1  0  0  0  0
 13 16  1  0  0  0  0
 16 17  1  0  0  0  0
 16 18  1  0  0  0  0
 16 19  1  0  0  0  0
M  END
> <VConfSearch Rank>
557

> <Conf_Id>
41

> <Delta U+W>
-0.361

> <U+W>
-55.252

> <U>
7.244

> <W>
-62.496

> <W(PB)>
-64.596

> <W(SA)>
2.099

> <Valence>
7.174

> <Coulomb>
-0.669

> <VdW>
0.739

> <VdW6>
-5.969

> <VdW12>
6.708

> <Bond>
0.116

> <Angle>
2.481

> <Pdih>
4.576

> <Idih>
0.000

> <Tether>
0.000

$$$$
VeraChem MOL file


 19 18  0  0  0  0  0  0  0  0999 V2000     
   19.7274   21.6816   23.2974 C   0  0  0  0  0  0  0  0  0  0  0  0
   20.4497   21.5864   24.2698 O   0  5  0  0  0  0  0  0  0  0  0  0
   19.8642   22.5312   22.4394 O   0  0  0  0  0  0  0  0  0  0  0  0
   18.5713   20.6954   23.1551 C   0  0  0  0  0  0  0  0  0  0  0  0
   17.6776   21.2735   22.8921 H   0  0  0  0  0  0  0  0  0  0  0  0
   18.3775   20.2391   24.1335 H   0  0  0  0  0  0  0  0  0  0  0  0
   18.8080   19.5946   22.0887 C   0  0  0  0  0  0  0  0  0  0  0  0
   17.8804   19.0213   21.9565 H   0  0  0  0  0  0  0  0  0  0  0  0
   19.0288   20.0666   21.1213 H   0  0  0  0  0  0  0  0  0  0  0  0
   19.9521   18.6302   22.4739 C   0  0  0  0  0  0  0  0  0  0  0  0
   19.7329   18.1708   23.4476 H   0  0  0  0  0  0  0  0  0  0  0  0
   20.8878   19.1940   22.5915 H   0  0  0  0  0  0  0  0  0  0  0  0
   20.1488   17.5255   21.4149 C   0  0  0  0  0  0  0  0  0  0  0  0
   19.2171   16.9554   21.2960 H   0  0  0  0  0  0  0  0  0  0  0  0
   20.3706   17.9822   20.4403 H   0  0  0  0  0  0  0  0  0  0  0  0
   21.2909   16.5649   21.8021 C   0  0  0  0  0  0  0  0  0  0  0  0
   21.0802   16.0700   22.7592 H   0  0  0  0  0  0  0  0  0  0  0  0
   21.4174   15.7865   21.0385 H   0  0  0  0  0  0  0  0  0  0  0  0
   22.2424   17.1044   21.8972 H   0  0  0  0  0  0  0  0  0  0  0  0
  1  2  1  0  0  0  0
  1  3  2  0  0  0  0
  1  4  1  0  0  0  0
  4  5  1  0  0  0  0
  4  6  1  0  0  0  0
  4  7  1  0  0  0  0
  7  8  1  0  0  0  0
  7  9  1  0  0  0  0
  7 10  1  0  0  0  0
 10 11  1  0  0  0  0
 10 12  1  0  0  0  0
 10 13  1  0  0  0  0
 13 14  1  0  0  0  0
 13 15  1  0  0  0  0
 13 16  1  0  0  0  0
 16 17  1  0  0  0  0
 16 18  1  0  0  0  0
 16 19  1  0  0  0  0
M  END
> <VConfSearch Rank>
558

> <Conf_Id>
36

> <Delta U+W>
-0.079

> <U+W>
-54.971

> <U>
8.266

> <W>
-63.237

> <W(PB)>
-65.340

> <W(SA)>
2.103

> <Valence>
6.935

> <Coulomb>
0.874

> <VdW>
0.457

> <VdW6>
-6.205

> <VdW12>
6.662

> <Bond>
0.107

> <Angle>
2.420

> <Pdih>
4.407

> <Idih>
0.001

> <Tether>
0.000

$$$$
VeraChem MOL file


 19 18  0  0  0  0  0  0  0  0999 V2000     
   18.3150   21.1095   22.8162 C   0  0  0  0  0  0  0  0  0  0  0  0
   17.3618   20.4868   23.2409 O   0  5  0  0  0  0  0  0  0  0  0  0
   18.2398   21.9206   21.9145 O   0  0  0  0  0  0  0  0  0  0  0  0
   19.6776   20.8776   23.4634 C   0  0  0  0  0  0  0  0  0  0  0  0
   19.5252   20.4049   24.4413 H   0  0  0  0  0  0  0  0  0  0  0  0
   20.1225   21.8617   23.6527 H   0  0  0  0  0  0  0  0  0  0  0  0
   20.6487   20.0275   22.6035 C   0  0  0  0  0  0  0  0  0  0  0  0
   20.7689   20.4980   21.6178 H   0  0  0  0  0  0  0  0  0  0  0  0
   21.6394   20.0294   23.0778 H   0  0  0  0  0  0  0  0  0  0  0  0
   20.1689   18.5688   22.4322 C   0  0  0  0  0  0  0  0  0  0  0  0
   19.1853   18.5576   21.9425 H   0  0  0  0  0  0  0  0  0  0  0  0
   20.0377   18.1070   23.4204 H   0  0  0  0  0  0  0  0  0  0  0  0
   21.1649   17.7338   21.6006 C   0  0  0  0  0  0  0  0  0  0  0  0
   21.2962   18.1923   20.6106 H   0  0  0  0  0  0  0  0  0  0  0  0
   22.1498   17.7379   22.0879 H   0  0  0  0  0  0  0  0  0  0  0  0
   20.6834   16.2790   21.4315 C   0  0  0  0  0  0  0  0  0  0  0  0
   19.7135   16.2436   20.9181 H   0  0  0  0  0  0  0  0  0  0  0  0
   21.4026   15.7000   20.8377 H   0  0  0  0  0  0  0  0  0  0  0  0
   20.5735   15.7859   22.4062 H   0  0  0  0  0  0  0  0  0  0  0  0
  1  2  1  0  0  0  0
  1  3  2  0  0  0  0
  1  4  1  0  0  0  0
  4  5  1  0  0  0  0
  4  6  1  0  0  0  0
  4  7  1  0  0  0  0
  7  8  1  0  0  0  0
  7  9  1  0  0  0  0
  7 10  1  0  0  0  0
 10 11  1  0  0  0  0
 10 12  1  0  0  0  0
 10 13  1  0  0  0  0
 13 14  1  0  0  0  0
 13 15  1  0  0  0  0
 13 16  1  0  0  0  0
 16 17  1  0  0  0  0
 16 18  1  0  0  0  0
 16 19  1  0  0  0  0
M  END
> <VConfSearch Rank>
559

> <Conf_Id>
35

> <Delta U+W>
-0.030

> <U+W>
-54.921

> <U>
8.267

> <W>
-63.188

> <W(PB)>
-65.294

> <W(SA)>
2.106

> <Valence>
6.935

> <Coulomb>
0.875

> <VdW>
0.457

> <VdW6>
-6.205

> <VdW12>
6.662

> <Bond>
0.107

> <Angle>
2.420

> <Pdih>
4.407

> <Idih>
0.001

> <Tether>
0.000

$$$$
VeraChem MOL file


 19 18  0  0  0  0  0  0  0  0999 V2000     
   18.3500   16.9143   21.0048 C   0  0  0  0  0  0  0  0  0  0  0  0
   17.7872   16.1755   21.7885 O   0  5  0  0  0  0  0  0  0  0  0  0
   18.9330   16.5229   20.0131 O   0  0  0  0  0  0  0  0  0  0  0  0
   18.3020   18.4164   21.2708 C   0  0  0  0  0  0  0  0  0  0  0  0
   17.2667   18.6704   21.5272 H   0  0  0  0  0  0  0  0  0  0  0  0
   18.5370   18.9454   20.3392 H   0  0  0  0  0  0  0  0  0  0  0  0
   19.2466   18.8887   22.4068 C   0  0  0  0  0  0  0  0  0  0  0  0
   19.0292   19.9420   22.6250 H   0  0  0  0  0  0  0  0  0  0  0  0
   19.0261   18.3226   23.3224 H   0  0  0  0  0  0  0  0  0  0  0  0
   20.7417   18.7313   22.0400 C   0  0  0  0  0  0  0  0  0  0  0  0
   20.9687   19.3288   21.1465 H   0  0  0  0  0  0  0  0  0  0  0  0
   20.9391   17.6846   21.7708 H   0  0  0  0  0  0  0  0  0  0  0  0
   21.7005   19.1289   23.1861 C   0  0  0  0  0  0  0  0  0  0  0  0
   21.4772   18.5313   24.0807 H   0  0  0  0  0  0  0  0  0  0  0  0
   22.7273   18.8730   22.8906 H   0  0  0  0  0  0  0  0  0  0  0  0
   21.6450   20.6314   23.5372 C   0  0  0  0  0  0  0  0  0  0  0  0
   20.6679   20.9110   23.9505 H   0  0  0  0  0  0  0  0  0  0  0  0
   22.4059   20.8778   24.2891 H   0  0  0  0  0  0  0  0  0  0  0  0
   21.8341   21.2496   22.6500 H   0  0  0  0  0  0  0  0  0  0  0  0
  1  2  1  0  0  0  0
  1  3  2  0  0  0  0
  1  4  1  0  0  0  0
  4  5  1  0  0  0  0
  4  6  1  0  0  0  0
  4  7  1  0  0  0  0
  7  8  1  0  0  0  0
  7  9  1  0  0  0  0
  7 10  1  0  0  0  0
 10 11  1  0  0  0  0
 10 12  1  0  0  0  0
 10 13  1  0  0  0  0
 13 14  1  0  0  0  0
 13 15  1  0  0  0  0
 13 16  1  0  0  0  0
 16 17  1  0  0  0  0
 16 18  1  0  0  0  0
 16 19  1  0  0  0  0
M  END
> <VConfSearch Rank>
560

> <Conf_Id>
74

> <Delta U+W>
0.797

> <U+W>
-54.095

> <U>
8.869

> <W>
-62.964

> <W(PB)>
-65.046

> <W(SA)>
2.082

> <Valence>
7.469

> <Coulomb>
0.762

> <VdW>
0.639

> <VdW6>
-6.782

> <VdW12>
7.421

> <Bond>
0.141

> <Angle>
2.667

> <Pdih>
4.660

> <Idih>
0.001

> <Tether>
0.000

$$$$
VeraChem MOL file


 19 18  0  0  0  0  0  0  0  0999 V2000     
   17.2154   19.1989   21.3606 C   0  0  0  0  0  0  0  0  0  0  0  0
   16.7689   19.9016   20.4756 O   0  5  0  0  0  0  0  0  0  0  0  0
   16.6665   18.1912   21.7600 O   0  0  0  0  0  0  0  0  0  0  0  0
   18.5464   19.5933   21.9907 C   0  0  0  0  0  0  0  0  0  0  0  0
   18.5245   19.2799   23.0407 H   0  0  0  0  0  0  0  0  0  0  0  0
   18.6189   20.6873   21.9781 H   0  0  0  0  0  0  0  0  0  0  0  0
   19.7644   18.9681   21.2625 C   0  0  0  0  0  0  0  0  0  0  0  0
   19.7010   17.8731   21.3145 H   0  0  0  0  0  0  0  0  0  0  0  0
   19.7073   19.2252   20.1958 H   0  0  0  0  0  0  0  0  0  0  0  0
   21.1299   19.4507   21.8132 C   0  0  0  0  0  0  0  0  0  0  0  0
   21.2132   20.5349   21.6575 H   0  0  0  0  0  0  0  0  0  0  0  0
   21.9316   18.9961   21.2154 H   0  0  0  0  0  0  0  0  0  0  0  0
   21.3845   19.1415   23.3091 C   0  0  0  0  0  0  0  0  0  0  0  0
   22.3697   19.5416   23.5858 H   0  0  0  0  0  0  0  0  0  0  0  0
   20.6553   19.6720   23.9355 H   0  0  0  0  0  0  0  0  0  0  0  0
   21.3519   17.6330   23.6358 C   0  0  0  0  0  0  0  0  0  0  0  0
   22.0581   17.0788   23.0041 H   0  0  0  0  0  0  0  0  0  0  0  0
   21.6280   17.4610   24.6842 H   0  0  0  0  0  0  0  0  0  0  0  0
   20.3494   17.2136   23.4829 H   0  0  0  0  0  0  0  0  0  0  0  0
  1  2  1  0  0  0  0
  1  3  2  0  0  0  0
  1  4  1  0  0  0  0
  4  5  1  0  0  0  0
  4  6  1  0  0  0  0
  4  7  1  0  0  0  0
  7  8  1  0  0  0  0
  7  9  1  0  0  0  0
  7 10  1  0  0  0  0
 10 11  1  0  0  0  0
 10 12  1  0  0  0  0
 10 13  1  0  0  0  0
 13 14  1  0  0  0  0
 13 15  1  0  0  0  0
 13 16  1  0  0  0  0
 16 17  1  0  0  0  0
 16 18  1  0  0  0  0
 16 19  1  0  0  0  0
M  END
> <VConfSearch Rank>
561

> <Conf_Id>
67

> <Delta U+W>
0.308

> <U+W>
-54.583

> <U>
8.219

> <W>
-62.802

> <W(PB)>
-64.859

> <W(SA)>
2.057

> <Valence>
7.609

> <Coulomb>
-0.089

> <VdW>
0.699

> <VdW6>
-6.924

> <VdW12>
7.623

> <Bond>
0.163

> <Angle>
2.870

> <Pdih>
4.576

> <Idih>
0.001

> <Tether>
0.000

$$$$
VeraChem MOL file


 19 18  0  0  0  0  0  0  0  0999 V2000     
   21.9271   19.0514   20.1108 C   0  0  0  0  0  0  0  0  0  0  0  0
   21.8905   19.7013   19.0848 O   0  5  0  0  0  0  0  0  0  0  0  0
   22.5850   18.0382   20.2414 O   0  0  0  0  0  0  0  0  0  0  0  0
   21.0863   19.5226   21.2920 C   0  0  0  0  0  0  0  0  0  0  0  0
   21.0346   20.6174   21.2586 H   0  0  0  0  0  0  0  0  0  0  0  0
   21.6181   19.2491   22.2104 H   0  0  0  0  0  0  0  0  0  0  0  0
   19.6578   18.9193   21.2911 C   0  0  0  0  0  0  0  0  0  0  0  0
   19.1857   19.1329   20.3222 H   0  0  0  0  0  0  0  0  0  0  0  0
   19.7211   17.8255   21.3632 H   0  0  0  0  0  0  0  0  0  0  0  0
   18.7493   19.4770   22.4156 C   0  0  0  0  0  0  0  0  0  0  0  0
   17.7499   19.0323   22.3143 H   0  0  0  0  0  0  0  0  0  0  0  0
   18.6174   20.5569   22.2636 H   0  0  0  0  0  0  0  0  0  0  0  0
   19.2604   19.2357   23.8573 C   0  0  0  0  0  0  0  0  0  0  0  0
   20.2120   19.7602   24.0151 H   0  0  0  0  0  0  0  0  0  0  0  0
   18.5463   19.6851   24.5610 H   0  0  0  0  0  0  0  0  0  0  0  0
   19.4259   17.7408   24.2052 C   0  0  0  0  0  0  0  0  0  0  0  0
   20.2158   17.2760   23.6017 H   0  0  0  0  0  0  0  0  0  0  0  0
   19.6998   17.6201   25.2613 H   0  0  0  0  0  0  0  0  0  0  0  0
   18.4913   17.1914   24.0328 H   0  0  0  0  0  0  0  0  0  0  0  0
  1  2  1  0  0  0  0
  1  3  2  0  0  0  0
  1  4  1  0  0  0  0
  4  5  1  0  0  0  0
  4  6  1  0  0  0  0
  4  7  1  0  0  0  0
  7  8  1  0  0  0  0
  7  9  1  0  0  0  0
  7 10  1  0  0  0  0
 10 11  1  0  0  0  0
 10 12  1  0  0  0  0
 10 13  1  0  0  0  0
 13 14  1  0  0  0  0
 13 15  1  0  0  0  0
 13 16  1  0  0  0  0
 16 17  1  0  0  0  0
 16 18  1  0  0  0  0
 16 19  1  0  0  0  0
M  END
> <VConfSearch Rank>
562

> <Conf_Id>
21

> <Delta U+W>
0.319

> <U+W>
-54.572

> <U>
8.220

> <W>
-62.792

> <W(PB)>
-64.830

> <W(SA)>
2.038

> <Valence>
7.609

> <Coulomb>
-0.088

> <VdW>
0.699

> <VdW6>
-6.924

> <VdW12>
7.623

> <Bond>
0.163

> <Angle>
2.870

> <Pdih>
4.576

> <Idih>
0.000

> <Tether>
0.000

$$$$
VeraChem MOL file


 19 18  0  0  0  0  0  0  0  0999 V2000     
   19.1252   16.9119   24.2195 C   0  0  0  0  0  0  0  0  0  0  0  0
   19.7437   16.3367   25.0930 O   0  5  0  0  0  0  0  0  0  0  0  0
   17.9163   17.0336   24.2207 O   0  0  0  0  0  0  0  0  0  0  0  0
   19.9110   17.5303   23.0688 C   0  0  0  0  0  0  0  0  0  0  0  0
   19.2864   17.4818   22.1714 H   0  0  0  0  0  0  0  0  0  0  0  0
   20.7885   16.8999   22.8813 H   0  0  0  0  0  0  0  0  0  0  0  0
   20.3567   18.9876   23.3605 C   0  0  0  0  0  0  0  0  0  0  0  0
   19.4839   19.6082   23.6061 H   0  0  0  0  0  0  0  0  0  0  0  0
   20.9857   18.9744   24.2614 H   0  0  0  0  0  0  0  0  0  0  0  0
   21.1628   19.6296   22.2029 C   0  0  0  0  0  0  0  0  0  0  0  0
   21.7140   18.8577   21.6486 H   0  0  0  0  0  0  0  0  0  0  0  0
   21.9272   20.2852   22.6418 H   0  0  0  0  0  0  0  0  0  0  0  0
   20.3204   20.4866   21.2262 C   0  0  0  0  0  0  0  0  0  0  0  0
   19.8438   21.3100   21.7759 H   0  0  0  0  0  0  0  0  0  0  0  0
   20.9989   20.9547   20.4997 H   0  0  0  0  0  0  0  0  0  0  0  0
   19.2434   19.6946   20.4565 C   0  0  0  0  0  0  0  0  0  0  0  0
   18.7750   20.3277   19.6919 H   0  0  0  0  0  0  0  0  0  0  0  0
   19.6797   18.8221   19.9532 H   0  0  0  0  0  0  0  0  0  0  0  0
   18.4493   19.3494   21.1304 H   0  0  0  0  0  0  0  0  0  0  0  0
  1  2  1  0  0  0  0
  1  3  2  0  0  0  0
  1  4  1  0  0  0  0
  4  5  1  0  0  0  0
  4  6  1  0  0  0  0
  4  7  1  0  0  0  0
  7  8  1  0  0  0  0
  7  9  1  0  0  0  0
  7 10  1  0  0  0  0
 10 11  1  0  0  0  0
 10 12  1  0  0  0  0
 10 13  1  0  0  0  0
 13 14  1  0  0  0  0
 13 15  1  0  0  0  0
 13 16  1  0  0  0  0
 16 17  1  0  0  0  0
 16 18  1  0  0  0  0
 16 19  1  0  0  0  0
M  END
> <VConfSearch Rank>
563

> <Conf_Id>
24

> <Delta U+W>
2.477

> <U+W>
-52.414

> <U>
10.422

> <W>
-62.836

> <W(PB)>
-64.906

> <W(SA)>
2.070

> <Valence>
9.628

> <Coulomb>
0.101

> <VdW>
0.693

> <VdW6>
-6.927

> <VdW12>
7.620

> <Bond>
0.173

> <Angle>
2.989

> <Pdih>
6.465

> <Idih>
0.001

> <Tether>
0.000

$$$$
VeraChem MOL file


 19 18  0  0  0  0  0  0  0  0999 V2000     
   20.4470   16.7235   21.3542 C   0  0  0  0  0  0  0  0  0  0  0  0
   20.1280   17.0100   20.2172 O   0  5  0  0  0  0  0  0  0  0  0  0
   21.3221   15.9244   21.6242 O   0  0  0  0  0  0  0  0  0  0  0  0
   19.6907   17.3787   22.5070 C   0  0  0  0  0  0  0  0  0  0  0  0
   19.3993   16.5795   23.1985 H   0  0  0  0  0  0  0  0  0  0  0  0
   18.7630   17.8057   22.1129 H   0  0  0  0  0  0  0  0  0  0  0  0
   20.5152   18.4479   23.2763 C   0  0  0  0  0  0  0  0  0  0  0  0
   19.9941   18.7237   24.2030 H   0  0  0  0  0  0  0  0  0  0  0  0
   21.4623   17.9864   23.5886 H   0  0  0  0  0  0  0  0  0  0  0  0
   20.8292   19.7237   22.4522 C   0  0  0  0  0  0  0  0  0  0  0  0
   20.9053   19.4824   21.3831 H   0  0  0  0  0  0  0  0  0  0  0  0
   21.8243   20.0834   22.7473 H   0  0  0  0  0  0  0  0  0  0  0  0
   19.8319   20.8896   22.6617 C   0  0  0  0  0  0  0  0  0  0  0  0
   19.8274   21.1859   23.7197 H   0  0  0  0  0  0  0  0  0  0  0  0
   20.1934   21.7618   22.0999 H   0  0  0  0  0  0  0  0  0  0  0  0
   18.3903   20.5757   22.2114 C   0  0  0  0  0  0  0  0  0  0  0  0
   17.9284   19.8218   22.8608 H   0  0  0  0  0  0  0  0  0  0  0  0
   17.7680   21.4786   22.2586 H   0  0  0  0  0  0  0  0  0  0  0  0
   18.3728   20.2049   21.1780 H   0  0  0  0  0  0  0  0  0  0  0  0
  1  2  1  0  0  0  0
  1  3  2  0  0  0  0
  1  4  1  0  0  0  0
  4  5  1  0  0  0  0
  4  6  1  0  0  0  0
  4  7  1  0  0  0  0
  7  8  1  0  0  0  0
  7  9  1  0  0  0  0
  7 10  1  0  0  0  0
 10 11  1  0  0  0  0
 10 12  1  0  0  0  0
 10 13  1  0  0  0  0
 13 14  1  0  0  0  0
 13 15  1  0  0  0  0
 13 16  1  0  0  0  0
 16 17  1  0  0  0  0
 16 18  1  0  0  0  0
 16 19  1  0  0  0  0
M  END
> <VConfSearch Rank>
564

> <Conf_Id>
4

> <Delta U+W>
3.753

> <U+W>
-51.138

> <U>
12.334

> <W>
-63.472

> <W(PB)>
-65.500

> <W(SA)>
2.028

> <Valence>
9.984

> <Coulomb>
1.767

> <VdW>
0.583

> <VdW6>
-7.767

> <VdW12>
8.349

> <Bond>
0.203

> <Angle>
3.191

> <Pdih>
6.589

> <Idih>
0.001

> <Tether>
0.000

$$$$
VeraChem MOL file


 19 18  0  0  0  0  0  0  0  0999 V2000     
   19.6456   16.4557   23.2856 C   0  0  0  0  0  0  0  0  0  0  0  0
   20.1848   15.4232   22.9391 O   0  5  0  0  0  0  0  0  0  0  0  0
   19.4465   16.7512   24.4474 O   0  0  0  0  0  0  0  0  0  0  0  0
   19.1680   17.4171   22.2003 C   0  0  0  0  0  0  0  0  0  0  0  0
   18.4487   18.1114   22.6462 H   0  0  0  0  0  0  0  0  0  0  0  0
   18.6153   16.8236   21.4627 H   0  0  0  0  0  0  0  0  0  0  0  0
   20.3157   18.1838   21.4863 C   0  0  0  0  0  0  0  0  0  0  0  0
   21.0409   17.4444   21.1190 H   0  0  0  0  0  0  0  0  0  0  0  0
   19.9251   18.6920   20.5945 H   0  0  0  0  0  0  0  0  0  0  0  0
   21.0568   19.2046   22.3887 C   0  0  0  0  0  0  0  0  0  0  0  0
   22.1150   19.2142   22.0941 H   0  0  0  0  0  0  0  0  0  0  0  0
   21.0428   18.8738   23.4362 H   0  0  0  0  0  0  0  0  0  0  0  0
   20.5319   20.6578   22.2858 C   0  0  0  0  0  0  0  0  0  0  0  0
   21.1761   21.3044   22.8973 H   0  0  0  0  0  0  0  0  0  0  0  0
   20.6322   21.0142   21.2513 H   0  0  0  0  0  0  0  0  0  0  0  0
   19.0716   20.8358   22.7498 C   0  0  0  0  0  0  0  0  0  0  0  0
   18.9245   20.4194   23.7551 H   0  0  0  0  0  0  0  0  0  0  0  0
   18.8056   21.9002   22.7811 H   0  0  0  0  0  0  0  0  0  0  0  0
   18.3749   20.3414   22.0616 H   0  0  0  0  0  0  0  0  0  0  0  0
  1  2  1  0  0  0  0
  1  3  2  0  0  0  0
  1  4  1  0  0  0  0
  4  5  1  0  0  0  0
  4  6  1  0  0  0  0
  4  7  1  0  0  0  0
  7  8  1  0  0  0  0
  7  9  1  0  0  0  0
  7 10  1  0  0  0  0
 10 11  1  0  0  0  0
 10 12  1  0  0  0  0
 10 13  1  0  0  0  0
 13 14  1  0  0  0  0
 13 15  1  0  0  0  0
 13 16  1  0  0  0  0
 16 17  1  0  0  0  0
 16 18  1  0  0  0  0
 16 19  1  0  0  0  0
M  END
> <VConfSearch Rank>
565

> <Conf_Id>
73

> <Delta U+W>
3.707

> <U+W>
-51.184

> <U>
12.334

> <W>
-63.519

> <W(PB)>
-65.541

> <W(SA)>
2.022

> <Valence>
9.984

> <Coulomb>
1.768

> <VdW>
0.583

> <VdW6>
-7.767

> <VdW12>
8.350

> <Bond>
0.203

> <Angle>
3.192

> <Pdih>
6.589

> <Idih>
0.001

> <Tether>
0.000

$$$$
VeraChem MOL file


 19 18  0  0  0  0  0  0  0  0999 V2000     
   20.3295   20.8702   20.6525 C   0  0  0  0  0  0  0  0  0  0  0  0
   20.6766   21.7253   21.4430 O   0  5  0  0  0  0  0  0  0  0  0  0
   20.7998   20.7564   19.5375 O   0  0  0  0  0  0  0  0  0  0  0  0
   19.2213   19.9062   21.0673 C   0  0  0  0  0  0  0  0  0  0  0  0
   18.4733   19.9045   20.2659 H   0  0  0  0  0  0  0  0  0  0  0  0
   18.7218   20.3064   21.9571 H   0  0  0  0  0  0  0  0  0  0  0  0
   19.7059   18.4526   21.3207 C   0  0  0  0  0  0  0  0  0  0  0  0
   18.8393   17.8155   21.5398 H   0  0  0  0  0  0  0  0  0  0  0  0
   20.1411   18.0601   20.3913 H   0  0  0  0  0  0  0  0  0  0  0  0
   20.7538   18.3153   22.4552 C   0  0  0  0  0  0  0  0  0  0  0  0
   21.6647   18.8589   22.1692 H   0  0  0  0  0  0  0  0  0  0  0  0
   21.0462   17.2599   22.5391 H   0  0  0  0  0  0  0  0  0  0  0  0
   20.2913   18.8186   23.8444 C   0  0  0  0  0  0  0  0  0  0  0  0
   21.1173   18.6867   24.5566 H   0  0  0  0  0  0  0  0  0  0  0  0
   20.0932   19.8984   23.8077 H   0  0  0  0  0  0  0  0  0  0  0  0
   19.0485   18.0767   24.3818 C   0  0  0  0  0  0  0  0  0  0  0  0
   18.1664   18.2740   23.7599 H   0  0  0  0  0  0  0  0  0  0  0  0
   19.2184   16.9924   24.4060 H   0  0  0  0  0  0  0  0  0  0  0  0
   18.8163   18.4060   25.4028 H   0  0  0  0  0  0  0  0  0  0  0  0
  1  2  1  0  0  0  0
  1  3  2  0  0  0  0
  1  4  1  0  0  0  0
  4  5  1  0  0  0  0
  4  6  1  0  0  0  0
  4  7  1  0  0  0  0
  7  8  1  0  0  0  0
  7  9  1  0  0  0  0
  7 10  1  0  0  0  0
 10 11  1  0  0  0  0
 10 12  1  0  0  0  0
 10 13  1  0  0  0  0
 13 14  1  0  0  0  0
 13 15  1  0  0  0  0
 13 16  1  0  0  0  0
 16 17  1  0  0  0  0
 16 18  1  0  0  0  0
 16 19  1  0  0  0  0
M  END
> <VConfSearch Rank>
566

> <Conf_Id>
56

> <Delta U+W>
1.735

> <U+W>
-53.156

> <U>
10.214

> <W>
-63.370

> <W(PB)>
-65.388

> <W(SA)>
2.018

> <Valence>
7.868

> <Coulomb>
1.968

> <VdW>
0.378

> <VdW6>
-8.067

> <VdW12>
8.445

> <Bond>
0.191

> <Angle>
3.117

> <Pdih>
4.559

> <Idih>
0.001

> <Tether>
0.000

$$$$
VeraChem MOL file


 19 18  0  0  0  0  0  0  0  0999 V2000     
   17.9782   19.2059   20.1387 C   0  0  0  0  0  0  0  0  0  0  0  0
   18.2627   19.5917   19.0222 O   0  5  0  0  0  0  0  0  0  0  0  0
   16.8368   19.0825   20.5365 O   0  0  0  0  0  0  0  0  0  0  0  0
   19.1159   18.8794   21.0996 C   0  0  0  0  0  0  0  0  0  0  0  0
   19.9640   18.5091   20.5114 H   0  0  0  0  0  0  0  0  0  0  0  0
   18.7793   18.0610   21.7457 H   0  0  0  0  0  0  0  0  0  0  0  0
   19.5477   20.0970   21.9551 C   0  0  0  0  0  0  0  0  0  0  0  0
   19.7424   20.9459   21.2852 H   0  0  0  0  0  0  0  0  0  0  0  0
   18.7118   20.4002   22.6004 H   0  0  0  0  0  0  0  0  0  0  0  0
   20.8105   19.8549   22.8196 C   0  0  0  0  0  0  0  0  0  0  0  0
   21.0449   20.7975   23.3329 H   0  0  0  0  0  0  0  0  0  0  0  0
   21.6745   19.6436   22.1747 H   0  0  0  0  0  0  0  0  0  0  0  0
   20.6581   18.7475   23.8917 C   0  0  0  0  0  0  0  0  0  0  0  0
   21.2240   19.0446   24.7855 H   0  0  0  0  0  0  0  0  0  0  0  0
   19.6091   18.6649   24.2082 H   0  0  0  0  0  0  0  0  0  0  0  0
   21.1880   17.3723   23.4281 C   0  0  0  0  0  0  0  0  0  0  0  0
   21.0738   16.6283   24.2270 H   0  0  0  0  0  0  0  0  0  0  0  0
   20.6506   17.0024   22.5478 H   0  0  0  0  0  0  0  0  0  0  0  0
   22.2544   17.4306   23.1742 H   0  0  0  0  0  0  0  0  0  0  0  0
  1  2  1  0  0  0  0
  1  3  2  0  0  0  0
  1  4  1  0  0  0  0
  4  5  1  0  0  0  0
  4  6  1  0  0  0  0
  4  7  1  0  0  0  0
  7  8  1  0  0  0  0
  7  9  1  0  0  0  0
  7 10  1  0  0  0  0
 10 11  1  0  0  0  0
 10 12  1  0  0  0  0
 10 13  1  0  0  0  0
 13 14  1  0  0  0  0
 13 15  1  0  0  0  0
 13 16  1  0  0  0  0
 16 17  1  0  0  0  0
 16 18  1  0  0  0  0
 16 19  1  0  0  0  0
M  END
> <VConfSearch Rank>
567

> <Conf_Id>
53

> <Delta U+W>
2.279

> <U+W>
-52.612

> <U>
10.231

> <W>
-62.843

> <W(PB)>
-64.893

> <W(SA)>
2.050

> <Valence>
9.644

> <Coulomb>
-0.164

> <VdW>
0.751

> <VdW6>
-6.881

> <VdW12>
7.631

> <Bond>
0.163

> <Angle>
2.998

> <Pdih>
6.482

> <Idih>
0.001

> <Tether>
0.000

$$$$
VeraChem MOL file


 19 18  0  0  0  0  0  0  0  0999 V2000     
   18.4890   17.1832   22.2204 C   0  0  0  0  0  0  0  0  0  0  0  0
   19.0424   16.3653   21.5121 O   0  5  0  0  0  0  0  0  0  0  0  0
   17.4343   17.7141   21.9321 O   0  0  0  0  0  0  0  0  0  0  0  0
   19.1179   17.5065   23.5744 C   0  0  0  0  0  0  0  0  0  0  0  0
   20.0269   16.9053   23.6983 H   0  0  0  0  0  0  0  0  0  0  0  0
   18.4077   17.1611   24.3346 H   0  0  0  0  0  0  0  0  0  0  0  0
   19.4294   19.0098   23.8199 C   0  0  0  0  0  0  0  0  0  0  0  0
   18.5796   19.6263   23.4955 H   0  0  0  0  0  0  0  0  0  0  0  0
   19.5184   19.1646   24.9037 H   0  0  0  0  0  0  0  0  0  0  0  0
   20.7363   19.5182   23.1624 C   0  0  0  0  0  0  0  0  0  0  0  0
   21.5824   18.9023   23.4964 H   0  0  0  0  0  0  0  0  0  0  0  0
   20.9309   20.5351   23.5299 H   0  0  0  0  0  0  0  0  0  0  0  0
   20.6941   19.5490   21.6187 C   0  0  0  0  0  0  0  0  0  0  0  0
   20.6332   18.5271   21.2231 H   0  0  0  0  0  0  0  0  0  0  0  0
   19.7927   20.0789   21.2812 H   0  0  0  0  0  0  0  0  0  0  0  0
   21.9442   20.2356   21.0325 C   0  0  0  0  0  0  0  0  0  0  0  0
   22.8589   19.7089   21.3345 H   0  0  0  0  0  0  0  0  0  0  0  0
   21.9029   20.2416   19.9355 H   0  0  0  0  0  0  0  0  0  0  0  0
   22.0184   21.2763   21.3743 H   0  0  0  0  0  0  0  0  0  0  0  0
  1  2  1  0  0  0  0
  1  3  2  0  0  0  0
  1  4  1  0  0  0  0
  4  5  1  0  0  0  0
  4  6  1  0  0  0  0
  4  7  1  0  0  0  0
  7  8  1  0  0  0  0
  7  9  1  0  0  0  0
  7 10  1  0  0  0  0
 10 11  1  0  0  0  0
 10 12  1  0  0  0  0
 10 13  1  0  0  0  0
 13 14  1  0  0  0  0
 13 15  1  0  0  0  0
 13 16  1  0  0  0  0
 16 17  1  0  0  0  0
 16 18  1  0  0  0  0
 16 19  1  0  0  0  0
M  END
> <VConfSearch Rank>
568

> <Conf_Id>
25

> <Delta U+W>
2.065

> <U+W>
-52.826

> <U>
10.967

> <W>
-63.794

> <W(PB)>
-65.830

> <W(SA)>
2.036

> <Valence>
8.609

> <Coulomb>
1.892

> <VdW>
0.467

> <VdW6>
-7.569

> <VdW12>
8.036

> <Bond>
0.170

> <Angle>
3.195

> <Pdih>
5.237

> <Idih>
0.007

> <Tether>
0.000

$$$$
VeraChem MOL file


 19 18  0  0  0  0  0  0  0  0999 V2000     
   18.6599   19.9537   20.9174 C   0  0  0  0  0  0  0  0  0  0  0  0
   17.9444   19.1173   20.4021 O   0  5  0  0  0  0  0  0  0  0  0  0
   19.4194   20.6642   20.2887 O   0  0  0  0  0  0  0  0  0  0  0  0
   18.5496   20.1736   22.4251 C   0  0  0  0  0  0  0  0  0  0  0  0
   17.5264   20.5196   22.6121 H   0  0  0  0  0  0  0  0  0  0  0  0
   19.2161   20.9947   22.7156 H   0  0  0  0  0  0  0  0  0  0  0  0
   18.8270   18.9196   23.3011 C   0  0  0  0  0  0  0  0  0  0  0  0
   18.3729   19.0879   24.2870 H   0  0  0  0  0  0  0  0  0  0  0  0
   18.3134   18.0454   22.8773 H   0  0  0  0  0  0  0  0  0  0  0  0
   20.3263   18.5996   23.5213 C   0  0  0  0  0  0  0  0  0  0  0  0
   20.3989   17.8012   24.2724 H   0  0  0  0  0  0  0  0  0  0  0  0
   20.8319   19.4748   23.9516 H   0  0  0  0  0  0  0  0  0  0  0  0
   21.0680   18.1474   22.2442 C   0  0  0  0  0  0  0  0  0  0  0  0
   20.5089   17.3373   21.7558 H   0  0  0  0  0  0  0  0  0  0  0  0
   21.1240   18.9766   21.5275 H   0  0  0  0  0  0  0  0  0  0  0  0
   22.4984   17.6666   22.5613 C   0  0  0  0  0  0  0  0  0  0  0  0
   23.0143   17.3571   21.6431 H   0  0  0  0  0  0  0  0  0  0  0  0
   23.0870   18.4675   23.0275 H   0  0  0  0  0  0  0  0  0  0  0  0
   22.4825   16.8088   23.2464 H   0  0  0  0  0  0  0  0  0  0  0  0
  1  2  1  0  0  0  0
  1  3  2  0  0  0  0
  1  4  1  0  0  0  0
  4  5  1  0  0  0  0
  4  6  1  0  0  0  0
  4  7  1  0  0  0  0
  7  8  1  0  0  0  0
  7  9  1  0  0  0  0
  7 10  1  0  0  0  0
 10 11  1  0  0  0  0
 10 12  1  0  0  0  0
 10 13  1  0  0  0  0
 13 14  1  0  0  0  0
 13 15  1  0  0  0  0
 13 16  1  0  0  0  0
 16 17  1  0  0  0  0
 16 18  1  0  0  0  0
 16 19  1  0  0  0  0
M  END
> <VConfSearch Rank>
569

> <Conf_Id>
52

> <Delta U+W>
2.070

> <U+W>
-52.822

> <U>
10.967

> <W>
-63.789

> <W(PB)>
-65.837

> <W(SA)>
2.048

> <Valence>
8.609

> <Coulomb>
1.892

> <VdW>
0.467

> <VdW6>
-7.569

> <VdW12>
8.035

> <Bond>
0.170

> <Angle>
3.196

> <Pdih>
5.237

> <Idih>
0.007

> <Tether>
0.000

$$$$
VeraChem MOL file


 19 18  0  0  0  0  0  0  0  0999 V2000     
   18.6166   17.9359   24.0942 C   0  0  0  0  0  0  0  0  0  0  0  0
   18.2763   18.7867   24.8932 O   0  5  0  0  0  0  0  0  0  0  0  0
   17.8318   17.1902   23.5420 O   0  0  0  0  0  0  0  0  0  0  0  0
   20.1102   17.7016   23.8625 C   0  0  0  0  0  0  0  0  0  0  0  0
   20.2374   17.0188   23.0139 H   0  0  0  0  0  0  0  0  0  0  0  0
   20.4740   17.1693   24.7488 H   0  0  0  0  0  0  0  0  0  0  0  0
   20.9711   18.9806   23.6565 C   0  0  0  0  0  0  0  0  0  0  0  0
   20.6487   19.7666   24.3534 H   0  0  0  0  0  0  0  0  0  0  0  0
   22.0051   18.7399   23.9379 H   0  0  0  0  0  0  0  0  0  0  0  0
   20.9998   19.5371   22.2099 C   0  0  0  0  0  0  0  0  0  0  0  0
   21.4172   18.7848   21.5267 H   0  0  0  0  0  0  0  0  0  0  0  0
   21.7084   20.3765   22.1939 H   0  0  0  0  0  0  0  0  0  0  0  0
   19.6391   20.0496   21.6789 C   0  0  0  0  0  0  0  0  0  0  0  0
   18.9718   20.3037   22.5141 H   0  0  0  0  0  0  0  0  0  0  0  0
   19.8036   20.9847   21.1260 H   0  0  0  0  0  0  0  0  0  0  0  0
   18.9518   19.0452   20.7292 C   0  0  0  0  0  0  0  0  0  0  0  0
   19.5693   18.8614   19.8405 H   0  0  0  0  0  0  0  0  0  0  0  0
   18.7739   18.0826   21.2228 H   0  0  0  0  0  0  0  0  0  0  0  0
   17.9825   19.4348   20.3925 H   0  0  0  0  0  0  0  0  0  0  0  0
  1  2  1  0  0  0  0
  1  3  2  0  0  0  0
  1  4  1  0  0  0  0
  4  5  1  0  0  0  0
  4  6  1  0  0  0  0
  4  7  1  0  0  0  0
  7  8  1  0  0  0  0
  7  9  1  0  0  0  0
  7 10  1  0  0  0  0
 10 11  1  0  0  0  0
 10 12  1  0  0  0  0
 10 13  1  0  0  0  0
 13 14  1  0  0  0  0
 13 15  1  0  0  0  0
 13 16  1  0  0  0  0
 16 17  1  0  0  0  0
 16 18  1  0  0  0  0
 16 19  1  0  0  0  0
M  END
> <VConfSearch Rank>
570

> <Conf_Id>
66

> <Delta U+W>
5.819

> <U+W>
-49.072

> <U>
15.324

> <W>
-64.396

> <W(PB)>
-66.382

> <W(SA)>
1.986

> <Valence>
11.748

> <Coulomb>
3.201

> <VdW>
0.375

> <VdW6>
-8.854

> <VdW12>
9.229

> <Bond>
0.216

> <Angle>
3.812

> <Pdih>
7.699

> <Idih>
0.022

> <Tether>
0.000

$$$$
VeraChem MOL file


 19 18  0  0  0  0  0  0  0  0999 V2000     
   21.0089   18.7929   18.8730 C   0  0  0  0  0  0  0  0  0  0  0  0
   21.7355   18.1645   18.1295 O   0  5  0  0  0  0  0  0  0  0  0  0
   20.3421   19.7404   18.5045 O   0  0  0  0  0  0  0  0  0  0  0  0
   20.9522   18.3470   20.3350 C   0  0  0  0  0  0  0  0  0  0  0  0
   21.9750   18.3834   20.7281 H   0  0  0  0  0  0  0  0  0  0  0  0
   20.6421   17.2955   20.3446 H   0  0  0  0  0  0  0  0  0  0  0  0
   20.0108   19.1792   21.2460 C   0  0  0  0  0  0  0  0  0  0  0  0
   20.3233   20.2325   21.2275 H   0  0  0  0  0  0  0  0  0  0  0  0
   18.9890   19.1435   20.8435 H   0  0  0  0  0  0  0  0  0  0  0  0
   20.0146   18.6617   22.7008 C   0  0  0  0  0  0  0  0  0  0  0  0
   21.0371   18.6982   23.1011 H   0  0  0  0  0  0  0  0  0  0  0  0
   19.7020   17.6086   22.7169 H   0  0  0  0  0  0  0  0  0  0  0  0
   19.0782   19.4904   23.6046 C   0  0  0  0  0  0  0  0  0  0  0  0
   19.3888   20.5444   23.5926 H   0  0  0  0  0  0  0  0  0  0  0  0
   18.0538   19.4548   23.2086 H   0  0  0  0  0  0  0  0  0  0  0  0
   19.0845   18.9710   25.0563 C   0  0  0  0  0  0  0  0  0  0  0  0
   20.0924   19.0249   25.4883 H   0  0  0  0  0  0  0  0  0  0  0  0
   18.4138   19.5713   25.6847 H   0  0  0  0  0  0  0  0  0  0  0  0
   18.7474   17.9271   25.1014 H   0  0  0  0  0  0  0  0  0  0  0  0
  1  2  1  0  0  0  0
  1  3  2  0  0  0  0
  1  4  1  0  0  0  0
  4  5  1  0  0  0  0
  4  6  1  0  0  0  0
  4  7  1  0  0  0  0
  7  8  1  0  0  0  0
  7  9  1  0  0  0  0
  7 10  1  0  0  0  0
 10 11  1  0  0  0  0
 10 12  1  0  0  0  0
 10 13  1  0  0  0  0
 13 14  1  0  0  0  0
 13 15  1  0  0  0  0
 13 16  1  0  0  0  0
 16 17  1  0  0  0  0
 16 18  1  0  0  0  0
 16 19  1  0  0  0  0
M  END
> <VConfSearch Rank>
571

> <Conf_Id>
0

> <Delta U+W>
0.000

> <U+W>
-54.891

> <U>
6.966

> <W>
-61.857

> <W(PB)>
-63.965

> <W(SA)>
2.108

> <Valence>
7.175

> <Coulomb>
-1.360

> <VdW>
1.151

> <VdW6>
-5.641

> <VdW12>
6.792

> <Bond>
0.119

> <Angle>
2.715

> <Pdih>
4.340

> <Idih>
0.000

> <Tether>
0.000

$$$$
VeraChem MOL file


 19 18  0  0  0  0  0  0  0  0999 V2000     
   19.8130   15.6039   22.7848 C   0  0  0  0  0  0  0  0  0  0  0  0
   20.1786   15.2845   23.8986 O   0  5  0  0  0  0  0  0  0  0  0  0
   18.9861   14.9850   22.1450 O   0  0  0  0  0  0  0  0  0  0  0  0
   20.4096   16.8623   22.1643 C   0  0  0  0  0  0  0  0  0  0  0  0
   20.4580   16.7168   21.0783 H   0  0  0  0  0  0  0  0  0  0  0  0
   21.4406   16.9639   22.5240 H   0  0  0  0  0  0  0  0  0  0  0  0
   19.5996   18.1397   22.4964 C   0  0  0  0  0  0  0  0  0  0  0  0
   18.5669   18.0171   22.1414 H   0  0  0  0  0  0  0  0  0  0  0  0
   19.5494   18.2641   23.5871 H   0  0  0  0  0  0  0  0  0  0  0  0
   20.2240   19.3986   21.8570 C   0  0  0  0  0  0  0  0  0  0  0  0
   20.2741   19.2706   20.7669 H   0  0  0  0  0  0  0  0  0  0  0  0
   21.2566   19.5177   22.2130 H   0  0  0  0  0  0  0  0  0  0  0  0
   19.4150   20.6696   22.1895 C   0  0  0  0  0  0  0  0  0  0  0  0
   18.3818   20.5550   21.8333 H   0  0  0  0  0  0  0  0  0  0  0  0
   19.3644   20.8022   23.2792 H   0  0  0  0  0  0  0  0  0  0  0  0
   20.0413   21.9246   21.5495 C   0  0  0  0  0  0  0  0  0  0  0  0
   19.4537   22.8186   21.7959 H   0  0  0  0  0  0  0  0  0  0  0  0
   21.0654   22.0813   21.9127 H   0  0  0  0  0  0  0  0  0  0  0  0
   20.0756   21.8323   20.4560 H   0  0  0  0  0  0  0  0  0  0  0  0
  1  2  1  0  0  0  0
  1  3  2  0  0  0  0
  1  4  1  0  0  0  0
  4  5  1  0  0  0  0
  4  6  1  0  0  0  0
  4  7  1  0  0  0  0
  7  8  1  0  0  0  0
  7  9  1  0  0  0  0
  7 10  1  0  0  0  0
 10 11  1  0  0  0  0
 10 12  1  0  0  0  0
 10 13  1  0  0  0  0
 13 14  1  0  0  0  0
 13 15  1  0  0  0  0
 13 16  1  0  0  0  0
 16 17  1  0  0  0  0
 16 18  1  0  0  0  0
 16 19  1  0  0  0  0
M  END
> <VConfSearch Rank>
572

> <Conf_Id>
18

> <Delta U+W>
-1.199

> <U+W>
-56.090

> <U>
5.975

> <W>
-62.066

> <W(PB)>
-64.219

> <W(SA)>
2.153

> <Valence>
6.673

> <Coulomb>
-1.307

> <VdW>
0.610

> <VdW6>
-5.351

> <VdW12>
5.961

> <Bond>
0.086

> <Angle>
2.253

> <Pdih>
4.333

> <Idih>
0.001

> <Tether>
0.000

$$$$
VeraChem MOL file


 19 18  0  0  0  0  0  0  0  0999 V2000     
   18.1440   16.2873   22.1527 C   0  0  0  0  0  0  0  0  0  0  0  0
   18.5843   15.1575   22.2303 O   0  5  0  0  0  0  0  0  0  0  0  0
   16.9839   16.5734   22.3730 O   0  0  0  0  0  0  0  0  0  0  0  0
   19.1048   17.4106   21.7790 C   0  0  0  0  0  0  0  0  0  0  0  0
   18.5396   18.1571   21.2097 H   0  0  0  0  0  0  0  0  0  0  0  0
   19.8668   16.9973   21.1075 H   0  0  0  0  0  0  0  0  0  0  0  0
   19.7779   18.0609   23.0157 C   0  0  0  0  0  0  0  0  0  0  0  0
   19.0083   18.5101   23.6585 H   0  0  0  0  0  0  0  0  0  0  0  0
   20.2577   17.2719   23.6113 H   0  0  0  0  0  0  0  0  0  0  0  0
   20.8417   19.1239   22.6525 C   0  0  0  0  0  0  0  0  0  0  0  0
   21.6140   18.6695   22.0168 H   0  0  0  0  0  0  0  0  0  0  0  0
   21.3461   19.4417   23.5753 H   0  0  0  0  0  0  0  0  0  0  0  0
   20.2528   20.3670   21.9486 C   0  0  0  0  0  0  0  0  0  0  0  0
   19.8094   20.0823   20.9855 H   0  0  0  0  0  0  0  0  0  0  0  0
   19.4454   20.7919   22.5608 H   0  0  0  0  0  0  0  0  0  0  0  0
   21.3308   21.4422   21.7056 C   0  0  0  0  0  0  0  0  0  0  0  0
   20.8982   22.3168   21.2028 H   0  0  0  0  0  0  0  0  0  0  0  0
   21.7706   21.7795   22.6534 H   0  0  0  0  0  0  0  0  0  0  0  0
   22.1384   21.0521   21.0724 H   0  0  0  0  0  0  0  0  0  0  0  0
  1  2  1  0  0  0  0
  1  3  2  0  0  0  0
  1  4  1  0  0  0  0
  4  5  1  0  0  0  0
  4  6  1  0  0  0  0
  4  7  1  0  0  0  0
  7  8  1  0  0  0  0
  7  9  1  0  0  0  0
  7 10  1  0  0  0  0
 10 11  1  0  0  0  0
 10 12  1  0  0  0  0
 10 13  1  0  0  0  0
 13 14  1  0  0  0  0
 13 15  1  0  0  0  0
 13 16  1  0  0  0  0
 16 17  1  0  0  0  0
 16 18  1  0  0  0  0
 16 19  1  0  0  0  0
M  END
> <VConfSearch Rank>
573

> <Conf_Id>
34

> <Delta U+W>
-0.563

> <U+W>
-55.455

> <U>
6.914

> <W>
-62.369

> <W(PB)>
-64.446

> <W(SA)>
2.077

> <Valence>
7.196

> <Coulomb>
-1.020

> <VdW>
0.738

> <VdW6>
-6.010

> <VdW12>
6.748

> <Bond>
0.126

> <Angle>
2.499

> <Pdih>
4.570

> <Idih>
0.001

> <Tether>
0.000

$$$$
VeraChem MOL file


 19 18  0  0  0  0  0  0  0  0999 V2000     
   18.2558   19.2417   19.4890 C   0  0  0  0  0  0  0  0  0  0  0  0
   17.5990   20.2287   19.2229 O   0  5  0  0  0  0  0  0  0  0  0  0
   18.0958   18.1632   18.9529 O   0  0  0  0  0  0  0  0  0  0  0  0
   19.3242   19.3576   20.5703 C   0  0  0  0  0  0  0  0  0  0  0  0
   19.7254   20.3779   20.5444 H   0  0  0  0  0  0  0  0  0  0  0  0
   20.1427   18.6792   20.3043 H   0  0  0  0  0  0  0  0  0  0  0  0
   18.7827   19.0319   21.9866 C   0  0  0  0  0  0  0  0  0  0  0  0
   17.9077   19.6667   22.1839 H   0  0  0  0  0  0  0  0  0  0  0  0
   18.4245   17.9935   22.0126 H   0  0  0  0  0  0  0  0  0  0  0  0
   19.8209   19.2554   23.1116 C   0  0  0  0  0  0  0  0  0  0  0  0
   19.3208   19.1173   24.0800 H   0  0  0  0  0  0  0  0  0  0  0  0
   20.1706   20.2967   23.0882 H   0  0  0  0  0  0  0  0  0  0  0  0
   21.0307   18.2977   23.0302 C   0  0  0  0  0  0  0  0  0  0  0  0
   20.6787   17.2573   23.0021 H   0  0  0  0  0  0  0  0  0  0  0  0
   21.5902   18.4723   22.1019 H   0  0  0  0  0  0  0  0  0  0  0  0
   21.9806   18.4843   24.2303 C   0  0  0  0  0  0  0  0  0  0  0  0
   22.3697   19.5103   24.2670 H   0  0  0  0  0  0  0  0  0  0  0  0
   21.4633   18.2796   25.1769 H   0  0  0  0  0  0  0  0  0  0  0  0
   22.8357   17.7999   24.1568 H   0  0  0  0  0  0  0  0  0  0  0  0
  1  2  1  0  0  0  0
  1  3  2  0  0  0  0
  1  4  1  0  0  0  0
  4  5  1  0  0  0  0
  4  6  1  0  0  0  0
  4  7  1  0  0  0  0
  7  8  1  0  0  0  0
  7  9  1  0  0  0  0
  7 10  1  0  0  0  0
 10 11  1  0  0  0  0
 10 12  1  0  0  0  0
 10 13  1  0  0  0  0
 13 14  1  0  0  0  0
 13 15  1  0  0  0  0
 13 16  1  0  0  0  0
 16 17  1  0  0  0  0
 16 18  1  0  0  0  0
 16 19  1  0  0  0  0
M  END
> <VConfSearch Rank>
574

> <Conf_Id>
33

> <Delta U+W>
-0.526

> <U+W>
-55.418

> <U>
6.914

> <W>
-62.332

> <W(PB)>
-64.421

> <W(SA)>
2.090

> <Valence>
7.196

> <Coulomb>
-1.020

> <VdW>
0.738

> <VdW6>
-6.010

> <VdW12>
6.748

> <Bond>
0.126

> <Angle>
2.499

> <Pdih>
4.570

> <Idih>
0.001

> <Tether>
0.000

$$$$
VeraChem MOL file


 19 18  0  0  0  0  0  0  0  0999 V2000     
   19.3633   16.1936   23.6945 C   0  0  0  0  0  0  0  0  0  0  0  0
   19.5929   16.3040   24.8825 O   0  5  0  0  0  0  0  0  0  0  0  0
   18.4817   15.4903   23.2425 O   0  0  0  0  0  0  0  0  0  0  0  0
   20.2169   16.9953   22.7182 C   0  0  0  0  0  0  0  0  0  0  0  0
   20.3118   16.4147   21.7927 H   0  0  0  0  0  0  0  0  0  0  0  0
   21.2226   17.0924   23.1446 H   0  0  0  0  0  0  0  0  0  0  0  0
   19.6291   18.3953   22.4135 C   0  0  0  0  0  0  0  0  0  0  0  0
   18.6191   18.2817   21.9962 H   0  0  0  0  0  0  0  0  0  0  0  0
   19.5261   18.9502   23.3554 H   0  0  0  0  0  0  0  0  0  0  0  0
   20.5160   19.1866   21.4245 C   0  0  0  0  0  0  0  0  0  0  0  0
   20.6658   18.5843   20.5179 H   0  0  0  0  0  0  0  0  0  0  0  0
   21.5113   19.3426   21.8626 H   0  0  0  0  0  0  0  0  0  0  0  0
   19.9124   20.5496   21.0141 C   0  0  0  0  0  0  0  0  0  0  0  0
   20.5397   20.9903   20.2269 H   0  0  0  0  0  0  0  0  0  0  0  0
   18.9189   20.3972   20.5702 H   0  0  0  0  0  0  0  0  0  0  0  0
   19.8099   21.5500   22.1857 C   0  0  0  0  0  0  0  0  0  0  0  0
   20.7871   21.6960   22.6643 H   0  0  0  0  0  0  0  0  0  0  0  0
   19.4601   22.5266   21.8268 H   0  0  0  0  0  0  0  0  0  0  0  0
   19.1011   21.2032   22.9480 H   0  0  0  0  0  0  0  0  0  0  0  0
  1  2  1  0  0  0  0
  1  3  2  0  0  0  0
  1  4  1  0  0  0  0
  4  5  1  0  0  0  0
  4  6  1  0  0  0  0
  4  7  1  0  0  0  0
  7  8  1  0  0  0  0
  7  9  1  0  0  0  0
  7 10  1  0  0  0  0
 10 11  1  0  0  0  0
 10 12  1  0  0  0  0
 10 13  1  0  0  0  0
 13 14  1  0  0  0  0
 13 15  1  0  0  0  0
 13 16  1  0  0  0  0
 16 17  1  0  0  0  0
 16 18  1  0  0  0  0
 16 19  1  0  0  0  0
M  END
> <VConfSearch Rank>
575

> <Conf_Id>
42

> <Delta U+W>
-0.344

> <U+W>
-55.236

> <U>
7.244

> <W>
-62.479

> <W(PB)>
-64.610

> <W(SA)>
2.130

> <Valence>
7.174

> <Coulomb>
-0.669

> <VdW>
0.739

> <VdW6>
-5.969

> <VdW12>
6.708

> <Bond>
0.116

> <Angle>
2.481

> <Pdih>
4.576

> <Idih>
0.000

> <Tether>
0.000

$$$$
VeraChem MOL file


 19 18  0  0  0  0  0  0  0  0999 V2000     
   21.2785   17.6233   24.8485 C   0  0  0  0  0  0  0  0  0  0  0  0
   22.3580   18.1229   25.0961 O   0  5  0  0  0  0  0  0  0  0  0  0
   21.0144   16.4557   25.0562 O   0  0  0  0  0  0  0  0  0  0  0  0
   20.2020   18.5056   24.2262 C   0  0  0  0  0  0  0  0  0  0  0  0
   20.3362   19.5259   24.6052 H   0  0  0  0  0  0  0  0  0  0  0  0
   19.2260   18.1535   24.5812 H   0  0  0  0  0  0  0  0  0  0  0  0
   20.2413   18.5021   22.6780 C   0  0  0  0  0  0  0  0  0  0  0  0
   21.2322   18.8396   22.3469 H   0  0  0  0  0  0  0  0  0  0  0  0
   20.1151   17.4730   22.3143 H   0  0  0  0  0  0  0  0  0  0  0  0
   19.1423   19.4069   22.0746 C   0  0  0  0  0  0  0  0  0  0  0  0
   19.2976   20.4450   22.3991 H   0  0  0  0  0  0  0  0  0  0  0  0
   18.1663   19.0986   22.4737 H   0  0  0  0  0  0  0  0  0  0  0  0
   19.0809   19.3517   20.5306 C   0  0  0  0  0  0  0  0  0  0  0  0
   18.9201   18.3155   20.2023 H   0  0  0  0  0  0  0  0  0  0  0  0
   18.2062   19.9238   20.1919 H   0  0  0  0  0  0  0  0  0  0  0  0
   20.3427   19.9228   19.8482 C   0  0  0  0  0  0  0  0  0  0  0  0
   21.2276   19.3121   20.0666 H   0  0  0  0  0  0  0  0  0  0  0  0
   20.2137   19.9426   18.7583 H   0  0  0  0  0  0  0  0  0  0  0  0
   20.5405   20.9491   20.1839 H   0  0  0  0  0  0  0  0  0  0  0  0
  1  2  1  0  0  0  0
  1  3  2  0  0  0  0
  1  4  1  0  0  0  0
  4  5  1  0  0  0  0
  4  6  1  0  0  0  0
  4  7  1  0  0  0  0
  7  8  1  0  0  0  0
  7  9  1  0  0  0  0
  7 10  1  0  0  0  0
 10 11  1  0  0  0  0
 10 12  1  0  0  0  0
 10 13  1  0  0  0  0
 13 14  1  0  0  0  0
 13 15  1  0  0  0  0
 13 16  1  0  0  0  0
 16 17  1  0  0  0  0
 16 18  1  0  0  0  0
 16 19  1  0  0  0  0
M  END
> <VConfSearch Rank>
576

> <Conf_Id>
41

> <Delta U+W>
-0.361

> <U+W>
-55.252

> <U>
7.244

> <W>
-62.496

> <W(PB)>
-64.596

> <W(SA)>
2.099

> <Valence>
7.174

> <Coulomb>
-0.669

> <VdW>
0.739

> <VdW6>
-5.969

> <VdW12>
6.708

> <Bond>
0.116

> <Angle>
2.481

> <Pdih>
4.576

> <Idih>
0.000

> <Tether>
0.000

$$$$
VeraChem MOL file


 19 18  0  0  0  0  0  0  0  0999 V2000     
   18.0340   18.3281   20.2078 C   0  0  0  0  0  0  0  0  0  0  0  0
   18.1566   17.1192   20.1950 O   0  5  0  0  0  0  0  0  0  0  0  0
   16.9596   18.8939   20.2530 O   0  0  0  0  0  0  0  0  0  0  0  0
   19.2957   19.1843   20.1412 C   0  0  0  0  0  0  0  0  0  0  0  0
   19.1224   19.9658   19.3920 H   0  0  0  0  0  0  0  0  0  0  0  0
   20.1204   18.5647   19.7686 H   0  0  0  0  0  0  0  0  0  0  0  0
   19.6862   19.8394   21.4915 C   0  0  0  0  0  0  0  0  0  0  0  0
   20.5142   20.5407   21.3210 H   0  0  0  0  0  0  0  0  0  0  0  0
   18.8407   20.4332   21.8660 H   0  0  0  0  0  0  0  0  0  0  0  0
   20.1087   18.8016   22.5554 C   0  0  0  0  0  0  0  0  0  0  0  0
   20.9455   18.2021   22.1714 H   0  0  0  0  0  0  0  0  0  0  0  0
   19.2792   18.1061   22.7442 H   0  0  0  0  0  0  0  0  0  0  0  0
   20.5228   19.4769   23.8794 C   0  0  0  0  0  0  0  0  0  0  0  0
   21.3552   20.1708   23.6974 H   0  0  0  0  0  0  0  0  0  0  0  0
   19.6868   20.0754   24.2670 H   0  0  0  0  0  0  0  0  0  0  0  0
   20.9440   18.4389   24.9386 C   0  0  0  0  0  0  0  0  0  0  0  0
   21.7997   17.8463   24.5893 H   0  0  0  0  0  0  0  0  0  0  0  0
   21.2346   18.9359   25.8733 H   0  0  0  0  0  0  0  0  0  0  0  0
   20.1189   17.7502   25.1632 H   0  0  0  0  0  0  0  0  0  0  0  0
  1  2  1  0  0  0  0
  1  3  2  0  0  0  0
  1  4  1  0  0  0  0
  4  5  1  0  0  0  0
  4  6  1  0  0  0  0
  4  7  1  0  0  0  0
  7  8  1  0  0  0  0
  7  9  1  0  0  0  0
  7 10  1  0  0  0  0
 10 11  1  0  0  0  0
 10 12  1  0  0  0  0
 10 13  1  0  0  0  0
 13 14  1  0  0  0  0
 13 15  1  0  0  0  0
 13 16  1  0  0  0  0
 16 17  1  0  0  0  0
 16 18  1  0  0  0  0
 16 19  1  0  0  0  0
M  END
> <VConfSearch Rank>
577

> <Conf_Id>
36

> <Delta U+W>
-0.079

> <U+W>
-54.971

> <U>
8.266

> <W>
-63.237

> <W(PB)>
-65.340

> <W(SA)>
2.103

> <Valence>
6.935

> <Coulomb>
0.874

> <VdW>
0.457

> <VdW6>
-6.205

> <VdW12>
6.662

> <Bond>
0.107

> <Angle>
2.420

> <Pdih>
4.407

> <Idih>
0.001

> <Tether>
0.000

$$$$
VeraChem MOL file


 19 18  0  0  0  0  0  0  0  0999 V2000     
   19.5413   21.3872   20.9559 C   0  0  0  0  0  0  0  0  0  0  0  0
   20.0205   22.1924   21.7297 O   0  5  0  0  0  0  0  0  0  0  0  0
   18.4075   21.4619   20.5252 O   0  0  0  0  0  0  0  0  0  0  0  0
   20.4163   20.2302   20.4813 C   0  0  0  0  0  0  0  0  0  0  0  0
   21.4662   20.4835   20.6723 H   0  0  0  0  0  0  0  0  0  0  0  0
   20.3007   20.1566   19.3935 H   0  0  0  0  0  0  0  0  0  0  0  0
   20.0677   18.8665   21.1323 C   0  0  0  0  0  0  0  0  0  0  0  0
   19.0067   18.6402   20.9570 H   0  0  0  0  0  0  0  0  0  0  0  0
   20.6460   18.0761   20.6349 H   0  0  0  0  0  0  0  0  0  0  0  0
   20.3655   18.8383   22.6482 C   0  0  0  0  0  0  0  0  0  0  0  0
   19.7774   19.6155   23.1556 H   0  0  0  0  0  0  0  0  0  0  0  0
   21.4240   19.0779   22.8189 H   0  0  0  0  0  0  0  0  0  0  0  0
   20.0412   17.4633   23.2685 C   0  0  0  0  0  0  0  0  0  0  0  0
   18.9822   17.2221   23.1012 H   0  0  0  0  0  0  0  0  0  0  0  0
   20.6298   16.6822   22.7676 H   0  0  0  0  0  0  0  0  0  0  0  0
   20.3393   17.4383   24.7809 C   0  0  0  0  0  0  0  0  0  0  0  0
   19.7400   18.1897   25.3117 H   0  0  0  0  0  0  0  0  0  0  0  0
   20.1028   16.4541   25.2057 H   0  0  0  0  0  0  0  0  0  0  0  0
   21.3997   17.6457   24.9756 H   0  0  0  0  0  0  0  0  0  0  0  0
  1  2  1  0  0  0  0
  1  3  2  0  0  0  0
  1  4  1  0  0  0  0
  4  5  1  0  0  0  0
  4  6  1  0  0  0  0
  4  7  1  0  0  0  0
  7  8  1  0  0  0  0
  7  9  1  0  0  0  0
  7 10  1  0  0  0  0
 10 11  1  0  0  0  0
 10 12  1  0  0  0  0
 10 13  1  0  0  0  0
 13 14  1  0  0  0  0
 13 15  1  0  0  0  0
 13 16  1  0  0  0  0
 16 17  1  0  0  0  0
 16 18  1  0  0  0  0
 16 19  1  0  0  0  0
M  END
> <VConfSearch Rank>
578

> <Conf_Id>
35

> <Delta U+W>
-0.030

> <U+W>
-54.921

> <U>
8.267

> <W>
-63.188

> <W(PB)>
-65.294

> <W(SA)>
2.106

> <Valence>
6.935

> <Coulomb>
0.875

> <VdW>
0.457

> <VdW6>
-6.205

> <VdW12>
6.662

> <Bond>
0.107

> <Angle>
2.420

> <Pdih>
4.407

> <Idih>
0.001

> <Tether>
0.000

$$$$
VeraChem MOL file


 19 18  0  0  0  0  0  0  0  0999 V2000     
   22.2407   16.9034   22.2409 C   0  0  0  0  0  0  0  0  0  0  0  0
   21.8483   15.7701   22.0451 O   0  5  0  0  0  0  0  0  0  0  0  0
   23.0266   17.1996   23.1191 O   0  0  0  0  0  0  0  0  0  0  0  0
   21.7347   18.0095   21.3189 C   0  0  0  0  0  0  0  0  0  0  0  0
   21.8066   17.6365   20.2904 H   0  0  0  0  0  0  0  0  0  0  0  0
   22.4146   18.8669   21.3937 H   0  0  0  0  0  0  0  0  0  0  0  0
   20.2773   18.4558   21.6062 C   0  0  0  0  0  0  0  0  0  0  0  0
   19.9564   19.1334   20.8048 H   0  0  0  0  0  0  0  0  0  0  0  0
   19.6142   17.5806   21.5668 H   0  0  0  0  0  0  0  0  0  0  0  0
   20.1317   19.1632   22.9748 C   0  0  0  0  0  0  0  0  0  0  0  0
   20.7665   20.0595   22.9979 H   0  0  0  0  0  0  0  0  0  0  0  0
   20.5053   18.4989   23.7661 H   0  0  0  0  0  0  0  0  0  0  0  0
   18.6740   19.5523   23.3131 C   0  0  0  0  0  0  0  0  0  0  0  0
   18.0369   18.6573   23.2929 H   0  0  0  0  0  0  0  0  0  0  0  0
   18.6414   19.9330   24.3432 H   0  0  0  0  0  0  0  0  0  0  0  0
   18.0920   20.6262   22.3686 C   0  0  0  0  0  0  0  0  0  0  0  0
   17.9948   20.2483   21.3432 H   0  0  0  0  0  0  0  0  0  0  0  0
   17.0932   20.9324   22.7053 H   0  0  0  0  0  0  0  0  0  0  0  0
   18.7303   21.5192   22.3483 H   0  0  0  0  0  0  0  0  0  0  0  0
  1  2  1  0  0  0  0
  1  3  2  0  0  0  0
  1  4  1  0  0  0  0
  4  5  1  0  0  0  0
  4  6  1  0  0  0  0
  4  7  1  0  0  0  0
  7  8  1  0  0  0  0
  7  9  1  0  0  0  0
  7 10  1  0  0  0  0
 10 11  1  0  0  0  0
 10 12  1  0  0  0  0
 10 13  1  0  0  0  0
 13 14  1  0  0  0  0
 13 15  1  0  0  0  0
 13 16  1  0  0  0  0
 16 17  1  0  0  0  0
 16 18  1  0  0  0  0
 16 19  1  0  0  0  0
M  END
> <VConfSearch Rank>
579

> <Conf_Id>
74

> <Delta U+W>
0.797

> <U+W>
-54.095

> <U>
8.869

> <W>
-62.964

> <W(PB)>
-65.046

> <W(SA)>
2.082

> <Valence>
7.469

> <Coulomb>
0.762

> <VdW>
0.639

> <VdW6>
-6.782

> <VdW12>
7.421

> <Bond>
0.141

> <Angle>
2.667

> <Pdih>
4.660

> <Idih>
0.001

> <Tether>
0.000

$$$$
VeraChem MOL file


 19 18  0  0  0  0  0  0  0  0999 V2000     
   20.2856   19.7037   19.4906 C   0  0  0  0  0  0  0  0  0  0  0  0
   21.2970   19.7926   18.8232 O   0  5  0  0  0  0  0  0  0  0  0  0
   19.1790   19.5417   19.0156 O   0  0  0  0  0  0  0  0  0  0  0  0
   20.4150   19.7807   21.0077 C   0  0  0  0  0  0  0  0  0  0  0  0
   19.5040   20.2494   21.3970 H   0  0  0  0  0  0  0  0  0  0  0  0
   21.2522   20.4479   21.2452 H   0  0  0  0  0  0  0  0  0  0  0  0
   20.6346   18.3926   21.6631 C   0  0  0  0  0  0  0  0  0  0  0  0
   19.7731   17.7458   21.4508 H   0  0  0  0  0  0  0  0  0  0  0  0
   21.5002   17.9113   21.1873 H   0  0  0  0  0  0  0  0  0  0  0  0
   20.8869   18.4618   23.1903 C   0  0  0  0  0  0  0  0  0  0  0  0
   21.8106   19.0277   23.3730 H   0  0  0  0  0  0  0  0  0  0  0  0
   21.0754   17.4456   23.5628 H   0  0  0  0  0  0  0  0  0  0  0  0
   19.7429   19.0946   24.0201 C   0  0  0  0  0  0  0  0  0  0  0  0
   20.0410   19.1020   25.0775 H   0  0  0  0  0  0  0  0  0  0  0  0
   19.6058   20.1465   23.7367 H   0  0  0  0  0  0  0  0  0  0  0  0
   18.4022   18.3407   23.8877 C   0  0  0  0  0  0  0  0  0  0  0  0
   18.5208   17.2800   24.1446 H   0  0  0  0  0  0  0  0  0  0  0  0
   17.6513   18.7708   24.5629 H   0  0  0  0  0  0  0  0  0  0  0  0
   18.0072   18.4062   22.8660 H   0  0  0  0  0  0  0  0  0  0  0  0
  1  2  1  0  0  0  0
  1  3  2  0  0  0  0
  1  4  1  0  0  0  0
  4  5  1  0  0  0  0
  4  6  1  0  0  0  0
  4  7  1  0  0  0  0
  7  8  1  0  0  0  0
  7  9  1  0  0  0  0
  7 10  1  0  0  0  0
 10 11  1  0  0  0  0
 10 12  1  0  0  0  0
 10 13  1  0  0  0  0
 13 14  1  0  0  0  0
 13 15  1  0  0  0  0
 13 16  1  0  0  0  0
 16 17  1  0  0  0  0
 16 18  1  0  0  0  0
 16 19  1  0  0  0  0
M  END
> <VConfSearch Rank>
580

> <Conf_Id>
67

> <Delta U+W>
0.308

> <U+W>
-54.583

> <U>
8.219

> <W>
-62.802

> <W(PB)>
-64.859

> <W(SA)>
2.057

> <Valence>
7.609

> <Coulomb>
-0.089

> <VdW>
0.699

> <VdW6>
-6.924

> <VdW12>
7.623

> <Bond>
0.163

> <Angle>
2.870

> <Pdih>
4.576

> <Idih>
0.001

> <Tether>
0.000

$$$$
VeraChem MOL file


 19 18  0  0  0  0  0  0  0  0999 V2000     
   21.8248   16.6511   22.1941 C   0  0  0  0  0  0  0  0  0  0  0  0
   22.8972   16.5545   21.6311 O   0  5  0  0  0  0  0  0  0  0  0  0
   21.1340   15.6971   22.4925 O   0  0  0  0  0  0  0  0  0  0  0  0
   21.3094   18.0469   22.5265 C   0  0  0  0  0  0  0  0  0  0  0  0
   22.1735   18.6891   22.7343 H   0  0  0  0  0  0  0  0  0  0  0  0
   20.7260   17.9757   23.4516 H   0  0  0  0  0  0  0  0  0  0  0  0
   20.4509   18.6570   21.3884 C   0  0  0  0  0  0  0  0  0  0  0  0
   21.0314   18.6300   20.4559 H   0  0  0  0  0  0  0  0  0  0  0  0
   19.5690   18.0262   21.2150 H   0  0  0  0  0  0  0  0  0  0  0  0
   20.0167   20.1200   21.6564 C   0  0  0  0  0  0  0  0  0  0  0  0
   19.4545   20.4858   20.7864 H   0  0  0  0  0  0  0  0  0  0  0  0
   20.9137   20.7505   21.7246 H   0  0  0  0  0  0  0  0  0  0  0  0
   19.1613   20.3316   22.9297 C   0  0  0  0  0  0  0  0  0  0  0  0
   19.7417   20.0703   23.8244 H   0  0  0  0  0  0  0  0  0  0  0  0
   18.9291   21.4016   23.0209 H   0  0  0  0  0  0  0  0  0  0  0  0
   17.8382   19.5361   22.9168 C   0  0  0  0  0  0  0  0  0  0  0  0
   18.0230   18.4547   22.9423 H   0  0  0  0  0  0  0  0  0  0  0  0
   17.2286   19.7902   23.7935 H   0  0  0  0  0  0  0  0  0  0  0  0
   17.2510   19.7649   22.0180 H   0  0  0  0  0  0  0  0  0  0  0  0
  1  2  1  0  0  0  0
  1  3  2  0  0  0  0
  1  4  1  0  0  0  0
  4  5  1  0  0  0  0
  4  6  1  0  0  0  0
  4  7  1  0  0  0  0
  7  8  1  0  0  0  0
  7  9  1  0  0  0  0
  7 10  1  0  0  0  0
 10 11  1  0  0  0  0
 10 12  1  0  0  0  0
 10 13  1  0  0  0  0
 13 14  1  0  0  0  0
 13 15  1  0  0  0  0
 13 16  1  0  0  0  0
 16 17  1  0  0  0  0
 16 18  1  0  0  0  0
 16 19  1  0  0  0  0
M  END
> <VConfSearch Rank>
581

> <Conf_Id>
21

> <Delta U+W>
0.319

> <U+W>
-54.572

> <U>
8.220

> <W>
-62.792

> <W(PB)>
-64.830

> <W(SA)>
2.038

> <Valence>
7.609

> <Coulomb>
-0.088

> <VdW>
0.699

> <VdW6>
-6.924

> <VdW12>
7.623

> <Bond>
0.163

> <Angle>
2.870

> <Pdih>
4.576

> <Idih>
0.000

> <Tether>
0.000

$$$$
VeraChem MOL file


 19 18  0  0  0  0  0  0  0  0999 V2000     
   20.6447   19.8052   24.9965 C   0  0  0  0  0  0  0  0  0  0  0  0
   21.7241   20.0135   25.5141 O   0  5  0  0  0  0  0  0  0  0  0  0
   19.6053   20.2979   25.3878 O   0  0  0  0  0  0  0  0  0  0  0  0
   20.5951   18.8900   23.7783 C   0  0  0  0  0  0  0  0  0  0  0  0
   19.6324   18.3695   23.7884 H   0  0  0  0  0  0  0  0  0  0  0  0
   21.3723   18.1256   23.8977 H   0  0  0  0  0  0  0  0  0  0  0  0
   20.8024   19.6542   22.4439 C   0  0  0  0  0  0  0  0  0  0  0  0
   20.0603   20.4590   22.3496 H   0  0  0  0  0  0  0  0  0  0  0  0
   21.7837   20.1467   22.4859 H   0  0  0  0  0  0  0  0  0  0  0  0
   20.7611   18.7373   21.1951 C   0  0  0  0  0  0  0  0  0  0  0  0
   21.1115   17.7282   21.4517 H   0  0  0  0  0  0  0  0  0  0  0  0
   21.4815   19.1261   20.4623 H   0  0  0  0  0  0  0  0  0  0  0  0
   19.3819   18.6598   20.4953 C   0  0  0  0  0  0  0  0  0  0  0  0
   19.0808   19.6628   20.1628 H   0  0  0  0  0  0  0  0  0  0  0  0
   19.4869   18.0533   19.5852 H   0  0  0  0  0  0  0  0  0  0  0  0
   18.2632   18.0527   21.3668 C   0  0  0  0  0  0  0  0  0  0  0  0
   17.3518   17.9056   20.7730 H   0  0  0  0  0  0  0  0  0  0  0  0
   18.5642   17.0783   21.7727 H   0  0  0  0  0  0  0  0  0  0  0  0
   18.0086   18.7167   22.2024 H   0  0  0  0  0  0  0  0  0  0  0  0
  1  2  1  0  0  0  0
  1  3  2  0  0  0  0
  1  4  1  0  0  0  0
  4  5  1  0  0  0  0
  4  6  1  0  0  0  0
  4  7  1  0  0  0  0
  7  8  1  0  0  0  0
  7  9  1  0  0  0  0
  7 10  1  0  0  0  0
 10 11  1  0  0  0  0
 10 12  1  0  0  0  0
 10 13  1  0  0  0  0
 13 14  1  0  0  0  0
 13 15  1  0  0  0  0
 13 16  1  0  0  0  0
 16 17  1  0  0  0  0
 16 18  1  0  0  0  0
 16 19  1  0  0  0  0
M  END
> <VConfSearch Rank>
582

> <Conf_Id>
24

> <Delta U+W>
2.477

> <U+W>
-52.414

> <U>
10.422

> <W>
-62.836

> <W(PB)>
-64.906

> <W(SA)>
2.070

> <Valence>
9.628

> <Coulomb>
0.101

> <VdW>
0.693

> <VdW6>
-6.927

> <VdW12>
7.620

> <Bond>
0.173

> <Angle>
2.989

> <Pdih>
6.465

> <Idih>
0.001

> <Tether>
0.000

$$$$
VeraChem MOL file


 19 18  0  0  0  0  0  0  0  0999 V2000     
   17.3039   18.5992   22.4677 C   0  0  0  0  0  0  0  0  0  0  0  0
   16.9727   19.7613   22.5965 O   0  5  0  0  0  0  0  0  0  0  0  0
   16.6264   17.7683   21.8953 O   0  0  0  0  0  0  0  0  0  0  0  0
   18.6272   18.1495   23.0815 C   0  0  0  0  0  0  0  0  0  0  0  0
   18.4252   17.2352   23.6516 H   0  0  0  0  0  0  0  0  0  0  0  0
   18.9468   18.9059   23.8054 H   0  0  0  0  0  0  0  0  0  0  0  0
   19.7438   17.8678   22.0381 C   0  0  0  0  0  0  0  0  0  0  0  0
   20.5870   17.3587   22.5239 H   0  0  0  0  0  0  0  0  0  0  0  0
   19.3471   17.1572   21.2997 H   0  0  0  0  0  0  0  0  0  0  0  0
   20.2522   19.1299   21.2937 C   0  0  0  0  0  0  0  0  0  0  0  0
   19.4507   19.8764   21.2098 H   0  0  0  0  0  0  0  0  0  0  0  0
   20.4987   18.8411   20.2629 H   0  0  0  0  0  0  0  0  0  0  0  0
   21.5163   19.7779   21.9103 C   0  0  0  0  0  0  0  0  0  0  0  0
   22.3412   19.0523   21.9089 H   0  0  0  0  0  0  0  0  0  0  0  0
   21.8342   20.6059   21.2619 H   0  0  0  0  0  0  0  0  0  0  0  0
   21.3138   20.3208   23.3400 C   0  0  0  0  0  0  0  0  0  0  0  0
   21.1606   19.5034   24.0553 H   0  0  0  0  0  0  0  0  0  0  0  0
   22.1979   20.8838   23.6657 H   0  0  0  0  0  0  0  0  0  0  0  0
   20.4470   20.9931   23.3865 H   0  0  0  0  0  0  0  0  0  0  0  0
  1  2  1  0  0  0  0
  1  3  2  0  0  0  0
  1  4  1  0  0  0  0
  4  5  1  0  0  0  0
  4  6  1  0  0  0  0
  4  7  1  0  0  0  0
  7  8  1  0  0  0  0
  7  9  1  0  0  0  0
  7 10  1  0  0  0  0
 10 11  1  0  0  0  0
 10 12  1  0  0  0  0
 10 13  1  0  0  0  0
 13 14  1  0  0  0  0
 13 15  1  0  0  0  0
 13 16  1  0  0  0  0
 16 17  1  0  0  0  0
 16 18  1  0  0  0  0
 16 19  1  0  0  0  0
M  END
> <VConfSearch Rank>
583

> <Conf_Id>
4

> <Delta U+W>
3.753

> <U+W>
-51.138

> <U>
12.334

> <W>
-63.472

> <W(PB)>
-65.500

> <W(SA)>
2.028

> <Valence>
9.984

> <Coulomb>
1.767

> <VdW>
0.583

> <VdW6>
-7.767

> <VdW12>
8.349

> <Bond>
0.203

> <Angle>
3.191

> <Pdih>
6.589

> <Idih>
0.001

> <Tether>
0.000

$$$$
VeraChem MOL file


 19 18  0  0  0  0  0  0  0  0999 V2000     
   21.3007   18.4676   24.5863 C   0  0  0  0  0  0  0  0  0  0  0  0
   22.1994   19.1073   25.0965 O   0  5  0  0  0  0  0  0  0  0  0  0
   20.3958   17.9601   25.2190 O   0  0  0  0  0  0  0  0  0  0  0  0
   21.3289   18.2684   23.0731 C   0  0  0  0  0  0  0  0  0  0  0  0
   20.6614   17.4382   22.8216 H   0  0  0  0  0  0  0  0  0  0  0  0
   22.3429   17.9471   22.8079 H   0  0  0  0  0  0  0  0  0  0  0  0
   20.9656   19.5429   22.2616 C   0  0  0  0  0  0  0  0  0  0  0  0
   21.6179   20.3593   22.6015 H   0  0  0  0  0  0  0  0  0  0  0  0
   21.2033   19.3887   21.2005 H   0  0  0  0  0  0  0  0  0  0  0  0
   19.4878   19.9906   22.4077 C   0  0  0  0  0  0  0  0  0  0  0  0
   19.4601   21.0884   22.3793 H   0  0  0  0  0  0  0  0  0  0  0  0
   19.0959   19.7087   23.3946 H   0  0  0  0  0  0  0  0  0  0  0  0
   18.5430   19.4723   21.2957 C   0  0  0  0  0  0  0  0  0  0  0  0
   17.5489   19.9138   21.4501 H   0  0  0  0  0  0  0  0  0  0  0  0
   18.8909   19.8332   20.3179 H   0  0  0  0  0  0  0  0  0  0  0  0
   18.3999   17.9369   21.2539 C   0  0  0  0  0  0  0  0  0  0  0  0
   18.1248   17.5404   22.2401 H   0  0  0  0  0  0  0  0  0  0  0  0
   17.6193   17.6433   20.5403 H   0  0  0  0  0  0  0  0  0  0  0  0
   19.3353   17.4611   20.9346 H   0  0  0  0  0  0  0  0  0  0  0  0
  1  2  1  0  0  0  0
  1  3  2  0  0  0  0
  1  4  1  0  0  0  0
  4  5  1  0  0  0  0
  4  6  1  0  0  0  0
  4  7  1  0  0  0  0
  7  8  1  0  0  0  0
  7  9  1  0  0  0  0
  7 10  1  0  0  0  0
 10 11  1  0  0  0  0
 10 12  1  0  0  0  0
 10 13  1  0  0  0  0
 13 14  1  0  0  0  0
 13 15  1  0  0  0  0
 13 16  1  0  0  0  0
 16 17  1  0  0  0  0
 16 18  1  0  0  0  0
 16 19  1  0  0  0  0
M  END
> <VConfSearch Rank>
584

> <Conf_Id>
73

> <Delta U+W>
3.707

> <U+W>
-51.184

> <U>
12.334

> <W>
-63.519

> <W(PB)>
-65.541

> <W(SA)>
2.022

> <Valence>
9.984

> <Coulomb>
1.768

> <VdW>
0.583

> <VdW6>
-7.767

> <VdW12>
8.350

> <Bond>
0.203

> <Angle>
3.192

> <Pdih>
6.589

> <Idih>
0.001

> <Tether>
0.000

$$$$
VeraChem MOL file


 19 18  0  0  0  0  0  0  0  0999 V2000     
   18.2187   17.1822   21.5863 C   0  0  0  0  0  0  0  0  0  0  0  0
   18.4710   17.2774   20.4014 O   0  5  0  0  0  0  0  0  0  0  0  0
   17.9309   16.1334   22.1290 O   0  0  0  0  0  0  0  0  0  0  0  0
   18.2316   18.4509   22.4345 C   0  0  0  0  0  0  0  0  0  0  0  0
   17.2876   18.4812   22.9909 H   0  0  0  0  0  0  0  0  0  0  0  0
   18.2264   19.3204   21.7671 H   0  0  0  0  0  0  0  0  0  0  0  0
   19.4189   18.5358   23.4322 C   0  0  0  0  0  0  0  0  0  0  0  0
   19.3094   19.4373   24.0487 H   0  0  0  0  0  0  0  0  0  0  0  0
   19.3561   17.6865   24.1264 H   0  0  0  0  0  0  0  0  0  0  0  0
   20.8183   18.5277   22.7647 C   0  0  0  0  0  0  0  0  0  0  0  0
   20.9644   17.5678   22.2504 H   0  0  0  0  0  0  0  0  0  0  0  0
   21.5841   18.5680   23.5511 H   0  0  0  0  0  0  0  0  0  0  0  0
   21.0748   19.6747   21.7568 C   0  0  0  0  0  0  0  0  0  0  0  0
   22.0842   19.5545   21.3402 H   0  0  0  0  0  0  0  0  0  0  0  0
   20.3847   19.5909   20.9064 H   0  0  0  0  0  0  0  0  0  0  0  0
   20.9611   21.0798   22.3865 C   0  0  0  0  0  0  0  0  0  0  0  0
   19.9352   21.2874   22.7156 H   0  0  0  0  0  0  0  0  0  0  0  0
   21.6281   21.1770   23.2529 H   0  0  0  0  0  0  0  0  0  0  0  0
   21.2390   21.8512   21.6568 H   0  0  0  0  0  0  0  0  0  0  0  0
  1  2  1  0  0  0  0
  1  3  2  0  0  0  0
  1  4  1  0  0  0  0
  4  5  1  0  0  0  0
  4  6  1  0  0  0  0
  4  7  1  0  0  0  0
  7  8  1  0  0  0  0
  7  9  1  0  0  0  0
  7 10  1  0  0  0  0
 10 11  1  0  0  0  0
 10 12  1  0  0  0  0
 10 13  1  0  0  0  0
 13 14  1  0  0  0  0
 13 15  1  0  0  0  0
 13 16  1  0  0  0  0
 16 17  1  0  0  0  0
 16 18  1  0  0  0  0
 16 19  1  0  0  0  0
M  END
> <VConfSearch Rank>
585

> <Conf_Id>
56

> <Delta U+W>
1.735

> <U+W>
-53.156

> <U>
10.214

> <W>
-63.370

> <W(PB)>
-65.388

> <W(SA)>
2.018

> <Valence>
7.868

> <Coulomb>
1.968

> <VdW>
0.378

> <VdW6>
-8.067

> <VdW12>
8.445

> <Bond>
0.191

> <Angle>
3.117

> <Pdih>
4.559

> <Idih>
0.001

> <Tether>
0.000

$$$$
VeraChem MOL file


 19 18  0  0  0  0  0  0  0  0999 V2000     
   18.9843   16.3263   23.1802 C   0  0  0  0  0  0  0  0  0  0  0  0
   18.0272   16.1910   23.9166 O   0  5  0  0  0  0  0  0  0  0  0  0
   19.7508   15.4255   22.9021 O   0  0  0  0  0  0  0  0  0  0  0  0
   19.2498   17.7068   22.5904 C   0  0  0  0  0  0  0  0  0  0  0  0
   18.2858   18.2118   22.4558 H   0  0  0  0  0  0  0  0  0  0  0  0
   19.6895   17.5638   21.5971 H   0  0  0  0  0  0  0  0  0  0  0  0
   20.1871   18.5677   23.4744 C   0  0  0  0  0  0  0  0  0  0  0  0
   19.7937   18.5750   24.5004 H   0  0  0  0  0  0  0  0  0  0  0  0
   21.1746   18.0889   23.5274 H   0  0  0  0  0  0  0  0  0  0  0  0
   20.3449   20.0339   22.9992 C   0  0  0  0  0  0  0  0  0  0  0  0
   20.9828   20.5506   23.7293 H   0  0  0  0  0  0  0  0  0  0  0  0
   19.3748   20.5483   23.0339 H   0  0  0  0  0  0  0  0  0  0  0  0
   20.9876   20.1947   21.5991 C   0  0  0  0  0  0  0  0  0  0  0  0
   21.6193   21.0937   21.6046 H   0  0  0  0  0  0  0  0  0  0  0  0
   21.6592   19.3509   21.3887 H   0  0  0  0  0  0  0  0  0  0  0  0
   19.9495   20.3492   20.4655 C   0  0  0  0  0  0  0  0  0  0  0  0
   20.4536   20.4772   19.4989 H   0  0  0  0  0  0  0  0  0  0  0  0
   19.2952   19.4736   20.3877 H   0  0  0  0  0  0  0  0  0  0  0  0
   19.3171   21.2307   20.6331 H   0  0  0  0  0  0  0  0  0  0  0  0
  1  2  1  0  0  0  0
  1  3  2  0  0  0  0
  1  4  1  0  0  0  0
  4  5  1  0  0  0  0
  4  6  1  0  0  0  0
  4  7  1  0  0  0  0
  7  8  1  0  0  0  0
  7  9  1  0  0  0  0
  7 10  1  0  0  0  0
 10 11  1  0  0  0  0
 10 12  1  0  0  0  0
 10 13  1  0  0  0  0
 13 14  1  0  0  0  0
 13 15  1  0  0  0  0
 13 16  1  0  0  0  0
 16 17  1  0  0  0  0
 16 18  1  0  0  0  0
 16 19  1  0  0  0  0
M  END
> <VConfSearch Rank>
586

> <Conf_Id>
53

> <Delta U+W>
2.279

> <U+W>
-52.612

> <U>
10.231

> <W>
-62.843

> <W(PB)>
-64.893

> <W(SA)>
2.050

> <Valence>
9.644

> <Coulomb>
-0.164

> <VdW>
0.751

> <VdW6>
-6.881

> <VdW12>
7.631

> <Bond>
0.163

> <Angle>
2.998

> <Pdih>
6.482

> <Idih>
0.001

> <Tether>
0.000

$$$$
VeraChem MOL file


 19 18  0  0  0  0  0  0  0  0999 V2000     
   20.6356   21.2519   22.1399 C   0  0  0  0  0  0  0  0  0  0  0  0
   21.3081   21.2514   21.1276 O   0  5  0  0  0  0  0  0  0  0  0  0
   21.0078   21.7361   23.1908 O   0  0  0  0  0  0  0  0  0  0  0  0
   19.2225   20.6765   22.0662 C   0  0  0  0  0  0  0  0  0  0  0  0
   19.0289   20.3358   21.0418 H   0  0  0  0  0  0  0  0  0  0  0  0
   18.5389   21.5128   22.2527 H   0  0  0  0  0  0  0  0  0  0  0  0
   18.9156   19.5376   23.0791 C   0  0  0  0  0  0  0  0  0  0  0  0
   19.3030   19.8049   24.0721 H   0  0  0  0  0  0  0  0  0  0  0  0
   17.8251   19.4671   23.1894 H   0  0  0  0  0  0  0  0  0  0  0  0
   19.4384   18.1402   22.6634 C   0  0  0  0  0  0  0  0  0  0  0  0
   19.0418   17.8763   21.6735 H   0  0  0  0  0  0  0  0  0  0  0  0
   19.0318   17.4000   23.3660 H   0  0  0  0  0  0  0  0  0  0  0  0
   20.9783   18.0209   22.6542 C   0  0  0  0  0  0  0  0  0  0  0  0
   21.4007   18.6562   21.8654 H   0  0  0  0  0  0  0  0  0  0  0  0
   21.3855   18.3804   23.6094 H   0  0  0  0  0  0  0  0  0  0  0  0
   21.4313   16.5661   22.4172 C   0  0  0  0  0  0  0  0  0  0  0  0
   21.0582   16.1911   21.4551 H   0  0  0  0  0  0  0  0  0  0  0  0
   22.5270   16.4999   22.4050 H   0  0  0  0  0  0  0  0  0  0  0  0
   21.0609   15.9041   23.2108 H   0  0  0  0  0  0  0  0  0  0  0  0
  1  2  1  0  0  0  0
  1  3  2  0  0  0  0
  1  4  1  0  0  0  0
  4  5  1  0  0  0  0
  4  6  1  0  0  0  0
  4  7  1  0  0  0  0
  7  8  1  0  0  0  0
  7  9  1  0  0  0  0
  7 10  1  0  0  0  0
 10 11  1  0  0  0  0
 10 12  1  0  0  0  0
 10 13  1  0  0  0  0
 13 14  1  0  0  0  0
 13 15  1  0  0  0  0
 13 16  1  0  0  0  0
 16 17  1  0  0  0  0
 16 18  1  0  0  0  0
 16 19  1  0  0  0  0
M  END
> <VConfSearch Rank>
587

> <Conf_Id>
25

> <Delta U+W>
2.065

> <U+W>
-52.826

> <U>
10.967

> <W>
-63.794

> <W(PB)>
-65.830

> <W(SA)>
2.036

> <Valence>
8.609

> <Coulomb>
1.892

> <VdW>
0.467

> <VdW6>
-7.569

> <VdW12>
8.036

> <Bond>
0.170

> <Angle>
3.195

> <Pdih>
5.237

> <Idih>
0.007

> <Tether>
0.000

$$$$
VeraChem MOL file


 19 18  0  0  0  0  0  0  0  0999 V2000     
   20.0472   18.1089   20.2010 C   0  0  0  0  0  0  0  0  0  0  0  0
   19.6366   16.9652   20.1748 O   0  5  0  0  0  0  0  0  0  0  0  0
   21.1334   18.4404   19.7684 O   0  0  0  0  0  0  0  0  0  0  0  0
   19.1237   19.1991   20.7414 C   0  0  0  0  0  0  0  0  0  0  0  0
   18.2533   19.2239   20.0754 H   0  0  0  0  0  0  0  0  0  0  0  0
   19.6224   20.1708   20.6419 H   0  0  0  0  0  0  0  0  0  0  0  0
   18.6357   18.9918   22.2029 C   0  0  0  0  0  0  0  0  0  0  0  0
   17.7303   19.5968   22.3468 H   0  0  0  0  0  0  0  0  0  0  0  0
   18.3276   17.9474   22.3505 H   0  0  0  0  0  0  0  0  0  0  0  0
   19.6559   19.4038   23.2930 C   0  0  0  0  0  0  0  0  0  0  0  0
   19.1503   19.3628   24.2676 H   0  0  0  0  0  0  0  0  0  0  0  0
   19.9539   20.4506   23.1439 H   0  0  0  0  0  0  0  0  0  0  0  0
   20.9135   18.5090   23.3493 C   0  0  0  0  0  0  0  0  0  0  0  0
   20.6167   17.4520   23.3966 H   0  0  0  0  0  0  0  0  0  0  0  0
   21.5071   18.6354   22.4349 H   0  0  0  0  0  0  0  0  0  0  0  0
   21.7963   18.8502   24.5667 C   0  0  0  0  0  0  0  0  0  0  0  0
   22.6892   18.2119   24.5873 H   0  0  0  0  0  0  0  0  0  0  0  0
   22.1280   19.8962   24.5296 H   0  0  0  0  0  0  0  0  0  0  0  0
   21.2485   18.6967   25.5056 H   0  0  0  0  0  0  0  0  0  0  0  0
  1  2  1  0  0  0  0
  1  3  2  0  0  0  0
  1  4  1  0  0  0  0
  4  5  1  0  0  0  0
  4  6  1  0  0  0  0
  4  7  1  0  0  0  0
  7  8  1  0  0  0  0
  7  9  1  0  0  0  0
  7 10  1  0  0  0  0
 10 11  1  0  0  0  0
 10 12  1  0  0  0  0
 10 13  1  0  0  0  0
 13 14  1  0  0  0  0
 13 15  1  0  0  0  0
 13 16  1  0  0  0  0
 16 17  1  0  0  0  0
 16 18  1  0  0  0  0
 16 19  1  0  0  0  0
M  END
> <VConfSearch Rank>
588

> <Conf_Id>
52

> <Delta U+W>
2.070

> <U+W>
-52.822

> <U>
10.967

> <W>
-63.789

> <W(PB)>
-65.837

> <W(SA)>
2.048

> <Valence>
8.609

> <Coulomb>
1.892

> <VdW>
0.467

> <VdW6>
-7.569

> <VdW12>
8.035

> <Bond>
0.170

> <Angle>
3.196

> <Pdih>
5.237

> <Idih>
0.007

> <Tether>
0.000

$$$$
VeraChem MOL file


 19 18  0  0  0  0  0  0  0  0999 V2000     
   19.1480   16.8580   22.4339 C   0  0  0  0  0  0  0  0  0  0  0  0
   18.1605   16.8617   21.7247 O   0  5  0  0  0  0  0  0  0  0  0  0
   20.1017   16.1298   22.2423 O   0  0  0  0  0  0  0  0  0  0  0  0
   19.1455   17.7153   23.7006 C   0  0  0  0  0  0  0  0  0  0  0  0
   20.1525   17.7144   24.1348 H   0  0  0  0  0  0  0  0  0  0  0  0
   18.4968   17.1966   24.4158 H   0  0  0  0  0  0  0  0  0  0  0  0
   18.6362   19.1748   23.5280 C   0  0  0  0  0  0  0  0  0  0  0  0
   17.7623   19.1914   22.8621 H   0  0  0  0  0  0  0  0  0  0  0  0
   18.2724   19.5226   24.5043 H   0  0  0  0  0  0  0  0  0  0  0  0
   19.6947   20.1947   23.0354 C   0  0  0  0  0  0  0  0  0  0  0  0
   20.5234   20.2523   23.7544 H   0  0  0  0  0  0  0  0  0  0  0  0
   19.2250   21.1878   23.0456 H   0  0  0  0  0  0  0  0  0  0  0  0
   20.2374   19.9368   21.6089 C   0  0  0  0  0  0  0  0  0  0  0  0
   19.5258   19.3313   21.0307 H   0  0  0  0  0  0  0  0  0  0  0  0
   20.3183   20.8972   21.0813 H   0  0  0  0  0  0  0  0  0  0  0  0
   21.6305   19.2716   21.6109 C   0  0  0  0  0  0  0  0  0  0  0  0
   22.3715   19.9167   22.1005 H   0  0  0  0  0  0  0  0  0  0  0  0
   21.6163   18.3111   22.1390 H   0  0  0  0  0  0  0  0  0  0  0  0
   21.9701   19.0859   20.5839 H   0  0  0  0  0  0  0  0  0  0  0  0
  1  2  1  0  0  0  0
  1  3  2  0  0  0  0
  1  4  1  0  0  0  0
  4  5  1  0  0  0  0
  4  6  1  0  0  0  0
  4  7  1  0  0  0  0
  7  8  1  0  0  0  0
  7  9  1  0  0  0  0
  7 10  1  0  0  0  0
 10 11  1  0  0  0  0
 10 12  1  0  0  0  0
 10 13  1  0  0  0  0
 13 14  1  0  0  0  0
 13 15  1  0  0  0  0
 13 16  1  0  0  0  0
 16 17  1  0  0  0  0
 16 18  1  0  0  0  0
 16 19  1  0  0  0  0
M  END
> <VConfSearch Rank>
589

> <Conf_Id>
66

> <Delta U+W>
5.819

> <U+W>
-49.072

> <U>
15.324

> <W>
-64.396

> <W(PB)>
-66.382

> <W(SA)>
1.986

> <Valence>
11.748

> <Coulomb>
3.201

> <VdW>
0.375

> <VdW6>
-8.854

> <VdW12>
9.229

> <Bond>
0.216

> <Angle>
3.812

> <Pdih>
7.699

> <Idih>
0.022

> <Tether>
0.000

$$$$
VeraChem MOL file


 19 18  0  0  0  0  0  0  0  0999 V2000     
   22.5963   16.8537   22.9182 C   0  0  0  0  0  0  0  0  0  0  0  0
   22.9957   15.7189   22.7496 O   0  5  0  0  0  0  0  0  0  0  0  0
   23.2081   17.6834   23.5627 O   0  0  0  0  0  0  0  0  0  0  0  0
   21.2580   17.2253   22.2775 C   0  0  0  0  0  0  0  0  0  0  0  0
   20.5060   16.5262   22.6620 H   0  0  0  0  0  0  0  0  0  0  0  0
   21.3480   17.0394   21.2008 H   0  0  0  0  0  0  0  0  0  0  0  0
   20.7893   18.6847   22.5201 C   0  0  0  0  0  0  0  0  0  0  0  0
   20.7068   18.8662   23.6007 H   0  0  0  0  0  0  0  0  0  0  0  0
   21.5497   19.3799   22.1380 H   0  0  0  0  0  0  0  0  0  0  0  0
   19.4334   18.9729   21.8399 C   0  0  0  0  0  0  0  0  0  0  0  0
   18.6748   18.2767   22.2232 H   0  0  0  0  0  0  0  0  0  0  0  0
   19.5181   18.7907   20.7597 H   0  0  0  0  0  0  0  0  0  0  0  0
   18.9693   20.4242   22.0822 C   0  0  0  0  0  0  0  0  0  0  0  0
   18.8815   20.6098   23.1617 H   0  0  0  0  0  0  0  0  0  0  0  0
   19.7247   21.1238   21.6983 H   0  0  0  0  0  0  0  0  0  0  0  0
   17.6153   20.7083   21.4018 C   0  0  0  0  0  0  0  0  0  0  0  0
   16.8332   20.0429   21.7904 H   0  0  0  0  0  0  0  0  0  0  0  0
   17.3005   21.7440   21.5842 H   0  0  0  0  0  0  0  0  0  0  0  0
   17.6828   20.5607   20.3160 H   0  0  0  0  0  0  0  0  0  0  0  0
  1  2  1  0  0  0  0
  1  3  2  0  0  0  0
  1  4  1  0  0  0  0
  4  5  1  0  0  0  0
  4  6  1  0  0  0  0
  4  7  1  0  0  0  0
  7  8  1  0  0  0  0
  7  9  1  0  0  0  0
  7 10  1  0  0  0  0
 10 11  1  0  0  0  0
 10 12  1  0  0  0  0
 10 13  1  0  0  0  0
 13 14  1  0  0  0  0
 13 15  1  0  0  0  0
 13 16  1  0  0  0  0
 16 17  1  0  0  0  0
 16 18  1  0  0  0  0
 16 19  1  0  0  0  0
M  END
> <VConfSearch Rank>
590

> <Conf_Id>
0

> <Delta U+W>
0.000

> <U+W>
-54.891

> <U>
6.966

> <W>
-61.857

> <W(PB)>
-63.965

> <W(SA)>
2.108

> <Valence>
7.175

> <Coulomb>
-1.360

> <VdW>
1.151

> <VdW6>
-5.641

> <VdW12>
6.792

> <Bond>
0.119

> <Angle>
2.715

> <Pdih>
4.340

> <Idih>
0.000

> <Tether>
0.000

$$$$
VeraChem MOL file


 19 18  0  0  0  0  0  0  0  0999 V2000     
   21.0679   15.7562   21.8112 C   0  0  0  0  0  0  0  0  0  0  0  0
   21.3679   15.4338   20.6788 O   0  5  0  0  0  0  0  0  0  0  0  0
   21.5958   15.2957   22.8038 O   0  0  0  0  0  0  0  0  0  0  0  0
   19.9834   16.8117   21.9961 C   0  0  0  0  0  0  0  0  0  0  0  0
   19.4495   16.5921   22.9286 H   0  0  0  0  0  0  0  0  0  0  0  0
   19.2619   16.7063   21.1770 H   0  0  0  0  0  0  0  0  0  0  0  0
   20.5463   18.2539   22.0299 C   0  0  0  0  0  0  0  0  0  0  0  0
   21.2762   18.3395   22.8469 H   0  0  0  0  0  0  0  0  0  0  0  0
   21.0887   18.4537   21.0953 H   0  0  0  0  0  0  0  0  0  0  0  0
   19.4290   19.3027   22.2178 C   0  0  0  0  0  0  0  0  0  0  0  0
   18.8879   19.0995   23.1521 H   0  0  0  0  0  0  0  0  0  0  0  0
   18.7005   19.2138   21.4002 H   0  0  0  0  0  0  0  0  0  0  0  0
   19.9927   20.7385   22.2511 C   0  0  0  0  0  0  0  0  0  0  0  0
   20.7206   20.8320   23.0689 H   0  0  0  0  0  0  0  0  0  0  0  0
   20.5332   20.9463   21.3171 H   0  0  0  0  0  0  0  0  0  0  0  0
   18.8744   21.7831   22.4389 C   0  0  0  0  0  0  0  0  0  0  0  0
   19.2926   22.7978   22.4603 H   0  0  0  0  0  0  0  0  0  0  0  0
   18.1482   21.7331   21.6170 H   0  0  0  0  0  0  0  0  0  0  0  0
   18.3370   21.6179   23.3819 H   0  0  0  0  0  0  0  0  0  0  0  0
  1  2  1  0  0  0  0
  1  3  2  0  0  0  0
  1  4  1  0  0  0  0
  4  5  1  0  0  0  0
  4  6  1  0  0  0  0
  4  7  1  0  0  0  0
  7  8  1  0  0  0  0
  7  9  1  0  0  0  0
  7 10  1  0  0  0  0
 10 11  1  0  0  0  0
 10 12  1  0  0  0  0
 10 13  1  0  0  0  0
 13 14  1  0  0  0  0
 13 15  1  0  0  0  0
 13 16  1  0  0  0  0
 16 17  1  0  0  0  0
 16 18  1  0  0  0  0
 16 19  1  0  0  0  0
M  END
> <VConfSearch Rank>
591

> <Conf_Id>
18

> <Delta U+W>
-1.199

> <U+W>
-56.090

> <U>
5.975

> <W>
-62.066

> <W(PB)>
-64.219

> <W(SA)>
2.153

> <Valence>
6.673

> <Coulomb>
-1.307

> <VdW>
0.610

> <VdW6>
-5.351

> <VdW12>
5.961

> <Bond>
0.086

> <Angle>
2.253

> <Pdih>
4.333

> <Idih>
0.001

> <Tether>
0.000

$$$$
VeraChem MOL file


 19 18  0  0  0  0  0  0  0  0999 V2000     
   17.0226   19.7623   23.1016 C   0  0  0  0  0  0  0  0  0  0  0  0
   16.7544   20.1789   24.2110 O   0  5  0  0  0  0  0  0  0  0  0  0
   16.3015   19.9113   22.1350 O   0  0  0  0  0  0  0  0  0  0  0  0
   18.3462   19.0311   22.9073 C   0  0  0  0  0  0  0  0  0  0  0  0
   18.1966   18.2711   22.1322 H   0  0  0  0  0  0  0  0  0  0  0  0
   18.5836   18.5038   23.8390 H   0  0  0  0  0  0  0  0  0  0  0  0
   19.5073   19.9841   22.5215 C   0  0  0  0  0  0  0  0  0  0  0  0
   19.2782   20.4731   21.5646 H   0  0  0  0  0  0  0  0  0  0  0  0
   19.5702   20.7846   23.2716 H   0  0  0  0  0  0  0  0  0  0  0  0
   20.8816   19.2792   22.4327 C   0  0  0  0  0  0  0  0  0  0  0  0
   21.1116   18.7985   23.3935 H   0  0  0  0  0  0  0  0  0  0  0  0
   21.6555   20.0427   22.2742 H   0  0  0  0  0  0  0  0  0  0  0  0
   20.9649   18.2364   21.2956 C   0  0  0  0  0  0  0  0  0  0  0  0
   20.2501   17.4226   21.4749 H   0  0  0  0  0  0  0  0  0  0  0  0
   20.6854   18.7048   20.3418 H   0  0  0  0  0  0  0  0  0  0  0  0
   22.3824   17.6413   21.1775 C   0  0  0  0  0  0  0  0  0  0  0  0
   22.4247   16.9008   20.3682 H   0  0  0  0  0  0  0  0  0  0  0  0
   23.1206   18.4241   20.9593 H   0  0  0  0  0  0  0  0  0  0  0  0
   22.6772   17.1419   22.1098 H   0  0  0  0  0  0  0  0  0  0  0  0
  1  2  1  0  0  0  0
  1  3  2  0  0  0  0
  1  4  1  0  0  0  0
  4  5  1  0  0  0  0
  4  6  1  0  0  0  0
  4  7  1  0  0  0  0
  7  8  1  0  0  0  0
  7  9  1  0  0  0  0
  7 10  1  0  0  0  0
 10 11  1  0  0  0  0
 10 12  1  0  0  0  0
 10 13  1  0  0  0  0
 13 14  1  0  0  0  0
 13 15  1  0  0  0  0
 13 16  1  0  0  0  0
 16 17  1  0  0  0  0
 16 18  1  0  0  0  0
 16 19  1  0  0  0  0
M  END
> <VConfSearch Rank>
592

> <Conf_Id>
34

> <Delta U+W>
-0.563

> <U+W>
-55.455

> <U>
6.914

> <W>
-62.369

> <W(PB)>
-64.446

> <W(SA)>
2.077

> <Valence>
7.196

> <Coulomb>
-1.020

> <VdW>
0.738

> <VdW6>
-6.010

> <VdW12>
6.748

> <Bond>
0.126

> <Angle>
2.499

> <Pdih>
4.570

> <Idih>
0.001

> <Tether>
0.000

$$$$
VeraChem MOL file


 19 18  0  0  0  0  0  0  0  0999 V2000     
   18.7051   16.8197   20.1124 C   0  0  0  0  0  0  0  0  0  0  0  0
   19.3553   16.2189   19.2802 O   0  5  0  0  0  0  0  0  0  0  0  0
   17.4981   16.9479   20.0584 O   0  0  0  0  0  0  0  0  0  0  0  0
   19.4471   17.4669   21.2764 C   0  0  0  0  0  0  0  0  0  0  0  0
   20.3247   16.8505   21.5054 H   0  0  0  0  0  0  0  0  0  0  0  0
   18.7885   17.4332   22.1516 H   0  0  0  0  0  0  0  0  0  0  0  0
   19.8816   18.9248   20.9750 C   0  0  0  0  0  0  0  0  0  0  0  0
   20.4632   18.9336   20.0427 H   0  0  0  0  0  0  0  0  0  0  0  0
   18.9916   19.5424   20.7911 H   0  0  0  0  0  0  0  0  0  0  0  0
   20.7358   19.5597   22.0979 C   0  0  0  0  0  0  0  0  0  0  0  0
   21.0956   20.5381   21.7513 H   0  0  0  0  0  0  0  0  0  0  0  0
   21.6290   18.9445   22.2734 H   0  0  0  0  0  0  0  0  0  0  0  0
   19.9650   19.7490   23.4236 C   0  0  0  0  0  0  0  0  0  0  0  0
   19.0452   20.3209   23.2392 H   0  0  0  0  0  0  0  0  0  0  0  0
   19.6613   18.7744   23.8277 H   0  0  0  0  0  0  0  0  0  0  0  0
   20.8215   20.4825   24.4752 C   0  0  0  0  0  0  0  0  0  0  0  0
   21.7362   19.9180   24.6993 H   0  0  0  0  0  0  0  0  0  0  0  0
   21.1122   21.4796   24.1195 H   0  0  0  0  0  0  0  0  0  0  0  0
   20.2619   20.6067   25.4114 H   0  0  0  0  0  0  0  0  0  0  0  0
  1  2  1  0  0  0  0
  1  3  2  0  0  0  0
  1  4  1  0  0  0  0
  4  5  1  0  0  0  0
  4  6  1  0  0  0  0
  4  7  1  0  0  0  0
  7  8  1  0  0  0  0
  7  9  1  0  0  0  0
  7 10  1  0  0  0  0
 10 11  1  0  0  0  0
 10 12  1  0  0  0  0
 10 13  1  0  0  0  0
 13 14  1  0  0  0  0
 13 15  1  0  0  0  0
 13 16  1  0  0  0  0
 16 17  1  0  0  0  0
 16 18  1  0  0  0  0
 16 19  1  0  0  0  0
M  END
> <VConfSearch Rank>
593

> <Conf_Id>
33

> <Delta U+W>
-0.526

> <U+W>
-55.418

> <U>
6.914

> <W>
-62.332

> <W(PB)>
-64.421

> <W(SA)>
2.090

> <Valence>
7.196

> <Coulomb>
-1.020

> <VdW>
0.738

> <VdW6>
-6.010

> <VdW12>
6.748

> <Bond>
0.126

> <Angle>
2.499

> <Pdih>
4.570

> <Idih>
0.001

> <Tether>
0.000

$$$$
VeraChem MOL file


 19 18  0  0  0  0  0  0  0  0999 V2000     
   19.3532   15.8686   22.7010 C   0  0  0  0  0  0  0  0  0  0  0  0
   20.4075   15.2714   22.7905 O   0  5  0  0  0  0  0  0  0  0  0  0
   18.3563   15.5710   23.3285 O   0  0  0  0  0  0  0  0  0  0  0  0
   19.2822   17.0683   21.7627 C   0  0  0  0  0  0  0  0  0  0  0  0
   18.2649   17.1234   21.3568 H   0  0  0  0  0  0  0  0  0  0  0  0
   19.9582   16.8822   20.9194 H   0  0  0  0  0  0  0  0  0  0  0  0
   19.6531   18.4007   22.4597 C   0  0  0  0  0  0  0  0  0  0  0  0
   18.9739   18.5681   23.3070 H   0  0  0  0  0  0  0  0  0  0  0  0
   20.6665   18.3152   22.8735 H   0  0  0  0  0  0  0  0  0  0  0  0
   19.5760   19.5984   21.4849 C   0  0  0  0  0  0  0  0  0  0  0  0
   18.5773   19.6238   21.0279 H   0  0  0  0  0  0  0  0  0  0  0  0
   20.2909   19.4539   20.6632 H   0  0  0  0  0  0  0  0  0  0  0  0
   19.8393   20.9616   22.1654 C   0  0  0  0  0  0  0  0  0  0  0  0
   19.6503   21.7618   21.4366 H   0  0  0  0  0  0  0  0  0  0  0  0
   19.1225   21.1122   22.9845 H   0  0  0  0  0  0  0  0  0  0  0  0
   21.2796   21.1085   22.7020 C   0  0  0  0  0  0  0  0  0  0  0  0
   22.0152   20.9330   21.9062 H   0  0  0  0  0  0  0  0  0  0  0  0
   21.4414   22.1207   23.0945 H   0  0  0  0  0  0  0  0  0  0  0  0
   21.4778   20.4010   23.5168 H   0  0  0  0  0  0  0  0  0  0  0  0
  1  2  1  0  0  0  0
  1  3  2  0  0  0  0
  1  4  1  0  0  0  0
  4  5  1  0  0  0  0
  4  6  1  0  0  0  0
  4  7  1  0  0  0  0
  7  8  1  0  0  0  0
  7  9  1  0  0  0  0
  7 10  1  0  0  0  0
 10 11  1  0  0  0  0
 10 12  1  0  0  0  0
 10 13  1  0  0  0  0
 13 14  1  0  0  0  0
 13 15  1  0  0  0  0
 13 16  1  0  0  0  0
 16 17  1  0  0  0  0
 16 18  1  0  0  0  0
 16 19  1  0  0  0  0
M  END
> <VConfSearch Rank>
594

> <Conf_Id>
42

> <Delta U+W>
-0.344

> <U+W>
-55.236

> <U>
7.244

> <W>
-62.479

> <W(PB)>
-64.610

> <W(SA)>
2.130

> <Valence>
7.174

> <Coulomb>
-0.669

> <VdW>
0.739

> <VdW6>
-5.969

> <VdW12>
6.708

> <Bond>
0.116

> <Angle>
2.481

> <Pdih>
4.576

> <Idih>
0.000

> <Tether>
0.000

$$$$
VeraChem MOL file


 19 18  0  0  0  0  0  0  0  0999 V2000     
   20.4043   18.2825   25.3171 C   0  0  0  0  0  0  0  0  0  0  0  0
   19.8137   19.1096   25.9829 O   0  5  0  0  0  0  0  0  0  0  0  0
   21.4478   17.7633   25.6605 O   0  0  0  0  0  0  0  0  0  0  0  0
   19.8131   17.8878   23.9683 C   0  0  0  0  0  0  0  0  0  0  0  0
   18.7209   17.9529   24.0425 H   0  0  0  0  0  0  0  0  0  0  0  0
   20.0633   16.8365   23.7814 H   0  0  0  0  0  0  0  0  0  0  0  0
   20.3227   18.7739   22.8049 C   0  0  0  0  0  0  0  0  0  0  0  0
   20.0779   19.8219   23.0229 H   0  0  0  0  0  0  0  0  0  0  0  0
   21.4179   18.7054   22.7496 H   0  0  0  0  0  0  0  0  0  0  0  0
   19.7048   18.3540   21.4512 C   0  0  0  0  0  0  0  0  0  0  0  0
   18.6129   18.4695   21.4906 H   0  0  0  0  0  0  0  0  0  0  0  0
   19.8991   17.2855   21.2856 H   0  0  0  0  0  0  0  0  0  0  0  0
   20.2653   19.1472   20.2482 C   0  0  0  0  0  0  0  0  0  0  0  0
   21.3568   19.0296   20.2021 H   0  0  0  0  0  0  0  0  0  0  0  0
   19.8669   18.7109   19.3218 H   0  0  0  0  0  0  0  0  0  0  0  0
   19.9057   20.6482   20.2851 C   0  0  0  0  0  0  0  0  0  0  0  0
   20.3797   21.1531   21.1362 H   0  0  0  0  0  0  0  0  0  0  0  0
   20.2489   21.1476   19.3698 H   0  0  0  0  0  0  0  0  0  0  0  0
   18.8198   20.7904   20.3609 H   0  0  0  0  0  0  0  0  0  0  0  0
  1  2  1  0  0  0  0
  1  3  2  0  0  0  0
  1  4  1  0  0  0  0
  4  5  1  0  0  0  0
  4  6  1  0  0  0  0
  4  7  1  0  0  0  0
  7  8  1  0  0  0  0
  7  9  1  0  0  0  0
  7 10  1  0  0  0  0
 10 11  1  0  0  0  0
 10 12  1  0  0  0  0
 10 13  1  0  0  0  0
 13 14  1  0  0  0  0
 13 15  1  0  0  0  0
 13 16  1  0  0  0  0
 16 17  1  0  0  0  0
 16 18  1  0  0  0  0
 16 19  1  0  0  0  0
M  END
> <VConfSearch Rank>
595

> <Conf_Id>
41

> <Delta U+W>
-0.361

> <U+W>
-55.252

> <U>
7.244

> <W>
-62.496

> <W(PB)>
-64.596

> <W(SA)>
2.099

> <Valence>
7.174

> <Coulomb>
-0.669

> <VdW>
0.739

> <VdW6>
-5.969

> <VdW12>
6.708

> <Bond>
0.116

> <Angle>
2.481

> <Pdih>
4.576

> <Idih>
0.000

> <Tether>
0.000

$$$$
VeraChem MOL file


 19 18  0  0  0  0  0  0  0  0999 V2000     
   22.1339   19.3619   23.9988 C   0  0  0  0  0  0  0  0  0  0  0  0
   22.3673   18.2080   24.2996 O   0  5  0  0  0  0  0  0  0  0  0  0
   22.9683   20.1198   23.5449 O   0  0  0  0  0  0  0  0  0  0  0  0
   20.7223   19.8971   24.2230 C   0  0  0  0  0  0  0  0  0  0  0  0
   20.8157   20.8728   24.7143 H   0  0  0  0  0  0  0  0  0  0  0  0
   20.2045   19.2352   24.9278 H   0  0  0  0  0  0  0  0  0  0  0  0
   19.8909   20.0497   22.9228 C   0  0  0  0  0  0  0  0  0  0  0  0
   18.9508   20.5662   23.1596 H   0  0  0  0  0  0  0  0  0  0  0  0
   20.4352   20.6916   22.2161 H   0  0  0  0  0  0  0  0  0  0  0  0
   19.5725   18.6917   22.2581 C   0  0  0  0  0  0  0  0  0  0  0  0
   19.0401   18.0491   22.9726 H   0  0  0  0  0  0  0  0  0  0  0  0
   20.5086   18.1761   22.0025 H   0  0  0  0  0  0  0  0  0  0  0  0
   18.7187   18.8653   20.9847 C   0  0  0  0  0  0  0  0  0  0  0  0
   17.7791   19.3769   21.2350 H   0  0  0  0  0  0  0  0  0  0  0  0
   19.2501   19.5058   20.2672 H   0  0  0  0  0  0  0  0  0  0  0  0
   18.4027   17.5087   20.3239 C   0  0  0  0  0  0  0  0  0  0  0  0
   17.8434   16.8587   21.0095 H   0  0  0  0  0  0  0  0  0  0  0  0
   17.7957   17.6505   19.4203 H   0  0  0  0  0  0  0  0  0  0  0  0
   19.3253   16.9885   20.0345 H   0  0  0  0  0  0  0  0  0  0  0  0
  1  2  1  0  0  0  0
  1  3  2  0  0  0  0
  1  4  1  0  0  0  0
  4  5  1  0  0  0  0
  4  6  1  0  0  0  0
  4  7  1  0  0  0  0
  7  8  1  0  0  0  0
  7  9  1  0  0  0  0
  7 10  1  0  0  0  0
 10 11  1  0  0  0  0
 10 12  1  0  0  0  0
 10 13  1  0  0  0  0
 13 14  1  0  0  0  0
 13 15  1  0  0  0  0
 13 16  1  0  0  0  0
 16 17  1  0  0  0  0
 16 18  1  0  0  0  0
 16 19  1  0  0  0  0
M  END
> <VConfSearch Rank>
596

> <Conf_Id>
36

> <Delta U+W>
-0.079

> <U+W>
-54.971

> <U>
8.266

> <W>
-63.237

> <W(PB)>
-65.340

> <W(SA)>
2.103

> <Valence>
6.935

> <Coulomb>
0.874

> <VdW>
0.457

> <VdW6>
-6.205

> <VdW12>
6.662

> <Bond>
0.107

> <Angle>
2.420

> <Pdih>
4.407

> <Idih>
0.001

> <Tether>
0.000

$$$$
VeraChem MOL file


 19 18  0  0  0  0  0  0  0  0999 V2000     
   22.0200   17.9248   20.4418 C   0  0  0  0  0  0  0  0  0  0  0  0
   23.0111   18.5465   20.7700 O   0  5  0  0  0  0  0  0  0  0  0  0
   21.6099   17.8687   19.2993 O   0  0  0  0  0  0  0  0  0  0  0  0
   21.2596   17.1543   21.5177 C   0  0  0  0  0  0  0  0  0  0  0  0
   21.9174   17.0226   22.3854 H   0  0  0  0  0  0  0  0  0  0  0  0
   21.0542   16.1532   21.1207 H   0  0  0  0  0  0  0  0  0  0  0  0
   19.9289   17.8222   21.9514 C   0  0  0  0  0  0  0  0  0  0  0  0
   19.2929   17.9735   21.0681 H   0  0  0  0  0  0  0  0  0  0  0  0
   19.3871   17.1374   22.6177 H   0  0  0  0  0  0  0  0  0  0  0  0
   20.1485   19.1695   22.6752 C   0  0  0  0  0  0  0  0  0  0  0  0
   20.6753   19.8664   22.0086 H   0  0  0  0  0  0  0  0  0  0  0  0
   20.7954   19.0153   23.5497 H   0  0  0  0  0  0  0  0  0  0  0  0
   18.8143   19.8003   23.1252 C   0  0  0  0  0  0  0  0  0  0  0  0
   18.1661   19.9579   22.2519 H   0  0  0  0  0  0  0  0  0  0  0  0
   18.2847   19.1093   23.7957 H   0  0  0  0  0  0  0  0  0  0  0  0
   19.0367   21.1444   23.8470 C   0  0  0  0  0  0  0  0  0  0  0  0
   19.5374   21.8658   23.1879 H   0  0  0  0  0  0  0  0  0  0  0  0
   18.0783   21.5790   24.1595 H   0  0  0  0  0  0  0  0  0  0  0  0
   19.6568   21.0109   24.7431 H   0  0  0  0  0  0  0  0  0  0  0  0
  1  2  1  0  0  0  0
  1  3  2  0  0  0  0
  1  4  1  0  0  0  0
  4  5  1  0  0  0  0
  4  6  1  0  0  0  0
  4  7  1  0  0  0  0
  7  8  1  0  0  0  0
  7  9  1  0  0  0  0
  7 10  1  0  0  0  0
 10 11  1  0  0  0  0
 10 12  1  0  0  0  0
 10 13  1  0  0  0  0
 13 14  1  0  0  0  0
 13 15  1  0  0  0  0
 13 16  1  0  0  0  0
 16 17  1  0  0  0  0
 16 18  1  0  0  0  0
 16 19  1  0  0  0  0
M  END
> <VConfSearch Rank>
597

> <Conf_Id>
35

> <Delta U+W>
-0.030

> <U+W>
-54.921

> <U>
8.267

> <W>
-63.188

> <W(PB)>
-65.294

> <W(SA)>
2.106

> <Valence>
6.935

> <Coulomb>
0.875

> <VdW>
0.457

> <VdW6>
-6.205

> <VdW12>
6.662

> <Bond>
0.107

> <Angle>
2.420

> <Pdih>
4.407

> <Idih>
0.001

> <Tether>
0.000

$$$$
VeraChem MOL file


 19 18  0  0  0  0  0  0  0  0999 V2000     
   22.4392   19.6682   20.7576 C   0  0  0  0  0  0  0  0  0  0  0  0
   22.1661   20.2874   19.7482 O   0  5  0  0  0  0  0  0  0  0  0  0
   23.2142   18.7326   20.7825 O   0  0  0  0  0  0  0  0  0  0  0  0
   21.7892   20.1048   22.0676 C   0  0  0  0  0  0  0  0  0  0  0  0
   21.8703   21.1967   22.1251 H   0  0  0  0  0  0  0  0  0  0  0  0
   22.3741   19.6989   22.9019 H   0  0  0  0  0  0  0  0  0  0  0  0
   20.3013   19.6891   22.2055 C   0  0  0  0  0  0  0  0  0  0  0  0
   19.8851   20.1754   23.0969 H   0  0  0  0  0  0  0  0  0  0  0  0
   19.7359   20.0690   21.3433 H   0  0  0  0  0  0  0  0  0  0  0  0
   20.1208   18.1562   22.3171 C   0  0  0  0  0  0  0  0  0  0  0  0
   20.6552   17.7838   23.2017 H   0  0  0  0  0  0  0  0  0  0  0  0
   20.5875   17.6735   21.4475 H   0  0  0  0  0  0  0  0  0  0  0  0
   18.6403   17.7153   22.3829 C   0  0  0  0  0  0  0  0  0  0  0  0
   18.1035   18.0846   21.4981 H   0  0  0  0  0  0  0  0  0  0  0  0
   18.5973   16.6184   22.3362 H   0  0  0  0  0  0  0  0  0  0  0  0
   17.9176   18.1861   23.6635 C   0  0  0  0  0  0  0  0  0  0  0  0
   17.8313   19.2793   23.6966 H   0  0  0  0  0  0  0  0  0  0  0  0
   16.9019   17.7718   23.7050 H   0  0  0  0  0  0  0  0  0  0  0  0
   18.4545   17.8549   24.5620 H   0  0  0  0  0  0  0  0  0  0  0  0
  1  2  1  0  0  0  0
  1  3  2  0  0  0  0
  1  4  1  0  0  0  0
  4  5  1  0  0  0  0
  4  6  1  0  0  0  0
  4  7  1  0  0  0  0
  7  8  1  0  0  0  0
  7  9  1  0  0  0  0
  7 10  1  0  0  0  0
 10 11  1  0  0  0  0
 10 12  1  0  0  0  0
 10 13  1  0  0  0  0
 13 14  1  0  0  0  0
 13 15  1  0  0  0  0
 13 16  1  0  0  0  0
 16 17  1  0  0  0  0
 16 18  1  0  0  0  0
 16 19  1  0  0  0  0
M  END
> <VConfSearch Rank>
598

> <Conf_Id>
74

> <Delta U+W>
0.797

> <U+W>
-54.095

> <U>
8.869

> <W>
-62.964

> <W(PB)>
-65.046

> <W(SA)>
2.082

> <Valence>
7.469

> <Coulomb>
0.762

> <VdW>
0.639

> <VdW6>
-6.782

> <VdW12>
7.421

> <Bond>
0.141

> <Angle>
2.667

> <Pdih>
4.660

> <Idih>
0.001

> <Tether>
0.000

$$$$
VeraChem MOL file


 19 18  0  0  0  0  0  0  0  0999 V2000     
   21.6341   17.6706   20.2351 C   0  0  0  0  0  0  0  0  0  0  0  0
   21.4506   17.6053   19.0357 O   0  5  0  0  0  0  0  0  0  0  0  0
   22.7277   17.5675   20.7542 O   0  0  0  0  0  0  0  0  0  0  0  0
   20.4283   17.9142   21.1356 C   0  0  0  0  0  0  0  0  0  0  0  0
   20.6120   17.3996   22.0857 H   0  0  0  0  0  0  0  0  0  0  0  0
   19.5548   17.4406   20.6717 H   0  0  0  0  0  0  0  0  0  0  0  0
   20.1542   19.4211   21.3780 C   0  0  0  0  0  0  0  0  0  0  0  0
   21.0199   19.8762   21.8771 H   0  0  0  0  0  0  0  0  0  0  0  0
   20.0656   19.9240   20.4051 H   0  0  0  0  0  0  0  0  0  0  0  0
   18.8644   19.6927   22.1924 C   0  0  0  0  0  0  0  0  0  0  0  0
   18.0005   19.3195   21.6257 H   0  0  0  0  0  0  0  0  0  0  0  0
   18.7241   20.7789   22.2785 H   0  0  0  0  0  0  0  0  0  0  0  0
   18.8360   19.0708   23.6103 C   0  0  0  0  0  0  0  0  0  0  0  0
   17.8741   19.3168   24.0806 H   0  0  0  0  0  0  0  0  0  0  0  0
   18.8699   17.9753   23.5447 H   0  0  0  0  0  0  0  0  0  0  0  0
   19.9766   19.5733   24.5213 C   0  0  0  0  0  0  0  0  0  0  0  0
   19.9760   20.6693   24.5833 H   0  0  0  0  0  0  0  0  0  0  0  0
   19.8594   19.1765   25.5380 H   0  0  0  0  0  0  0  0  0  0  0  0
   20.9566   19.2492   24.1488 H   0  0  0  0  0  0  0  0  0  0  0  0
  1  2  1  0  0  0  0
  1  3  2  0  0  0  0
  1  4  1  0  0  0  0
  4  5  1  0  0  0  0
  4  6  1  0  0  0  0
  4  7  1  0  0  0  0
  7  8  1  0  0  0  0
  7  9  1  0  0  0  0
  7 10  1  0  0  0  0
 10 11  1  0  0  0  0
 10 12  1  0  0  0  0
 10 13  1  0  0  0  0
 13 14  1  0  0  0  0
 13 15  1  0  0  0  0
 13 16  1  0  0  0  0
 16 17  1  0  0  0  0
 16 18  1  0  0  0  0
 16 19  1  0  0  0  0
M  END
> <VConfSearch Rank>
599

> <Conf_Id>
67

> <Delta U+W>
0.308

> <U+W>
-54.583

> <U>
8.219

> <W>
-62.802

> <W(PB)>
-64.859

> <W(SA)>
2.057

> <Valence>
7.609

> <Coulomb>
-0.089

> <VdW>
0.699

> <VdW6>
-6.924

> <VdW12>
7.623

> <Bond>
0.163

> <Angle>
2.870

> <Pdih>
4.576

> <Idih>
0.001

> <Tether>
0.000

$$$$
VeraChem MOL file


 19 18  0  0  0  0  0  0  0  0999 V2000     
   17.9624   20.5482   20.9284 C   0  0  0  0  0  0  0  0  0  0  0  0
   18.0645   21.2079   19.9131 O   0  5  0  0  0  0  0  0  0  0  0  0
   17.1165   20.7479   21.7774 O   0  0  0  0  0  0  0  0  0  0  0  0
   18.9627   19.4209   21.1582 C   0  0  0  0  0  0  0  0  0  0  0  0
   19.2415   19.0078   20.1815 H   0  0  0  0  0  0  0  0  0  0  0  0
   18.4497   18.6274   21.7135 H   0  0  0  0  0  0  0  0  0  0  0  0
   20.2286   19.8877   21.9225 C   0  0  0  0  0  0  0  0  0  0  0  0
   20.6674   20.7421   21.3890 H   0  0  0  0  0  0  0  0  0  0  0  0
   19.9415   20.2638   22.9134 H   0  0  0  0  0  0  0  0  0  0  0  0
   21.3093   18.7861   22.0620 C   0  0  0  0  0  0  0  0  0  0  0  0
   22.1832   19.2124   22.5731 H   0  0  0  0  0  0  0  0  0  0  0  0
   21.6549   18.4979   21.0599 H   0  0  0  0  0  0  0  0  0  0  0  0
   20.8592   17.5124   22.8190 C   0  0  0  0  0  0  0  0  0  0  0  0
   20.0525   17.0096   22.2693 H   0  0  0  0  0  0  0  0  0  0  0  0
   21.6986   16.8038   22.8407 H   0  0  0  0  0  0  0  0  0  0  0  0
   20.4069   17.7903   24.2686 C   0  0  0  0  0  0  0  0  0  0  0  0
   19.4972   18.4037   24.2918 H   0  0  0  0  0  0  0  0  0  0  0  0
   20.1870   16.8495   24.7895 H   0  0  0  0  0  0  0  0  0  0  0  0
   21.1907   18.3139   24.8313 H   0  0  0  0  0  0  0  0  0  0  0  0
  1  2  1  0  0  0  0
  1  3  2  0  0  0  0
  1  4  1  0  0  0  0
  4  5  1  0  0  0  0
  4  6  1  0  0  0  0
  4  7  1  0  0  0  0
  7  8  1  0  0  0  0
  7  9  1  0  0  0  0
  7 10  1  0  0  0  0
 10 11  1  0  0  0  0
 10 12  1  0  0  0  0
 10 13  1  0  0  0  0
 13 14  1  0  0  0  0
 13 15  1  0  0  0  0
 13 16  1  0  0  0  0
 16 17  1  0  0  0  0
 16 18  1  0  0  0  0
 16 19  1  0  0  0  0
M  END
> <VConfSearch Rank>
600

> <Conf_Id>
21

> <Delta U+W>
0.319

> <U+W>
-54.572

> <U>
8.220

> <W>
-62.792

> <W(PB)>
-64.830

> <W(SA)>
2.038

> <Valence>
7.609

> <Coulomb>
-0.088

> <VdW>
0.699

> <VdW6>
-6.924

> <VdW12>
7.623

> <Bond>
0.163

> <Angle>
2.870

> <Pdih>
4.576

> <Idih>
0.000

> <Tether>
0.000

$$$$
VeraChem MOL file


 19 18  0  0  0  0  0  0  0  0999 V2000     
   18.9331   20.4985   20.1360 C   0  0  0  0  0  0  0  0  0  0  0  0
   17.9796   21.2505   20.0942 O   0  5  0  0  0  0  0  0  0  0  0  0
   19.8681   20.5549   19.3621 O   0  0  0  0  0  0  0  0  0  0  0  0
   18.9663   19.4383   21.2309 C   0  0  0  0  0  0  0  0  0  0  0  0
   19.4918   18.5635   20.8354 H   0  0  0  0  0  0  0  0  0  0  0  0
   17.9342   19.1268   21.4314 H   0  0  0  0  0  0  0  0  0  0  0  0
   19.6314   19.9451   22.5379 C   0  0  0  0  0  0  0  0  0  0  0  0
   20.6457   20.3122   22.3286 H   0  0  0  0  0  0  0  0  0  0  0  0
   19.0593   20.8133   22.8932 H   0  0  0  0  0  0  0  0  0  0  0  0
   19.6678   18.8811   23.6643 C   0  0  0  0  0  0  0  0  0  0  0  0
   18.8153   18.1949   23.5678 H   0  0  0  0  0  0  0  0  0  0  0  0
   19.5292   19.3961   24.6248 H   0  0  0  0  0  0  0  0  0  0  0  0
   20.9893   18.0788   23.7533 C   0  0  0  0  0  0  0  0  0  0  0  0
   21.8258   18.7665   23.9391 H   0  0  0  0  0  0  0  0  0  0  0  0
   20.9362   17.4164   24.6283 H   0  0  0  0  0  0  0  0  0  0  0  0
   21.2966   17.2251   22.5058 C   0  0  0  0  0  0  0  0  0  0  0  0
   22.1704   16.5853   22.6847 H   0  0  0  0  0  0  0  0  0  0  0  0
   20.4480   16.5765   22.2527 H   0  0  0  0  0  0  0  0  0  0  0  0
   21.5239   17.8586   21.6392 H   0  0  0  0  0  0  0  0  0  0  0  0
  1  2  1  0  0  0  0
  1  3  2  0  0  0  0
  1  4  1  0  0  0  0
  4  5  1  0  0  0  0
  4  6  1  0  0  0  0
  4  7  1  0  0  0  0
  7  8  1  0  0  0  0
  7  9  1  0  0  0  0
  7 10  1  0  0  0  0
 10 11  1  0  0  0  0
 10 12  1  0  0  0  0
 10 13  1  0  0  0  0
 13 14  1  0  0  0  0
 13 15  1  0  0  0  0
 13 16  1  0  0  0  0
 16 17  1  0  0  0  0
 16 18  1  0  0  0  0
 16 19  1  0  0  0  0
M  END
> <VConfSearch Rank>
601

> <Conf_Id>
24

> <Delta U+W>
2.477

> <U+W>
-52.414

> <U>
10.422

> <W>
-62.836

> <W(PB)>
-64.906

> <W(SA)>
2.070

> <Valence>
9.628

> <Coulomb>
0.101

> <VdW>
0.693

> <VdW6>
-6.927

> <VdW12>
7.620

> <Bond>
0.173

> <Angle>
2.989

> <Pdih>
6.465

> <Idih>
0.001

> <Tether>
0.000

$$$$
VeraChem MOL file


 19 18  0  0  0  0  0  0  0  0999 V2000     
   20.8200   17.4788   24.2639 C   0  0  0  0  0  0  0  0  0  0  0  0
   21.9587   17.4439   23.8409 O   0  5  0  0  0  0  0  0  0  0  0  0
   20.5395   17.3875   25.4429 O   0  0  0  0  0  0  0  0  0  0  0  0
   19.6772   17.6153   23.2611 C   0  0  0  0  0  0  0  0  0  0  0  0
   18.9358   16.8468   23.5089 H   0  0  0  0  0  0  0  0  0  0  0  0
   20.0607   17.3712   22.2653 H   0  0  0  0  0  0  0  0  0  0  0  0
   18.9930   19.0105   23.2697 C   0  0  0  0  0  0  0  0  0  0  0  0
   18.0645   18.9731   22.6843 H   0  0  0  0  0  0  0  0  0  0  0  0
   18.6901   19.2338   24.3021 H   0  0  0  0  0  0  0  0  0  0  0  0
   19.8923   20.1635   22.7526 C   0  0  0  0  0  0  0  0  0  0  0  0
   20.9494   19.9512   22.9629 H   0  0  0  0  0  0  0  0  0  0  0  0
   19.6505   21.0679   23.3274 H   0  0  0  0  0  0  0  0  0  0  0  0
   19.7090   20.5025   21.2528 C   0  0  0  0  0  0  0  0  0  0  0  0
   18.6681   20.8010   21.0663 H   0  0  0  0  0  0  0  0  0  0  0  0
   20.3272   21.3794   21.0163 H   0  0  0  0  0  0  0  0  0  0  0  0
   20.0926   19.3557   20.2950 C   0  0  0  0  0  0  0  0  0  0  0  0
   19.3896   18.5179   20.3797 H   0  0  0  0  0  0  0  0  0  0  0  0
   20.0706   19.7016   19.2536 H   0  0  0  0  0  0  0  0  0  0  0  0
   21.1042   18.9862   20.5088 H   0  0  0  0  0  0  0  0  0  0  0  0
  1  2  1  0  0  0  0
  1  3  2  0  0  0  0
  1  4  1  0  0  0  0
  4  5  1  0  0  0  0
  4  6  1  0  0  0  0
  4  7  1  0  0  0  0
  7  8  1  0  0  0  0
  7  9  1  0  0  0  0
  7 10  1  0  0  0  0
 10 11  1  0  0  0  0
 10 12  1  0  0  0  0
 10 13  1  0  0  0  0
 13 14  1  0  0  0  0
 13 15  1  0  0  0  0
 13 16  1  0  0  0  0
 16 17  1  0  0  0  0
 16 18  1  0  0  0  0
 16 19  1  0  0  0  0
M  END
> <VConfSearch Rank>
602

> <Conf_Id>
4

> <Delta U+W>
3.753

> <U+W>
-51.138

> <U>
12.334

> <W>
-63.472

> <W(PB)>
-65.500

> <W(SA)>
2.028

> <Valence>
9.984

> <Coulomb>
1.767

> <VdW>
0.583

> <VdW6>
-7.767

> <VdW12>
8.349

> <Bond>
0.203

> <Angle>
3.191

> <Pdih>
6.589

> <Idih>
0.001

> <Tether>
0.000

$$$$
VeraChem MOL file


 19 18  0  0  0  0  0  0  0  0999 V2000     
   19.4143   16.3627   22.0775 C   0  0  0  0  0  0  0  0  0  0  0  0
   18.4585   15.8040   21.5761 O   0  5  0  0  0  0  0  0  0  0  0  0
   20.5653   16.0211   21.8896 O   0  0  0  0  0  0  0  0  0  0  0  0
   19.1500   17.5375   23.0157 C   0  0  0  0  0  0  0  0  0  0  0  0
   20.0524   17.7151   23.6094 H   0  0  0  0  0  0  0  0  0  0  0  0
   18.3696   17.2217   23.7178 H   0  0  0  0  0  0  0  0  0  0  0  0
   18.6942   18.8343   22.2907 C   0  0  0  0  0  0  0  0  0  0  0  0
   17.8308   18.5843   21.6586 H   0  0  0  0  0  0  0  0  0  0  0  0
   18.3284   19.5629   23.0267 H   0  0  0  0  0  0  0  0  0  0  0  0
   19.7883   19.4871   21.4063 C   0  0  0  0  0  0  0  0  0  0  0  0
   19.2979   19.9282   20.5279 H   0  0  0  0  0  0  0  0  0  0  0  0
   20.4720   18.7227   21.0126 H   0  0  0  0  0  0  0  0  0  0  0  0
   20.5954   20.6109   22.1018 C   0  0  0  0  0  0  0  0  0  0  0  0
   21.2789   21.0552   21.3652 H   0  0  0  0  0  0  0  0  0  0  0  0
   19.9149   21.4152   22.4138 H   0  0  0  0  0  0  0  0  0  0  0  0
   21.4197   20.1369   23.3165 C   0  0  0  0  0  0  0  0  0  0  0  0
   22.0559   19.2824   23.0510 H   0  0  0  0  0  0  0  0  0  0  0  0
   22.0692   20.9443   23.6784 H   0  0  0  0  0  0  0  0  0  0  0  0
   20.7664   19.8414   24.1467 H   0  0  0  0  0  0  0  0  0  0  0  0
  1  2  1  0  0  0  0
  1  3  2  0  0  0  0
  1  4  1  0  0  0  0
  4  5  1  0  0  0  0
  4  6  1  0  0  0  0
  4  7  1  0  0  0  0
  7  8  1  0  0  0  0
  7  9  1  0  0  0  0
  7 10  1  0  0  0  0
 10 11  1  0  0  0  0
 10 12  1  0  0  0  0
 10 13  1  0  0  0  0
 13 14  1  0  0  0  0
 13 15  1  0  0  0  0
 13 16  1  0  0  0  0
 16 17  1  0  0  0  0
 16 18  1  0  0  0  0
 16 19  1  0  0  0  0
M  END
> <VConfSearch Rank>
603

> <Conf_Id>
73

> <Delta U+W>
3.707

> <U+W>
-51.184

> <U>
12.334

> <W>
-63.519

> <W(PB)>
-65.541

> <W(SA)>
2.022

> <Valence>
9.984

> <Coulomb>
1.768

> <VdW>
0.583

> <VdW6>
-7.767

> <VdW12>
8.350

> <Bond>
0.203

> <Angle>
3.192

> <Pdih>
6.589

> <Idih>
0.001

> <Tether>
0.000

$$$$
VeraChem MOL file


 19 18  0  0  0  0  0  0  0  0999 V2000     
   18.9383   18.1788   20.1249 C   0  0  0  0  0  0  0  0  0  0  0  0
   18.0068   17.5390   20.5720 O   0  5  0  0  0  0  0  0  0  0  0  0
   18.9008   18.7639   19.0603 O   0  0  0  0  0  0  0  0  0  0  0  0
   20.2367   18.2251   20.9257 C   0  0  0  0  0  0  0  0  0  0  0  0
   21.0514   17.9596   20.2421 H   0  0  0  0  0  0  0  0  0  0  0  0
   20.2061   17.4413   21.6912 H   0  0  0  0  0  0  0  0  0  0  0  0
   20.5364   19.6061   21.5701 C   0  0  0  0  0  0  0  0  0  0  0  0
   21.5178   19.5709   22.0606 H   0  0  0  0  0  0  0  0  0  0  0  0
   20.6254   20.3550   20.7712 H   0  0  0  0  0  0  0  0  0  0  0  0
   19.4648   20.0866   22.5825 C   0  0  0  0  0  0  0  0  0  0  0  0
   18.5133   20.2349   22.0536 H   0  0  0  0  0  0  0  0  0  0  0  0
   19.7565   21.0754   22.9616 H   0  0  0  0  0  0  0  0  0  0  0  0
   19.2223   19.1411   23.7844 C   0  0  0  0  0  0  0  0  0  0  0  0
   18.4367   19.5756   24.4177 H   0  0  0  0  0  0  0  0  0  0  0  0
   18.8291   18.1776   23.4331 H   0  0  0  0  0  0  0  0  0  0  0  0
   20.4828   18.9094   24.6451 C   0  0  0  0  0  0  0  0  0  0  0  0
   21.2568   18.3725   24.0824 H   0  0  0  0  0  0  0  0  0  0  0  0
   20.9045   19.8628   24.9888 H   0  0  0  0  0  0  0  0  0  0  0  0
   20.2381   18.3084   25.5305 H   0  0  0  0  0  0  0  0  0  0  0  0
  1  2  1  0  0  0  0
  1  3  2  0  0  0  0
  1  4  1  0  0  0  0
  4  5  1  0  0  0  0
  4  6  1  0  0  0  0
  4  7  1  0  0  0  0
  7  8  1  0  0  0  0
  7  9  1  0  0  0  0
  7 10  1  0  0  0  0
 10 11  1  0  0  0  0
 10 12  1  0  0  0  0
 10 13  1  0  0  0  0
 13 14  1  0  0  0  0
 13 15  1  0  0  0  0
 13 16  1  0  0  0  0
 16 17  1  0  0  0  0
 16 18  1  0  0  0  0
 16 19  1  0  0  0  0
M  END
> <VConfSearch Rank>
604

> <Conf_Id>
56

> <Delta U+W>
1.735

> <U+W>
-53.156

> <U>
10.214

> <W>
-63.370

> <W(PB)>
-65.388

> <W(SA)>
2.018

> <Valence>
7.868

> <Coulomb>
1.968

> <VdW>
0.378

> <VdW6>
-8.067

> <VdW12>
8.445

> <Bond>
0.191

> <Angle>
3.117

> <Pdih>
4.559

> <Idih>
0.001

> <Tether>
0.000

$$$$
VeraChem MOL file


 19 18  0  0  0  0  0  0  0  0999 V2000     
   22.5724   18.6888   20.9954 C   0  0  0  0  0  0  0  0  0  0  0  0
   22.7070   18.5533   19.7955 O   0  5  0  0  0  0  0  0  0  0  0  0
   23.4742   18.5326   21.7947 O   0  0  0  0  0  0  0  0  0  0  0  0
   21.1916   19.0535   21.5287 C   0  0  0  0  0  0  0  0  0  0  0  0
   20.6846   19.6659   20.7735 H   0  0  0  0  0  0  0  0  0  0  0  0
   21.3341   19.6769   22.4184 H   0  0  0  0  0  0  0  0  0  0  0  0
   20.3337   17.8105   21.8750 C   0  0  0  0  0  0  0  0  0  0  0  0
   20.3270   17.1355   21.0079 H   0  0  0  0  0  0  0  0  0  0  0  0
   20.8143   17.2558   22.6925 H   0  0  0  0  0  0  0  0  0  0  0  0
   18.8671   18.1326   22.2569 C   0  0  0  0  0  0  0  0  0  0  0  0
   18.3525   17.1768   22.4261 H   0  0  0  0  0  0  0  0  0  0  0  0
   18.3509   18.6033   21.4090 H   0  0  0  0  0  0  0  0  0  0  0  0
   18.7056   18.9987   23.5309 C   0  0  0  0  0  0  0  0  0  0  0  0
   17.8077   18.6656   24.0696 H   0  0  0  0  0  0  0  0  0  0  0  0
   19.5502   18.8335   24.2139 H   0  0  0  0  0  0  0  0  0  0  0  0
   18.5476   20.5054   23.2283 C   0  0  0  0  0  0  0  0  0  0  0  0
   18.4192   21.0721   24.1595 H   0  0  0  0  0  0  0  0  0  0  0  0
   19.4218   20.9120   22.7077 H   0  0  0  0  0  0  0  0  0  0  0  0
   17.6652   20.6869   22.6010 H   0  0  0  0  0  0  0  0  0  0  0  0
  1  2  1  0  0  0  0
  1  3  2  0  0  0  0
  1  4  1  0  0  0  0
  4  5  1  0  0  0  0
  4  6  1  0  0  0  0
  4  7  1  0  0  0  0
  7  8  1  0  0  0  0
  7  9  1  0  0  0  0
  7 10  1  0  0  0  0
 10 11  1  0  0  0  0
 10 12  1  0  0  0  0
 10 13  1  0  0  0  0
 13 14  1  0  0  0  0
 13 15  1  0  0  0  0
 13 16  1  0  0  0  0
 16 17  1  0  0  0  0
 16 18  1  0  0  0  0
 16 19  1  0  0  0  0
M  END
> <VConfSearch Rank>
605

> <Conf_Id>
53

> <Delta U+W>
2.279

> <U+W>
-52.612

> <U>
10.231

> <W>
-62.843

> <W(PB)>
-64.893

> <W(SA)>
2.050

> <Valence>
9.644

> <Coulomb>
-0.164

> <VdW>
0.751

> <VdW6>
-6.881

> <VdW12>
7.631

> <Bond>
0.163

> <Angle>
2.998

> <Pdih>
6.482

> <Idih>
0.001

> <Tether>
0.000

$$$$
VeraChem MOL file


 19 18  0  0  0  0  0  0  0  0999 V2000     
   19.0410   17.4503   24.0714 C   0  0  0  0  0  0  0  0  0  0  0  0
   18.4698   16.6517   23.3552 O   0  5  0  0  0  0  0  0  0  0  0  0
   18.4707   18.1389   24.8947 O   0  0  0  0  0  0  0  0  0  0  0  0
   20.5631   17.5408   23.9788 C   0  0  0  0  0  0  0  0  0  0  0  0
   20.9187   16.8194   23.2330 H   0  0  0  0  0  0  0  0  0  0  0  0
   20.9513   17.2067   24.9479 H   0  0  0  0  0  0  0  0  0  0  0  0
   21.1266   18.9564   23.6696 C   0  0  0  0  0  0  0  0  0  0  0  0
   20.6106   19.7074   24.2837 H   0  0  0  0  0  0  0  0  0  0  0  0
   22.1783   18.9788   23.9857 H   0  0  0  0  0  0  0  0  0  0  0  0
   21.0746   19.3644   22.1765 C   0  0  0  0  0  0  0  0  0  0  0  0
   21.5983   18.6134   21.5693 H   0  0  0  0  0  0  0  0  0  0  0  0
   21.6351   20.3020   22.0584 H   0  0  0  0  0  0  0  0  0  0  0  0
   19.6450   19.5696   21.6289 C   0  0  0  0  0  0  0  0  0  0  0  0
   19.1067   18.6134   21.6134 H   0  0  0  0  0  0  0  0  0  0  0  0
   19.0852   20.2432   22.2924 H   0  0  0  0  0  0  0  0  0  0  0  0
   19.6645   20.1527   20.2015 C   0  0  0  0  0  0  0  0  0  0  0  0
   20.1970   19.4844   19.5122 H   0  0  0  0  0  0  0  0  0  0  0  0
   18.6421   20.2842   19.8241 H   0  0  0  0  0  0  0  0  0  0  0  0
   20.1610   21.1317   20.1830 H   0  0  0  0  0  0  0  0  0  0  0  0
  1  2  1  0  0  0  0
  1  3  2  0  0  0  0
  1  4  1  0  0  0  0
  4  5  1  0  0  0  0
  4  6  1  0  0  0  0
  4  7  1  0  0  0  0
  7  8  1  0  0  0  0
  7  9  1  0  0  0  0
  7 10  1  0  0  0  0
 10 11  1  0  0  0  0
 10 12  1  0  0  0  0
 10 13  1  0  0  0  0
 13 14  1  0  0  0  0
 13 15  1  0  0  0  0
 13 16  1  0  0  0  0
 16 17  1  0  0  0  0
 16 18  1  0  0  0  0
 16 19  1  0  0  0  0
M  END
> <VConfSearch Rank>
606

> <Conf_Id>
25

> <Delta U+W>
2.065

> <U+W>
-52.826

> <U>
10.967

> <W>
-63.794

> <W(PB)>
-65.830

> <W(SA)>
2.036

> <Valence>
8.609

> <Coulomb>
1.892

> <VdW>
0.467

> <VdW6>
-7.569

> <VdW12>
8.036

> <Bond>
0.170

> <Angle>
3.195

> <Pdih>
5.237

> <Idih>
0.007

> <Tether>
0.000

$$$$
VeraChem MOL file


 19 18  0  0  0  0  0  0  0  0999 V2000     
   21.9155   17.2674   22.8385 C   0  0  0  0  0  0  0  0  0  0  0  0
   22.0614   16.6269   21.8160 O   0  5  0  0  0  0  0  0  0  0  0  0
   21.6506   16.7635   23.9122 O   0  0  0  0  0  0  0  0  0  0  0  0
   22.1453   18.7768   22.7883 C   0  0  0  0  0  0  0  0  0  0  0  0
   23.1960   18.9195   22.5100 H   0  0  0  0  0  0  0  0  0  0  0  0
   22.0296   19.1891   23.7980 H   0  0  0  0  0  0  0  0  0  0  0  0
   21.2468   19.5523   21.7841 C   0  0  0  0  0  0  0  0  0  0  0  0
   21.7321   20.5137   21.5679 H   0  0  0  0  0  0  0  0  0  0  0  0
   21.2035   19.0139   20.8271 H   0  0  0  0  0  0  0  0  0  0  0  0
   19.8141   19.8510   22.2908 C   0  0  0  0  0  0  0  0  0  0  0  0
   19.3320   20.5291   21.5734 H   0  0  0  0  0  0  0  0  0  0  0  0
   19.8648   20.3953   23.2437 H   0  0  0  0  0  0  0  0  0  0  0  0
   18.9301   18.5954   22.4567 C   0  0  0  0  0  0  0  0  0  0  0  0
   18.9588   17.9955   21.5366 H   0  0  0  0  0  0  0  0  0  0  0  0
   19.3208   17.9636   23.2645 H   0  0  0  0  0  0  0  0  0  0  0  0
   17.4699   18.9707   22.7806 C   0  0  0  0  0  0  0  0  0  0  0  0
   16.8574   18.0681   22.9037 H   0  0  0  0  0  0  0  0  0  0  0  0
   17.4112   19.5499   23.7114 H   0  0  0  0  0  0  0  0  0  0  0  0
   17.0296   19.5713   21.9739 H   0  0  0  0  0  0  0  0  0  0  0  0
  1  2  1  0  0  0  0
  1  3  2  0  0  0  0
  1  4  1  0  0  0  0
  4  5  1  0  0  0  0
  4  6  1  0  0  0  0
  4  7  1  0  0  0  0
  7  8  1  0  0  0  0
  7  9  1  0  0  0  0
  7 10  1  0  0  0  0
 10 11  1  0  0  0  0
 10 12  1  0  0  0  0
 10 13  1  0  0  0  0
 13 14  1  0  0  0  0
 13 15  1  0  0  0  0
 13 16  1  0  0  0  0
 16 17  1  0  0  0  0
 16 18  1  0  0  0  0
 16 19  1  0  0  0  0
M  END
> <VConfSearch Rank>
607

> <Conf_Id>
52

> <Delta U+W>
2.070

> <U+W>
-52.822

> <U>
10.967

> <W>
-63.789

> <W(PB)>
-65.837

> <W(SA)>
2.048

> <Valence>
8.609

> <Coulomb>
1.892

> <VdW>
0.467

> <VdW6>
-7.569

> <VdW12>
8.035

> <Bond>
0.170

> <Angle>
3.196

> <Pdih>
5.237

> <Idih>
0.007

> <Tether>
0.000

$$$$
VeraChem MOL file


 19 18  0  0  0  0  0  0  0  0999 V2000     
   21.2275   17.4076   23.3229 C   0  0  0  0  0  0  0  0  0  0  0  0
   20.9400   16.3444   22.8081 O   0  5  0  0  0  0  0  0  0  0  0  0
   22.3483   17.8765   23.2994 O   0  0  0  0  0  0  0  0  0  0  0  0
   20.1651   18.1344   24.1490 C   0  0  0  0  0  0  0  0  0  0  0  0
   20.5360   19.1331   24.4091 H   0  0  0  0  0  0  0  0  0  0  0  0
   20.0803   17.5782   25.0896 H   0  0  0  0  0  0  0  0  0  0  0  0
   18.7561   18.2373   23.4981 C   0  0  0  0  0  0  0  0  0  0  0  0
   18.5014   17.2904   23.0024 H   0  0  0  0  0  0  0  0  0  0  0  0
   18.0202   18.3579   24.3045 H   0  0  0  0  0  0  0  0  0  0  0  0
   18.5638   19.4179   22.5119 C   0  0  0  0  0  0  0  0  0  0  0  0
   18.7204   20.3720   23.0336 H   0  0  0  0  0  0  0  0  0  0  0  0
   17.5098   19.4199   22.2022 H   0  0  0  0  0  0  0  0  0  0  0  0
   19.4373   19.3532   21.2356 C   0  0  0  0  0  0  0  0  0  0  0  0
   19.7524   18.3193   21.0377 H   0  0  0  0  0  0  0  0  0  0  0  0
   18.8277   19.6555   20.3730 H   0  0  0  0  0  0  0  0  0  0  0  0
   20.6663   20.2848   21.3050 C   0  0  0  0  0  0  0  0  0  0  0  0
   20.3573   21.3336   21.4028 H   0  0  0  0  0  0  0  0  0  0  0  0
   21.3084   20.0401   22.1591 H   0  0  0  0  0  0  0  0  0  0  0  0
   21.2703   20.1942   20.3931 H   0  0  0  0  0  0  0  0  0  0  0  0
  1  2  1  0  0  0  0
  1  3  2  0  0  0  0
  1  4  1  0  0  0  0
  4  5  1  0  0  0  0
  4  6  1  0  0  0  0
  4  7  1  0  0  0  0
  7  8  1  0  0  0  0
  7  9  1  0  0  0  0
  7 10  1  0  0  0  0
 10 11  1  0  0  0  0
 10 12  1  0  0  0  0
 10 13  1  0  0  0  0
 13 14  1  0  0  0  0
 13 15  1  0  0  0  0
 13 16  1  0  0  0  0
 16 17  1  0  0  0  0
 16 18  1  0  0  0  0
 16 19  1  0  0  0  0
M  END
> <VConfSearch Rank>
608

> <Conf_Id>
66

> <Delta U+W>
5.819

> <U+W>
-49.072

> <U>
15.324

> <W>
-64.396

> <W(PB)>
-66.382

> <W(SA)>
1.986

> <Valence>
11.748

> <Coulomb>
3.201

> <VdW>
0.375

> <VdW6>
-8.854

> <VdW12>
9.229

> <Bond>
0.216

> <Angle>
3.812

> <Pdih>
7.699

> <Idih>
0.022

> <Tether>
0.000

$$$$
VeraChem MOL file


 19 18  0  0  0  0  0  0  0  0999 V2000     
   22.7350   19.5200   20.2036 C   0  0  0  0  0  0  0  0  0  0  0  0
   23.9468   19.4396   20.2287 O   0  5  0  0  0  0  0  0  0  0  0  0
   22.1177   19.9408   19.2443 O   0  0  0  0  0  0  0  0  0  0  0  0
   21.9789   19.0631   21.4523 C   0  0  0  0  0  0  0  0  0  0  0  0
   22.3539   19.6540   22.2962 H   0  0  0  0  0  0  0  0  0  0  0  0
   22.2593   18.0202   21.6411 H   0  0  0  0  0  0  0  0  0  0  0  0
   20.4338   19.1843   21.3732 C   0  0  0  0  0  0  0  0  0  0  0  0
   20.1598   20.2304   21.1781 H   0  0  0  0  0  0  0  0  0  0  0  0
   20.0650   18.5949   20.5222 H   0  0  0  0  0  0  0  0  0  0  0  0
   19.7528   18.7027   22.6727 C   0  0  0  0  0  0  0  0  0  0  0  0
   20.1230   19.2931   23.5221 H   0  0  0  0  0  0  0  0  0  0  0  0
   20.0282   17.6567   22.8659 H   0  0  0  0  0  0  0  0  0  0  0  0
   18.2169   18.8241   22.5920 C   0  0  0  0  0  0  0  0  0  0  0  0
   17.9373   19.8694   22.4007 H   0  0  0  0  0  0  0  0  0  0  0  0
   17.8424   18.2331   21.7446 H   0  0  0  0  0  0  0  0  0  0  0  0
   17.5404   18.3424   23.8910 C   0  0  0  0  0  0  0  0  0  0  0  0
   17.8734   18.9378   24.7513 H   0  0  0  0  0  0  0  0  0  0  0  0
   16.4492   18.4356   23.8164 H   0  0  0  0  0  0  0  0  0  0  0  0
   17.7778   17.2892   24.0904 H   0  0  0  0  0  0  0  0  0  0  0  0
  1  2  1  0  0  0  0
  1  3  2  0  0  0  0
  1  4  1  0  0  0  0
  4  5  1  0  0  0  0
  4  6  1  0  0  0  0
  4  7  1  0  0  0  0
  7  8  1  0  0  0  0
  7  9  1  0  0  0  0
  7 10  1  0  0  0  0
 10 11  1  0  0  0  0
 10 12  1  0  0  0  0
 10 13  1  0  0  0  0
 13 14  1  0  0  0  0
 13 15  1  0  0  0  0
 13 16  1  0  0  0  0
 16 17  1  0  0  0  0
 16 18  1  0  0  0  0
 16 19  1  0  0  0  0
M  END
> <VConfSearch Rank>
609

> <Conf_Id>
0

> <Delta U+W>
0.000

> <U+W>
-54.891

> <U>
6.966

> <W>
-61.857

> <W(PB)>
-63.965

> <W(SA)>
2.108

> <Valence>
7.175

> <Coulomb>
-1.360

> <VdW>
1.151

> <VdW6>
-5.641

> <VdW12>
6.792

> <Bond>
0.119

> <Angle>
2.715

> <Pdih>
4.340

> <Idih>
0.000

> <Tether>
0.000

$$$$
VeraChem MOL file


 19 18  0  0  0  0  0  0  0  0999 V2000     
   22.9097   20.3959   21.4736 C   0  0  0  0  0  0  0  0  0  0  0  0
   23.1813   20.4926   20.2933 O   0  5  0  0  0  0  0  0  0  0  0  0
   23.2985   21.1766   22.3194 O   0  0  0  0  0  0  0  0  0  0  0  0
   22.0149   19.2429   21.9145 C   0  0  0  0  0  0  0  0  0  0  0  0
   22.3111   18.9502   22.9290 H   0  0  0  0  0  0  0  0  0  0  0  0
   22.2142   18.3867   21.2589 H   0  0  0  0  0  0  0  0  0  0  0  0
   20.5090   19.6024   21.8806 C   0  0  0  0  0  0  0  0  0  0  0  0
   20.3281   20.4689   22.5317 H   0  0  0  0  0  0  0  0  0  0  0  0
   20.2312   19.9055   20.8615 H   0  0  0  0  0  0  0  0  0  0  0  0
   19.6254   18.4192   22.3309 C   0  0  0  0  0  0  0  0  0  0  0  0
   19.9064   18.1177   23.3494 H   0  0  0  0  0  0  0  0  0  0  0  0
   19.8094   17.5542   21.6789 H   0  0  0  0  0  0  0  0  0  0  0  0
   18.1257   18.7802   22.2962 C   0  0  0  0  0  0  0  0  0  0  0  0
   17.9372   19.6439   22.9488 H   0  0  0  0  0  0  0  0  0  0  0  0
   17.8403   19.0805   21.2785 H   0  0  0  0  0  0  0  0  0  0  0  0
   17.2465   17.5966   22.7466 C   0  0  0  0  0  0  0  0  0  0  0  0
   16.1839   17.8704   22.7159 H   0  0  0  0  0  0  0  0  0  0  0  0
   17.3916   16.7278   22.0912 H   0  0  0  0  0  0  0  0  0  0  0  0
   17.4894   17.2954   23.7740 H   0  0  0  0  0  0  0  0  0  0  0  0
  1  2  1  0  0  0  0
  1  3  2  0  0  0  0
  1  4  1  0  0  0  0
  4  5  1  0  0  0  0
  4  6  1  0  0  0  0
  4  7  1  0  0  0  0
  7  8  1  0  0  0  0
  7  9  1  0  0  0  0
  7 10  1  0  0  0  0
 10 11  1  0  0  0  0
 10 12  1  0  0  0  0
 10 13  1  0  0  0  0
 13 14  1  0  0  0  0
 13 15  1  0  0  0  0
 13 16  1  0  0  0  0
 16 17  1  0  0  0  0
 16 18  1  0  0  0  0
 16 19  1  0  0  0  0
M  END
> <VConfSearch Rank>
610

> <Conf_Id>
18

> <Delta U+W>
-1.199

> <U+W>
-56.090

> <U>
5.975

> <W>
-62.066

> <W(PB)>
-64.219

> <W(SA)>
2.153

> <Valence>
6.673

> <Coulomb>
-1.307

> <VdW>
0.610

> <VdW6>
-5.351

> <VdW12>
5.961

> <Bond>
0.086

> <Angle>
2.253

> <Pdih>
4.333

> <Idih>
0.001

> <Tether>
0.000

$$$$
VeraChem MOL file


 19 18  0  0  0  0  0  0  0  0999 V2000     
   23.1076   18.2672   22.5678 C   0  0  0  0  0  0  0  0  0  0  0  0
   23.9949   18.8540   21.9806 O   0  5  0  0  0  0  0  0  0  0  0  0
   23.2873   17.6108   23.5744 O   0  0  0  0  0  0  0  0  0  0  0  0
   21.6878   18.3782   22.0237 C   0  0  0  0  0  0  0  0  0  0  0  0
   21.1735   17.4349   22.2393 H   0  0  0  0  0  0  0  0  0  0  0  0
   21.7479   18.4745   20.9330 H   0  0  0  0  0  0  0  0  0  0  0  0
   20.9069   19.5761   22.6240 C   0  0  0  0  0  0  0  0  0  0  0  0
   20.8146   19.4463   23.7111 H   0  0  0  0  0  0  0  0  0  0  0  0
   21.4939   20.4922   22.4698 H   0  0  0  0  0  0  0  0  0  0  0  0
   19.5052   19.7749   22.0002 C   0  0  0  0  0  0  0  0  0  0  0  0
   19.6016   19.9129   20.9145 H   0  0  0  0  0  0  0  0  0  0  0  0
   19.0768   20.7063   22.3950 H   0  0  0  0  0  0  0  0  0  0  0  0
   18.5318   18.6111   22.2929 C   0  0  0  0  0  0  0  0  0  0  0  0
   18.9044   17.6828   21.8404 H   0  0  0  0  0  0  0  0  0  0  0  0
   18.4744   18.4395   23.3766 H   0  0  0  0  0  0  0  0  0  0  0  0
   17.1204   18.9039   21.7456 C   0  0  0  0  0  0  0  0  0  0  0  0
   16.4419   18.0676   21.9585 H   0  0  0  0  0  0  0  0  0  0  0  0
   16.6995   19.8072   22.2063 H   0  0  0  0  0  0  0  0  0  0  0  0
   17.1443   19.0527   20.6581 H   0  0  0  0  0  0  0  0  0  0  0  0
  1  2  1  0  0  0  0
  1  3  2  0  0  0  0
  1  4  1  0  0  0  0
  4  5  1  0  0  0  0
  4  6  1  0  0  0  0
  4  7  1  0  0  0  0
  7  8  1  0  0  0  0
  7  9  1  0  0  0  0
  7 10  1  0  0  0  0
 10 11  1  0  0  0  0
 10 12  1  0  0  0  0
 10 13  1  0  0  0  0
 13 14  1  0  0  0  0
 13 15  1  0  0  0  0
 13 16  1  0  0  0  0
 16 17  1  0  0  0  0
 16 18  1  0  0  0  0
 16 19  1  0  0  0  0
M  END
> <VConfSearch Rank>
611

> <Conf_Id>
34

> <Delta U+W>
-0.563

> <U+W>
-55.455

> <U>
6.914

> <W>
-62.369

> <W(PB)>
-64.446

> <W(SA)>
2.077

> <Valence>
7.196

> <Coulomb>
-1.020

> <VdW>
0.738

> <VdW6>
-6.010

> <VdW12>
6.748

> <Bond>
0.126

> <Angle>
2.499

> <Pdih>
4.570

> <Idih>
0.001

> <Tether>
0.000

$$$$
VeraChem MOL file


 19 18  0  0  0  0  0  0  0  0999 V2000     
   20.4865   20.2982   19.3268 C   0  0  0  0  0  0  0  0  0  0  0  0
   21.3405   19.9289   18.5454 O   0  5  0  0  0  0  0  0  0  0  0  0
   19.9565   21.3904   19.2769 O   0  0  0  0  0  0  0  0  0  0  0  0
   20.0731   19.3470   20.4444 C   0  0  0  0  0  0  0  0  0  0  0  0
   20.1646   18.3208   20.0690 H   0  0  0  0  0  0  0  0  0  0  0  0
   19.0125   19.5227   20.6563 H   0  0  0  0  0  0  0  0  0  0  0  0
   20.9240   19.5244   21.7288 C   0  0  0  0  0  0  0  0  0  0  0  0
   21.9862   19.4321   21.4634 H   0  0  0  0  0  0  0  0  0  0  0  0
   20.7895   20.5422   22.1204 H   0  0  0  0  0  0  0  0  0  0  0  0
   20.5977   18.4916   22.8336 C   0  0  0  0  0  0  0  0  0  0  0  0
   21.3218   18.6147   23.6506 H   0  0  0  0  0  0  0  0  0  0  0  0
   20.7413   17.4754   22.4415 H   0  0  0  0  0  0  0  0  0  0  0  0
   19.1686   18.6327   23.4038 C   0  0  0  0  0  0  0  0  0  0  0  0
   19.0074   19.6632   23.7495 H   0  0  0  0  0  0  0  0  0  0  0  0
   18.4265   18.4381   22.6184 H   0  0  0  0  0  0  0  0  0  0  0  0
   18.9281   17.6571   24.5732 C   0  0  0  0  0  0  0  0  0  0  0  0
   19.0559   16.6161   24.2485 H   0  0  0  0  0  0  0  0  0  0  0  0
   19.6298   17.8485   25.3957 H   0  0  0  0  0  0  0  0  0  0  0  0
   17.9087   17.7672   24.9653 H   0  0  0  0  0  0  0  0  0  0  0  0
  1  2  1  0  0  0  0
  1  3  2  0  0  0  0
  1  4  1  0  0  0  0
  4  5  1  0  0  0  0
  4  6  1  0  0  0  0
  4  7  1  0  0  0  0
  7  8  1  0  0  0  0
  7  9  1  0  0  0  0
  7 10  1  0  0  0  0
 10 11  1  0  0  0  0
 10 12  1  0  0  0  0
 10 13  1  0  0  0  0
 13 14  1  0  0  0  0
 13 15  1  0  0  0  0
 13 16  1  0  0  0  0
 16 17  1  0  0  0  0
 16 18  1  0  0  0  0
 16 19  1  0  0  0  0
M  END
> <VConfSearch Rank>
612

> <Conf_Id>
33

> <Delta U+W>
-0.526

> <U+W>
-55.418

> <U>
6.914

> <W>
-62.332

> <W(PB)>
-64.421

> <W(SA)>
2.090

> <Valence>
7.196

> <Coulomb>
-1.020

> <VdW>
0.738

> <VdW6>
-6.010

> <VdW12>
6.748

> <Bond>
0.126

> <Angle>
2.499

> <Pdih>
4.570

> <Idih>
0.001

> <Tether>
0.000

$$$$
VeraChem MOL file


 19 18  0  0  0  0  0  0  0  0999 V2000     
   22.8934   19.1055   21.1920 C   0  0  0  0  0  0  0  0  0  0  0  0
   23.4703   18.0666   21.4450 O   0  5  0  0  0  0  0  0  0  0  0  0
   23.0995   19.7626   20.1910 O   0  0  0  0  0  0  0  0  0  0  0  0
   21.8403   19.6029   22.1758 C   0  0  0  0  0  0  0  0  0  0  0  0
   21.8450   20.6993   22.1543 H   0  0  0  0  0  0  0  0  0  0  0  0
   22.1441   19.2971   23.1842 H   0  0  0  0  0  0  0  0  0  0  0  0
   20.4214   19.0679   21.8609 C   0  0  0  0  0  0  0  0  0  0  0  0
   20.1355   19.3741   20.8452 H   0  0  0  0  0  0  0  0  0  0  0  0
   20.4455   17.9702   21.8697 H   0  0  0  0  0  0  0  0  0  0  0  0
   19.3755   19.5849   22.8754 C   0  0  0  0  0  0  0  0  0  0  0  0
   19.4170   20.6824   22.9038 H   0  0  0  0  0  0  0  0  0  0  0  0
   19.6349   19.2373   23.8848 H   0  0  0  0  0  0  0  0  0  0  0  0
   17.9287   19.1570   22.5374 C   0  0  0  0  0  0  0  0  0  0  0  0
   17.2411   19.6591   23.2320 H   0  0  0  0  0  0  0  0  0  0  0  0
   17.6634   19.5078   21.5304 H   0  0  0  0  0  0  0  0  0  0  0  0
   17.7047   17.6323   22.6320 C   0  0  0  0  0  0  0  0  0  0  0  0
   17.9911   17.2537   23.6218 H   0  0  0  0  0  0  0  0  0  0  0  0
   16.6465   17.3893   22.4705 H   0  0  0  0  0  0  0  0  0  0  0  0
   18.2881   17.0938   21.8748 H   0  0  0  0  0  0  0  0  0  0  0  0
  1  2  1  0  0  0  0
  1  3  2  0  0  0  0
  1  4  1  0  0  0  0
  4  5  1  0  0  0  0
  4  6  1  0  0  0  0
  4  7  1  0  0  0  0
  7  8  1  0  0  0  0
  7  9  1  0  0  0  0
  7 10  1  0  0  0  0
 10 11  1  0  0  0  0
 10 12  1  0  0  0  0
 10 13  1  0  0  0  0
 13 14  1  0  0  0  0
 13 15  1  0  0  0  0
 13 16  1  0  0  0  0
 16 17  1  0  0  0  0
 16 18  1  0  0  0  0
 16 19  1  0  0  0  0
M  END
> <VConfSearch Rank>
613

> <Conf_Id>
42

> <Delta U+W>
-0.344

> <U+W>
-55.236

> <U>
7.244

> <W>
-62.479

> <W(PB)>
-64.610

> <W(SA)>
2.130

> <Valence>
7.174

> <Coulomb>
-0.669

> <VdW>
0.739

> <VdW6>
-5.969

> <VdW12>
6.708

> <Bond>
0.116

> <Angle>
2.481

> <Pdih>
4.576

> <Idih>
0.000

> <Tether>
0.000

$$$$
VeraChem MOL file


 19 18  0  0  0  0  0  0  0  0999 V2000     
   17.2529   18.4523   20.8478 C   0  0  0  0  0  0  0  0  0  0  0  0
   16.8171   19.5027   20.4202 O   0  5  0  0  0  0  0  0  0  0  0  0
   16.5533   17.5706   21.3056 O   0  0  0  0  0  0  0  0  0  0  0  0
   18.7619   18.2359   20.8256 C   0  0  0  0  0  0  0  0  0  0  0  0
   19.1691   18.7625   19.9540 H   0  0  0  0  0  0  0  0  0  0  0  0
   18.9504   17.1661   20.6753 H   0  0  0  0  0  0  0  0  0  0  0  0
   19.4596   18.7255   22.1186 C   0  0  0  0  0  0  0  0  0  0  0  0
   19.2416   19.7926   22.2578 H   0  0  0  0  0  0  0  0  0  0  0  0
   19.0348   18.1962   22.9827 H   0  0  0  0  0  0  0  0  0  0  0  0
   20.9880   18.4974   22.0670 C   0  0  0  0  0  0  0  0  0  0  0  0
   21.4196   19.0663   21.2321 H   0  0  0  0  0  0  0  0  0  0  0  0
   21.1843   17.4372   21.8559 H   0  0  0  0  0  0  0  0  0  0  0  0
   21.7102   18.8782   23.3800 C   0  0  0  0  0  0  0  0  0  0  0  0
   21.2849   18.3070   24.2168 H   0  0  0  0  0  0  0  0  0  0  0  0
   22.7641   18.5774   23.3027 H   0  0  0  0  0  0  0  0  0  0  0  0
   21.6465   20.3881   23.6964 C   0  0  0  0  0  0  0  0  0  0  0  0
   20.6176   20.7128   23.8957 H   0  0  0  0  0  0  0  0  0  0  0  0
   22.2459   20.6191   24.5866 H   0  0  0  0  0  0  0  0  0  0  0  0
   22.0398   20.9816   22.8608 H   0  0  0  0  0  0  0  0  0  0  0  0
  1  2  1  0  0  0  0
  1  3  2  0  0  0  0
  1  4  1  0  0  0  0
  4  5  1  0  0  0  0
  4  6  1  0  0  0  0
  4  7  1  0  0  0  0
  7  8  1  0  0  0  0
  7  9  1  0  0  0  0
  7 10  1  0  0  0  0
 10 11  1  0  0  0  0
 10 12  1  0  0  0  0
 10 13  1  0  0  0  0
 13 14  1  0  0  0  0
 13 15  1  0  0  0  0
 13 16  1  0  0  0  0
 16 17  1  0  0  0  0
 16 18  1  0  0  0  0
 16 19  1  0  0  0  0
M  END
> <VConfSearch Rank>
614

> <Conf_Id>
41

> <Delta U+W>
-0.361

> <U+W>
-55.252

> <U>
7.244

> <W>
-62.496

> <W(PB)>
-64.596

> <W(SA)>
2.099

> <Valence>
7.174

> <Coulomb>
-0.669

> <VdW>
0.739

> <VdW6>
-5.969

> <VdW12>
6.708

> <Bond>
0.116

> <Angle>
2.481

> <Pdih>
4.576

> <Idih>
0.000

> <Tether>
0.000

$$$$
VeraChem MOL file


 19 18  0  0  0  0  0  0  0  0999 V2000     
   22.0869   19.1028   20.5862 C   0  0  0  0  0  0  0  0  0  0  0  0
   21.9182   20.2051   20.1036 O   0  5  0  0  0  0  0  0  0  0  0  0
   23.1361   18.7388   21.0795 O   0  0  0  0  0  0  0  0  0  0  0  0
   20.9262   18.1123   20.5522 C   0  0  0  0  0  0  0  0  0  0  0  0
   21.3243   17.1525   20.2024 H   0  0  0  0  0  0  0  0  0  0  0  0
   20.2011   18.4479   19.8009 H   0  0  0  0  0  0  0  0  0  0  0  0
   20.2252   17.9138   21.9213 C   0  0  0  0  0  0  0  0  0  0  0  0
   19.5029   17.0907   21.8357 H   0  0  0  0  0  0  0  0  0  0  0  0
   20.9687   17.6058   22.6696 H   0  0  0  0  0  0  0  0  0  0  0  0
   19.4929   19.1859   22.4040 C   0  0  0  0  0  0  0  0  0  0  0  0
   18.7601   19.4972   21.6469 H   0  0  0  0  0  0  0  0  0  0  0  0
   20.2121   20.0100   22.5086 H   0  0  0  0  0  0  0  0  0  0  0  0
   18.7770   18.9563   23.7513 C   0  0  0  0  0  0  0  0  0  0  0  0
   18.0531   18.1356   23.6516 H   0  0  0  0  0  0  0  0  0  0  0  0
   19.5081   18.6471   24.5111 H   0  0  0  0  0  0  0  0  0  0  0  0
   18.0472   20.2272   24.2301 C   0  0  0  0  0  0  0  0  0  0  0  0
   17.2874   20.5414   23.5026 H   0  0  0  0  0  0  0  0  0  0  0  0
   17.5443   20.0465   25.1890 H   0  0  0  0  0  0  0  0  0  0  0  0
   18.7531   21.0567   24.3684 H   0  0  0  0  0  0  0  0  0  0  0  0
  1  2  1  0  0  0  0
  1  3  2  0  0  0  0
  1  4  1  0  0  0  0
  4  5  1  0  0  0  0
  4  6  1  0  0  0  0
  4  7  1  0  0  0  0
  7  8  1  0  0  0  0
  7  9  1  0  0  0  0
  7 10  1  0  0  0  0
 10 11  1  0  0  0  0
 10 12  1  0  0  0  0
 10 13  1  0  0  0  0
 13 14  1  0  0  0  0
 13 15  1  0  0  0  0
 13 16  1  0  0  0  0
 16 17  1  0  0  0  0
 16 18  1  0  0  0  0
 16 19  1  0  0  0  0
M  END
> <VConfSearch Rank>
615

> <Conf_Id>
36

> <Delta U+W>
-0.079

> <U+W>
-54.971

> <U>
8.266

> <W>
-63.237

> <W(PB)>
-65.340

> <W(SA)>
2.103

> <Valence>
6.935

> <Coulomb>
0.874

> <VdW>
0.457

> <VdW6>
-6.205

> <VdW12>
6.662

> <Bond>
0.107

> <Angle>
2.420

> <Pdih>
4.407

> <Idih>
0.001

> <Tether>
0.000

$$$$
VeraChem MOL file


 19 18  0  0  0  0  0  0  0  0999 V2000     
   19.9265   18.9443   19.4866 C   0  0  0  0  0  0  0  0  0  0  0  0
   20.0125   17.7509   19.2744 O   0  5  0  0  0  0  0  0  0  0  0  0
   20.6070   19.7778   18.9220 O   0  0  0  0  0  0  0  0  0  0  0  0
   18.8934   19.4264   20.5013 C   0  0  0  0  0  0  0  0  0  0  0  0
   18.1562   18.6293   20.6566 H   0  0  0  0  0  0  0  0  0  0  0  0
   18.3582   20.2697   20.0489 H   0  0  0  0  0  0  0  0  0  0  0  0
   19.4996   19.8667   21.8591 C   0  0  0  0  0  0  0  0  0  0  0  0
   20.2560   20.6446   21.6849 H   0  0  0  0  0  0  0  0  0  0  0  0
   18.7099   20.3247   22.4701 H   0  0  0  0  0  0  0  0  0  0  0  0
   20.1286   18.6902   22.6385 C   0  0  0  0  0  0  0  0  0  0  0  0
   20.9315   18.2371   22.0406 H   0  0  0  0  0  0  0  0  0  0  0  0
   19.3722   17.9097   22.7988 H   0  0  0  0  0  0  0  0  0  0  0  0
   20.6969   19.1450   23.9989 C   0  0  0  0  0  0  0  0  0  0  0  0
   21.4556   19.9241   23.8414 H   0  0  0  0  0  0  0  0  0  0  0  0
   19.8971   19.5953   24.6032 H   0  0  0  0  0  0  0  0  0  0  0  0
   21.3238   17.9690   24.7741 C   0  0  0  0  0  0  0  0  0  0  0  0
   22.1483   17.5191   24.2055 H   0  0  0  0  0  0  0  0  0  0  0  0
   21.7231   18.3099   25.7381 H   0  0  0  0  0  0  0  0  0  0  0  0
   20.5783   17.1879   24.9730 H   0  0  0  0  0  0  0  0  0  0  0  0
  1  2  1  0  0  0  0
  1  3  2  0  0  0  0
  1  4  1  0  0  0  0
  4  5  1  0  0  0  0
  4  6  1  0  0  0  0
  4  7  1  0  0  0  0
  7  8  1  0  0  0  0
  7  9  1  0  0  0  0
  7 10  1  0  0  0  0
 10 11  1  0  0  0  0
 10 12  1  0  0  0  0
 10 13  1  0  0  0  0
 13 14  1  0  0  0  0
 13 15  1  0  0  0  0
 13 16  1  0  0  0  0
 16 17  1  0  0  0  0
 16 18  1  0  0  0  0
 16 19  1  0  0  0  0
M  END
> <VConfSearch Rank>
616

> <Conf_Id>
35

> <Delta U+W>
-0.030

> <U+W>
-54.921

> <U>
8.267

> <W>
-63.188

> <W(PB)>
-65.294

> <W(SA)>
2.106

> <Valence>
6.935

> <Coulomb>
0.875

> <VdW>
0.457

> <VdW6>
-6.205

> <VdW12>
6.662

> <Bond>
0.107

> <Angle>
2.420

> <Pdih>
4.407

> <Idih>
0.001

> <Tether>
0.000

$$$$
VeraChem MOL file


 19 18  0  0  0  0  0  0  0  0999 V2000     
   17.7045   17.1876   22.1013 C   0  0  0  0  0  0  0  0  0  0  0  0
   17.5209   16.4948   23.0827 O   0  5  0  0  0  0  0  0  0  0  0  0
   17.6627   16.7643   20.9630 O   0  0  0  0  0  0  0  0  0  0  0  0
   17.9809   18.6739   22.3113 C   0  0  0  0  0  0  0  0  0  0  0  0
   17.2513   19.0423   23.0420 H   0  0  0  0  0  0  0  0  0  0  0  0
   17.7836   19.2036   21.3713 H   0  0  0  0  0  0  0  0  0  0  0  0
   19.4157   18.9867   22.8105 C   0  0  0  0  0  0  0  0  0  0  0  0
   19.4675   20.0501   23.0767 H   0  0  0  0  0  0  0  0  0  0  0  0
   19.6127   18.4190   23.7304 H   0  0  0  0  0  0  0  0  0  0  0  0
   20.4968   18.6622   21.7520 C   0  0  0  0  0  0  0  0  0  0  0  0
   20.3201   19.2595   20.8470 H   0  0  0  0  0  0  0  0  0  0  0  0
   20.4032   17.6097   21.4513 H   0  0  0  0  0  0  0  0  0  0  0  0
   21.9396   18.8989   22.2551 C   0  0  0  0  0  0  0  0  0  0  0  0
   22.1200   18.3010   23.1592 H   0  0  0  0  0  0  0  0  0  0  0  0
   22.6422   18.5310   21.4947 H   0  0  0  0  0  0  0  0  0  0  0  0
   22.2520   20.3834   22.5426 C   0  0  0  0  0  0  0  0  0  0  0  0
   21.6536   20.7644   23.3794 H   0  0  0  0  0  0  0  0  0  0  0  0
   23.3099   20.5083   22.8073 H   0  0  0  0  0  0  0  0  0  0  0  0
   22.0485   21.0055   21.6613 H   0  0  0  0  0  0  0  0  0  0  0  0
  1  2  1  0  0  0  0
  1  3  2  0  0  0  0
  1  4  1  0  0  0  0
  4  5  1  0  0  0  0
  4  6  1  0  0  0  0
  4  7  1  0  0  0  0
  7  8  1  0  0  0  0
  7  9  1  0  0  0  0
  7 10  1  0  0  0  0
 10 11  1  0  0  0  0
 10 12  1  0  0  0  0
 10 13  1  0  0  0  0
 13 14  1  0  0  0  0
 13 15  1  0  0  0  0
 13 16  1  0  0  0  0
 16 17  1  0  0  0  0
 16 18  1  0  0  0  0
 16 19  1  0  0  0  0
M  END
> <VConfSearch Rank>
617

> <Conf_Id>
74

> <Delta U+W>
0.797

> <U+W>
-54.095

> <U>
8.869

> <W>
-62.964

> <W(PB)>
-65.046

> <W(SA)>
2.082

> <Valence>
7.469

> <Coulomb>
0.762

> <VdW>
0.639

> <VdW6>
-6.782

> <VdW12>
7.421

> <Bond>
0.141

> <Angle>
2.667

> <Pdih>
4.660

> <Idih>
0.001

> <Tether>
0.000

$$$$
VeraChem MOL file


 19 18  0  0  0  0  0  0  0  0999 V2000     
   22.4165   17.4661   21.5900 C   0  0  0  0  0  0  0  0  0  0  0  0
   23.1665   17.6317   20.6484 O   0  5  0  0  0  0  0  0  0  0  0  0
   22.7465   16.9201   22.6241 O   0  0  0  0  0  0  0  0  0  0  0  0
   20.9891   17.9888   21.4740 C   0  0  0  0  0  0  0  0  0  0  0  0
   20.3405   17.3188   22.0499 H   0  0  0  0  0  0  0  0  0  0  0  0
   20.6833   17.9156   20.4236 H   0  0  0  0  0  0  0  0  0  0  0  0
   20.8418   19.4494   21.9735 C   0  0  0  0  0  0  0  0  0  0  0  0
   21.1140   19.5034   23.0359 H   0  0  0  0  0  0  0  0  0  0  0  0
   21.5686   20.0787   21.4415 H   0  0  0  0  0  0  0  0  0  0  0  0
   19.4258   20.0390   21.7544 C   0  0  0  0  0  0  0  0  0  0  0  0
   19.2161   20.0695   20.6765 H   0  0  0  0  0  0  0  0  0  0  0  0
   19.4228   21.0840   22.0934 H   0  0  0  0  0  0  0  0  0  0  0  0
   18.2778   19.2797   22.4638 C   0  0  0  0  0  0  0  0  0  0  0  0
   17.3285   19.7782   22.2241 H   0  0  0  0  0  0  0  0  0  0  0  0
   18.1938   18.2602   22.0646 H   0  0  0  0  0  0  0  0  0  0  0  0
   18.4366   19.2264   23.9985 C   0  0  0  0  0  0  0  0  0  0  0  0
   18.5454   20.2352   24.4175 H   0  0  0  0  0  0  0  0  0  0  0  0
   17.5561   18.7611   24.4599 H   0  0  0  0  0  0  0  0  0  0  0  0
   19.3150   18.6358   24.2882 H   0  0  0  0  0  0  0  0  0  0  0  0
  1  2  1  0  0  0  0
  1  3  2  0  0  0  0
  1  4  1  0  0  0  0
  4  5  1  0  0  0  0
  4  6  1  0  0  0  0
  4  7  1  0  0  0  0
  7  8  1  0  0  0  0
  7  9  1  0  0  0  0
  7 10  1  0  0  0  0
 10 11  1  0  0  0  0
 10 12  1  0  0  0  0
 10 13  1  0  0  0  0
 13 14  1  0  0  0  0
 13 15  1  0  0  0  0
 13 16  1  0  0  0  0
 16 17  1  0  0  0  0
 16 18  1  0  0  0  0
 16 19  1  0  0  0  0
M  END
> <VConfSearch Rank>
618

> <Conf_Id>
67

> <Delta U+W>
0.308

> <U+W>
-54.583

> <U>
8.219

> <W>
-62.802

> <W(PB)>
-64.859

> <W(SA)>
2.057

> <Valence>
7.609

> <Coulomb>
-0.089

> <VdW>
0.699

> <VdW6>
-6.924

> <VdW12>
7.623

> <Bond>
0.163

> <Angle>
2.870

> <Pdih>
4.576

> <Idih>
0.001

> <Tether>
0.000

$$$$
VeraChem MOL file


 19 18  0  0  0  0  0  0  0  0999 V2000     
   21.4677   21.3647   21.6320 C   0  0  0  0  0  0  0  0  0  0  0  0
   22.2753   21.9809   22.2987 O   0  5  0  0  0  0  0  0  0  0  0  0
   20.8338   21.8572   20.7199 O   0  0  0  0  0  0  0  0  0  0  0  0
   21.2227   19.8988   21.9715 C   0  0  0  0  0  0  0  0  0  0  0  0
   22.1609   19.4745   22.3485 H   0  0  0  0  0  0  0  0  0  0  0  0
   20.9799   19.3764   21.0392 H   0  0  0  0  0  0  0  0  0  0  0  0
   20.0909   19.7047   23.0136 C   0  0  0  0  0  0  0  0  0  0  0  0
   20.3196   20.3129   23.8996 H   0  0  0  0  0  0  0  0  0  0  0  0
   19.1487   20.0986   22.6102 H   0  0  0  0  0  0  0  0  0  0  0  0
   19.9065   18.2326   23.4606 C   0  0  0  0  0  0  0  0  0  0  0  0
   19.1204   18.1928   24.2269 H   0  0  0  0  0  0  0  0  0  0  0  0
   20.8275   17.8924   23.9532 H   0  0  0  0  0  0  0  0  0  0  0  0
   19.5513   17.2386   22.3276 C   0  0  0  0  0  0  0  0  0  0  0  0
   20.3722   17.1830   21.6006 H   0  0  0  0  0  0  0  0  0  0  0  0
   19.4613   16.2329   22.7606 H   0  0  0  0  0  0  0  0  0  0  0  0
   18.2344   17.5854   21.6004 C   0  0  0  0  0  0  0  0  0  0  0  0
   18.3182   18.5339   21.0547 H   0  0  0  0  0  0  0  0  0  0  0  0
   17.9803   16.8042   20.8724 H   0  0  0  0  0  0  0  0  0  0  0  0
   17.4028   17.6688   22.3120 H   0  0  0  0  0  0  0  0  0  0  0  0
  1  2  1  0  0  0  0
  1  3  2  0  0  0  0
  1  4  1  0  0  0  0
  4  5  1  0  0  0  0
  4  6  1  0  0  0  0
  4  7  1  0  0  0  0
  7  8  1  0  0  0  0
  7  9  1  0  0  0  0
  7 10  1  0  0  0  0
 10 11  1  0  0  0  0
 10 12  1  0  0  0  0
 10 13  1  0  0  0  0
 13 14  1  0  0  0  0
 13 15  1  0  0  0  0
 13 16  1  0  0  0  0
 16 17  1  0  0  0  0
 16 18  1  0  0  0  0
 16 19  1  0  0  0  0
M  END
> <VConfSearch Rank>
619

> <Conf_Id>
21

> <Delta U+W>
0.319

> <U+W>
-54.572

> <U>
8.220

> <W>
-62.792

> <W(PB)>
-64.830

> <W(SA)>
2.038

> <Valence>
7.609

> <Coulomb>
-0.088

> <VdW>
0.699

> <VdW6>
-6.924

> <VdW12>
7.623

> <Bond>
0.163

> <Angle>
2.870

> <Pdih>
4.576

> <Idih>
0.000

> <Tether>
0.000

$$$$
VeraChem MOL file


 19 18  0  0  0  0  0  0  0  0999 V2000     
   21.2823   18.4280   24.8610 C   0  0  0  0  0  0  0  0  0  0  0  0
   21.1367   18.9701   25.9387 O   0  5  0  0  0  0  0  0  0  0  0  0
   21.7328   17.3076   24.7275 O   0  0  0  0  0  0  0  0  0  0  0  0
   20.8592   19.1889   23.6095 C   0  0  0  0  0  0  0  0  0  0  0  0
   21.5199   18.8842   22.7919 H   0  0  0  0  0  0  0  0  0  0  0  0
   21.0401   20.2560   23.7852 H   0  0  0  0  0  0  0  0  0  0  0  0
   19.3702   18.9565   23.2398 C   0  0  0  0  0  0  0  0  0  0  0  0
   19.1732   17.8821   23.1205 H   0  0  0  0  0  0  0  0  0  0  0  0
   18.7560   19.2875   24.0886 H   0  0  0  0  0  0  0  0  0  0  0  0
   18.9215   19.7280   21.9728 C   0  0  0  0  0  0  0  0  0  0  0  0
   19.5030   20.6539   21.8647 H   0  0  0  0  0  0  0  0  0  0  0  0
   17.8796   20.0450   22.1174 H   0  0  0  0  0  0  0  0  0  0  0  0
   18.9800   18.9069   20.6613 C   0  0  0  0  0  0  0  0  0  0  0  0
   18.3248   18.0290   20.7470 H   0  0  0  0  0  0  0  0  0  0  0  0
   18.5673   19.5197   19.8480 H   0  0  0  0  0  0  0  0  0  0  0  0
   20.3985   18.4494   20.2636 C   0  0  0  0  0  0  0  0  0  0  0  0
   20.3880   17.9906   19.2665 H   0  0  0  0  0  0  0  0  0  0  0  0
   21.0943   19.2981   20.2387 H   0  0  0  0  0  0  0  0  0  0  0  0
   20.7843   17.7008   20.9669 H   0  0  0  0  0  0  0  0  0  0  0  0
  1  2  1  0  0  0  0
  1  3  2  0  0  0  0
  1  4  1  0  0  0  0
  4  5  1  0  0  0  0
  4  6  1  0  0  0  0
  4  7  1  0  0  0  0
  7  8  1  0  0  0  0
  7  9  1  0  0  0  0
  7 10  1  0  0  0  0
 10 11  1  0  0  0  0
 10 12  1  0  0  0  0
 10 13  1  0  0  0  0
 13 14  1  0  0  0  0
 13 15  1  0  0  0  0
 13 16  1  0  0  0  0
 16 17  1  0  0  0  0
 16 18  1  0  0  0  0
 16 19  1  0  0  0  0
M  END
> <VConfSearch Rank>
620

> <Conf_Id>
24

> <Delta U+W>
2.477

> <U+W>
-52.414

> <U>
10.422

> <W>
-62.836

> <W(PB)>
-64.906

> <W(SA)>
2.070

> <Valence>
9.628

> <Coulomb>
0.101

> <VdW>
0.693

> <VdW6>
-6.927

> <VdW12>
7.620

> <Bond>
0.173

> <Angle>
2.989

> <Pdih>
6.465

> <Idih>
0.001

> <Tether>
0.000

$$$$
VeraChem MOL file


 19 18  0  0  0  0  0  0  0  0999 V2000     
   21.6342   17.3763   21.4394 C   0  0  0  0  0  0  0  0  0  0  0  0
   20.9776   16.3699   21.6203 O   0  5  0  0  0  0  0  0  0  0  0  0
   22.4327   17.5020   20.5318 O   0  0  0  0  0  0  0  0  0  0  0  0
   21.4709   18.5352   22.4195 C   0  0  0  0  0  0  0  0  0  0  0  0
   22.4774   18.8490   22.7201 H   0  0  0  0  0  0  0  0  0  0  0  0
   20.9779   18.1580   23.3211 H   0  0  0  0  0  0  0  0  0  0  0  0
   20.7066   19.7548   21.8335 C   0  0  0  0  0  0  0  0  0  0  0  0
   20.8051   20.6151   22.5090 H   0  0  0  0  0  0  0  0  0  0  0  0
   21.2017   20.0479   20.8973 H   0  0  0  0  0  0  0  0  0  0  0  0
   19.2070   19.4860   21.5426 C   0  0  0  0  0  0  0  0  0  0  0  0
   19.0475   18.4293   21.2881 H   0  0  0  0  0  0  0  0  0  0  0  0
   18.9273   20.0536   20.6446 H   0  0  0  0  0  0  0  0  0  0  0  0
   18.2431   19.9078   22.6787 C   0  0  0  0  0  0  0  0  0  0  0  0
   18.3437   20.9856   22.8671 H   0  0  0  0  0  0  0  0  0  0  0  0
   17.2112   19.7510   22.3356 H   0  0  0  0  0  0  0  0  0  0  0  0
   18.4469   19.1357   23.9985 C   0  0  0  0  0  0  0  0  0  0  0  0
   19.4044   19.3969   24.4657 H   0  0  0  0  0  0  0  0  0  0  0  0
   17.6520   19.3822   24.7142 H   0  0  0  0  0  0  0  0  0  0  0  0
   18.4255   18.0514   23.8274 H   0  0  0  0  0  0  0  0  0  0  0  0
  1  2  1  0  0  0  0
  1  3  2  0  0  0  0
  1  4  1  0  0  0  0
  4  5  1  0  0  0  0
  4  6  1  0  0  0  0
  4  7  1  0  0  0  0
  7  8  1  0  0  0  0
  7  9  1  0  0  0  0
  7 10  1  0  0  0  0
 10 11  1  0  0  0  0
 10 12  1  0  0  0  0
 10 13  1  0  0  0  0
 13 14  1  0  0  0  0
 13 15  1  0  0  0  0
 13 16  1  0  0  0  0
 16 17  1  0  0  0  0
 16 18  1  0  0  0  0
 16 19  1  0  0  0  0
M  END
> <VConfSearch Rank>
621

> <Conf_Id>
4

> <Delta U+W>
3.753

> <U+W>
-51.138

> <U>
12.334

> <W>
-63.472

> <W(PB)>
-65.500

> <W(SA)>
2.028

> <Valence>
9.984

> <Coulomb>
1.767

> <VdW>
0.583

> <VdW6>
-7.767

> <VdW12>
8.349

> <Bond>
0.203

> <Angle>
3.191

> <Pdih>
6.589

> <Idih>
0.001

> <Tether>
0.000

$$$$
VeraChem MOL file


 19 18  0  0  0  0  0  0  0  0999 V2000     
   18.3712   19.8976   24.2579 C   0  0  0  0  0  0  0  0  0  0  0  0
   18.6380   20.4878   25.2863 O   0  5  0  0  0  0  0  0  0  0  0  0
   17.4719   20.2267   23.5099 O   0  0  0  0  0  0  0  0  0  0  0  0
   19.1926   18.6603   23.9048 C   0  0  0  0  0  0  0  0  0  0  0  0
   18.6434   18.0841   23.1535 H   0  0  0  0  0  0  0  0  0  0  0  0
   19.2411   18.0364   24.8049 H   0  0  0  0  0  0  0  0  0  0  0  0
   20.6352   18.9770   23.4214 C   0  0  0  0  0  0  0  0  0  0  0  0
   21.1154   19.6119   24.1788 H   0  0  0  0  0  0  0  0  0  0  0  0
   21.2264   18.0522   23.3841 H   0  0  0  0  0  0  0  0  0  0  0  0
   20.7028   19.6978   22.0497 C   0  0  0  0  0  0  0  0  0  0  0  0
   21.5503   20.3963   22.0735 H   0  0  0  0  0  0  0  0  0  0  0  0
   19.8097   20.3190   21.8968 H   0  0  0  0  0  0  0  0  0  0  0  0
   20.9079   18.7584   20.8359 C   0  0  0  0  0  0  0  0  0  0  0  0
   21.0239   19.3754   19.9343 H   0  0  0  0  0  0  0  0  0  0  0  0
   21.8498   18.2048   20.9526 H   0  0  0  0  0  0  0  0  0  0  0  0
   19.7528   17.7620   20.6067 C   0  0  0  0  0  0  0  0  0  0  0  0
   18.7873   18.2826   20.5607 H   0  0  0  0  0  0  0  0  0  0  0  0
   19.8930   17.2226   19.6610 H   0  0  0  0  0  0  0  0  0  0  0  0
   19.7093   17.0155   21.4093 H   0  0  0  0  0  0  0  0  0  0  0  0
  1  2  1  0  0  0  0
  1  3  2  0  0  0  0
  1  4  1  0  0  0  0
  4  5  1  0  0  0  0
  4  6  1  0  0  0  0
  4  7  1  0  0  0  0
  7  8  1  0  0  0  0
  7  9  1  0  0  0  0
  7 10  1  0  0  0  0
 10 11  1  0  0  0  0
 10 12  1  0  0  0  0
 10 13  1  0  0  0  0
 13 14  1  0  0  0  0
 13 15  1  0  0  0  0
 13 16  1  0  0  0  0
 16 17  1  0  0  0  0
 16 18  1  0  0  0  0
 16 19  1  0  0  0  0
M  END
> <VConfSearch Rank>
622

> <Conf_Id>
73

> <Delta U+W>
3.707

> <U+W>
-51.184

> <U>
12.334

> <W>
-63.519

> <W(PB)>
-65.541

> <W(SA)>
2.022

> <Valence>
9.984

> <Coulomb>
1.768

> <VdW>
0.583

> <VdW6>
-7.767

> <VdW12>
8.350

> <Bond>
0.203

> <Angle>
3.192

> <Pdih>
6.589

> <Idih>
0.001

> <Tether>
0.000

$$$$
VeraChem MOL file


 19 18  0  0  0  0  0  0  0  0999 V2000     
   20.7247   19.0766   19.9619 C   0  0  0  0  0  0  0  0  0  0  0  0
   21.8067   18.5714   20.1871 O   0  5  0  0  0  0  0  0  0  0  0  0
   20.1057   18.9050   18.9302 O   0  0  0  0  0  0  0  0  0  0  0  0
   20.1233   20.0022   21.0159 C   0  0  0  0  0  0  0  0  0  0  0  0
   19.8354   20.9306   20.5091 H   0  0  0  0  0  0  0  0  0  0  0  0
   20.9052   20.2711   21.7354 H   0  0  0  0  0  0  0  0  0  0  0  0
   18.8872   19.4123   21.7482 C   0  0  0  0  0  0  0  0  0  0  0  0
   18.4766   20.1677   22.4306 H   0  0  0  0  0  0  0  0  0  0  0  0
   18.1001   19.2160   21.0072 H   0  0  0  0  0  0  0  0  0  0  0  0
   19.1700   18.1032   22.5295 C   0  0  0  0  0  0  0  0  0  0  0  0
   19.4642   17.3185   21.8190 H   0  0  0  0  0  0  0  0  0  0  0  0
   18.2340   17.7581   22.9893 H   0  0  0  0  0  0  0  0  0  0  0  0
   20.2567   18.2118   23.6269 C   0  0  0  0  0  0  0  0  0  0  0  0
   20.3798   17.2259   24.0955 H   0  0  0  0  0  0  0  0  0  0  0  0
   21.2274   18.4547   23.1739 H   0  0  0  0  0  0  0  0  0  0  0  0
   19.9182   19.2444   24.7236 C   0  0  0  0  0  0  0  0  0  0  0  0
   19.8972   20.2640   24.3186 H   0  0  0  0  0  0  0  0  0  0  0  0
   18.9403   19.0319   25.1748 H   0  0  0  0  0  0  0  0  0  0  0  0
   20.6720   19.2187   25.5211 H   0  0  0  0  0  0  0  0  0  0  0  0
  1  2  1  0  0  0  0
  1  3  2  0  0  0  0
  1  4  1  0  0  0  0
  4  5  1  0  0  0  0
  4  6  1  0  0  0  0
  4  7  1  0  0  0  0
  7  8  1  0  0  0  0
  7  9  1  0  0  0  0
  7 10  1  0  0  0  0
 10 11  1  0  0  0  0
 10 12  1  0  0  0  0
 10 13  1  0  0  0  0
 13 14  1  0  0  0  0
 13 15  1  0  0  0  0
 13 16  1  0  0  0  0
 16 17  1  0  0  0  0
 16 18  1  0  0  0  0
 16 19  1  0  0  0  0
M  END
> <VConfSearch Rank>
623

> <Conf_Id>
56

> <Delta U+W>
1.735

> <U+W>
-53.156

> <U>
10.214

> <W>
-63.370

> <W(PB)>
-65.388

> <W(SA)>
2.018

> <Valence>
7.868

> <Coulomb>
1.968

> <VdW>
0.378

> <VdW6>
-8.067

> <VdW12>
8.445

> <Bond>
0.191

> <Angle>
3.117

> <Pdih>
4.559

> <Idih>
0.001

> <Tether>
0.000

$$$$
VeraChem MOL file


 19 18  0  0  0  0  0  0  0  0999 V2000     
   17.5854   20.6370   21.9403 C   0  0  0  0  0  0  0  0  0  0  0  0
   17.6214   21.8492   22.0160 O   0  5  0  0  0  0  0  0  0  0  0  0
   16.5536   19.9957   21.9149 O   0  0  0  0  0  0  0  0  0  0  0  0
   18.9070   19.8784   21.8967 C   0  0  0  0  0  0  0  0  0  0  0  0
   19.6473   20.5108   21.3922 H   0  0  0  0  0  0  0  0  0  0  0  0
   18.7571   18.9870   21.2776 H   0  0  0  0  0  0  0  0  0  0  0  0
   19.4157   19.4763   23.3040 C   0  0  0  0  0  0  0  0  0  0  0  0
   19.4201   20.3692   23.9445 H   0  0  0  0  0  0  0  0  0  0  0  0
   18.7029   18.7751   23.7594 H   0  0  0  0  0  0  0  0  0  0  0  0
   20.8355   18.8563   23.3172 C   0  0  0  0  0  0  0  0  0  0  0  0
   21.1025   18.6651   24.3656 H   0  0  0  0  0  0  0  0  0  0  0  0
   21.5698   19.5869   22.9509 H   0  0  0  0  0  0  0  0  0  0  0  0
   20.9676   17.5253   22.5361 C   0  0  0  0  0  0  0  0  0  0  0  0
   21.6756   16.8752   23.0686 H   0  0  0  0  0  0  0  0  0  0  0  0
   20.0079   16.9904   22.5292 H   0  0  0  0  0  0  0  0  0  0  0  0
   21.4868   17.7136   21.0933 C   0  0  0  0  0  0  0  0  0  0  0  0
   21.5793   16.7429   20.5894 H   0  0  0  0  0  0  0  0  0  0  0  0
   20.8142   18.3380   20.4947 H   0  0  0  0  0  0  0  0  0  0  0  0
   22.4774   18.1868   21.0938 H   0  0  0  0  0  0  0  0  0  0  0  0
  1  2  1  0  0  0  0
  1  3  2  0  0  0  0
  1  4  1  0  0  0  0
  4  5  1  0  0  0  0
  4  6  1  0  0  0  0
  4  7  1  0  0  0  0
  7  8  1  0  0  0  0
  7  9  1  0  0  0  0
  7 10  1  0  0  0  0
 10 11  1  0  0  0  0
 10 12  1  0  0  0  0
 10 13  1  0  0  0  0
 13 14  1  0  0  0  0
 13 15  1  0  0  0  0
 13 16  1  0  0  0  0
 16 17  1  0  0  0  0
 16 18  1  0  0  0  0
 16 19  1  0  0  0  0
M  END
> <VConfSearch Rank>
624

> <Conf_Id>
53

> <Delta U+W>
2.279

> <U+W>
-52.612

> <U>
10.231

> <W>
-62.843

> <W(PB)>
-64.893

> <W(SA)>
2.050

> <Valence>
9.644

> <Coulomb>
-0.164

> <VdW>
0.751

> <VdW6>
-6.881

> <VdW12>
7.631

> <Bond>
0.163

> <Angle>
2.998

> <Pdih>
6.482

> <Idih>
0.001

> <Tether>
0.000

$$$$
VeraChem MOL file


 19 18  0  0  0  0  0  0  0  0999 V2000     
   22.1731   17.5691   22.6903 C   0  0  0  0  0  0  0  0  0  0  0  0
   22.2275   17.3132   23.8770 O   0  5  0  0  0  0  0  0  0  0  0  0
   23.0669   18.1264   22.0838 O   0  0  0  0  0  0  0  0  0  0  0  0
   20.9466   17.1024   21.9083 C   0  0  0  0  0  0  0  0  0  0  0  0
   20.2692   16.5733   22.5894 H   0  0  0  0  0  0  0  0  0  0  0  0
   21.3058   16.3611   21.1851 H   0  0  0  0  0  0  0  0  0  0  0  0
   20.1795   18.2202   21.1472 C   0  0  0  0  0  0  0  0  0  0  0  0
   20.8916   18.8770   20.6286 H   0  0  0  0  0  0  0  0  0  0  0  0
   19.5798   17.7437   20.3600 H   0  0  0  0  0  0  0  0  0  0  0  0
   19.2211   19.0633   22.0244 C   0  0  0  0  0  0  0  0  0  0  0  0
   18.5076   18.4014   22.5341 H   0  0  0  0  0  0  0  0  0  0  0  0
   18.6261   19.7057   21.3609 H   0  0  0  0  0  0  0  0  0  0  0  0
   19.9374   19.9532   23.0639 C   0  0  0  0  0  0  0  0  0  0  0  0
   20.4317   19.3279   23.8183 H   0  0  0  0  0  0  0  0  0  0  0  0
   20.7222   20.5436   22.5711 H   0  0  0  0  0  0  0  0  0  0  0  0
   18.9495   20.9012   23.7733 C   0  0  0  0  0  0  0  0  0  0  0  0
   18.1684   20.3338   24.2961 H   0  0  0  0  0  0  0  0  0  0  0  0
   19.4724   21.5200   24.5141 H   0  0  0  0  0  0  0  0  0  0  0  0
   18.4629   21.5728   23.0539 H   0  0  0  0  0  0  0  0  0  0  0  0
  1  2  1  0  0  0  0
  1  3  2  0  0  0  0
  1  4  1  0  0  0  0
  4  5  1  0  0  0  0
  4  6  1  0  0  0  0
  4  7  1  0  0  0  0
  7  8  1  0  0  0  0
  7  9  1  0  0  0  0
  7 10  1  0  0  0  0
 10 11  1  0  0  0  0
 10 12  1  0  0  0  0
 10 13  1  0  0  0  0
 13 14  1  0  0  0  0
 13 15  1  0  0  0  0
 13 16  1  0  0  0  0
 16 17  1  0  0  0  0
 16 18  1  0  0  0  0
 16 19  1  0  0  0  0
M  END
> <VConfSearch Rank>
625

> <Conf_Id>
25

> <Delta U+W>
2.065

> <U+W>
-52.826

> <U>
10.967

> <W>
-63.794

> <W(PB)>
-65.830

> <W(SA)>
2.036

> <Valence>
8.609

> <Coulomb>
1.892

> <VdW>
0.467

> <VdW6>
-7.569

> <VdW12>
8.036

> <Bond>
0.170

> <Angle>
3.195

> <Pdih>
5.237

> <Idih>
0.007

> <Tether>
0.000

$$$$
VeraChem MOL file


 19 18  0  0  0  0  0  0  0  0999 V2000     
   20.3648   19.7143   20.2587 C   0  0  0  0  0  0  0  0  0  0  0  0
   20.0120   18.8568   19.4728 O   0  5  0  0  0  0  0  0  0  0  0  0
   21.4801   20.1967   20.2670 O   0  0  0  0  0  0  0  0  0  0  0  0
   19.3340   20.2657   21.2420 C   0  0  0  0  0  0  0  0  0  0  0  0
   18.5522   20.7385   20.6362 H   0  0  0  0  0  0  0  0  0  0  0  0
   19.7974   21.0640   21.8344 H   0  0  0  0  0  0  0  0  0  0  0  0
   18.6792   19.2115   22.1785 C   0  0  0  0  0  0  0  0  0  0  0  0
   17.7370   19.6319   22.5552 H   0  0  0  0  0  0  0  0  0  0  0  0
   18.4021   18.3184   21.6014 H   0  0  0  0  0  0  0  0  0  0  0  0
   19.5377   18.8077   23.4026 C   0  0  0  0  0  0  0  0  0  0  0  0
   18.9182   18.1882   24.0655 H   0  0  0  0  0  0  0  0  0  0  0  0
   19.8050   19.7041   23.9789 H   0  0  0  0  0  0  0  0  0  0  0  0
   20.8174   18.0213   23.0428 C   0  0  0  0  0  0  0  0  0  0  0  0
   20.5645   17.1806   22.3819 H   0  0  0  0  0  0  0  0  0  0  0  0
   21.5130   18.6660   22.4906 H   0  0  0  0  0  0  0  0  0  0  0  0
   21.5273   17.4887   24.3038 C   0  0  0  0  0  0  0  0  0  0  0  0
   22.4383   16.9402   24.0315 H   0  0  0  0  0  0  0  0  0  0  0  0
   21.8141   18.3129   24.9700 H   0  0  0  0  0  0  0  0  0  0  0  0
   20.8752   16.8056   24.8637 H   0  0  0  0  0  0  0  0  0  0  0  0
  1  2  1  0  0  0  0
  1  3  2  0  0  0  0
  1  4  1  0  0  0  0
  4  5  1  0  0  0  0
  4  6  1  0  0  0  0
  4  7  1  0  0  0  0
  7  8  1  0  0  0  0
  7  9  1  0  0  0  0
  7 10  1  0  0  0  0
 10 11  1  0  0  0  0
 10 12  1  0  0  0  0
 10 13  1  0  0  0  0
 13 14  1  0  0  0  0
 13 15  1  0  0  0  0
 13 16  1  0  0  0  0
 16 17  1  0  0  0  0
 16 18  1  0  0  0  0
 16 19  1  0  0  0  0
M  END
> <VConfSearch Rank>
626

> <Conf_Id>
52

> <Delta U+W>
2.070

> <U+W>
-52.822

> <U>
10.967

> <W>
-63.789

> <W(PB)>
-65.837

> <W(SA)>
2.048

> <Valence>
8.609

> <Coulomb>
1.892

> <VdW>
0.467

> <VdW6>
-7.569

> <VdW12>
8.035

> <Bond>
0.170

> <Angle>
3.196

> <Pdih>
5.237

> <Idih>
0.007

> <Tether>
0.000

$$$$
VeraChem MOL file


 19 18  0  0  0  0  0  0  0  0999 V2000     
   19.0368   20.8029   22.0909 C   0  0  0  0  0  0  0  0  0  0  0  0
   19.9491   21.4893   21.6729 O   0  5  0  0  0  0  0  0  0  0  0  0
   17.9938   20.6441   21.4879 O   0  0  0  0  0  0  0  0  0  0  0  0
   19.1477   20.2110   23.4968 C   0  0  0  0  0  0  0  0  0  0  0  0
   18.3227   19.5059   23.6539 H   0  0  0  0  0  0  0  0  0  0  0  0
   18.9826   21.0440   24.1898 H   0  0  0  0  0  0  0  0  0  0  0  0
   20.5055   19.5342   23.8401 C   0  0  0  0  0  0  0  0  0  0  0  0
   21.3352   20.1317   23.4379 H   0  0  0  0  0  0  0  0  0  0  0  0
   20.6261   19.5550   24.9316 H   0  0  0  0  0  0  0  0  0  0  0  0
   20.6474   18.0593   23.3841 C   0  0  0  0  0  0  0  0  0  0  0  0
   19.8773   17.4417   23.8663 H   0  0  0  0  0  0  0  0  0  0  0  0
   21.6074   17.6871   23.7672 H   0  0  0  0  0  0  0  0  0  0  0  0
   20.6279   17.8436   21.8514 C   0  0  0  0  0  0  0  0  0  0  0  0
   20.9104   18.7685   21.3297 H   0  0  0  0  0  0  0  0  0  0  0  0
   21.3930   17.1003   21.5882 H   0  0  0  0  0  0  0  0  0  0  0  0
   19.2650   17.3322   21.3374 C   0  0  0  0  0  0  0  0  0  0  0  0
   19.0207   16.3577   21.7795 H   0  0  0  0  0  0  0  0  0  0  0  0
   18.4553   18.0286   21.5846 H   0  0  0  0  0  0  0  0  0  0  0  0
   19.2849   17.2130   20.2465 H   0  0  0  0  0  0  0  0  0  0  0  0
  1  2  1  0  0  0  0
  1  3  2  0  0  0  0
  1  4  1  0  0  0  0
  4  5  1  0  0  0  0
  4  6  1  0  0  0  0
  4  7  1  0  0  0  0
  7  8  1  0  0  0  0
  7  9  1  0  0  0  0
  7 10  1  0  0  0  0
 10 11  1  0  0  0  0
 10 12  1  0  0  0  0
 10 13  1  0  0  0  0
 13 14  1  0  0  0  0
 13 15  1  0  0  0  0
 13 16  1  0  0  0  0
 16 17  1  0  0  0  0
 16 18  1  0  0  0  0
 16 19  1  0  0  0  0
M  END
> <VConfSearch Rank>
627

> <Conf_Id>
66

> <Delta U+W>
5.819

> <U+W>
-49.072

> <U>
15.324

> <W>
-64.396

> <W(PB)>
-66.382

> <W(SA)>
1.986

> <Valence>
11.748

> <Coulomb>
3.201

> <VdW>
0.375

> <VdW6>
-8.854

> <VdW12>
9.229

> <Bond>
0.216

> <Angle>
3.812

> <Pdih>
7.699

> <Idih>
0.022

> <Tether>
0.000

$$$$
VeraChem MOL file


 19 18  0  0  0  0  0  0  0  0999 V2000     
   18.9583   16.1227   20.4290 C   0  0  0  0  0  0  0  0  0  0  0  0
   18.0255   15.3487   20.3492 O   0  5  0  0  0  0  0  0  0  0  0  0
   19.9589   16.0288   19.7448 O   0  0  0  0  0  0  0  0  0  0  0  0
   18.8385   17.2577   21.4475 C   0  0  0  0  0  0  0  0  0  0  0  0
   18.6755   16.7996   22.4301 H   0  0  0  0  0  0  0  0  0  0  0  0
   17.9314   17.8227   21.2025 H   0  0  0  0  0  0  0  0  0  0  0  0
   20.0539   18.2206   21.5132 C   0  0  0  0  0  0  0  0  0  0  0  0
   20.9602   17.6475   21.7533 H   0  0  0  0  0  0  0  0  0  0  0  0
   20.2153   18.6716   20.5243 H   0  0  0  0  0  0  0  0  0  0  0  0
   19.8489   19.3329   22.5644 C   0  0  0  0  0  0  0  0  0  0  0  0
   19.6874   18.8797   23.5522 H   0  0  0  0  0  0  0  0  0  0  0  0
   18.9422   19.9044   22.3225 H   0  0  0  0  0  0  0  0  0  0  0  0
   21.0581   20.2889   22.6282 C   0  0  0  0  0  0  0  0  0  0  0  0
   21.9669   19.7212   22.8717 H   0  0  0  0  0  0  0  0  0  0  0  0
   21.2217   20.7459   21.6423 H   0  0  0  0  0  0  0  0  0  0  0  0
   20.8501   21.3981   23.6786 C   0  0  0  0  0  0  0  0  0  0  0  0
   20.7153   20.9698   24.6806 H   0  0  0  0  0  0  0  0  0  0  0  0
   21.7189   22.0684   23.7107 H   0  0  0  0  0  0  0  0  0  0  0  0
   19.9644   22.0022   23.4419 H   0  0  0  0  0  0  0  0  0  0  0  0
  1  2  1  0  0  0  0
  1  3  2  0  0  0  0
  1  4  1  0  0  0  0
  4  5  1  0  0  0  0
  4  6  1  0  0  0  0
  4  7  1  0  0  0  0
  7  8  1  0  0  0  0
  7  9  1  0  0  0  0
  7 10  1  0  0  0  0
 10 11  1  0  0  0  0
 10 12  1  0  0  0  0
 10 13  1  0  0  0  0
 13 14  1  0  0  0  0
 13 15  1  0  0  0  0
 13 16  1  0  0  0  0
 16 17  1  0  0  0  0
 16 18  1  0  0  0  0
 16 19  1  0  0  0  0
M  END
> <VConfSearch Rank>
628

> <Conf_Id>
0

> <Delta U+W>
0.000

> <U+W>
-54.891

> <U>
6.966

> <W>
-61.857

> <W(PB)>
-63.965

> <W(SA)>
2.108

> <Valence>
7.175

> <Coulomb>
-1.360

> <VdW>
1.151

> <VdW6>
-5.641

> <VdW12>
6.792

> <Bond>
0.119

> <Angle>
2.715

> <Pdih>
4.340

> <Idih>
0.000

> <Tether>
0.000

$$$$
VeraChem MOL file


 19 18  0  0  0  0  0  0  0  0999 V2000     
   22.6532   20.9280   22.4055 C   0  0  0  0  0  0  0  0  0  0  0  0
   23.6819   20.4509   21.9693 O   0  5  0  0  0  0  0  0  0  0  0  0
   22.4175   22.1198   22.4196 O   0  0  0  0  0  0  0  0  0  0  0  0
   21.5909   19.9773   22.9460 C   0  0  0  0  0  0  0  0  0  0  0  0
   21.0583   20.4873   23.7578 H   0  0  0  0  0  0  0  0  0  0  0  0
   22.1003   19.1116   23.3863 H   0  0  0  0  0  0  0  0  0  0  0  0
   20.5899   19.5124   21.8597 C   0  0  0  0  0  0  0  0  0  0  0  0
   20.0977   20.3911   21.4201 H   0  0  0  0  0  0  0  0  0  0  0  0
   21.1398   19.0155   21.0484 H   0  0  0  0  0  0  0  0  0  0  0  0
   19.5257   18.5515   22.4322 C   0  0  0  0  0  0  0  0  0  0  0  0
   18.9787   19.0507   23.2438 H   0  0  0  0  0  0  0  0  0  0  0  0
   20.0210   17.6749   22.8720 H   0  0  0  0  0  0  0  0  0  0  0  0
   18.5299   18.0902   21.3478 C   0  0  0  0  0  0  0  0  0  0  0  0
   18.0310   18.9642   20.9067 H   0  0  0  0  0  0  0  0  0  0  0  0
   19.0731   17.5885   20.5350 H   0  0  0  0  0  0  0  0  0  0  0  0
   17.4687   17.1309   21.9230 C   0  0  0  0  0  0  0  0  0  0  0  0
   16.7692   16.8129   21.1389 H   0  0  0  0  0  0  0  0  0  0  0  0
   17.9385   16.2319   22.3431 H   0  0  0  0  0  0  0  0  0  0  0  0
   16.8885   17.6180   22.7177 H   0  0  0  0  0  0  0  0  0  0  0  0
  1  2  1  0  0  0  0
  1  3  2  0  0  0  0
  1  4  1  0  0  0  0
  4  5  1  0  0  0  0
  4  6  1  0  0  0  0
  4  7  1  0  0  0  0
  7  8  1  0  0  0  0
  7  9  1  0  0  0  0
  7 10  1  0  0  0  0
 10 11  1  0  0  0  0
 10 12  1  0  0  0  0
 10 13  1  0  0  0  0
 13 14  1  0  0  0  0
 13 15  1  0  0  0  0
 13 16  1  0  0  0  0
 16 17  1  0  0  0  0
 16 18  1  0  0  0  0
 16 19  1  0  0  0  0
M  END
> <VConfSearch Rank>
629

> <Conf_Id>
18

> <Delta U+W>
-1.199

> <U+W>
-56.090

> <U>
5.975

> <W>
-62.066

> <W(PB)>
-64.219

> <W(SA)>
2.153

> <Valence>
6.673

> <Coulomb>
-1.307

> <VdW>
0.610

> <VdW6>
-5.351

> <VdW12>
5.961

> <Bond>
0.086

> <Angle>
2.253

> <Pdih>
4.333

> <Idih>
0.001

> <Tether>
0.000

$$$$
VeraChem MOL file


 19 18  0  0  0  0  0  0  0  0999 V2000     
   18.7195   20.9391   24.3411 C   0  0  0  0  0  0  0  0  0  0  0  0
   18.1288   20.5746   25.3383 O   0  5  0  0  0  0  0  0  0  0  0  0
   19.1753   22.0565   24.2004 O   0  0  0  0  0  0  0  0  0  0  0  0
   18.9182   19.9325   23.2133 C   0  0  0  0  0  0  0  0  0  0  0  0
   18.9036   20.4850   22.2671 H   0  0  0  0  0  0  0  0  0  0  0  0
   18.0569   19.2537   23.2074 H   0  0  0  0  0  0  0  0  0  0  0  0
   20.2346   19.1249   23.3546 C   0  0  0  0  0  0  0  0  0  0  0  0
   21.0920   19.8108   23.3146 H   0  0  0  0  0  0  0  0  0  0  0  0
   20.2568   18.6584   24.3493 H   0  0  0  0  0  0  0  0  0  0  0  0
   20.3989   18.0192   22.2850 C   0  0  0  0  0  0  0  0  0  0  0  0
   19.5445   17.3304   22.3333 H   0  0  0  0  0  0  0  0  0  0  0  0
   21.2905   17.4262   22.5308 H   0  0  0  0  0  0  0  0  0  0  0  0
   20.5430   18.5705   20.8487 C   0  0  0  0  0  0  0  0  0  0  0  0
   19.6296   19.1036   20.5542 H   0  0  0  0  0  0  0  0  0  0  0  0
   21.3655   19.2980   20.8117 H   0  0  0  0  0  0  0  0  0  0  0  0
   20.8129   17.4409   19.8346 C   0  0  0  0  0  0  0  0  0  0  0  0
   20.9099   17.8475   18.8195 H   0  0  0  0  0  0  0  0  0  0  0  0
   21.7424   16.9089   20.0765 H   0  0  0  0  0  0  0  0  0  0  0  0
   19.9917   16.7122   19.8310 H   0  0  0  0  0  0  0  0  0  0  0  0
  1  2  1  0  0  0  0
  1  3  2  0  0  0  0
  1  4  1  0  0  0  0
  4  5  1  0  0  0  0
  4  6  1  0  0  0  0
  4  7  1  0  0  0  0
  7  8  1  0  0  0  0
  7  9  1  0  0  0  0
  7 10  1  0  0  0  0
 10 11  1  0  0  0  0
 10 12  1  0  0  0  0
 10 13  1  0  0  0  0
 13 14  1  0  0  0  0
 13 15  1  0  0  0  0
 13 16  1  0  0  0  0
 16 17  1  0  0  0  0
 16 18  1  0  0  0  0
 16 19  1  0  0  0  0
M  END
> <VConfSearch Rank>
630

> <Conf_Id>
34

> <Delta U+W>
-0.563

> <U+W>
-55.455

> <U>
6.914

> <W>
-62.369

> <W(PB)>
-64.446

> <W(SA)>
2.077

> <Valence>
7.196

> <Coulomb>
-1.020

> <VdW>
0.738

> <VdW6>
-6.010

> <VdW12>
6.748

> <Bond>
0.126

> <Angle>
2.499

> <Pdih>
4.570

> <Idih>
0.001

> <Tether>
0.000

$$$$
VeraChem MOL file


 19 18  0  0  0  0  0  0  0  0999 V2000     
   22.8127   18.2790   23.5477 C   0  0  0  0  0  0  0  0  0  0  0  0
   23.8504   18.8260   23.2312 O   0  5  0  0  0  0  0  0  0  0  0  0
   22.7649   17.2320   24.1623 O   0  0  0  0  0  0  0  0  0  0  0  0
   21.4989   18.9310   23.1317 C   0  0  0  0  0  0  0  0  0  0  0  0
   21.6462   20.0176   23.1221 H   0  0  0  0  0  0  0  0  0  0  0  0
   20.7569   18.7101   23.9073 H   0  0  0  0  0  0  0  0  0  0  0  0
   21.0010   18.4467   21.7451 C   0  0  0  0  0  0  0  0  0  0  0  0
   21.8030   18.5996   21.0096 H   0  0  0  0  0  0  0  0  0  0  0  0
   20.8144   17.3644   21.7797 H   0  0  0  0  0  0  0  0  0  0  0  0
   19.7311   19.1809   21.2535 C   0  0  0  0  0  0  0  0  0  0  0  0
   19.5213   18.8628   20.2231 H   0  0  0  0  0  0  0  0  0  0  0  0
   19.9237   20.2618   21.2118 H   0  0  0  0  0  0  0  0  0  0  0  0
   18.4862   18.9070   22.1268 C   0  0  0  0  0  0  0  0  0  0  0  0
   18.3232   17.8236   22.2105 H   0  0  0  0  0  0  0  0  0  0  0  0
   18.6462   19.2870   23.1443 H   0  0  0  0  0  0  0  0  0  0  0  0
   17.2254   19.5700   21.5368 C   0  0  0  0  0  0  0  0  0  0  0  0
   17.3505   20.6586   21.4673 H   0  0  0  0  0  0  0  0  0  0  0  0
   17.0120   19.1843   20.5313 H   0  0  0  0  0  0  0  0  0  0  0  0
   16.3509   19.3690   22.1693 H   0  0  0  0  0  0  0  0  0  0  0  0
  1  2  1  0  0  0  0
  1  3  2  0  0  0  0
  1  4  1  0  0  0  0
  4  5  1  0  0  0  0
  4  6  1  0  0  0  0
  4  7  1  0  0  0  0
  7  8  1  0  0  0  0
  7  9  1  0  0  0  0
  7 10  1  0  0  0  0
 10 11  1  0  0  0  0
 10 12  1  0  0  0  0
 10 13  1  0  0  0  0
 13 14  1  0  0  0  0
 13 15  1  0  0  0  0
 13 16  1  0  0  0  0
 16 17  1  0  0  0  0
 16 18  1  0  0  0  0
 16 19  1  0  0  0  0
M  END
> <VConfSearch Rank>
631

> <Conf_Id>
33

> <Delta U+W>
-0.526

> <U+W>
-55.418

> <U>
6.914

> <W>
-62.332

> <W(PB)>
-64.421

> <W(SA)>
2.090

> <Valence>
7.196

> <Coulomb>
-1.020

> <VdW>
0.738

> <VdW6>
-6.010

> <VdW12>
6.748

> <Bond>
0.126

> <Angle>
2.499

> <Pdih>
4.570

> <Idih>
0.001

> <Tether>
0.000

$$$$
VeraChem MOL file


 19 18  0  0  0  0  0  0  0  0999 V2000     
   21.4774   21.7024   22.3879 C   0  0  0  0  0  0  0  0  0  0  0  0
   22.6640   21.4892   22.5384 O   0  5  0  0  0  0  0  0  0  0  0  0
   21.0379   22.6305   21.7386 O   0  0  0  0  0  0  0  0  0  0  0  0
   20.4852   20.7424   23.0348 C   0  0  0  0  0  0  0  0  0  0  0  0
   19.5904   21.3128   23.3116 H   0  0  0  0  0  0  0  0  0  0  0  0
   20.9305   20.3667   23.9640 H   0  0  0  0  0  0  0  0  0  0  0  0
   20.1015   19.5601   22.1111 C   0  0  0  0  0  0  0  0  0  0  0  0
   19.6661   19.9524   21.1817 H   0  0  0  0  0  0  0  0  0  0  0  0
   21.0137   19.0160   21.8327 H   0  0  0  0  0  0  0  0  0  0  0  0
   19.0980   18.6017   22.7932 C   0  0  0  0  0  0  0  0  0  0  0  0
   18.2244   19.1778   23.1279 H   0  0  0  0  0  0  0  0  0  0  0  0
   19.5520   18.1716   23.6965 H   0  0  0  0  0  0  0  0  0  0  0  0
   18.6101   17.4634   21.8677 C   0  0  0  0  0  0  0  0  0  0  0  0
   17.8183   16.9037   22.3845 H   0  0  0  0  0  0  0  0  0  0  0  0
   18.1503   17.8898   20.9654 H   0  0  0  0  0  0  0  0  0  0  0  0
   19.7309   16.4809   21.4647 C   0  0  0  0  0  0  0  0  0  0  0  0
   20.2253   16.0636   22.3516 H   0  0  0  0  0  0  0  0  0  0  0  0
   19.3185   15.6460   20.8834 H   0  0  0  0  0  0  0  0  0  0  0  0
   20.4914   16.9727   20.8454 H   0  0  0  0  0  0  0  0  0  0  0  0
  1  2  1  0  0  0  0
  1  3  2  0  0  0  0
  1  4  1  0  0  0  0
  4  5  1  0  0  0  0
  4  6  1  0  0  0  0
  4  7  1  0  0  0  0
  7  8  1  0  0  0  0
  7  9  1  0  0  0  0
  7 10  1  0  0  0  0
 10 11  1  0  0  0  0
 10 12  1  0  0  0  0
 10 13  1  0  0  0  0
 13 14  1  0  0  0  0
 13 15  1  0  0  0  0
 13 16  1  0  0  0  0
 16 17  1  0  0  0  0
 16 18  1  0  0  0  0
 16 19  1  0  0  0  0
M  END
> <VConfSearch Rank>
632

> <Conf_Id>
42

> <Delta U+W>
-0.344

> <U+W>
-55.236

> <U>
7.244

> <W>
-62.479

> <W(PB)>
-64.610

> <W(SA)>
2.130

> <Valence>
7.174

> <Coulomb>
-0.669

> <VdW>
0.739

> <VdW6>
-5.969

> <VdW12>
6.708

> <Bond>
0.116

> <Angle>
2.481

> <Pdih>
4.576

> <Idih>
0.000

> <Tether>
0.000

$$$$
VeraChem MOL file


 19 18  0  0  0  0  0  0  0  0999 V2000     
   21.7284   21.1993   20.7661 C   0  0  0  0  0  0  0  0  0  0  0  0
   21.1731   22.2720   20.8973 O   0  5  0  0  0  0  0  0  0  0  0  0
   22.3399   20.8763   19.7672 O   0  0  0  0  0  0  0  0  0  0  0  0
   21.6374   20.1963   21.9108 C   0  0  0  0  0  0  0  0  0  0  0  0
   21.5945   20.7565   22.8526 H   0  0  0  0  0  0  0  0  0  0  0  0
   22.5641   19.6100   21.9242 H   0  0  0  0  0  0  0  0  0  0  0  0
   20.4118   19.2569   21.7924 C   0  0  0  0  0  0  0  0  0  0  0  0
   19.4988   19.8662   21.7619 H   0  0  0  0  0  0  0  0  0  0  0  0
   20.4643   18.7103   20.8407 H   0  0  0  0  0  0  0  0  0  0  0  0
   20.3427   18.2538   22.9670 C   0  0  0  0  0  0  0  0  0  0  0  0
   20.2407   18.7997   23.9149 H   0  0  0  0  0  0  0  0  0  0  0  0
   21.2925   17.7047   23.0245 H   0  0  0  0  0  0  0  0  0  0  0  0
   19.1914   17.2305   22.8333 C   0  0  0  0  0  0  0  0  0  0  0  0
   19.2932   16.6784   21.8887 H   0  0  0  0  0  0  0  0  0  0  0  0
   19.2843   16.4882   23.6380 H   0  0  0  0  0  0  0  0  0  0  0  0
   17.7901   17.8739   22.9104 C   0  0  0  0  0  0  0  0  0  0  0  0
   17.6075   18.5402   22.0580 H   0  0  0  0  0  0  0  0  0  0  0  0
   17.0115   17.1002   22.8997 H   0  0  0  0  0  0  0  0  0  0  0  0
   17.6753   18.4561   23.8340 H   0  0  0  0  0  0  0  0  0  0  0  0
  1  2  1  0  0  0  0
  1  3  2  0  0  0  0
  1  4  1  0  0  0  0
  4  5  1  0  0  0  0
  4  6  1  0  0  0  0
  4  7  1  0  0  0  0
  7  8  1  0  0  0  0
  7  9  1  0  0  0  0
  7 10  1  0  0  0  0
 10 11  1  0  0  0  0
 10 12  1  0  0  0  0
 10 13  1  0  0  0  0
 13 14  1  0  0  0  0
 13 15  1  0  0  0  0
 13 16  1  0  0  0  0
 16 17  1  0  0  0  0
 16 18  1  0  0  0  0
 16 19  1  0  0  0  0
M  END
> <VConfSearch Rank>
633

> <Conf_Id>
41

> <Delta U+W>
-0.361

> <U+W>
-55.252

> <U>
7.244

> <W>
-62.496

> <W(PB)>
-64.596

> <W(SA)>
2.099

> <Valence>
7.174

> <Coulomb>
-0.669

> <VdW>
0.739

> <VdW6>
-5.969

> <VdW12>
6.708

> <Bond>
0.116

> <Angle>
2.481

> <Pdih>
4.576

> <Idih>
0.000

> <Tether>
0.000

$$$$
VeraChem MOL file


 19 18  0  0  0  0  0  0  0  0999 V2000     
   21.1451   20.3990   20.2302 C   0  0  0  0  0  0  0  0  0  0  0  0
   22.0910   19.6599   20.0412 O   0  5  0  0  0  0  0  0  0  0  0  0
   20.4115   20.7912   19.3445 O   0  0  0  0  0  0  0  0  0  0  0  0
   20.8752   20.8797   21.6534 C   0  0  0  0  0  0  0  0  0  0  0  0
   20.6996   21.9609   21.6065 H   0  0  0  0  0  0  0  0  0  0  0  0
   21.7826   20.7313   22.2514 H   0  0  0  0  0  0  0  0  0  0  0  0
   19.6661   20.1880   22.3350 C   0  0  0  0  0  0  0  0  0  0  0  0
   19.4616   20.6886   23.2910 H   0  0  0  0  0  0  0  0  0  0  0  0
   18.7715   20.3207   21.7106 H   0  0  0  0  0  0  0  0  0  0  0  0
   19.9081   18.6833   22.5895 C   0  0  0  0  0  0  0  0  0  0  0  0
   20.8105   18.5553   23.2030 H   0  0  0  0  0  0  0  0  0  0  0  0
   20.0967   18.1720   21.6354 H   0  0  0  0  0  0  0  0  0  0  0  0
   18.7060   18.0229   23.2961 C   0  0  0  0  0  0  0  0  0  0  0  0
   18.5152   18.5277   24.2533 H   0  0  0  0  0  0  0  0  0  0  0  0
   17.8023   18.1475   22.6835 H   0  0  0  0  0  0  0  0  0  0  0  0
   18.9506   16.5218   23.5488 C   0  0  0  0  0  0  0  0  0  0  0  0
   19.8317   16.3693   24.1859 H   0  0  0  0  0  0  0  0  0  0  0  0
   18.0863   16.0682   24.0512 H   0  0  0  0  0  0  0  0  0  0  0  0
   19.1135   15.9862   22.6044 H   0  0  0  0  0  0  0  0  0  0  0  0
  1  2  1  0  0  0  0
  1  3  2  0  0  0  0
  1  4  1  0  0  0  0
  4  5  1  0  0  0  0
  4  6  1  0  0  0  0
  4  7  1  0  0  0  0
  7  8  1  0  0  0  0
  7  9  1  0  0  0  0
  7 10  1  0  0  0  0
 10 11  1  0  0  0  0
 10 12  1  0  0  0  0
 10 13  1  0  0  0  0
 13 14  1  0  0  0  0
 13 15  1  0  0  0  0
 13 16  1  0  0  0  0
 16 17  1  0  0  0  0
 16 18  1  0  0  0  0
 16 19  1  0  0  0  0
M  END
> <VConfSearch Rank>
634

> <Conf_Id>
36

> <Delta U+W>
-0.079

> <U+W>
-54.971

> <U>
8.266

> <W>
-63.237

> <W(PB)>
-65.340

> <W(SA)>
2.103

> <Valence>
6.935

> <Coulomb>
0.874

> <VdW>
0.457

> <VdW6>
-6.205

> <VdW12>
6.662

> <Bond>
0.107

> <Angle>
2.420

> <Pdih>
4.407

> <Idih>
0.001

> <Tether>
0.000

$$$$
VeraChem MOL file


 19 18  0  0  0  0  0  0  0  0999 V2000     
   20.9086   16.8884   20.5129 C   0  0  0  0  0  0  0  0  0  0  0  0
   19.8990   16.8191   19.8402 O   0  5  0  0  0  0  0  0  0  0  0  0
   21.4408   15.9244   21.0269 O   0  0  0  0  0  0  0  0  0  0  0  0
   21.5572   18.2563   20.7063 C   0  0  0  0  0  0  0  0  0  0  0  0
   21.1793   18.9358   19.9328 H   0  0  0  0  0  0  0  0  0  0  0  0
   22.6323   18.1378   20.5268 H   0  0  0  0  0  0  0  0  0  0  0  0
   21.3318   18.8687   22.1132 C   0  0  0  0  0  0  0  0  0  0  0  0
   21.6889   18.1649   22.8779 H   0  0  0  0  0  0  0  0  0  0  0  0
   21.9430   19.7764   22.2087 H   0  0  0  0  0  0  0  0  0  0  0  0
   19.8510   19.2218   22.3774 C   0  0  0  0  0  0  0  0  0  0  0  0
   19.2348   18.3153   22.3004 H   0  0  0  0  0  0  0  0  0  0  0  0
   19.4951   19.9152   21.6031 H   0  0  0  0  0  0  0  0  0  0  0  0
   19.6550   19.8581   23.7693 C   0  0  0  0  0  0  0  0  0  0  0  0
   20.0081   19.1656   24.5459 H   0  0  0  0  0  0  0  0  0  0  0  0
   20.2659   20.7679   23.8506 H   0  0  0  0  0  0  0  0  0  0  0  0
   18.1766   20.2092   24.0298 C   0  0  0  0  0  0  0  0  0  0  0  0
   17.5462   19.3114   23.9854 H   0  0  0  0  0  0  0  0  0  0  0  0
   18.0552   20.6599   25.0234 H   0  0  0  0  0  0  0  0  0  0  0  0
   17.8059   20.9256   23.2849 H   0  0  0  0  0  0  0  0  0  0  0  0
  1  2  1  0  0  0  0
  1  3  2  0  0  0  0
  1  4  1  0  0  0  0
  4  5  1  0  0  0  0
  4  6  1  0  0  0  0
  4  7  1  0  0  0  0
  7  8  1  0  0  0  0
  7  9  1  0  0  0  0
  7 10  1  0  0  0  0
 10 11  1  0  0  0  0
 10 12  1  0  0  0  0
 10 13  1  0  0  0  0
 13 14  1  0  0  0  0
 13 15  1  0  0  0  0
 13 16  1  0  0  0  0
 16 17  1  0  0  0  0
 16 18  1  0  0  0  0
 16 19  1  0  0  0  0
M  END
> <VConfSearch Rank>
635

> <Conf_Id>
35

> <Delta U+W>
-0.030

> <U+W>
-54.921

> <U>
8.267

> <W>
-63.188

> <W(PB)>
-65.294

> <W(SA)>
2.106

> <Valence>
6.935

> <Coulomb>
0.875

> <VdW>
0.457

> <VdW6>
-6.205

> <VdW12>
6.662

> <Bond>
0.107

> <Angle>
2.420

> <Pdih>
4.407

> <Idih>
0.001

> <Tether>
0.000

$$$$
VeraChem MOL file


 19 18  0  0  0  0  0  0  0  0999 V2000     
   21.8391   20.6126   20.7289 C   0  0  0  0  0  0  0  0  0  0  0  0
   21.2441   21.4963   20.1442 O   0  5  0  0  0  0  0  0  0  0  0  0
   22.6679   19.8978   20.2010 O   0  0  0  0  0  0  0  0  0  0  0  0
   21.5436   20.4054   22.2119 C   0  0  0  0  0  0  0  0  0  0  0  0
   21.5434   21.3937   22.6866 H   0  0  0  0  0  0  0  0  0  0  0  0
   22.3700   19.8392   22.6585 H   0  0  0  0  0  0  0  0  0  0  0  0
   20.1941   19.6954   22.4954 C   0  0  0  0  0  0  0  0  0  0  0  0
   20.0018   19.7316   23.5753 H   0  0  0  0  0  0  0  0  0  0  0  0
   19.3809   20.2518   22.0092 H   0  0  0  0  0  0  0  0  0  0  0  0
   20.1843   18.2246   22.0144 C   0  0  0  0  0  0  0  0  0  0  0  0
   20.9734   17.6609   22.5304 H   0  0  0  0  0  0  0  0  0  0  0  0
   20.4307   18.1931   20.9442 H   0  0  0  0  0  0  0  0  0  0  0  0
   18.8239   17.5195   22.2222 C   0  0  0  0  0  0  0  0  0  0  0  0
   18.0328   18.0801   21.7053 H   0  0  0  0  0  0  0  0  0  0  0  0
   18.8642   16.5299   21.7466 H   0  0  0  0  0  0  0  0  0  0  0  0
   18.4479   17.3406   23.7090 C   0  0  0  0  0  0  0  0  0  0  0  0
   18.2805   18.3075   24.1996 H   0  0  0  0  0  0  0  0  0  0  0  0
   17.5233   16.7564   23.8030 H   0  0  0  0  0  0  0  0  0  0  0  0
   19.2397   16.8098   24.2534 H   0  0  0  0  0  0  0  0  0  0  0  0
  1  2  1  0  0  0  0
  1  3  2  0  0  0  0
  1  4  1  0  0  0  0
  4  5  1  0  0  0  0
  4  6  1  0  0  0  0
  4  7  1  0  0  0  0
  7  8  1  0  0  0  0
  7  9  1  0  0  0  0
  7 10  1  0  0  0  0
 10 11  1  0  0  0  0
 10 12  1  0  0  0  0
 10 13  1  0  0  0  0
 13 14  1  0  0  0  0
 13 15  1  0  0  0  0
 13 16  1  0  0  0  0
 16 17  1  0  0  0  0
 16 18  1  0  0  0  0
 16 19  1  0  0  0  0
M  END
> <VConfSearch Rank>
636

> <Conf_Id>
74

> <Delta U+W>
0.797

> <U+W>
-54.095

> <U>
8.869

> <W>
-62.964

> <W(PB)>
-65.046

> <W(SA)>
2.082

> <Valence>
7.469

> <Coulomb>
0.762

> <VdW>
0.639

> <VdW6>
-6.782

> <VdW12>
7.421

> <Bond>
0.141

> <Angle>
2.667

> <Pdih>
4.660

> <Idih>
0.001

> <Tether>
0.000

$$$$
VeraChem MOL file


 19 18  0  0  0  0  0  0  0  0999 V2000     
   17.4912   20.2630   23.0894 C   0  0  0  0  0  0  0  0  0  0  0  0
   16.4544   20.3880   22.4683 O   0  5  0  0  0  0  0  0  0  0  0  0
   17.5609   20.3274   24.3007 O   0  0  0  0  0  0  0  0  0  0  0  0
   18.7711   19.9917   22.3067 C   0  0  0  0  0  0  0  0  0  0  0  0
   19.6003   20.4578   22.8511 H   0  0  0  0  0  0  0  0  0  0  0  0
   18.6919   20.4979   21.3373 H   0  0  0  0  0  0  0  0  0  0  0  0
   19.0394   18.4785   22.0998 C   0  0  0  0  0  0  0  0  0  0  0  0
   19.1548   17.9891   23.0760 H   0  0  0  0  0  0  0  0  0  0  0  0
   18.1535   18.0239   21.6352 H   0  0  0  0  0  0  0  0  0  0  0  0
   20.2704   18.1844   21.2060 C   0  0  0  0  0  0  0  0  0  0  0  0
   20.0884   18.5952   20.2036 H   0  0  0  0  0  0  0  0  0  0  0  0
   20.3601   17.0972   21.0764 H   0  0  0  0  0  0  0  0  0  0  0  0
   21.6167   18.7379   21.7342 C   0  0  0  0  0  0  0  0  0  0  0  0
   22.4063   18.4819   21.0144 H   0  0  0  0  0  0  0  0  0  0  0  0
   21.5866   19.8348   21.7734 H   0  0  0  0  0  0  0  0  0  0  0  0
   22.0069   18.1780   23.1190 C   0  0  0  0  0  0  0  0  0  0  0  0
   22.0210   17.0804   23.1092 H   0  0  0  0  0  0  0  0  0  0  0  0
   23.0070   18.5271   23.4066 H   0  0  0  0  0  0  0  0  0  0  0  0
   21.3040   18.5073   23.8947 H   0  0  0  0  0  0  0  0  0  0  0  0
  1  2  1  0  0  0  0
  1  3  2  0  0  0  0
  1  4  1  0  0  0  0
  4  5  1  0  0  0  0
  4  6  1  0  0  0  0
  4  7  1  0  0  0  0
  7  8  1  0  0  0  0
  7  9  1  0  0  0  0
  7 10  1  0  0  0  0
 10 11  1  0  0  0  0
 10 12  1  0  0  0  0
 10 13  1  0  0  0  0
 13 14  1  0  0  0  0
 13 15  1  0  0  0  0
 13 16  1  0  0  0  0
 16 17  1  0  0  0  0
 16 18  1  0  0  0  0
 16 19  1  0  0  0  0
M  END
> <VConfSearch Rank>
637

> <Conf_Id>
67

> <Delta U+W>
0.308

> <U+W>
-54.583

> <U>
8.219

> <W>
-62.802

> <W(PB)>
-64.859

> <W(SA)>
2.057

> <Valence>
7.609

> <Coulomb>
-0.089

> <VdW>
0.699

> <VdW6>
-6.924

> <VdW12>
7.623

> <Bond>
0.163

> <Angle>
2.870

> <Pdih>
4.576

> <Idih>
0.001

> <Tether>
0.000

$$$$
VeraChem MOL file


 19 18  0  0  0  0  0  0  0  0999 V2000     
   17.2527   18.9460   21.2351 C   0  0  0  0  0  0  0  0  0  0  0  0
   16.3171   19.6638   21.5281 O   0  5  0  0  0  0  0  0  0  0  0  0
   17.1252   17.8492   20.7282 O   0  0  0  0  0  0  0  0  0  0  0  0
   18.6624   19.4411   21.5381 C   0  0  0  0  0  0  0  0  0  0  0  0
   18.6695   20.5330   21.4376 H   0  0  0  0  0  0  0  0  0  0  0  0
   19.3303   19.0384   20.7681 H   0  0  0  0  0  0  0  0  0  0  0  0
   19.1524   19.0308   22.9510 C   0  0  0  0  0  0  0  0  0  0  0  0
   18.4152   19.3699   23.6918 H   0  0  0  0  0  0  0  0  0  0  0  0
   19.1776   17.9357   23.0273 H   0  0  0  0  0  0  0  0  0  0  0  0
   20.5344   19.6240   23.3237 C   0  0  0  0  0  0  0  0  0  0  0  0
   20.7825   19.3216   24.3502 H   0  0  0  0  0  0  0  0  0  0  0  0
   20.4583   20.7198   23.3405 H   0  0  0  0  0  0  0  0  0  0  0  0
   21.6999   19.2202   22.3876 C   0  0  0  0  0  0  0  0  0  0  0  0
   21.5230   19.6039   21.3742 H   0  0  0  0  0  0  0  0  0  0  0  0
   22.6178   19.7097   22.7411 H   0  0  0  0  0  0  0  0  0  0  0  0
   21.9401   17.6961   22.3326 C   0  0  0  0  0  0  0  0  0  0  0  0
   21.0890   17.1747   21.8764 H   0  0  0  0  0  0  0  0  0  0  0  0
   22.8301   17.4689   21.7318 H   0  0  0  0  0  0  0  0  0  0  0  0
   22.0969   17.2865   23.3389 H   0  0  0  0  0  0  0  0  0  0  0  0
  1  2  1  0  0  0  0
  1  3  2  0  0  0  0
  1  4  1  0  0  0  0
  4  5  1  0  0  0  0
  4  6  1  0  0  0  0
  4  7  1  0  0  0  0
  7  8  1  0  0  0  0
  7  9  1  0  0  0  0
  7 10  1  0  0  0  0
 10 11  1  0  0  0  0
 10 12  1  0  0  0  0
 10 13  1  0  0  0  0
 13 14  1  0  0  0  0
 13 15  1  0  0  0  0
 13 16  1  0  0  0  0
 16 17  1  0  0  0  0
 16 18  1  0  0  0  0
 16 19  1  0  0  0  0
M  END
> <VConfSearch Rank>
638

> <Conf_Id>
21

> <Delta U+W>
0.319

> <U+W>
-54.572

> <U>
8.220

> <W>
-62.792

> <W(PB)>
-64.830

> <W(SA)>
2.038

> <Valence>
7.609

> <Coulomb>
-0.088

> <VdW>
0.699

> <VdW6>
-6.924

> <VdW12>
7.623

> <Bond>
0.163

> <Angle>
2.870

> <Pdih>
4.576

> <Idih>
0.000

> <Tether>
0.000

$$$$
VeraChem MOL file


 19 18  0  0  0  0  0  0  0  0999 V2000     
   21.5751   16.6647   21.4509 C   0  0  0  0  0  0  0  0  0  0  0  0
   21.5027   15.9918   20.4417 O   0  5  0  0  0  0  0  0  0  0  0  0
   22.5827   16.7624   22.1228 O   0  0  0  0  0  0  0  0  0  0  0  0
   20.3392   17.4432   21.8872 C   0  0  0  0  0  0  0  0  0  0  0  0
   20.3473   17.5010   22.9801 H   0  0  0  0  0  0  0  0  0  0  0  0
   19.4548   16.8595   21.6051 H   0  0  0  0  0  0  0  0  0  0  0  0
   20.2658   18.8579   21.2541 C   0  0  0  0  0  0  0  0  0  0  0  0
   21.1781   19.4244   21.4870 H   0  0  0  0  0  0  0  0  0  0  0  0
   20.2506   18.7387   20.1619 H   0  0  0  0  0  0  0  0  0  0  0  0
   19.0115   19.6611   21.6824 C   0  0  0  0  0  0  0  0  0  0  0  0
   18.1780   18.9790   21.8989 H   0  0  0  0  0  0  0  0  0  0  0  0
   18.6860   20.2679   20.8263 H   0  0  0  0  0  0  0  0  0  0  0  0
   19.2358   20.6227   22.8753 C   0  0  0  0  0  0  0  0  0  0  0  0
   20.0099   21.3578   22.6153 H   0  0  0  0  0  0  0  0  0  0  0  0
   18.3123   21.1946   23.0400 H   0  0  0  0  0  0  0  0  0  0  0  0
   19.6215   19.9182   24.1924 C   0  0  0  0  0  0  0  0  0  0  0  0
   19.6363   20.6371   25.0217 H   0  0  0  0  0  0  0  0  0  0  0  0
   18.9022   19.1275   24.4421 H   0  0  0  0  0  0  0  0  0  0  0  0
   20.6219   19.4728   24.1243 H   0  0  0  0  0  0  0  0  0  0  0  0
  1  2  1  0  0  0  0
  1  3  2  0  0  0  0
  1  4  1  0  0  0  0
  4  5  1  0  0  0  0
  4  6  1  0  0  0  0
  4  7  1  0  0  0  0
  7  8  1  0  0  0  0
  7  9  1  0  0  0  0
  7 10  1  0  0  0  0
 10 11  1  0  0  0  0
 10 12  1  0  0  0  0
 10 13  1  0  0  0  0
 13 14  1  0  0  0  0
 13 15  1  0  0  0  0
 13 16  1  0  0  0  0
 16 17  1  0  0  0  0
 16 18  1  0  0  0  0
 16 19  1  0  0  0  0
M  END
> <VConfSearch Rank>
639

> <Conf_Id>
24

> <Delta U+W>
2.477

> <U+W>
-52.414

> <U>
10.422

> <W>
-62.836

> <W(PB)>
-64.906

> <W(SA)>
2.070

> <Valence>
9.628

> <Coulomb>
0.101

> <VdW>
0.693

> <VdW6>
-6.927

> <VdW12>
7.620

> <Bond>
0.173

> <Angle>
2.989

> <Pdih>
6.465

> <Idih>
0.001

> <Tether>
0.000

$$$$
VeraChem MOL file


 19 18  0  0  0  0  0  0  0  0999 V2000     
   20.2790   16.6651   23.3978 C   0  0  0  0  0  0  0  0  0  0  0  0
   21.0043   17.0233   24.3046 O   0  5  0  0  0  0  0  0  0  0  0  0
   19.5469   15.6974   23.4668 O   0  0  0  0  0  0  0  0  0  0  0  0
   20.3081   17.4532   22.0908 C   0  0  0  0  0  0  0  0  0  0  0  0
   20.4132   16.7264   21.2769 H   0  0  0  0  0  0  0  0  0  0  0  0
   21.2128   18.0694   22.0793 H   0  0  0  0  0  0  0  0  0  0  0  0
   19.0402   18.3178   21.8465 C   0  0  0  0  0  0  0  0  0  0  0  0
   19.0359   18.6879   20.8124 H   0  0  0  0  0  0  0  0  0  0  0  0
   18.1612   17.6646   21.9369 H   0  0  0  0  0  0  0  0  0  0  0  0
   18.8819   19.5072   22.8293 C   0  0  0  0  0  0  0  0  0  0  0  0
   19.3325   19.2658   23.8016 H   0  0  0  0  0  0  0  0  0  0  0  0
   17.8100   19.6470   23.0249 H   0  0  0  0  0  0  0  0  0  0  0  0
   19.4393   20.8544   22.3078 C   0  0  0  0  0  0  0  0  0  0  0  0
   18.9201   21.1348   21.3809 H   0  0  0  0  0  0  0  0  0  0  0  0
   19.2016   21.6367   23.0417 H   0  0  0  0  0  0  0  0  0  0  0  0
   20.9622   20.8547   22.0623 C   0  0  0  0  0  0  0  0  0  0  0  0
   21.2265   20.2085   21.2162 H   0  0  0  0  0  0  0  0  0  0  0  0
   21.3130   21.8678   21.8265 H   0  0  0  0  0  0  0  0  0  0  0  0
   21.5042   20.5061   22.9512 H   0  0  0  0  0  0  0  0  0  0  0  0
  1  2  1  0  0  0  0
  1  3  2  0  0  0  0
  1  4  1  0  0  0  0
  4  5  1  0  0  0  0
  4  6  1  0  0  0  0
  4  7  1  0  0  0  0
  7  8  1  0  0  0  0
  7  9  1  0  0  0  0
  7 10  1  0  0  0  0
 10 11  1  0  0  0  0
 10 12  1  0  0  0  0
 10 13  1  0  0  0  0
 13 14  1  0  0  0  0
 13 15  1  0  0  0  0
 13 16  1  0  0  0  0
 16 17  1  0  0  0  0
 16 18  1  0  0  0  0
 16 19  1  0  0  0  0
M  END
> <VConfSearch Rank>
640

> <Conf_Id>
4

> <Delta U+W>
3.753

> <U+W>
-51.138

> <U>
12.334

> <W>
-63.472

> <W(PB)>
-65.500

> <W(SA)>
2.028

> <Valence>
9.984

> <Coulomb>
1.767

> <VdW>
0.583

> <VdW6>
-7.767

> <VdW12>
8.349

> <Bond>
0.203

> <Angle>
3.191

> <Pdih>
6.589

> <Idih>
0.001

> <Tether>
0.000

$$$$
VeraChem MOL file


 19 18  0  0  0  0  0  0  0  0999 V2000     
   21.6904   17.0406   21.9423 C   0  0  0  0  0  0  0  0  0  0  0  0
   22.4388   16.8780   20.9987 O   0  5  0  0  0  0  0  0  0  0  0  0
   22.0252   16.8793   23.0993 O   0  0  0  0  0  0  0  0  0  0  0  0
   20.2457   17.4404   21.6540 C   0  0  0  0  0  0  0  0  0  0  0  0
   19.6469   17.2399   22.5482 H   0  0  0  0  0  0  0  0  0  0  0  0
   19.8744   16.7693   20.8708 H   0  0  0  0  0  0  0  0  0  0  0  0
   20.0791   18.9138   21.1890 C   0  0  0  0  0  0  0  0  0  0  0  0
   20.7509   19.0784   20.3351 H   0  0  0  0  0  0  0  0  0  0  0  0
   19.0615   19.0705   20.8068 H   0  0  0  0  0  0  0  0  0  0  0  0
   20.3956   19.9662   22.2835 C   0  0  0  0  0  0  0  0  0  0  0  0
   20.8558   20.8365   21.7962 H   0  0  0  0  0  0  0  0  0  0  0  0
   21.1523   19.5811   22.9806 H   0  0  0  0  0  0  0  0  0  0  0  0
   19.1609   20.4719   23.0694 C   0  0  0  0  0  0  0  0  0  0  0  0
   19.4863   21.2669   23.7545 H   0  0  0  0  0  0  0  0  0  0  0  0
   18.4470   20.9371   22.3758 H   0  0  0  0  0  0  0  0  0  0  0  0
   18.4426   19.3791   23.8876 C   0  0  0  0  0  0  0  0  0  0  0  0
   19.1489   18.8457   24.5372 H   0  0  0  0  0  0  0  0  0  0  0  0
   17.6660   19.8236   24.5233 H   0  0  0  0  0  0  0  0  0  0  0  0
   17.9536   18.6499   23.2299 H   0  0  0  0  0  0  0  0  0  0  0  0
  1  2  1  0  0  0  0
  1  3  2  0  0  0  0
  1  4  1  0  0  0  0
  4  5  1  0  0  0  0
  4  6  1  0  0  0  0
  4  7  1  0  0  0  0
  7  8  1  0  0  0  0
  7  9  1  0  0  0  0
  7 10  1  0  0  0  0
 10 11  1  0  0  0  0
 10 12  1  0  0  0  0
 10 13  1  0  0  0  0
 13 14  1  0  0  0  0
 13 15  1  0  0  0  0
 13 16  1  0  0  0  0
 16 17  1  0  0  0  0
 16 18  1  0  0  0  0
 16 19  1  0  0  0  0
M  END
> <VConfSearch Rank>
641

> <Conf_Id>
73

> <Delta U+W>
3.707

> <U+W>
-51.184

> <U>
12.334

> <W>
-63.519

> <W(PB)>
-65.541

> <W(SA)>
2.022

> <Valence>
9.984

> <Coulomb>
1.768

> <VdW>
0.583

> <VdW6>
-7.767

> <VdW12>
8.350

> <Bond>
0.203

> <Angle>
3.192

> <Pdih>
6.589

> <Idih>
0.001

> <Tether>
0.000

$$$$
VeraChem MOL file


 19 18  0  0  0  0  0  0  0  0999 V2000     
   19.4534   21.1624   21.0005 C   0  0  0  0  0  0  0  0  0  0  0  0
   18.2393   21.1438   21.0497 O   0  5  0  0  0  0  0  0  0  0  0  0
   20.1086   22.1858   20.9828 O   0  0  0  0  0  0  0  0  0  0  0  0
   20.1963   19.8314   20.9244 C   0  0  0  0  0  0  0  0  0  0  0  0
   20.8982   19.8969   20.0849 H   0  0  0  0  0  0  0  0  0  0  0  0
   19.4796   19.0425   20.6687 H   0  0  0  0  0  0  0  0  0  0  0  0
   20.9747   19.4636   22.2171 C   0  0  0  0  0  0  0  0  0  0  0  0
   21.5358   18.5353   22.0496 H   0  0  0  0  0  0  0  0  0  0  0  0
   21.7276   20.2408   22.4072 H   0  0  0  0  0  0  0  0  0  0  0  0
   20.0863   19.3151   23.4792 C   0  0  0  0  0  0  0  0  0  0  0  0
   19.6237   20.2850   23.7079 H   0  0  0  0  0  0  0  0  0  0  0  0
   20.7300   19.0782   24.3372 H   0  0  0  0  0  0  0  0  0  0  0  0
   18.9718   18.2451   23.3789 C   0  0  0  0  0  0  0  0  0  0  0  0
   18.4029   18.2440   24.3187 H   0  0  0  0  0  0  0  0  0  0  0  0
   18.2557   18.5189   22.5923 H   0  0  0  0  0  0  0  0  0  0  0  0
   19.5112   16.8213   23.1229 C   0  0  0  0  0  0  0  0  0  0  0  0
   19.9906   16.7475   22.1387 H   0  0  0  0  0  0  0  0  0  0  0  0
   20.2459   16.5364   23.8871 H   0  0  0  0  0  0  0  0  0  0  0  0
   18.6931   16.0901   23.1501 H   0  0  0  0  0  0  0  0  0  0  0  0
  1  2  1  0  0  0  0
  1  3  2  0  0  0  0
  1  4  1  0  0  0  0
  4  5  1  0  0  0  0
  4  6  1  0  0  0  0
  4  7  1  0  0  0  0
  7  8  1  0  0  0  0
  7  9  1  0  0  0  0
  7 10  1  0  0  0  0
 10 11  1  0  0  0  0
 10 12  1  0  0  0  0
 10 13  1  0  0  0  0
 13 14  1  0  0  0  0
 13 15  1  0  0  0  0
 13 16  1  0  0  0  0
 16 17  1  0  0  0  0
 16 18  1  0  0  0  0
 16 19  1  0  0  0  0
M  END
> <VConfSearch Rank>
642

> <Conf_Id>
56

> <Delta U+W>
1.735

> <U+W>
-53.156

> <U>
10.214

> <W>
-63.370

> <W(PB)>
-65.388

> <W(SA)>
2.018

> <Valence>
7.868

> <Coulomb>
1.968

> <VdW>
0.378

> <VdW6>
-8.067

> <VdW12>
8.445

> <Bond>
0.191

> <Angle>
3.117

> <Pdih>
4.559

> <Idih>
0.001

> <Tether>
0.000

$$$$
VeraChem MOL file


 19 18  0  0  0  0  0  0  0  0999 V2000     
   22.3423   19.9927   23.6277 C   0  0  0  0  0  0  0  0  0  0  0  0
   22.3104   20.5144   24.7246 O   0  5  0  0  0  0  0  0  0  0  0  0
   23.3103   20.0292   22.8942 O   0  0  0  0  0  0  0  0  0  0  0  0
   21.0923   19.2715   23.1365 C   0  0  0  0  0  0  0  0  0  0  0  0
   20.5739   18.8544   24.0081 H   0  0  0  0  0  0  0  0  0  0  0  0
   21.4179   18.4317   22.5125 H   0  0  0  0  0  0  0  0  0  0  0  0
   20.1395   20.1967   22.3381 C   0  0  0  0  0  0  0  0  0  0  0  0
   19.9442   21.0987   22.9344 H   0  0  0  0  0  0  0  0  0  0  0  0
   20.6467   20.5361   21.4245 H   0  0  0  0  0  0  0  0  0  0  0  0
   18.7812   19.5493   21.9689 C   0  0  0  0  0  0  0  0  0  0  0  0
   18.1795   20.3134   21.4578 H   0  0  0  0  0  0  0  0  0  0  0  0
   18.2251   19.2926   22.8809 H   0  0  0  0  0  0  0  0  0  0  0  0
   18.8842   18.3154   21.0383 C   0  0  0  0  0  0  0  0  0  0  0  0
   18.0260   18.3213   20.3521 H   0  0  0  0  0  0  0  0  0  0  0  0
   19.7804   18.3877   20.4068 H   0  0  0  0  0  0  0  0  0  0  0  0
   18.8736   16.9726   21.8023 C   0  0  0  0  0  0  0  0  0  0  0  0
   18.9307   16.1313   21.0996 H   0  0  0  0  0  0  0  0  0  0  0  0
   19.7197   16.8885   22.4935 H   0  0  0  0  0  0  0  0  0  0  0  0
   17.9490   16.8618   22.3836 H   0  0  0  0  0  0  0  0  0  0  0  0
  1  2  1  0  0  0  0
  1  3  2  0  0  0  0
  1  4  1  0  0  0  0
  4  5  1  0  0  0  0
  4  6  1  0  0  0  0
  4  7  1  0  0  0  0
  7  8  1  0  0  0  0
  7  9  1  0  0  0  0
  7 10  1  0  0  0  0
 10 11  1  0  0  0  0
 10 12  1  0  0  0  0
 10 13  1  0  0  0  0
 13 14  1  0  0  0  0
 13 15  1  0  0  0  0
 13 16  1  0  0  0  0
 16 17  1  0  0  0  0
 16 18  1  0  0  0  0
 16 19  1  0  0  0  0
M  END
> <VConfSearch Rank>
643

> <Conf_Id>
53

> <Delta U+W>
2.279

> <U+W>
-52.612

> <U>
10.231

> <W>
-62.843

> <W(PB)>
-64.893

> <W(SA)>
2.050

> <Valence>
9.644

> <Coulomb>
-0.164

> <VdW>
0.751

> <VdW6>
-6.881

> <VdW12>
7.631

> <Bond>
0.163

> <Angle>
2.998

> <Pdih>
6.482

> <Idih>
0.001

> <Tether>
0.000

$$$$
VeraChem MOL file


 19 18  0  0  0  0  0  0  0  0999 V2000     
   20.6759   20.9644   21.3345 C   0  0  0  0  0  0  0  0  0  0  0  0
   21.8815   21.0615   21.4521 O   0  5  0  0  0  0  0  0  0  0  0  0
   19.8960   21.8203   21.7039 O   0  0  0  0  0  0  0  0  0  0  0  0
   20.1184   19.7336   20.6217 C   0  0  0  0  0  0  0  0  0  0  0  0
   20.9528   19.0950   20.3073 H   0  0  0  0  0  0  0  0  0  0  0  0
   19.6402   20.0983   19.7053 H   0  0  0  0  0  0  0  0  0  0  0  0
   19.0846   18.9060   21.4362 C   0  0  0  0  0  0  0  0  0  0  0  0
   18.3652   19.5795   21.9225 H   0  0  0  0  0  0  0  0  0  0  0  0
   18.5014   18.3016   20.7284 H   0  0  0  0  0  0  0  0  0  0  0  0
   19.7013   17.9436   22.4812 C   0  0  0  0  0  0  0  0  0  0  0  0
   20.4138   17.2688   21.9873 H   0  0  0  0  0  0  0  0  0  0  0  0
   18.8975   17.3076   22.8768 H   0  0  0  0  0  0  0  0  0  0  0  0
   20.3953   18.6570   23.6623 C   0  0  0  0  0  0  0  0  0  0  0  0
   21.2842   19.1943   23.3081 H   0  0  0  0  0  0  0  0  0  0  0  0
   19.7177   19.4060   24.0950 H   0  0  0  0  0  0  0  0  0  0  0  0
   20.8215   17.6565   24.7556 C   0  0  0  0  0  0  0  0  0  0  0  0
   21.5205   16.9112   24.3541 H   0  0  0  0  0  0  0  0  0  0  0  0
   21.3202   18.1779   25.5829 H   0  0  0  0  0  0  0  0  0  0  0  0
   19.9516   17.1263   25.1647 H   0  0  0  0  0  0  0  0  0  0  0  0
  1  2  1  0  0  0  0
  1  3  2  0  0  0  0
  1  4  1  0  0  0  0
  4  5  1  0  0  0  0
  4  6  1  0  0  0  0
  4  7  1  0  0  0  0
  7  8  1  0  0  0  0
  7  9  1  0  0  0  0
  7 10  1  0  0  0  0
 10 11  1  0  0  0  0
 10 12  1  0  0  0  0
 10 13  1  0  0  0  0
 13 14  1  0  0  0  0
 13 15  1  0  0  0  0
 13 16  1  0  0  0  0
 16 17  1  0  0  0  0
 16 18  1  0  0  0  0
 16 19  1  0  0  0  0
M  END
> <VConfSearch Rank>
644

> <Conf_Id>
25

> <Delta U+W>
2.065

> <U+W>
-52.826

> <U>
10.967

> <W>
-63.794

> <W(PB)>
-65.830

> <W(SA)>
2.036

> <Valence>
8.609

> <Coulomb>
1.892

> <VdW>
0.467

> <VdW6>
-7.569

> <VdW12>
8.036

> <Bond>
0.170

> <Angle>
3.195

> <Pdih>
5.237

> <Idih>
0.007

> <Tether>
0.000

$$$$
VeraChem MOL file


 19 18  0  0  0  0  0  0  0  0999 V2000     
   22.2301   18.0468   23.3618 C   0  0  0  0  0  0  0  0  0  0  0  0
   23.1046   18.8138   23.0093 O   0  5  0  0  0  0  0  0  0  0  0  0
   22.2198   16.8659   23.0752 O   0  0  0  0  0  0  0  0  0  0  0  0
   21.1228   18.5772   24.2706 C   0  0  0  0  0  0  0  0  0  0  0  0
   21.6119   18.8974   25.1979 H   0  0  0  0  0  0  0  0  0  0  0  0
   20.4541   17.7501   24.5383 H   0  0  0  0  0  0  0  0  0  0  0  0
   20.3037   19.7666   23.6948 C   0  0  0  0  0  0  0  0  0  0  0  0
   19.8193   20.2825   24.5348 H   0  0  0  0  0  0  0  0  0  0  0  0
   20.9810   20.5020   23.2387 H   0  0  0  0  0  0  0  0  0  0  0  0
   19.1980   19.3662   22.6869 C   0  0  0  0  0  0  0  0  0  0  0  0
   18.5919   20.2571   22.4724 H   0  0  0  0  0  0  0  0  0  0  0  0
   18.5206   18.6368   23.1514 H   0  0  0  0  0  0  0  0  0  0  0  0
   19.7354   18.8002   21.3541 C   0  0  0  0  0  0  0  0  0  0  0  0
   20.4897   19.4818   20.9371 H   0  0  0  0  0  0  0  0  0  0  0  0
   20.2330   17.8374   21.5270 H   0  0  0  0  0  0  0  0  0  0  0  0
   18.6024   18.5973   20.3280 C   0  0  0  0  0  0  0  0  0  0  0  0
   18.9993   18.1869   19.3904 H   0  0  0  0  0  0  0  0  0  0  0  0
   17.8470   17.8987   20.7110 H   0  0  0  0  0  0  0  0  0  0  0  0
   18.1050   19.5485   20.0976 H   0  0  0  0  0  0  0  0  0  0  0  0
  1  2  1  0  0  0  0
  1  3  2  0  0  0  0
  1  4  1  0  0  0  0
  4  5  1  0  0  0  0
  4  6  1  0  0  0  0
  4  7  1  0  0  0  0
  7  8  1  0  0  0  0
  7  9  1  0  0  0  0
  7 10  1  0  0  0  0
 10 11  1  0  0  0  0
 10 12  1  0  0  0  0
 10 13  1  0  0  0  0
 13 14  1  0  0  0  0
 13 15  1  0  0  0  0
 13 16  1  0  0  0  0
 16 17  1  0  0  0  0
 16 18  1  0  0  0  0
 16 19  1  0  0  0  0
M  END
> <VConfSearch Rank>
645

> <Conf_Id>
52

> <Delta U+W>
2.070

> <U+W>
-52.822

> <U>
10.967

> <W>
-63.789

> <W(PB)>
-65.837

> <W(SA)>
2.048

> <Valence>
8.609

> <Coulomb>
1.892

> <VdW>
0.467

> <VdW6>
-7.569

> <VdW12>
8.035

> <Bond>
0.170

> <Angle>
3.196

> <Pdih>
5.237

> <Idih>
0.007

> <Tether>
0.000

$$$$
VeraChem MOL file


 19 18  0  0  0  0  0  0  0  0999 V2000     
   19.6518   20.0901   24.3705 C   0  0  0  0  0  0  0  0  0  0  0  0
   18.5125   20.5125   24.4123 O   0  5  0  0  0  0  0  0  0  0  0  0
   20.1828   19.5160   25.3006 O   0  0  0  0  0  0  0  0  0  0  0  0
   20.5061   20.4027   23.1409 C   0  0  0  0  0  0  0  0  0  0  0  0
   21.4380   19.8276   23.1976 H   0  0  0  0  0  0  0  0  0  0  0  0
   20.7854   21.4590   23.2271 H   0  0  0  0  0  0  0  0  0  0  0  0
   19.8180   20.1762   21.7644 C   0  0  0  0  0  0  0  0  0  0  0  0
   18.7771   20.5260   21.8028 H   0  0  0  0  0  0  0  0  0  0  0  0
   20.3198   20.8172   21.0271 H   0  0  0  0  0  0  0  0  0  0  0  0
   19.8670   18.7227   21.2276 C   0  0  0  0  0  0  0  0  0  0  0  0
   20.9108   18.4072   21.0935 H   0  0  0  0  0  0  0  0  0  0  0  0
   19.4282   18.7286   20.2205 H   0  0  0  0  0  0  0  0  0  0  0  0
   19.0966   17.6845   22.0790 C   0  0  0  0  0  0  0  0  0  0  0  0
   18.3282   18.1809   22.6876 H   0  0  0  0  0  0  0  0  0  0  0  0
   18.5580   17.0034   21.4058 H   0  0  0  0  0  0  0  0  0  0  0  0
   20.0266   16.8381   22.9744 C   0  0  0  0  0  0  0  0  0  0  0  0
   20.7349   16.2599   22.3670 H   0  0  0  0  0  0  0  0  0  0  0  0
   20.6045   17.4670   23.6615 H   0  0  0  0  0  0  0  0  0  0  0  0
   19.4422   16.1307   23.5768 H   0  0  0  0  0  0  0  0  0  0  0  0
  1  2  1  0  0  0  0
  1  3  2  0  0  0  0
  1  4  1  0  0  0  0
  4  5  1  0  0  0  0
  4  6  1  0  0  0  0
  4  7  1  0  0  0  0
  7  8  1  0  0  0  0
  7  9  1  0  0  0  0
  7 10  1  0  0  0  0
 10 11  1  0  0  0  0
 10 12  1  0  0  0  0
 10 13  1  0  0  0  0
 13 14  1  0  0  0  0
 13 15  1  0  0  0  0
 13 16  1  0  0  0  0
 16 17  1  0  0  0  0
 16 18  1  0  0  0  0
 16 19  1  0  0  0  0
M  END
> <VConfSearch Rank>
646

> <Conf_Id>
66

> <Delta U+W>
5.819

> <U+W>
-49.072

> <U>
15.324

> <W>
-64.396

> <W(PB)>
-66.382

> <W(SA)>
1.986

> <Valence>
11.748

> <Coulomb>
3.201

> <VdW>
0.375

> <VdW6>
-8.854

> <VdW12>
9.229

> <Bond>
0.216

> <Angle>
3.812

> <Pdih>
7.699

> <Idih>
0.022

> <Tether>
0.000

$$$$
VeraChem MOL file


 19 18  0  0  0  0  0  0  0  0999 V2000     
   18.2804   17.3371   19.6128 C   0  0  0  0  0  0  0  0  0  0  0  0
   18.4613   16.6123   18.6549 O   0  5  0  0  0  0  0  0  0  0  0  0
   17.1821   17.7440   19.9389 O   0  0  0  0  0  0  0  0  0  0  0  0
   19.5116   17.7392   20.4265 C   0  0  0  0  0  0  0  0  0  0  0  0
   20.2113   18.2304   19.7401 H   0  0  0  0  0  0  0  0  0  0  0  0
   19.9932   16.8157   20.7690 H   0  0  0  0  0  0  0  0  0  0  0  0
   19.2310   18.6650   21.6400 C   0  0  0  0  0  0  0  0  0  0  0  0
   18.7433   19.5857   21.2908 H   0  0  0  0  0  0  0  0  0  0  0  0
   18.5250   18.1696   22.3208 H   0  0  0  0  0  0  0  0  0  0  0  0
   20.5258   19.0202   22.4027 C   0  0  0  0  0  0  0  0  0  0  0  0
   21.2302   19.5152   21.7201 H   0  0  0  0  0  0  0  0  0  0  0  0
   21.0118   18.0983   22.7507 H   0  0  0  0  0  0  0  0  0  0  0  0
   20.2446   19.9407   23.6085 C   0  0  0  0  0  0  0  0  0  0  0  0
   19.7601   20.8649   23.2642 H   0  0  0  0  0  0  0  0  0  0  0  0
   19.5418   19.4481   24.2948 H   0  0  0  0  0  0  0  0  0  0  0  0
   21.5394   20.2932   24.3676 C   0  0  0  0  0  0  0  0  0  0  0  0
   22.2489   20.8157   23.7125 H   0  0  0  0  0  0  0  0  0  0  0  0
   21.3212   20.9479   25.2213 H   0  0  0  0  0  0  0  0  0  0  0  0
   22.0289   19.3883   24.7507 H   0  0  0  0  0  0  0  0  0  0  0  0
  1  2  1  0  0  0  0
  1  3  2  0  0  0  0
  1  4  1  0  0  0  0
  4  5  1  0  0  0  0
  4  6  1  0  0  0  0
  4  7  1  0  0  0  0
  7  8  1  0  0  0  0
  7  9  1  0  0  0  0
  7 10  1  0  0  0  0
 10 11  1  0  0  0  0
 10 12  1  0  0  0  0
 10 13  1  0  0  0  0
 13 14  1  0  0  0  0
 13 15  1  0  0  0  0
 13 16  1  0  0  0  0
 16 17  1  0  0  0  0
 16 18  1  0  0  0  0
 16 19  1  0  0  0  0
M  END
> <VConfSearch Rank>
647

> <Conf_Id>
0

> <Delta U+W>
0.000

> <U+W>
-54.891

> <U>
6.966

> <W>
-61.857

> <W(PB)>
-63.965

> <W(SA)>
2.108

> <Valence>
7.175

> <Coulomb>
-1.360

> <VdW>
1.151

> <VdW6>
-5.641

> <VdW12>
6.792

> <Bond>
0.119

> <Angle>
2.715

> <Pdih>
4.340

> <Idih>
0.000

> <Tether>
0.000

$$$$
VeraChem MOL file


 19 18  0  0  0  0  0  0  0  0999 V2000     
   17.8942   19.8209   24.7084 C   0  0  0  0  0  0  0  0  0  0  0  0
   17.3184   18.8983   25.2503 O   0  5  0  0  0  0  0  0  0  0  0  0
   18.2090   20.8458   25.2798 O   0  0  0  0  0  0  0  0  0  0  0  0
   18.2601   19.6759   23.2355 C   0  0  0  0  0  0  0  0  0  0  0  0
   18.2224   20.6706   22.7754 H   0  0  0  0  0  0  0  0  0  0  0  0
   17.4886   19.0652   22.7511 H   0  0  0  0  0  0  0  0  0  0  0  0
   19.6563   19.0410   23.0216 C   0  0  0  0  0  0  0  0  0  0  0  0
   20.4157   19.6570   23.5230 H   0  0  0  0  0  0  0  0  0  0  0  0
   19.6820   18.0516   23.4989 H   0  0  0  0  0  0  0  0  0  0  0  0
   20.0024   18.9053   21.5231 C   0  0  0  0  0  0  0  0  0  0  0  0
   19.9746   19.8959   21.0485 H   0  0  0  0  0  0  0  0  0  0  0  0
   19.2409   18.2901   21.0245 H   0  0  0  0  0  0  0  0  0  0  0  0
   21.3938   18.2727   21.3130 C   0  0  0  0  0  0  0  0  0  0  0  0
   22.1587   18.8864   21.8089 H   0  0  0  0  0  0  0  0  0  0  0  0
   21.4250   17.2807   21.7847 H   0  0  0  0  0  0  0  0  0  0  0  0
   21.7362   18.1388   19.8158 C   0  0  0  0  0  0  0  0  0  0  0  0
   22.7283   17.6874   19.6847 H   0  0  0  0  0  0  0  0  0  0  0  0
   21.0039   17.5032   19.3007 H   0  0  0  0  0  0  0  0  0  0  0  0
   21.7431   19.1209   19.3250 H   0  0  0  0  0  0  0  0  0  0  0  0
  1  2  1  0  0  0  0
  1  3  2  0  0  0  0
  1  4  1  0  0  0  0
  4  5  1  0  0  0  0
  4  6  1  0  0  0  0
  4  7  1  0  0  0  0
  7  8  1  0  0  0  0
  7  9  1  0  0  0  0
  7 10  1  0  0  0  0
 10 11  1  0  0  0  0
 10 12  1  0  0  0  0
 10 13  1  0  0  0  0
 13 14  1  0  0  0  0
 13 15  1  0  0  0  0
 13 16  1  0  0  0  0
 16 17  1  0  0  0  0
 16 18  1  0  0  0  0
 16 19  1  0  0  0  0
M  END
> <VConfSearch Rank>
648

> <Conf_Id>
18

> <Delta U+W>
-1.199

> <U+W>
-56.090

> <U>
5.975

> <W>
-62.066

> <W(PB)>
-64.219

> <W(SA)>
2.153

> <Valence>
6.673

> <Coulomb>
-1.307

> <VdW>
0.610

> <VdW6>
-5.351

> <VdW12>
5.961

> <Bond>
0.086

> <Angle>
2.253

> <Pdih>
4.333

> <Idih>
0.001

> <Tether>
0.000

$$$$
VeraChem MOL file


 19 18  0  0  0  0  0  0  0  0999 V2000     
   20.5195   20.8693   24.6832 C   0  0  0  0  0  0  0  0  0  0  0  0
   20.1899   22.0386   24.7071 O   0  5  0  0  0  0  0  0  0  0  0  0
   20.7871   20.2258   25.6784 O   0  0  0  0  0  0  0  0  0  0  0  0
   20.5798   20.1656   23.3321 C   0  0  0  0  0  0  0  0  0  0  0  0
   21.3796   19.4181   23.3810 H   0  0  0  0  0  0  0  0  0  0  0  0
   20.8707   20.9047   22.5760 H   0  0  0  0  0  0  0  0  0  0  0  0
   19.2341   19.5015   22.9406 C   0  0  0  0  0  0  0  0  0  0  0  0
   18.9754   18.7322   23.6813 H   0  0  0  0  0  0  0  0  0  0  0  0
   18.4397   20.2591   22.9900 H   0  0  0  0  0  0  0  0  0  0  0  0
   19.2403   18.8817   21.5231 C   0  0  0  0  0  0  0  0  0  0  0  0
   19.4909   19.6551   20.7842 H   0  0  0  0  0  0  0  0  0  0  0  0
   18.2221   18.5437   21.2860 H   0  0  0  0  0  0  0  0  0  0  0  0
   20.2116   17.6888   21.3784 C   0  0  0  0  0  0  0  0  0  0  0  0
   21.2459   18.0212   21.5371 H   0  0  0  0  0  0  0  0  0  0  0  0
   19.9938   16.9376   22.1502 H   0  0  0  0  0  0  0  0  0  0  0  0
   20.1028   17.0375   19.9851 C   0  0  0  0  0  0  0  0  0  0  0  0
   20.8004   16.1944   19.8968 H   0  0  0  0  0  0  0  0  0  0  0  0
   19.0883   16.6578   19.8066 H   0  0  0  0  0  0  0  0  0  0  0  0
   20.3427   17.7603   19.1943 H   0  0  0  0  0  0  0  0  0  0  0  0
  1  2  1  0  0  0  0
  1  3  2  0  0  0  0
  1  4  1  0  0  0  0
  4  5  1  0  0  0  0
  4  6  1  0  0  0  0
  4  7  1  0  0  0  0
  7  8  1  0  0  0  0
  7  9  1  0  0  0  0
  7 10  1  0  0  0  0
 10 11  1  0  0  0  0
 10 12  1  0  0  0  0
 10 13  1  0  0  0  0
 13 14  1  0  0  0  0
 13 15  1  0  0  0  0
 13 16  1  0  0  0  0
 16 17  1  0  0  0  0
 16 18  1  0  0  0  0
 16 19  1  0  0  0  0
M  END
> <VConfSearch Rank>
649

> <Conf_Id>
34

> <Delta U+W>
-0.563

> <U+W>
-55.455

> <U>
6.914

> <W>
-62.369

> <W(PB)>
-64.446

> <W(SA)>
2.077

> <Valence>
7.196

> <Coulomb>
-1.020

> <VdW>
0.738

> <VdW6>
-6.010

> <VdW12>
6.748

> <Bond>
0.126

> <Angle>
2.499

> <Pdih>
4.570

> <Idih>
0.001

> <Tether>
0.000

$$$$
VeraChem MOL file


 19 18  0  0  0  0  0  0  0  0999 V2000     
   17.4178   18.8009   24.1272 C   0  0  0  0  0  0  0  0  0  0  0  0
   17.4951   18.7292   25.3376 O   0  5  0  0  0  0  0  0  0  0  0  0
   16.4166   18.5181   23.4995 O   0  0  0  0  0  0  0  0  0  0  0  0
   18.6517   19.2492   23.3520 C   0  0  0  0  0  0  0  0  0  0  0  0
   19.2087   19.9564   23.9782 H   0  0  0  0  0  0  0  0  0  0  0  0
   18.3086   19.7979   22.4676 H   0  0  0  0  0  0  0  0  0  0  0  0
   19.5650   18.0652   22.9405 C   0  0  0  0  0  0  0  0  0  0  0  0
   19.8154   17.4845   23.8391 H   0  0  0  0  0  0  0  0  0  0  0  0
   19.0102   17.3870   22.2776 H   0  0  0  0  0  0  0  0  0  0  0  0
   20.8791   18.5080   22.2545 C   0  0  0  0  0  0  0  0  0  0  0  0
   21.5114   17.6217   22.1075 H   0  0  0  0  0  0  0  0  0  0  0  0
   21.4354   19.1791   22.9231 H   0  0  0  0  0  0  0  0  0  0  0  0
   20.6575   19.1984   20.8900 C   0  0  0  0  0  0  0  0  0  0  0  0
   20.0573   18.5482   20.2387 H   0  0  0  0  0  0  0  0  0  0  0  0
   20.0909   20.1292   21.0242 H   0  0  0  0  0  0  0  0  0  0  0  0
   21.9961   19.5222   20.1968 C   0  0  0  0  0  0  0  0  0  0  0  0
   22.6058   20.1941   20.8150 H   0  0  0  0  0  0  0  0  0  0  0  0
   22.5743   18.6075   20.0114 H   0  0  0  0  0  0  0  0  0  0  0  0
   21.8222   20.0145   19.2311 H   0  0  0  0  0  0  0  0  0  0  0  0
  1  2  1  0  0  0  0
  1  3  2  0  0  0  0
  1  4  1  0  0  0  0
  4  5  1  0  0  0  0
  4  6  1  0  0  0  0
  4  7  1  0  0  0  0
  7  8  1  0  0  0  0
  7  9  1  0  0  0  0
  7 10  1  0  0  0  0
 10 11  1  0  0  0  0
 10 12  1  0  0  0  0
 10 13  1  0  0  0  0
 13 14  1  0  0  0  0
 13 15  1  0  0  0  0
 13 16  1  0  0  0  0
 16 17  1  0  0  0  0
 16 18  1  0  0  0  0
 16 19  1  0  0  0  0
M  END
> <VConfSearch Rank>
650

> <Conf_Id>
33

> <Delta U+W>
-0.526

> <U+W>
-55.418

> <U>
6.914

> <W>
-62.332

> <W(PB)>
-64.421

> <W(SA)>
2.090

> <Valence>
7.196

> <Coulomb>
-1.020

> <VdW>
0.738

> <VdW6>
-6.010

> <VdW12>
6.748

> <Bond>
0.126

> <Angle>
2.499

> <Pdih>
4.570

> <Idih>
0.001

> <Tether>
0.000

$$$$
VeraChem MOL file


 19 18  0  0  0  0  0  0  0  0999 V2000     
   20.3291   16.4681   24.1544 C   0  0  0  0  0  0  0  0  0  0  0  0
   19.3800   16.3613   24.9054 O   0  5  0  0  0  0  0  0  0  0  0  0
   20.9425   15.5197   23.7067 O   0  0  0  0  0  0  0  0  0  0  0  0
   20.7633   17.8687   23.7369 C   0  0  0  0  0  0  0  0  0  0  0  0
   21.8497   17.8582   23.5881 H   0  0  0  0  0  0  0  0  0  0  0  0
   20.5566   18.5522   24.5693 H   0  0  0  0  0  0  0  0  0  0  0  0
   20.0522   18.3618   22.4525 C   0  0  0  0  0  0  0  0  0  0  0  0
   20.2608   17.6625   21.6311 H   0  0  0  0  0  0  0  0  0  0  0  0
   18.9670   18.3460   22.6188 H   0  0  0  0  0  0  0  0  0  0  0  0
   20.5085   19.7846   22.0548 C   0  0  0  0  0  0  0  0  0  0  0  0
   21.6033   19.7964   21.9632 H   0  0  0  0  0  0  0  0  0  0  0  0
   20.2554   20.4924   22.8560 H   0  0  0  0  0  0  0  0  0  0  0  0
   19.8990   20.2743   20.7209 C   0  0  0  0  0  0  0  0  0  0  0  0
   20.3615   21.2343   20.4534 H   0  0  0  0  0  0  0  0  0  0  0  0
   20.1548   19.5716   19.9157 H   0  0  0  0  0  0  0  0  0  0  0  0
   18.3675   20.4603   20.7809 C   0  0  0  0  0  0  0  0  0  0  0  0
   18.0856   21.1369   21.5982 H   0  0  0  0  0  0  0  0  0  0  0  0
   17.9963   20.8914   19.8421 H   0  0  0  0  0  0  0  0  0  0  0  0
   17.8531   19.5032   20.9327 H   0  0  0  0  0  0  0  0  0  0  0  0
  1  2  1  0  0  0  0
  1  3  2  0  0  0  0
  1  4  1  0  0  0  0
  4  5  1  0  0  0  0
  4  6  1  0  0  0  0
  4  7  1  0  0  0  0
  7  8  1  0  0  0  0
  7  9  1  0  0  0  0
  7 10  1  0  0  0  0
 10 11  1  0  0  0  0
 10 12  1  0  0  0  0
 10 13  1  0  0  0  0
 13 14  1  0  0  0  0
 13 15  1  0  0  0  0
 13 16  1  0  0  0  0
 16 17  1  0  0  0  0
 16 18  1  0  0  0  0
 16 19  1  0  0  0  0
M  END
> <VConfSearch Rank>
651

> <Conf_Id>
42

> <Delta U+W>
-0.344

> <U+W>
-55.236

> <U>
7.244

> <W>
-62.479

> <W(PB)>
-64.610

> <W(SA)>
2.130

> <Valence>
7.174

> <Coulomb>
-0.669

> <VdW>
0.739

> <VdW6>
-5.969

> <VdW12>
6.708

> <Bond>
0.116

> <Angle>
2.481

> <Pdih>
4.576

> <Idih>
0.000

> <Tether>
0.000

$$$$
VeraChem MOL file


 19 18  0  0  0  0  0  0  0  0999 V2000     
   16.9792   18.2363   21.9956 C   0  0  0  0  0  0  0  0  0  0  0  0
   16.6318   18.3011   20.8332 O   0  5  0  0  0  0  0  0  0  0  0  0
   16.2651   18.5444   22.9291 O   0  0  0  0  0  0  0  0  0  0  0  0
   18.3952   17.7594   22.2989 C   0  0  0  0  0  0  0  0  0  0  0  0
   18.6830   17.0337   21.5286 H   0  0  0  0  0  0  0  0  0  0  0  0
   18.3770   17.2256   23.2567 H   0  0  0  0  0  0  0  0  0  0  0  0
   19.4224   18.9173   22.3512 C   0  0  0  0  0  0  0  0  0  0  0  0
   19.4093   19.4476   21.3898 H   0  0  0  0  0  0  0  0  0  0  0  0
   19.1156   19.6398   23.1200 H   0  0  0  0  0  0  0  0  0  0  0  0
   20.8489   18.4050   22.6565 C   0  0  0  0  0  0  0  0  0  0  0  0
   21.1746   17.7202   21.8615 H   0  0  0  0  0  0  0  0  0  0  0  0
   20.8267   17.8170   23.5842 H   0  0  0  0  0  0  0  0  0  0  0  0
   21.8868   19.5393   22.8190 C   0  0  0  0  0  0  0  0  0  0  0  0
   21.5672   20.2234   23.6173 H   0  0  0  0  0  0  0  0  0  0  0  0
   22.8391   19.1013   23.1486 H   0  0  0  0  0  0  0  0  0  0  0  0
   22.1300   20.3358   21.5189 C   0  0  0  0  0  0  0  0  0  0  0  0
   21.2318   20.8863   21.2122 H   0  0  0  0  0  0  0  0  0  0  0  0
   22.9352   21.0679   21.6624 H   0  0  0  0  0  0  0  0  0  0  0  0
   22.4226   19.6682   20.6980 H   0  0  0  0  0  0  0  0  0  0  0  0
  1  2  1  0  0  0  0
  1  3  2  0  0  0  0
  1  4  1  0  0  0  0
  4  5  1  0  0  0  0
  4  6  1  0  0  0  0
  4  7  1  0  0  0  0
  7  8  1  0  0  0  0
  7  9  1  0  0  0  0
  7 10  1  0  0  0  0
 10 11  1  0  0  0  0
 10 12  1  0  0  0  0
 10 13  1  0  0  0  0
 13 14  1  0  0  0  0
 13 15  1  0  0  0  0
 13 16  1  0  0  0  0
 16 17  1  0  0  0  0
 16 18  1  0  0  0  0
 16 19  1  0  0  0  0
M  END
> <VConfSearch Rank>
652

> <Conf_Id>
41

> <Delta U+W>
-0.361

> <U+W>
-55.252

> <U>
7.244

> <W>
-62.496

> <W(PB)>
-64.596

> <W(SA)>
2.099

> <Valence>
7.174

> <Coulomb>
-0.669

> <VdW>
0.739

> <VdW6>
-5.969

> <VdW12>
6.708

> <Bond>
0.116

> <Angle>
2.481

> <Pdih>
4.576

> <Idih>
0.000

> <Tether>
0.000

$$$$
VeraChem MOL file


 19 18  0  0  0  0  0  0  0  0999 V2000     
   20.7283   21.6986   22.2090 C   0  0  0  0  0  0  0  0  0  0  0  0
   21.8351   21.5288   21.7370 O   0  5  0  0  0  0  0  0  0  0  0  0
   19.9179   22.4827   21.7561 O   0  0  0  0  0  0  0  0  0  0  0  0
   20.3410   20.9010   23.4512 C   0  0  0  0  0  0  0  0  0  0  0  0
   19.8876   21.6014   24.1625 H   0  0  0  0  0  0  0  0  0  0  0  0
   21.2552   20.5186   23.9213 H   0  0  0  0  0  0  0  0  0  0  0  0
   19.3554   19.7366   23.1720 C   0  0  0  0  0  0  0  0  0  0  0  0
   19.0262   19.3111   24.1297 H   0  0  0  0  0  0  0  0  0  0  0  0
   18.4577   20.1307   22.6756 H   0  0  0  0  0  0  0  0  0  0  0  0
   19.9838   18.6203   22.3080 C   0  0  0  0  0  0  0  0  0  0  0  0
   20.8878   18.2387   22.8020 H   0  0  0  0  0  0  0  0  0  0  0  0
   20.3005   19.0347   21.3408 H   0  0  0  0  0  0  0  0  0  0  0  0
   18.9968   17.4587   22.0695 C   0  0  0  0  0  0  0  0  0  0  0  0
   18.6797   17.0374   23.0335 H   0  0  0  0  0  0  0  0  0  0  0  0
   18.0924   17.8373   21.5732 H   0  0  0  0  0  0  0  0  0  0  0  0
   19.6267   16.3466   21.2072 C   0  0  0  0  0  0  0  0  0  0  0  0
   20.5166   15.9278   21.6952 H   0  0  0  0  0  0  0  0  0  0  0  0
   18.9116   15.5292   21.0471 H   0  0  0  0  0  0  0  0  0  0  0  0
   19.9250   16.7336   20.2240 H   0  0  0  0  0  0  0  0  0  0  0  0
  1  2  1  0  0  0  0
  1  3  2  0  0  0  0
  1  4  1  0  0  0  0
  4  5  1  0  0  0  0
  4  6  1  0  0  0  0
  4  7  1  0  0  0  0
  7  8  1  0  0  0  0
  7  9  1  0  0  0  0
  7 10  1  0  0  0  0
 10 11  1  0  0  0  0
 10 12  1  0  0  0  0
 10 13  1  0  0  0  0
 13 14  1  0  0  0  0
 13 15  1  0  0  0  0
 13 16  1  0  0  0  0
 16 17  1  0  0  0  0
 16 18  1  0  0  0  0
 16 19  1  0  0  0  0
M  END
> <VConfSearch Rank>
653

> <Conf_Id>
36

> <Delta U+W>
-0.079

> <U+W>
-54.971

> <U>
8.266

> <W>
-63.237

> <W(PB)>
-65.340

> <W(SA)>
2.103

> <Valence>
6.935

> <Coulomb>
0.874

> <VdW>
0.457

> <VdW6>
-6.205

> <VdW12>
6.662

> <Bond>
0.107

> <Angle>
2.420

> <Pdih>
4.407

> <Idih>
0.001

> <Tether>
0.000

$$$$
VeraChem MOL file


 19 18  0  0  0  0  0  0  0  0999 V2000     
   19.2371   18.5058   25.0238 C   0  0  0  0  0  0  0  0  0  0  0  0
   19.3137   19.6366   25.4620 O   0  5  0  0  0  0  0  0  0  0  0  0
   19.7275   17.5383   25.5717 O   0  0  0  0  0  0  0  0  0  0  0  0
   18.4651   18.2831   23.7262 C   0  0  0  0  0  0  0  0  0  0  0  0
   17.8186   19.1514   23.5497 H   0  0  0  0  0  0  0  0  0  0  0  0
   17.8044   17.4220   23.8814 H   0  0  0  0  0  0  0  0  0  0  0  0
   19.3670   18.0274   22.4908 C   0  0  0  0  0  0  0  0  0  0  0  0
   20.0282   17.1734   22.6935 H   0  0  0  0  0  0  0  0  0  0  0  0
   18.7335   17.7420   21.6401 H   0  0  0  0  0  0  0  0  0  0  0  0
   20.2110   19.2629   22.1053 C   0  0  0  0  0  0  0  0  0  0  0  0
   20.8604   19.5447   22.9457 H   0  0  0  0  0  0  0  0  0  0  0  0
   19.5464   20.1171   21.9164 H   0  0  0  0  0  0  0  0  0  0  0  0
   21.0762   18.9964   20.8559 C   0  0  0  0  0  0  0  0  0  0  0  0
   21.7438   18.1438   21.0429 H   0  0  0  0  0  0  0  0  0  0  0  0
   20.4316   18.7182   20.0107 H   0  0  0  0  0  0  0  0  0  0  0  0
   21.9170   20.2309   20.4738 C   0  0  0  0  0  0  0  0  0  0  0  0
   22.5944   20.5126   21.2907 H   0  0  0  0  0  0  0  0  0  0  0  0
   22.5262   20.0239   19.5844 H   0  0  0  0  0  0  0  0  0  0  0  0
   21.2725   21.0913   20.2508 H   0  0  0  0  0  0  0  0  0  0  0  0
  1  2  1  0  0  0  0
  1  3  2  0  0  0  0
  1  4  1  0  0  0  0
  4  5  1  0  0  0  0
  4  6  1  0  0  0  0
  4  7  1  0  0  0  0
  7  8  1  0  0  0  0
  7  9  1  0  0  0  0
  7 10  1  0  0  0  0
 10 11  1  0  0  0  0
 10 12  1  0  0  0  0
 10 13  1  0  0  0  0
 13 14  1  0  0  0  0
 13 15  1  0  0  0  0
 13 16  1  0  0  0  0
 16 17  1  0  0  0  0
 16 18  1  0  0  0  0
 16 19  1  0  0  0  0
M  END
> <VConfSearch Rank>
654

> <Conf_Id>
35

> <Delta U+W>
-0.030

> <U+W>
-54.921

> <U>
8.267

> <W>
-63.188

> <W(PB)>
-65.294

> <W(SA)>
2.106

> <Valence>
6.935

> <Coulomb>
0.875

> <VdW>
0.457

> <VdW6>
-6.205

> <VdW12>
6.662

> <Bond>
0.107

> <Angle>
2.420

> <Pdih>
4.407

> <Idih>
0.001

> <Tether>
0.000

$$$$
VeraChem MOL file


 19 18  0  0  0  0  0  0  0  0999 V2000     
   17.2935   18.1582   22.8213 C   0  0  0  0  0  0  0  0  0  0  0  0
   17.0938   16.9599   22.7907 O   0  5  0  0  0  0  0  0  0  0  0  0
   16.5996   18.9698   22.2413 O   0  0  0  0  0  0  0  0  0  0  0  0
   18.4671   18.6711   23.6515 C   0  0  0  0  0  0  0  0  0  0  0  0
   18.4345   18.1545   24.6181 H   0  0  0  0  0  0  0  0  0  0  0  0
   18.3124   19.7374   23.8564 H   0  0  0  0  0  0  0  0  0  0  0  0
   19.8536   18.4486   22.9930 C   0  0  0  0  0  0  0  0  0  0  0  0
   20.6312   18.7050   23.7237 H   0  0  0  0  0  0  0  0  0  0  0  0
   19.9779   17.3825   22.7577 H   0  0  0  0  0  0  0  0  0  0  0  0
   20.0450   19.2945   21.7114 C   0  0  0  0  0  0  0  0  0  0  0  0
   19.9584   20.3620   21.9558 H   0  0  0  0  0  0  0  0  0  0  0  0
   19.2320   19.0714   21.0069 H   0  0  0  0  0  0  0  0  0  0  0  0
   21.3923   19.0340   20.9990 C   0  0  0  0  0  0  0  0  0  0  0  0
   21.4808   17.9671   20.7513 H   0  0  0  0  0  0  0  0  0  0  0  0
   21.3955   19.5756   20.0430 H   0  0  0  0  0  0  0  0  0  0  0  0
   22.6181   19.4792   21.8256 C   0  0  0  0  0  0  0  0  0  0  0  0
   22.7243   18.8814   22.7394 H   0  0  0  0  0  0  0  0  0  0  0  0
   23.5393   19.3581   21.2411 H   0  0  0  0  0  0  0  0  0  0  0  0
   22.5361   20.5358   22.1120 H   0  0  0  0  0  0  0  0  0  0  0  0
  1  2  1  0  0  0  0
  1  3  2  0  0  0  0
  1  4  1  0  0  0  0
  4  5  1  0  0  0  0
  4  6  1  0  0  0  0
  4  7  1  0  0  0  0
  7  8  1  0  0  0  0
  7  9  1  0  0  0  0
  7 10  1  0  0  0  0
 10 11  1  0  0  0  0
 10 12  1  0  0  0  0
 10 13  1  0  0  0  0
 13 14  1  0  0  0  0
 13 15  1  0  0  0  0
 13 16  1  0  0  0  0
 16 17  1  0  0  0  0
 16 18  1  0  0  0  0
 16 19  1  0  0  0  0
M  END
> <VConfSearch Rank>
655

> <Conf_Id>
74

> <Delta U+W>
0.797

> <U+W>
-54.095

> <U>
8.869

> <W>
-62.964

> <W(PB)>
-65.046

> <W(SA)>
2.082

> <Valence>
7.469

> <Coulomb>
0.762

> <VdW>
0.639

> <VdW6>
-6.782

> <VdW12>
7.421

> <Bond>
0.141

> <Angle>
2.667

> <Pdih>
4.660

> <Idih>
0.001

> <Tether>
0.000

$$$$
VeraChem MOL file


 19 18  0  0  0  0  0  0  0  0999 V2000     
   20.9593   17.0848   24.3560 C   0  0  0  0  0  0  0  0  0  0  0  0
   20.9625   17.2109   25.5645 O   0  5  0  0  0  0  0  0  0  0  0  0
   21.0048   16.0093   23.7924 O   0  0  0  0  0  0  0  0  0  0  0  0
   20.8748   18.3441   23.5009 C   0  0  0  0  0  0  0  0  0  0  0  0
   21.4323   18.1576   22.5760 H   0  0  0  0  0  0  0  0  0  0  0  0
   21.3882   19.1533   24.0338 H   0  0  0  0  0  0  0  0  0  0  0  0
   19.4145   18.7563   23.1813 C   0  0  0  0  0  0  0  0  0  0  0  0
   18.9222   17.9547   22.6148 H   0  0  0  0  0  0  0  0  0  0  0  0
   18.8591   18.8462   24.1251 H   0  0  0  0  0  0  0  0  0  0  0  0
   19.3034   20.0980   22.4144 C   0  0  0  0  0  0  0  0  0  0  0  0
   19.7097   20.9019   23.0433 H   0  0  0  0  0  0  0  0  0  0  0  0
   18.2404   20.3343   22.2697 H   0  0  0  0  0  0  0  0  0  0  0  0
   20.0153   20.1332   21.0397 C   0  0  0  0  0  0  0  0  0  0  0  0
   19.8806   21.1318   20.6018 H   0  0  0  0  0  0  0  0  0  0  0  0
   21.0978   20.0029   21.1697 H   0  0  0  0  0  0  0  0  0  0  0  0
   19.4797   19.0796   20.0466 C   0  0  0  0  0  0  0  0  0  0  0  0
   18.3938   19.1766   19.9186 H   0  0  0  0  0  0  0  0  0  0  0  0
   19.9494   19.2054   19.0625 H   0  0  0  0  0  0  0  0  0  0  0  0
   19.6970   18.0605   20.3908 H   0  0  0  0  0  0  0  0  0  0  0  0
  1  2  1  0  0  0  0
  1  3  2  0  0  0  0
  1  4  1  0  0  0  0
  4  5  1  0  0  0  0
  4  6  1  0  0  0  0
  4  7  1  0  0  0  0
  7  8  1  0  0  0  0
  7  9  1  0  0  0  0
  7 10  1  0  0  0  0
 10 11  1  0  0  0  0
 10 12  1  0  0  0  0
 10 13  1  0  0  0  0
 13 14  1  0  0  0  0
 13 15  1  0  0  0  0
 13 16  1  0  0  0  0
 16 17  1  0  0  0  0
 16 18  1  0  0  0  0
 16 19  1  0  0  0  0
M  END
> <VConfSearch Rank>
656

> <Conf_Id>
67

> <Delta U+W>
0.308

> <U+W>
-54.583

> <U>
8.219

> <W>
-62.802

> <W(PB)>
-64.859

> <W(SA)>
2.057

> <Valence>
7.609

> <Coulomb>
-0.089

> <VdW>
0.699

> <VdW6>
-6.924

> <VdW12>
7.623

> <Bond>
0.163

> <Angle>
2.870

> <Pdih>
4.576

> <Idih>
0.001

> <Tether>
0.000

$$$$
VeraChem MOL file


 19 18  0  0  0  0  0  0  0  0999 V2000     
   21.1342   16.3695   21.4537 C   0  0  0  0  0  0  0  0  0  0  0  0
   22.2766   16.1083   21.1326 O   0  5  0  0  0  0  0  0  0  0  0  0
   20.1724   15.7109   21.1107 O   0  0  0  0  0  0  0  0  0  0  0  0
   20.8931   17.6019   22.3181 C   0  0  0  0  0  0  0  0  0  0  0  0
   21.7620   17.7340   22.9737 H   0  0  0  0  0  0  0  0  0  0  0  0
   20.0287   17.3957   22.9596 H   0  0  0  0  0  0  0  0  0  0  0  0
   20.6545   18.8853   21.4810 C   0  0  0  0  0  0  0  0  0  0  0  0
   21.4948   19.0132   20.7848 H   0  0  0  0  0  0  0  0  0  0  0  0
   19.7604   18.7558   20.8569 H   0  0  0  0  0  0  0  0  0  0  0  0
   20.5255   20.1691   22.3389 C   0  0  0  0  0  0  0  0  0  0  0  0
   20.4039   21.0305   21.6681 H   0  0  0  0  0  0  0  0  0  0  0  0
   21.4694   20.3342   22.8762 H   0  0  0  0  0  0  0  0  0  0  0  0
   19.3639   20.1646   23.3628 C   0  0  0  0  0  0  0  0  0  0  0  0
   19.5190   19.3742   24.1090 H   0  0  0  0  0  0  0  0  0  0  0  0
   19.3830   21.1129   23.9173 H   0  0  0  0  0  0  0  0  0  0  0  0
   17.9745   19.9992   22.7105 C   0  0  0  0  0  0  0  0  0  0  0  0
   17.8694   19.0130   22.2408 H   0  0  0  0  0  0  0  0  0  0  0  0
   17.1823   20.0947   23.4643 H   0  0  0  0  0  0  0  0  0  0  0  0
   17.8066   20.7665   21.9436 H   0  0  0  0  0  0  0  0  0  0  0  0
  1  2  1  0  0  0  0
  1  3  2  0  0  0  0
  1  4  1  0  0  0  0
  4  5  1  0  0  0  0
  4  6  1  0  0  0  0
  4  7  1  0  0  0  0
  7  8  1  0  0  0  0
  7  9  1  0  0  0  0
  7 10  1  0  0  0  0
 10 11  1  0  0  0  0
 10 12  1  0  0  0  0
 10 13  1  0  0  0  0
 13 14  1  0  0  0  0
 13 15  1  0  0  0  0
 13 16  1  0  0  0  0
 16 17  1  0  0  0  0
 16 18  1  0  0  0  0
 16 19  1  0  0  0  0
M  END
> <VConfSearch Rank>
657

> <Conf_Id>
21

> <Delta U+W>
0.319

> <U+W>
-54.572

> <U>
8.220

> <W>
-62.792

> <W(PB)>
-64.830

> <W(SA)>
2.038

> <Valence>
7.609

> <Coulomb>
-0.088

> <VdW>
0.699

> <VdW6>
-6.924

> <VdW12>
7.623

> <Bond>
0.163

> <Angle>
2.870

> <Pdih>
4.576

> <Idih>
0.000

> <Tether>
0.000

$$$$
VeraChem MOL file


 19 18  0  0  0  0  0  0  0  0999 V2000     
   17.5922   19.6606   23.7711 C   0  0  0  0  0  0  0  0  0  0  0  0
   17.2318   20.7393   24.1989 O   0  5  0  0  0  0  0  0  0  0  0  0
   16.8315   18.7433   23.5339 O   0  0  0  0  0  0  0  0  0  0  0  0
   19.0780   19.4537   23.4999 C   0  0  0  0  0  0  0  0  0  0  0  0
   19.3089   18.3995   23.6821 H   0  0  0  0  0  0  0  0  0  0  0  0
   19.6410   20.0359   24.2391 H   0  0  0  0  0  0  0  0  0  0  0  0
   19.4913   19.8755   22.0651 C   0  0  0  0  0  0  0  0  0  0  0  0
   18.8871   19.3355   21.3231 H   0  0  0  0  0  0  0  0  0  0  0  0
   19.2466   20.9397   21.9424 H   0  0  0  0  0  0  0  0  0  0  0  0
   21.0007   19.6775   21.7745 C   0  0  0  0  0  0  0  0  0  0  0  0
   21.5839   19.7844   22.6994 H   0  0  0  0  0  0  0  0  0  0  0  0
   21.3316   20.4932   21.1170 H   0  0  0  0  0  0  0  0  0  0  0  0
   21.3545   18.3428   21.0736 C   0  0  0  0  0  0  0  0  0  0  0  0
   20.8349   18.2854   20.1072 H   0  0  0  0  0  0  0  0  0  0  0  0
   22.4291   18.3437   20.8450 H   0  0  0  0  0  0  0  0  0  0  0  0
   21.0278   17.0852   21.9052 C   0  0  0  0  0  0  0  0  0  0  0  0
   21.4206   16.1867   21.4120 H   0  0  0  0  0  0  0  0  0  0  0  0
   21.4762   17.1462   22.9053 H   0  0  0  0  0  0  0  0  0  0  0  0
   19.9440   16.9541   22.0148 H   0  0  0  0  0  0  0  0  0  0  0  0
  1  2  1  0  0  0  0
  1  3  2  0  0  0  0
  1  4  1  0  0  0  0
  4  5  1  0  0  0  0
  4  6  1  0  0  0  0
  4  7  1  0  0  0  0
  7  8  1  0  0  0  0
  7  9  1  0  0  0  0
  7 10  1  0  0  0  0
 10 11  1  0  0  0  0
 10 12  1  0  0  0  0
 10 13  1  0  0  0  0
 13 14  1  0  0  0  0
 13 15  1  0  0  0  0
 13 16  1  0  0  0  0
 16 17  1  0  0  0  0
 16 18  1  0  0  0  0
 16 19  1  0  0  0  0
M  END
> <VConfSearch Rank>
658

> <Conf_Id>
24

> <Delta U+W>
2.477

> <U+W>
-52.414

> <U>
10.422

> <W>
-62.836

> <W(PB)>
-64.906

> <W(SA)>
2.070

> <Valence>
9.628

> <Coulomb>
0.101

> <VdW>
0.693

> <VdW6>
-6.927

> <VdW12>
7.620

> <Bond>
0.173

> <Angle>
2.989

> <Pdih>
6.465

> <Idih>
0.001

> <Tether>
0.000

$$$$
VeraChem MOL file


 19 18  0  0  0  0  0  0  0  0999 V2000     
   19.0884   18.0506   24.6840 C   0  0  0  0  0  0  0  0  0  0  0  0
   18.3704   18.9811   24.9926 O   0  5  0  0  0  0  0  0  0  0  0  0
   18.8794   16.9017   25.0210 O   0  0  0  0  0  0  0  0  0  0  0  0
   20.3358   18.3409   23.8535 C   0  0  0  0  0  0  0  0  0  0  0  0
   21.1759   17.8355   24.3439 H   0  0  0  0  0  0  0  0  0  0  0  0
   20.5428   19.4145   23.9050 H   0  0  0  0  0  0  0  0  0  0  0  0
   20.2382   17.8610   22.3787 C   0  0  0  0  0  0  0  0  0  0  0  0
   21.2274   17.9129   21.9043 H   0  0  0  0  0  0  0  0  0  0  0  0
   19.9621   16.7974   22.3853 H   0  0  0  0  0  0  0  0  0  0  0  0
   19.2053   18.6398   21.5231 C   0  0  0  0  0  0  0  0  0  0  0  0
   18.3787   18.9998   22.1507 H   0  0  0  0  0  0  0  0  0  0  0  0
   18.7532   17.9361   20.8109 H   0  0  0  0  0  0  0  0  0  0  0  0
   19.7981   19.8133   20.7050 C   0  0  0  0  0  0  0  0  0  0  0  0
   20.5628   19.4324   20.0140 H   0  0  0  0  0  0  0  0  0  0  0  0
   19.0018   20.2377   20.0782 H   0  0  0  0  0  0  0  0  0  0  0  0
   20.4020   20.9416   21.5663 C   0  0  0  0  0  0  0  0  0  0  0  0
   21.3088   20.6028   22.0824 H   0  0  0  0  0  0  0  0  0  0  0  0
   20.6797   21.7976   20.9379 H   0  0  0  0  0  0  0  0  0  0  0  0
   19.6820   21.2913   22.3178 H   0  0  0  0  0  0  0  0  0  0  0  0
  1  2  1  0  0  0  0
  1  3  2  0  0  0  0
  1  4  1  0  0  0  0
  4  5  1  0  0  0  0
  4  6  1  0  0  0  0
  4  7  1  0  0  0  0
  7  8  1  0  0  0  0
  7  9  1  0  0  0  0
  7 10  1  0  0  0  0
 10 11  1  0  0  0  0
 10 12  1  0  0  0  0
 10 13  1  0  0  0  0
 13 14  1  0  0  0  0
 13 15  1  0  0  0  0
 13 16  1  0  0  0  0
 16 17  1  0  0  0  0
 16 18  1  0  0  0  0
 16 19  1  0  0  0  0
M  END
> <VConfSearch Rank>
659

> <Conf_Id>
4

> <Delta U+W>
3.753

> <U+W>
-51.138

> <U>
12.334

> <W>
-63.472

> <W(PB)>
-65.500

> <W(SA)>
2.028

> <Valence>
9.984

> <Coulomb>
1.767

> <VdW>
0.583

> <VdW6>
-7.767

> <VdW12>
8.349

> <Bond>
0.203

> <Angle>
3.191

> <Pdih>
6.589

> <Idih>
0.001

> <Tether>
0.000

$$$$
VeraChem MOL file


 19 18  0  0  0  0  0  0  0  0999 V2000     
   19.1884   20.3013   20.3427 C   0  0  0  0  0  0  0  0  0  0  0  0
   19.1436   21.5040   20.1732 O   0  5  0  0  0  0  0  0  0  0  0  0
   19.5933   19.5206   19.5041 O   0  0  0  0  0  0  0  0  0  0  0  0
   18.6809   19.7426   21.6695 C   0  0  0  0  0  0  0  0  0  0  0  0
   18.4957   18.6710   21.5446 H   0  0  0  0  0  0  0  0  0  0  0  0
   17.7082   20.2083   21.8659 H   0  0  0  0  0  0  0  0  0  0  0  0
   19.6298   20.0092   22.8710 C   0  0  0  0  0  0  0  0  0  0  0  0
   19.8361   21.0879   22.9079 H   0  0  0  0  0  0  0  0  0  0  0  0
   19.1161   19.7680   23.8113 H   0  0  0  0  0  0  0  0  0  0  0  0
   20.9775   19.2450   22.7993 C   0  0  0  0  0  0  0  0  0  0  0  0
   21.7562   19.8864   23.2342 H   0  0  0  0  0  0  0  0  0  0  0  0
   21.2741   19.0847   21.7538 H   0  0  0  0  0  0  0  0  0  0  0  0
   20.9993   17.9007   23.5675 C   0  0  0  0  0  0  0  0  0  0  0  0
   22.0170   17.4893   23.5198 H   0  0  0  0  0  0  0  0  0  0  0  0
   20.7899   18.0798   24.6311 H   0  0  0  0  0  0  0  0  0  0  0  0
   20.0148   16.8459   23.0218 C   0  0  0  0  0  0  0  0  0  0  0  0
   20.1520   16.7009   21.9422 H   0  0  0  0  0  0  0  0  0  0  0  0
   20.1742   15.8794   23.5171 H   0  0  0  0  0  0  0  0  0  0  0  0
   18.9750   17.1434   23.2050 H   0  0  0  0  0  0  0  0  0  0  0  0
  1  2  1  0  0  0  0
  1  3  2  0  0  0  0
  1  4  1  0  0  0  0
  4  5  1  0  0  0  0
  4  6  1  0  0  0  0
  4  7  1  0  0  0  0
  7  8  1  0  0  0  0
  7  9  1  0  0  0  0
  7 10  1  0  0  0  0
 10 11  1  0  0  0  0
 10 12  1  0  0  0  0
 10 13  1  0  0  0  0
 13 14  1  0  0  0  0
 13 15  1  0  0  0  0
 13 16  1  0  0  0  0
 16 17  1  0  0  0  0
 16 18  1  0  0  0  0
 16 19  1  0  0  0  0
M  END
> <VConfSearch Rank>
660

> <Conf_Id>
73

> <Delta U+W>
3.707

> <U+W>
-51.184

> <U>
12.334

> <W>
-63.519

> <W(PB)>
-65.541

> <W(SA)>
2.022

> <Valence>
9.984

> <Coulomb>
1.768

> <VdW>
0.583

> <VdW6>
-7.767

> <VdW12>
8.350

> <Bond>
0.203

> <Angle>
3.192

> <Pdih>
6.589

> <Idih>
0.001

> <Tether>
0.000

$$$$
VeraChem MOL file


 19 18  0  0  0  0  0  0  0  0999 V2000     
   17.4128   18.7231   21.5780 C   0  0  0  0  0  0  0  0  0  0  0  0
   17.3600   17.5173   21.7192 O   0  5  0  0  0  0  0  0  0  0  0  0
   16.4620   19.4609   21.7479 O   0  0  0  0  0  0  0  0  0  0  0  0
   18.7340   19.3437   21.1323 C   0  0  0  0  0  0  0  0  0  0  0  0
   18.5168   19.9951   20.2778 H   0  0  0  0  0  0  0  0  0  0  0  0
   19.3878   18.5479   20.7575 H   0  0  0  0  0  0  0  0  0  0  0  0
   19.4532   20.1667   22.2358 C   0  0  0  0  0  0  0  0  0  0  0  0
   20.3503   20.6352   21.8107 H   0  0  0  0  0  0  0  0  0  0  0  0
   18.7975   20.9935   22.5414 H   0  0  0  0  0  0  0  0  0  0  0  0
   19.8395   19.3491   23.4953 C   0  0  0  0  0  0  0  0  0  0  0  0
   18.9237   18.9859   23.9815 H   0  0  0  0  0  0  0  0  0  0  0  0
   20.3187   20.0222   24.2191 H   0  0  0  0  0  0  0  0  0  0  0  0
   20.7758   18.1433   23.2372 C   0  0  0  0  0  0  0  0  0  0  0  0
   20.9637   17.6359   24.1933 H   0  0  0  0  0  0  0  0  0  0  0  0
   20.2732   17.4057   22.5970 H   0  0  0  0  0  0  0  0  0  0  0  0
   22.1299   18.5424   22.6119 C   0  0  0  0  0  0  0  0  0  0  0  0
   21.9978   18.9517   21.6025 H   0  0  0  0  0  0  0  0  0  0  0  0
   22.6392   19.2962   23.2263 H   0  0  0  0  0  0  0  0  0  0  0  0
   22.7889   17.6682   22.5329 H   0  0  0  0  0  0  0  0  0  0  0  0
  1  2  1  0  0  0  0
  1  3  2  0  0  0  0
  1  4  1  0  0  0  0
  4  5  1  0  0  0  0
  4  6  1  0  0  0  0
  4  7  1  0  0  0  0
  7  8  1  0  0  0  0
  7  9  1  0  0  0  0
  7 10  1  0  0  0  0
 10 11  1  0  0  0  0
 10 12  1  0  0  0  0
 10 13  1  0  0  0  0
 13 14  1  0  0  0  0
 13 15  1  0  0  0  0
 13 16  1  0  0  0  0
 16 17  1  0  0  0  0
 16 18  1  0  0  0  0
 16 19  1  0  0  0  0
M  END
> <VConfSearch Rank>
661

> <Conf_Id>
56

> <Delta U+W>
1.735

> <U+W>
-53.156

> <U>
10.214

> <W>
-63.370

> <W(PB)>
-65.388

> <W(SA)>
2.018

> <Valence>
7.868

> <Coulomb>
1.968

> <VdW>
0.378

> <VdW6>
-8.067

> <VdW12>
8.445

> <Bond>
0.191

> <Angle>
3.117

> <Pdih>
4.559

> <Idih>
0.001

> <Tether>
0.000

$$$$
VeraChem MOL file


 19 18  0  0  0  0  0  0  0  0999 V2000     
   21.0884   18.1398   19.7082 C   0  0  0  0  0  0  0  0  0  0  0  0
   21.5320   18.9349   18.9036 O   0  5  0  0  0  0  0  0  0  0  0  0
   20.8842   16.9693   19.4537 O   0  0  0  0  0  0  0  0  0  0  0  0
   20.7493   18.6433   21.1067 C   0  0  0  0  0  0  0  0  0  0  0  0
   21.4418   19.4568   21.3539 H   0  0  0  0  0  0  0  0  0  0  0  0
   20.9381   17.8236   21.8088 H   0  0  0  0  0  0  0  0  0  0  0  0
   19.2837   19.1307   21.2308 C   0  0  0  0  0  0  0  0  0  0  0  0
   19.0824   19.8484   20.4234 H   0  0  0  0  0  0  0  0  0  0  0  0
   18.6053   18.2826   21.0642 H   0  0  0  0  0  0  0  0  0  0  0  0
   18.9477   19.8074   22.5835 C   0  0  0  0  0  0  0  0  0  0  0  0
   17.9067   20.1541   22.5295 H   0  0  0  0  0  0  0  0  0  0  0  0
   19.5571   20.7121   22.7145 H   0  0  0  0  0  0  0  0  0  0  0  0
   19.0847   18.8848   23.8201 C   0  0  0  0  0  0  0  0  0  0  0  0
   18.2969   19.1450   24.5405 H   0  0  0  0  0  0  0  0  0  0  0  0
   18.9057   17.8383   23.5368 H   0  0  0  0  0  0  0  0  0  0  0  0
   20.4474   19.0211   24.5349 C   0  0  0  0  0  0  0  0  0  0  0  0
   20.4880   18.3620   25.4118 H   0  0  0  0  0  0  0  0  0  0  0  0
   21.2827   18.7544   23.8778 H   0  0  0  0  0  0  0  0  0  0  0  0
   20.6048   20.0506   24.8818 H   0  0  0  0  0  0  0  0  0  0  0  0
  1  2  1  0  0  0  0
  1  3  2  0  0  0  0
  1  4  1  0  0  0  0
  4  5  1  0  0  0  0
  4  6  1  0  0  0  0
  4  7  1  0  0  0  0
  7  8  1  0  0  0  0
  7  9  1  0  0  0  0
  7 10  1  0  0  0  0
 10 11  1  0  0  0  0
 10 12  1  0  0  0  0
 10 13  1  0  0  0  0
 13 14  1  0  0  0  0
 13 15  1  0  0  0  0
 13 16  1  0  0  0  0
 16 17  1  0  0  0  0
 16 18  1  0  0  0  0
 16 19  1  0  0  0  0
M  END
> <VConfSearch Rank>
662

> <Conf_Id>
53

> <Delta U+W>
2.279

> <U+W>
-52.612

> <U>
10.231

> <W>
-62.843

> <W(PB)>
-64.893

> <W(SA)>
2.050

> <Valence>
9.644

> <Coulomb>
-0.164

> <VdW>
0.751

> <VdW6>
-6.881

> <VdW12>
7.631

> <Bond>
0.163

> <Angle>
2.998

> <Pdih>
6.482

> <Idih>
0.001

> <Tether>
0.000

$$$$
VeraChem MOL file


 19 18  0  0  0  0  0  0  0  0999 V2000     
   17.9600   18.4128   21.6337 C   0  0  0  0  0  0  0  0  0  0  0  0
   17.8537   17.2142   21.8032 O   0  5  0  0  0  0  0  0  0  0  0  0
   17.8423   18.9488   20.5492 O   0  0  0  0  0  0  0  0  0  0  0  0
   18.1832   19.2967   22.8595 C   0  0  0  0  0  0  0  0  0  0  0  0
   18.2100   18.6643   23.7552 H   0  0  0  0  0  0  0  0  0  0  0  0
   17.2928   19.9297   22.9494 H   0  0  0  0  0  0  0  0  0  0  0  0
   19.4445   20.2039   22.8033 C   0  0  0  0  0  0  0  0  0  0  0  0
   19.5207   20.6788   21.8152 H   0  0  0  0  0  0  0  0  0  0  0  0
   19.3050   21.0228   23.5219 H   0  0  0  0  0  0  0  0  0  0  0  0
   20.7738   19.4907   23.1538 C   0  0  0  0  0  0  0  0  0  0  0  0
   20.6933   19.0245   24.1452 H   0  0  0  0  0  0  0  0  0  0  0  0
   21.5603   20.2535   23.2346 H   0  0  0  0  0  0  0  0  0  0  0  0
   21.2138   18.4335   22.1173 C   0  0  0  0  0  0  0  0  0  0  0  0
   20.5085   17.5927   22.1141 H   0  0  0  0  0  0  0  0  0  0  0  0
   21.1977   18.8708   21.1093 H   0  0  0  0  0  0  0  0  0  0  0  0
   22.6267   17.8964   22.4222 C   0  0  0  0  0  0  0  0  0  0  0  0
   22.6631   17.4304   23.4157 H   0  0  0  0  0  0  0  0  0  0  0  0
   22.9207   17.1407   21.6823 H   0  0  0  0  0  0  0  0  0  0  0  0
   23.3695   18.7044   22.3945 H   0  0  0  0  0  0  0  0  0  0  0  0
  1  2  1  0  0  0  0
  1  3  2  0  0  0  0
  1  4  1  0  0  0  0
  4  5  1  0  0  0  0
  4  6  1  0  0  0  0
  4  7  1  0  0  0  0
  7  8  1  0  0  0  0
  7  9  1  0  0  0  0
  7 10  1  0  0  0  0
 10 11  1  0  0  0  0
 10 12  1  0  0  0  0
 10 13  1  0  0  0  0
 13 14  1  0  0  0  0
 13 15  1  0  0  0  0
 13 16  1  0  0  0  0
 16 17  1  0  0  0  0
 16 18  1  0  0  0  0
 16 19  1  0  0  0  0
M  END
> <VConfSearch Rank>
663

> <Conf_Id>
25

> <Delta U+W>
2.065

> <U+W>
-52.826

> <U>
10.967

> <W>
-63.794

> <W(PB)>
-65.830

> <W(SA)>
2.036

> <Valence>
8.609

> <Coulomb>
1.892

> <VdW>
0.467

> <VdW6>
-7.569

> <VdW12>
8.036

> <Bond>
0.170

> <Angle>
3.195

> <Pdih>
5.237

> <Idih>
0.007

> <Tether>
0.000

$$$$
VeraChem MOL file


 19 18  0  0  0  0  0  0  0  0999 V2000     
   20.9117   19.4265   20.2941 C   0  0  0  0  0  0  0  0  0  0  0  0
   20.6521   18.5107   19.5383 O   0  5  0  0  0  0  0  0  0  0  0  0
   22.0411   19.8258   20.4990 O   0  0  0  0  0  0  0  0  0  0  0  0
   19.7545   20.1610   20.9684 C   0  0  0  0  0  0  0  0  0  0  0  0
   19.1658   20.6146   20.1626 H   0  0  0  0  0  0  0  0  0  0  0  0
   20.1567   20.9878   21.5664 H   0  0  0  0  0  0  0  0  0  0  0  0
   18.8207   19.2726   21.8379 C   0  0  0  0  0  0  0  0  0  0  0  0
   17.8645   19.8001   21.9557 H   0  0  0  0  0  0  0  0  0  0  0  0
   18.5876   18.3403   21.3048 H   0  0  0  0  0  0  0  0  0  0  0  0
   19.3607   18.9540   23.2540 C   0  0  0  0  0  0  0  0  0  0  0  0
   18.5599   18.4618   23.8227 H   0  0  0  0  0  0  0  0  0  0  0  0
   19.5847   19.8900   23.7837 H   0  0  0  0  0  0  0  0  0  0  0  0
   20.6070   18.0417   23.2624 C   0  0  0  0  0  0  0  0  0  0  0  0
   20.4200   17.1499   22.6483 H   0  0  0  0  0  0  0  0  0  0  0  0
   21.4610   18.5663   22.8154 H   0  0  0  0  0  0  0  0  0  0  0  0
   20.9824   17.6104   24.6945 C   0  0  0  0  0  0  0  0  0  0  0  0
   21.8741   16.9702   24.6838 H   0  0  0  0  0  0  0  0  0  0  0  0
   21.1997   18.4840   25.3229 H   0  0  0  0  0  0  0  0  0  0  0  0
   20.1655   17.0454   25.1624 H   0  0  0  0  0  0  0  0  0  0  0  0
  1  2  1  0  0  0  0
  1  3  2  0  0  0  0
  1  4  1  0  0  0  0
  4  5  1  0  0  0  0
  4  6  1  0  0  0  0
  4  7  1  0  0  0  0
  7  8  1  0  0  0  0
  7  9  1  0  0  0  0
  7 10  1  0  0  0  0
 10 11  1  0  0  0  0
 10 12  1  0  0  0  0
 10 13  1  0  0  0  0
 13 14  1  0  0  0  0
 13 15  1  0  0  0  0
 13 16  1  0  0  0  0
 16 17  1  0  0  0  0
 16 18  1  0  0  0  0
 16 19  1  0  0  0  0
M  END
> <VConfSearch Rank>
664

> <Conf_Id>
52

> <Delta U+W>
2.070

> <U+W>
-52.822

> <U>
10.967

> <W>
-63.789

> <W(PB)>
-65.837

> <W(SA)>
2.048

> <Valence>
8.609

> <Coulomb>
1.892

> <VdW>
0.467

> <VdW6>
-7.569

> <VdW12>
8.035

> <Bond>
0.170

> <Angle>
3.196

> <Pdih>
5.237

> <Idih>
0.007

> <Tether>
0.000

$$$$
VeraChem MOL file


 19 18  0  0  0  0  0  0  0  0999 V2000     
   20.7179   19.8090   20.8816 C   0  0  0  0  0  0  0  0  0  0  0  0
   19.8242   20.3338   20.2460 O   0  5  0  0  0  0  0  0  0  0  0  0
   21.7269   20.3959   21.2195 O   0  0  0  0  0  0  0  0  0  0  0  0
   20.6345   18.3082   21.1641 C   0  0  0  0  0  0  0  0  0  0  0  0
   21.4297   18.0320   21.8669 H   0  0  0  0  0  0  0  0  0  0  0  0
   20.8677   17.8085   20.2169 H   0  0  0  0  0  0  0  0  0  0  0  0
   19.2601   17.7924   21.6785 C   0  0  0  0  0  0  0  0  0  0  0  0
   18.4451   18.2857   21.1311 H   0  0  0  0  0  0  0  0  0  0  0  0
   19.1845   16.7261   21.4266 H   0  0  0  0  0  0  0  0  0  0  0  0
   19.0282   17.9277   23.2053 C   0  0  0  0  0  0  0  0  0  0  0  0
   19.7859   17.3503   23.7526 H   0  0  0  0  0  0  0  0  0  0  0  0
   18.0672   17.4479   23.4362 H   0  0  0  0  0  0  0  0  0  0  0  0
   18.9757   19.3820   23.7328 C   0  0  0  0  0  0  0  0  0  0  0  0
   18.7181   20.0761   22.9209 H   0  0  0  0  0  0  0  0  0  0  0  0
   18.1653   19.4627   24.4703 H   0  0  0  0  0  0  0  0  0  0  0  0
   20.2903   19.8179   24.4147 C   0  0  0  0  0  0  0  0  0  0  0  0
   20.5042   19.1903   25.2895 H   0  0  0  0  0  0  0  0  0  0  0  0
   21.1423   19.7445   23.7289 H   0  0  0  0  0  0  0  0  0  0  0  0
   20.2210   20.8592   24.7547 H   0  0  0  0  0  0  0  0  0  0  0  0
  1  2  1  0  0  0  0
  1  3  2  0  0  0  0
  1  4  1  0  0  0  0
  4  5  1  0  0  0  0
  4  6  1  0  0  0  0
  4  7  1  0  0  0  0
  7  8  1  0  0  0  0
  7  9  1  0  0  0  0
  7 10  1  0  0  0  0
 10 11  1  0  0  0  0
 10 12  1  0  0  0  0
 10 13  1  0  0  0  0
 13 14  1  0  0  0  0
 13 15  1  0  0  0  0
 13 16  1  0  0  0  0
 16 17  1  0  0  0  0
 16 18  1  0  0  0  0
 16 19  1  0  0  0  0
M  END
> <VConfSearch Rank>
665

> <Conf_Id>
66

> <Delta U+W>
5.819

> <U+W>
-49.072

> <U>
15.324

> <W>
-64.396

> <W(PB)>
-66.382

> <W(SA)>
1.986

> <Valence>
11.748

> <Coulomb>
3.201

> <VdW>
0.375

> <VdW6>
-8.854

> <VdW12>
9.229

> <Bond>
0.216

> <Angle>
3.812

> <Pdih>
7.699

> <Idih>
0.022

> <Tether>
0.000

$$$$
VeraChem MOL file


 19 18  0  0  0  0  0  0  0  0999 V2000     
   18.1432   19.6387   24.9210 C   0  0  0  0  0  0  0  0  0  0  0  0
   17.4307   20.5051   25.3873 O   0  5  0  0  0  0  0  0  0  0  0  0
   18.4039   18.6067   25.5085 O   0  0  0  0  0  0  0  0  0  0  0  0
   18.7246   19.8875   23.5283 C   0  0  0  0  0  0  0  0  0  0  0  0
   19.2923   20.8244   23.5733 H   0  0  0  0  0  0  0  0  0  0  0  0
   17.8819   20.0555   22.8473 H   0  0  0  0  0  0  0  0  0  0  0  0
   19.6278   18.7535   22.9746 C   0  0  0  0  0  0  0  0  0  0  0  0
   20.4668   18.5863   23.6642 H   0  0  0  0  0  0  0  0  0  0  0  0
   19.0549   17.8165   22.9375 H   0  0  0  0  0  0  0  0  0  0  0  0
   20.1703   19.0867   21.5678 C   0  0  0  0  0  0  0  0  0  0  0  0
   20.7425   20.0238   21.6071 H   0  0  0  0  0  0  0  0  0  0  0  0
   19.3299   19.2536   20.8800 H   0  0  0  0  0  0  0  0  0  0  0  0
   21.0680   17.9582   21.0192 C   0  0  0  0  0  0  0  0  0  0  0  0
   21.9110   17.7894   21.7036 H   0  0  0  0  0  0  0  0  0  0  0  0
   20.4985   17.0194   20.9765 H   0  0  0  0  0  0  0  0  0  0  0  0
   21.6078   18.2942   19.6147 C   0  0  0  0  0  0  0  0  0  0  0  0
   22.2084   19.2131   19.6343 H   0  0  0  0  0  0  0  0  0  0  0  0
   22.2437   17.4816   19.2401 H   0  0  0  0  0  0  0  0  0  0  0  0
   20.7853   18.4373   18.9016 H   0  0  0  0  0  0  0  0  0  0  0  0
  1  2  1  0  0  0  0
  1  3  2  0  0  0  0
  1  4  1  0  0  0  0
  4  5  1  0  0  0  0
  4  6  1  0  0  0  0
  4  7  1  0  0  0  0
  7  8  1  0  0  0  0
  7  9  1  0  0  0  0
  7 10  1  0  0  0  0
 10 11  1  0  0  0  0
 10 12  1  0  0  0  0
 10 13  1  0  0  0  0
 13 14  1  0  0  0  0
 13 15  1  0  0  0  0
 13 16  1  0  0  0  0
 16 17  1  0  0  0  0
 16 18  1  0  0  0  0
 16 19  1  0  0  0  0
M  END
> <VConfSearch Rank>
666

> <Conf_Id>
0

> <Delta U+W>
0.000

> <U+W>
-54.891

> <U>
6.966

> <W>
-61.857

> <W(PB)>
-63.965

> <W(SA)>
2.108

> <Valence>
7.175

> <Coulomb>
-1.360

> <VdW>
1.151

> <VdW6>
-5.641

> <VdW12>
6.792

> <Bond>
0.119

> <Angle>
2.715

> <Pdih>
4.340

> <Idih>
0.000

> <Tether>
0.000

$$$$
VeraChem MOL file


 19 18  0  0  0  0  0  0  0  0999 V2000     
   18.1392   16.2419   21.1008 C   0  0  0  0  0  0  0  0  0  0  0  0
   18.2599   15.9703   19.9228 O   0  5  0  0  0  0  0  0  0  0  0  0
   17.9085   15.4157   21.9613 O   0  0  0  0  0  0  0  0  0  0  0  0
   18.3067   17.6965   21.5255 C   0  0  0  0  0  0  0  0  0  0  0  0
   17.6556   17.8766   22.3894 H   0  0  0  0  0  0  0  0  0  0  0  0
   17.9456   18.3337   20.7091 H   0  0  0  0  0  0  0  0  0  0  0  0
   19.7714   18.0566   21.8763 C   0  0  0  0  0  0  0  0  0  0  0  0
   20.1220   17.4017   22.6861 H   0  0  0  0  0  0  0  0  0  0  0  0
   20.4122   17.8587   21.0058 H   0  0  0  0  0  0  0  0  0  0  0  0
   19.9139   19.5336   22.3025 C   0  0  0  0  0  0  0  0  0  0  0  0
   19.2711   19.7286   23.1720 H   0  0  0  0  0  0  0  0  0  0  0  0
   19.5614   20.1856   21.4914 H   0  0  0  0  0  0  0  0  0  0  0  0
   21.3740   19.8894   22.6515 C   0  0  0  0  0  0  0  0  0  0  0  0
   21.7296   19.2405   23.4639 H   0  0  0  0  0  0  0  0  0  0  0  0
   22.0199   19.6976   21.7834 H   0  0  0  0  0  0  0  0  0  0  0  0
   21.5125   21.3649   23.0767 C   0  0  0  0  0  0  0  0  0  0  0  0
   22.5565   21.6006   23.3211 H   0  0  0  0  0  0  0  0  0  0  0  0
   21.1930   22.0378   22.2701 H   0  0  0  0  0  0  0  0  0  0  0  0
   20.9005   21.5773   23.9631 H   0  0  0  0  0  0  0  0  0  0  0  0
  1  2  1  0  0  0  0
  1  3  2  0  0  0  0
  1  4  1  0  0  0  0
  4  5  1  0  0  0  0
  4  6  1  0  0  0  0
  4  7  1  0  0  0  0
  7  8  1  0  0  0  0
  7  9  1  0  0  0  0
  7 10  1  0  0  0  0
 10 11  1  0  0  0  0
 10 12  1  0  0  0  0
 10 13  1  0  0  0  0
 13 14  1  0  0  0  0
 13 15  1  0  0  0  0
 13 16  1  0  0  0  0
 16 17  1  0  0  0  0
 16 18  1  0  0  0  0
 16 19  1  0  0  0  0
M  END
> <VConfSearch Rank>
667

> <Conf_Id>
18

> <Delta U+W>
-1.199

> <U+W>
-56.090

> <U>
5.975

> <W>
-62.066

> <W(PB)>
-64.219

> <W(SA)>
2.153

> <Valence>
6.673

> <Coulomb>
-1.307

> <VdW>
0.610

> <VdW6>
-5.351

> <VdW12>
5.961

> <Bond>
0.086

> <Angle>
2.253

> <Pdih>
4.333

> <Idih>
0.001

> <Tether>
0.000

$$$$
VeraChem MOL file


 19 18  0  0  0  0  0  0  0  0999 V2000     
   22.7855   20.4942   22.2638 C   0  0  0  0  0  0  0  0  0  0  0  0
   23.6597   20.2714   23.0776 O   0  5  0  0  0  0  0  0  0  0  0  0
   22.9743   21.0845   21.2188 O   0  0  0  0  0  0  0  0  0  0  0  0
   21.3789   19.9863   22.5605 C   0  0  0  0  0  0  0  0  0  0  0  0
   20.6687   20.6960   22.1213 H   0  0  0  0  0  0  0  0  0  0  0  0
   21.2313   20.0083   23.6469 H   0  0  0  0  0  0  0  0  0  0  0  0
   21.1299   18.5558   22.0159 C   0  0  0  0  0  0  0  0  0  0  0  0
   21.2368   18.5557   20.9223 H   0  0  0  0  0  0  0  0  0  0  0  0
   21.9128   17.8897   22.4041 H   0  0  0  0  0  0  0  0  0  0  0  0
   19.7490   17.9777   22.4063 C   0  0  0  0  0  0  0  0  0  0  0  0
   19.6486   17.9713   23.5003 H   0  0  0  0  0  0  0  0  0  0  0  0
   19.7067   16.9282   22.0842 H   0  0  0  0  0  0  0  0  0  0  0  0
   18.5626   18.7435   21.7789 C   0  0  0  0  0  0  0  0  0  0  0  0
   18.5416   19.7774   22.1478 H   0  0  0  0  0  0  0  0  0  0  0  0
   18.6891   18.7942   20.6886 H   0  0  0  0  0  0  0  0  0  0  0  0
   17.2166   18.0669   22.1071 C   0  0  0  0  0  0  0  0  0  0  0  0
   16.3842   18.6237   21.6574 H   0  0  0  0  0  0  0  0  0  0  0  0
   17.1870   17.0407   21.7180 H   0  0  0  0  0  0  0  0  0  0  0  0
   17.0514   18.0275   23.1917 H   0  0  0  0  0  0  0  0  0  0  0  0
  1  2  1  0  0  0  0
  1  3  2  0  0  0  0
  1  4  1  0  0  0  0
  4  5  1  0  0  0  0
  4  6  1  0  0  0  0
  4  7  1  0  0  0  0
  7  8  1  0  0  0  0
  7  9  1  0  0  0  0
  7 10  1  0  0  0  0
 10 11  1  0  0  0  0
 10 12  1  0  0  0  0
 10 13  1  0  0  0  0
 13 14  1  0  0  0  0
 13 15  1  0  0  0  0
 13 16  1  0  0  0  0
 16 17  1  0  0  0  0
 16 18  1  0  0  0  0
 16 19  1  0  0  0  0
M  END
> <VConfSearch Rank>
668

> <Conf_Id>
34

> <Delta U+W>
-0.563

> <U+W>
-55.455

> <U>
6.914

> <W>
-62.369

> <W(PB)>
-64.446

> <W(SA)>
2.077

> <Valence>
7.196

> <Coulomb>
-1.020

> <VdW>
0.738

> <VdW6>
-6.010

> <VdW12>
6.748

> <Bond>
0.126

> <Angle>
2.499

> <Pdih>
4.570

> <Idih>
0.001

> <Tether>
0.000

$$$$
VeraChem MOL file


 19 18  0  0  0  0  0  0  0  0999 V2000     
   20.6347   22.0648   22.2829 C   0  0  0  0  0  0  0  0  0  0  0  0
   20.3016   22.8497   21.4173 O   0  5  0  0  0  0  0  0  0  0  0  0
   21.5046   22.2941   23.0997 O   0  0  0  0  0  0  0  0  0  0  0  0
   19.9383   20.7095   22.3331 C   0  0  0  0  0  0  0  0  0  0  0  0
   18.9072   20.8437   21.9847 H   0  0  0  0  0  0  0  0  0  0  0  0
   19.8893   20.3986   23.3827 H   0  0  0  0  0  0  0  0  0  0  0  0
   20.6562   19.6338   21.4771 C   0  0  0  0  0  0  0  0  0  0  0  0
   20.7692   20.0159   20.4531 H   0  0  0  0  0  0  0  0  0  0  0  0
   21.6727   19.4760   21.8632 H   0  0  0  0  0  0  0  0  0  0  0  0
   19.9023   18.2839   21.4220 C   0  0  0  0  0  0  0  0  0  0  0  0
   20.4148   17.6275   20.7053 H   0  0  0  0  0  0  0  0  0  0  0  0
   18.8894   18.4437   21.0277 H   0  0  0  0  0  0  0  0  0  0  0  0
   19.8221   17.5687   22.7893 C   0  0  0  0  0  0  0  0  0  0  0  0
   20.8317   17.4543   23.2076 H   0  0  0  0  0  0  0  0  0  0  0  0
   19.2468   18.1753   23.5008 H   0  0  0  0  0  0  0  0  0  0  0  0
   19.1602   16.1818   22.6633 C   0  0  0  0  0  0  0  0  0  0  0  0
   18.1380   16.2689   22.2725 H   0  0  0  0  0  0  0  0  0  0  0  0
   19.7320   15.5331   21.9869 H   0  0  0  0  0  0  0  0  0  0  0  0
   19.1079   15.6880   23.6424 H   0  0  0  0  0  0  0  0  0  0  0  0
  1  2  1  0  0  0  0
  1  3  2  0  0  0  0
  1  4  1  0  0  0  0
  4  5  1  0  0  0  0
  4  6  1  0  0  0  0
  4  7  1  0  0  0  0
  7  8  1  0  0  0  0
  7  9  1  0  0  0  0
  7 10  1  0  0  0  0
 10 11  1  0  0  0  0
 10 12  1  0  0  0  0
 10 13  1  0  0  0  0
 13 14  1  0  0  0  0
 13 15  1  0  0  0  0
 13 16  1  0  0  0  0
 16 17  1  0  0  0  0
 16 18  1  0  0  0  0
 16 19  1  0  0  0  0
M  END
> <VConfSearch Rank>
669

> <Conf_Id>
33

> <Delta U+W>
-0.526

> <U+W>
-55.418

> <U>
6.914

> <W>
-62.332

> <W(PB)>
-64.421

> <W(SA)>
2.090

> <Valence>
7.196

> <Coulomb>
-1.020

> <VdW>
0.738

> <VdW6>
-6.010

> <VdW12>
6.748

> <Bond>
0.126

> <Angle>
2.499

> <Pdih>
4.570

> <Idih>
0.001

> <Tether>
0.000

$$$$
VeraChem MOL file


 19 18  0  0  0  0  0  0  0  0999 V2000     
   19.1080   20.1507   19.4108 C   0  0  0  0  0  0  0  0  0  0  0  0
   20.0050   19.9572   18.6144 O   0  5  0  0  0  0  0  0  0  0  0  0
   17.9300   20.1357   19.1135 O   0  0  0  0  0  0  0  0  0  0  0  0
   19.4802   20.4093   20.8665 C   0  0  0  0  0  0  0  0  0  0  0  0
   18.7331   21.0891   21.2934 H   0  0  0  0  0  0  0  0  0  0  0  0
   20.4433   20.9336   20.8842 H   0  0  0  0  0  0  0  0  0  0  0  0
   19.5640   19.1109   21.7064 C   0  0  0  0  0  0  0  0  0  0  0  0
   18.5957   18.5929   21.6710 H   0  0  0  0  0  0  0  0  0  0  0  0
   20.3034   18.4396   21.2501 H   0  0  0  0  0  0  0  0  0  0  0  0
   19.9462   19.4024   23.1760 C   0  0  0  0  0  0  0  0  0  0  0  0
   19.2365   20.1304   23.5923 H   0  0  0  0  0  0  0  0  0  0  0  0
   20.9367   19.8762   23.2142 H   0  0  0  0  0  0  0  0  0  0  0  0
   19.9406   18.1432   24.0731 C   0  0  0  0  0  0  0  0  0  0  0  0
   20.1043   18.4517   25.1148 H   0  0  0  0  0  0  0  0  0  0  0  0
   18.9497   17.6695   24.0418 H   0  0  0  0  0  0  0  0  0  0  0  0
   21.0219   17.1117   23.6848 C   0  0  0  0  0  0  0  0  0  0  0  0
   22.0192   17.5705   23.6807 H   0  0  0  0  0  0  0  0  0  0  0  0
   21.0350   16.2811   24.4024 H   0  0  0  0  0  0  0  0  0  0  0  0
   20.8331   16.6882   22.6905 H   0  0  0  0  0  0  0  0  0  0  0  0
  1  2  1  0  0  0  0
  1  3  2  0  0  0  0
  1  4  1  0  0  0  0
  4  5  1  0  0  0  0
  4  6  1  0  0  0  0
  4  7  1  0  0  0  0
  7  8  1  0  0  0  0
  7  9  1  0  0  0  0
  7 10  1  0  0  0  0
 10 11  1  0  0  0  0
 10 12  1  0  0  0  0
 10 13  1  0  0  0  0
 13 14  1  0  0  0  0
 13 15  1  0  0  0  0
 13 16  1  0  0  0  0
 16 17  1  0  0  0  0
 16 18  1  0  0  0  0
 16 19  1  0  0  0  0
M  END
> <VConfSearch Rank>
670

> <Conf_Id>
42

> <Delta U+W>
-0.344

> <U+W>
-55.236

> <U>
7.244

> <W>
-62.479

> <W(PB)>
-64.610

> <W(SA)>
2.130

> <Valence>
7.174

> <Coulomb>
-0.669

> <VdW>
0.739

> <VdW6>
-5.969

> <VdW12>
6.708

> <Bond>
0.116

> <Angle>
2.481

> <Pdih>
4.576

> <Idih>
0.000

> <Tether>
0.000

$$$$
VeraChem MOL file


 19 18  0  0  0  0  0  0  0  0999 V2000     
   19.8785   17.9909   25.2543 C   0  0  0  0  0  0  0  0  0  0  0  0
   20.5438   18.7253   25.9574 O   0  5  0  0  0  0  0  0  0  0  0  0
   19.7545   16.7989   25.4545 O   0  0  0  0  0  0  0  0  0  0  0  0
   19.1754   18.5948   24.0438 C   0  0  0  0  0  0  0  0  0  0  0  0
   18.9006   19.6278   24.2891 H   0  0  0  0  0  0  0  0  0  0  0  0
   18.2428   18.0413   23.8804 H   0  0  0  0  0  0  0  0  0  0  0  0
   20.0468   18.5642   22.7638 C   0  0  0  0  0  0  0  0  0  0  0  0
   20.9812   19.1075   22.9571 H   0  0  0  0  0  0  0  0  0  0  0  0
   20.3213   17.5248   22.5367 H   0  0  0  0  0  0  0  0  0  0  0  0
   19.3109   19.1855   21.5542 C   0  0  0  0  0  0  0  0  0  0  0  0
   19.0800   20.2393   21.7624 H   0  0  0  0  0  0  0  0  0  0  0  0
   18.3468   18.6757   21.4219 H   0  0  0  0  0  0  0  0  0  0  0  0
   20.1064   19.0821   20.2325 C   0  0  0  0  0  0  0  0  0  0  0  0
   20.3345   18.0288   20.0179 H   0  0  0  0  0  0  0  0  0  0  0  0
   19.4702   19.4356   19.4095 H   0  0  0  0  0  0  0  0  0  0  0  0
   21.4126   19.9054   20.2395 C   0  0  0  0  0  0  0  0  0  0  0  0
   22.1293   19.5137   20.9722 H   0  0  0  0  0  0  0  0  0  0  0  0
   21.8934   19.8705   19.2534 H   0  0  0  0  0  0  0  0  0  0  0  0
   21.2126   20.9574   20.4810 H   0  0  0  0  0  0  0  0  0  0  0  0
  1  2  1  0  0  0  0
  1  3  2  0  0  0  0
  1  4  1  0  0  0  0
  4  5  1  0  0  0  0
  4  6  1  0  0  0  0
  4  7  1  0  0  0  0
  7  8  1  0  0  0  0
  7  9  1  0  0  0  0
  7 10  1  0  0  0  0
 10 11  1  0  0  0  0
 10 12  1  0  0  0  0
 10 13  1  0  0  0  0
 13 14  1  0  0  0  0
 13 15  1  0  0  0  0
 13 16  1  0  0  0  0
 16 17  1  0  0  0  0
 16 18  1  0  0  0  0
 16 19  1  0  0  0  0
M  END
> <VConfSearch Rank>
671

> <Conf_Id>
41

> <Delta U+W>
-0.361

> <U+W>
-55.252

> <U>
7.244

> <W>
-62.496

> <W(PB)>
-64.596

> <W(SA)>
2.099

> <Valence>
7.174

> <Coulomb>
-0.669

> <VdW>
0.739

> <VdW6>
-5.969

> <VdW12>
6.708

> <Bond>
0.116

> <Angle>
2.481

> <Pdih>
4.576

> <Idih>
0.000

> <Tether>
0.000

$$$$
VeraChem MOL file


 19 18  0  0  0  0  0  0  0  0999 V2000     
   22.1357   18.5496   23.9830 C   0  0  0  0  0  0  0  0  0  0  0  0
   21.6275   17.9379   24.9017 O   0  5  0  0  0  0  0  0  0  0  0  0
   23.1215   18.1665   23.3847 O   0  0  0  0  0  0  0  0  0  0  0  0
   21.5169   19.8825   23.5709 C   0  0  0  0  0  0  0  0  0  0  0  0
   22.3351   20.6044   23.4631 H   0  0  0  0  0  0  0  0  0  0  0  0
   20.8821   20.2423   24.3897 H   0  0  0  0  0  0  0  0  0  0  0  0
   20.7044   19.8204   22.2514 C   0  0  0  0  0  0  0  0  0  0  0  0
   20.4171   20.8402   21.9615 H   0  0  0  0  0  0  0  0  0  0  0  0
   21.3449   19.4315   21.4475 H   0  0  0  0  0  0  0  0  0  0  0  0
   19.4342   18.9495   22.3761 C   0  0  0  0  0  0  0  0  0  0  0  0
   18.8036   19.3343   23.1893 H   0  0  0  0  0  0  0  0  0  0  0  0
   19.7145   17.9228   22.6494 H   0  0  0  0  0  0  0  0  0  0  0  0
   18.6254   18.9275   21.0623 C   0  0  0  0  0  0  0  0  0  0  0  0
   18.3386   19.9517   20.7862 H   0  0  0  0  0  0  0  0  0  0  0  0
   19.2532   18.5407   20.2476 H   0  0  0  0  0  0  0  0  0  0  0  0
   17.3588   18.0579   21.1900 C   0  0  0  0  0  0  0  0  0  0  0  0
   16.6971   18.4412   21.9779 H   0  0  0  0  0  0  0  0  0  0  0  0
   16.7962   18.0530   20.2474 H   0  0  0  0  0  0  0  0  0  0  0  0
   17.6184   17.0197   21.4353 H   0  0  0  0  0  0  0  0  0  0  0  0
  1  2  1  0  0  0  0
  1  3  2  0  0  0  0
  1  4  1  0  0  0  0
  4  5  1  0  0  0  0
  4  6  1  0  0  0  0
  4  7  1  0  0  0  0
  7  8  1  0  0  0  0
  7  9  1  0  0  0  0
  7 10  1  0  0  0  0
 10 11  1  0  0  0  0
 10 12  1  0  0  0  0
 10 13  1  0  0  0  0
 13 14  1  0  0  0  0
 13 15  1  0  0  0  0
 13 16  1  0  0  0  0
 16 17  1  0  0  0  0
 16 18  1  0  0  0  0
 16 19  1  0  0  0  0
M  END
> <VConfSearch Rank>
672

> <Conf_Id>
36

> <Delta U+W>
-0.079

> <U+W>
-54.971

> <U>
8.266

> <W>
-63.237

> <W(PB)>
-65.340

> <W(SA)>
2.103

> <Valence>
6.935

> <Coulomb>
0.874

> <VdW>
0.457

> <VdW6>
-6.205

> <VdW12>
6.662

> <Bond>
0.107

> <Angle>
2.420

> <Pdih>
4.407

> <Idih>
0.001

> <Tether>
0.000

$$$$
VeraChem MOL file


 19 18  0  0  0  0  0  0  0  0999 V2000     
   18.4840   20.5833   20.6683 C   0  0  0  0  0  0  0  0  0  0  0  0
   17.4119   20.0377   20.8405 O   0  5  0  0  0  0  0  0  0  0  0  0
   18.9477   20.8222   19.5708 O   0  0  0  0  0  0  0  0  0  0  0  0
   19.2834   21.0119   21.8958 C   0  0  0  0  0  0  0  0  0  0  0  0
   18.6087   21.0434   22.7599 H   0  0  0  0  0  0  0  0  0  0  0  0
   19.6248   22.0393   21.7223 H   0  0  0  0  0  0  0  0  0  0  0  0
   20.5040   20.1057   22.2025 C   0  0  0  0  0  0  0  0  0  0  0  0
   21.1554   20.0612   21.3186 H   0  0  0  0  0  0  0  0  0  0  0  0
   21.0943   20.5637   23.0077 H   0  0  0  0  0  0  0  0  0  0  0  0
   20.0926   18.6767   22.6221 C   0  0  0  0  0  0  0  0  0  0  0  0
   19.5158   18.2052   21.8144 H   0  0  0  0  0  0  0  0  0  0  0  0
   19.4312   18.7273   23.4978 H   0  0  0  0  0  0  0  0  0  0  0  0
   21.3204   17.8027   22.9526 C   0  0  0  0  0  0  0  0  0  0  0  0
   21.9826   17.7485   22.0774 H   0  0  0  0  0  0  0  0  0  0  0  0
   21.8991   18.2673   23.7630 H   0  0  0  0  0  0  0  0  0  0  0  0
   20.9067   16.3777   23.3709 C   0  0  0  0  0  0  0  0  0  0  0  0
   20.3525   15.8775   22.5658 H   0  0  0  0  0  0  0  0  0  0  0  0
   21.7913   15.7700   23.6017 H   0  0  0  0  0  0  0  0  0  0  0  0
   20.2684   16.4002   24.2639 H   0  0  0  0  0  0  0  0  0  0  0  0
  1  2  1  0  0  0  0
  1  3  2  0  0  0  0
  1  4  1  0  0  0  0
  4  5  1  0  0  0  0
  4  6  1  0  0  0  0
  4  7  1  0  0  0  0
  7  8  1  0  0  0  0
  7  9  1  0  0  0  0
  7 10  1  0  0  0  0
 10 11  1  0  0  0  0
 10 12  1  0  0  0  0
 10 13  1  0  0  0  0
 13 14  1  0  0  0  0
 13 15  1  0  0  0  0
 13 16  1  0  0  0  0
 16 17  1  0  0  0  0
 16 18  1  0  0  0  0
 16 19  1  0  0  0  0
M  END
> <VConfSearch Rank>
673

> <Conf_Id>
35

> <Delta U+W>
-0.030

> <U+W>
-54.921

> <U>
8.267

> <W>
-63.188

> <W(PB)>
-65.294

> <W(SA)>
2.106

> <Valence>
6.935

> <Coulomb>
0.875

> <VdW>
0.457

> <VdW6>
-6.205

> <VdW12>
6.662

> <Bond>
0.107

> <Angle>
2.420

> <Pdih>
4.407

> <Idih>
0.001

> <Tether>
0.000

$$$$
VeraChem MOL file


 19 18  0  0  0  0  0  0  0  0999 V2000     
   22.9665   18.7956   21.8061 C   0  0  0  0  0  0  0  0  0  0  0  0
   23.6201   18.5439   22.7992 O   0  5  0  0  0  0  0  0  0  0  0  0
   23.2257   19.7063   21.0445 O   0  0  0  0  0  0  0  0  0  0  0  0
   21.7685   17.9049   21.4883 C   0  0  0  0  0  0  0  0  0  0  0  0
   22.0924   16.8647   21.6116 H   0  0  0  0  0  0  0  0  0  0  0  0
   21.5072   18.0325   20.4308 H   0  0  0  0  0  0  0  0  0  0  0  0
   20.5283   18.1694   22.3814 C   0  0  0  0  0  0  0  0  0  0  0  0
   19.7843   17.3872   22.1845 H   0  0  0  0  0  0  0  0  0  0  0  0
   20.8145   18.0769   23.4382 H   0  0  0  0  0  0  0  0  0  0  0  0
   19.8998   19.5607   22.1279 C   0  0  0  0  0  0  0  0  0  0  0  0
   19.5795   19.6370   21.0799 H   0  0  0  0  0  0  0  0  0  0  0  0
   20.6655   20.3348   22.2747 H   0  0  0  0  0  0  0  0  0  0  0  0
   18.7055   19.8738   23.0587 C   0  0  0  0  0  0  0  0  0  0  0  0
   19.0235   19.8003   24.1078 H   0  0  0  0  0  0  0  0  0  0  0  0
   18.3995   20.9171   22.8997 H   0  0  0  0  0  0  0  0  0  0  0  0
   17.4862   18.9572   22.8195 C   0  0  0  0  0  0  0  0  0  0  0  0
   17.7105   17.9153   23.0797 H   0  0  0  0  0  0  0  0  0  0  0  0
   16.6380   19.2783   23.4379 H   0  0  0  0  0  0  0  0  0  0  0  0
   17.1699   18.9902   21.7688 H   0  0  0  0  0  0  0  0  0  0  0  0
  1  2  1  0  0  0  0
  1  3  2  0  0  0  0
  1  4  1  0  0  0  0
  4  5  1  0  0  0  0
  4  6  1  0  0  0  0
  4  7  1  0  0  0  0
  7  8  1  0  0  0  0
  7  9  1  0  0  0  0
  7 10  1  0  0  0  0
 10 11  1  0  0  0  0
 10 12  1  0  0  0  0
 10 13  1  0  0  0  0
 13 14  1  0  0  0  0
 13 15  1  0  0  0  0
 13 16  1  0  0  0  0
 16 17  1  0  0  0  0
 16 18  1  0  0  0  0
 16 19  1  0  0  0  0
M  END
> <VConfSearch Rank>
674

> <Conf_Id>
74

> <Delta U+W>
0.797

> <U+W>
-54.095

> <U>
8.869

> <W>
-62.964

> <W(PB)>
-65.046

> <W(SA)>
2.082

> <Valence>
7.469

> <Coulomb>
0.762

> <VdW>
0.639

> <VdW6>
-6.782

> <VdW12>
7.421

> <Bond>
0.141

> <Angle>
2.667

> <Pdih>
4.660

> <Idih>
0.001

> <Tether>
0.000

$$$$
VeraChem MOL file


 19 18  0  0  0  0  0  0  0  0999 V2000     
   19.1239   19.4427   19.5443 C   0  0  0  0  0  0  0  0  0  0  0  0
   18.2694   20.2020   19.1325 O   0  5  0  0  0  0  0  0  0  0  0  0
   20.0502   19.0426   18.8673 O   0  0  0  0  0  0  0  0  0  0  0  0
   19.0393   18.9820   20.9951 C   0  0  0  0  0  0  0  0  0  0  0  0
   19.4443   17.9649   21.0464 H   0  0  0  0  0  0  0  0  0  0  0  0
   17.9803   18.9259   21.2739 H   0  0  0  0  0  0  0  0  0  0  0  0
   19.7998   19.9195   21.9684 C   0  0  0  0  0  0  0  0  0  0  0  0
   20.8652   19.9380   21.7032 H   0  0  0  0  0  0  0  0  0  0  0  0
   19.4339   20.9458   21.8271 H   0  0  0  0  0  0  0  0  0  0  0  0
   19.6272   19.5357   23.4595 C   0  0  0  0  0  0  0  0  0  0  0  0
   18.5658   19.6233   23.7289 H   0  0  0  0  0  0  0  0  0  0  0  0
   20.1584   20.2728   24.0770 H   0  0  0  0  0  0  0  0  0  0  0  0
   20.1215   18.1176   23.8374 C   0  0  0  0  0  0  0  0  0  0  0  0
   19.9345   17.9561   24.9079 H   0  0  0  0  0  0  0  0  0  0  0  0
   19.5319   17.3571   23.3087 H   0  0  0  0  0  0  0  0  0  0  0  0
   21.6239   17.8990   23.5576 C   0  0  0  0  0  0  0  0  0  0  0  0
   22.2322   18.6632   24.0587 H   0  0  0  0  0  0  0  0  0  0  0  0
   21.9442   16.9159   23.9260 H   0  0  0  0  0  0  0  0  0  0  0  0
   21.8389   17.9373   22.4821 H   0  0  0  0  0  0  0  0  0  0  0  0
  1  2  1  0  0  0  0
  1  3  2  0  0  0  0
  1  4  1  0  0  0  0
  4  5  1  0  0  0  0
  4  6  1  0  0  0  0
  4  7  1  0  0  0  0
  7  8  1  0  0  0  0
  7  9  1  0  0  0  0
  7 10  1  0  0  0  0
 10 11  1  0  0  0  0
 10 12  1  0  0  0  0
 10 13  1  0  0  0  0
 13 14  1  0  0  0  0
 13 15  1  0  0  0  0
 13 16  1  0  0  0  0
 16 17  1  0  0  0  0
 16 18  1  0  0  0  0
 16 19  1  0  0  0  0
M  END
> <VConfSearch Rank>
675

> <Conf_Id>
67

> <Delta U+W>
0.308

> <U+W>
-54.583

> <U>
8.219

> <W>
-62.802

> <W(PB)>
-64.859

> <W(SA)>
2.057

> <Valence>
7.609

> <Coulomb>
-0.089

> <VdW>
0.699

> <VdW6>
-6.924

> <VdW12>
7.623

> <Bond>
0.163

> <Angle>
2.870

> <Pdih>
4.576

> <Idih>
0.001

> <Tether>
0.000

$$$$
VeraChem MOL file


 19 18  0  0  0  0  0  0  0  0999 V2000     
   20.3132   19.0618   25.2090 C   0  0  0  0  0  0  0  0  0  0  0  0
   19.5737   18.6626   26.0866 O   0  5  0  0  0  0  0  0  0  0  0  0
   21.1401   19.9368   25.3733 O   0  0  0  0  0  0  0  0  0  0  0  0
   20.1825   18.4444   23.8212 C   0  0  0  0  0  0  0  0  0  0  0  0
   19.8786   17.3977   23.9408 H   0  0  0  0  0  0  0  0  0  0  0  0
   21.1771   18.4446   23.3608 H   0  0  0  0  0  0  0  0  0  0  0  0
   19.1676   19.1968   22.9222 C   0  0  0  0  0  0  0  0  0  0  0  0
   18.2066   19.2588   23.4512 H   0  0  0  0  0  0  0  0  0  0  0  0
   19.5020   20.2328   22.7782 H   0  0  0  0  0  0  0  0  0  0  0  0
   18.9320   18.5162   21.5503 C   0  0  0  0  0  0  0  0  0  0  0  0
   18.1714   19.0866   20.9998 H   0  0  0  0  0  0  0  0  0  0  0  0
   18.5015   17.5194   21.7170 H   0  0  0  0  0  0  0  0  0  0  0  0
   20.1909   18.3724   20.6602 C   0  0  0  0  0  0  0  0  0  0  0  0
   20.9264   17.7179   21.1463 H   0  0  0  0  0  0  0  0  0  0  0  0
   19.9040   17.8664   19.7282 H   0  0  0  0  0  0  0  0  0  0  0  0
   20.8489   19.7240   20.3087 C   0  0  0  0  0  0  0  0  0  0  0  0
   21.2554   20.2140   21.2026 H   0  0  0  0  0  0  0  0  0  0  0  0
   21.6778   19.5762   19.6045 H   0  0  0  0  0  0  0  0  0  0  0  0
   20.1246   20.4039   19.8415 H   0  0  0  0  0  0  0  0  0  0  0  0
  1  2  1  0  0  0  0
  1  3  2  0  0  0  0
  1  4  1  0  0  0  0
  4  5  1  0  0  0  0
  4  6  1  0  0  0  0
  4  7  1  0  0  0  0
  7  8  1  0  0  0  0
  7  9  1  0  0  0  0
  7 10  1  0  0  0  0
 10 11  1  0  0  0  0
 10 12  1  0  0  0  0
 10 13  1  0  0  0  0
 13 14  1  0  0  0  0
 13 15  1  0  0  0  0
 13 16  1  0  0  0  0
 16 17  1  0  0  0  0
 16 18  1  0  0  0  0
 16 19  1  0  0  0  0
M  END
> <VConfSearch Rank>
676

> <Conf_Id>
21

> <Delta U+W>
0.319

> <U+W>
-54.572

> <U>
8.220

> <W>
-62.792

> <W(PB)>
-64.830

> <W(SA)>
2.038

> <Valence>
7.609

> <Coulomb>
-0.088

> <VdW>
0.699

> <VdW6>
-6.924

> <VdW12>
7.623

> <Bond>
0.163

> <Angle>
2.870

> <Pdih>
4.576

> <Idih>
0.000

> <Tether>
0.000

$$$$
VeraChem MOL file


 19 18  0  0  0  0  0  0  0  0999 V2000     
   20.6218   18.7620   25.1400 C   0  0  0  0  0  0  0  0  0  0  0  0
   21.5441   19.2431   25.7679 O   0  5  0  0  0  0  0  0  0  0  0  0
   19.5661   18.4319   25.6428 O   0  0  0  0  0  0  0  0  0  0  0  0
   20.7923   18.5799   23.6360 C   0  0  0  0  0  0  0  0  0  0  0  0
   20.2171   17.6981   23.3373 H   0  0  0  0  0  0  0  0  0  0  0  0
   21.8473   18.3541   23.4402 H   0  0  0  0  0  0  0  0  0  0  0  0
   20.3576   19.8303   22.8264 C   0  0  0  0  0  0  0  0  0  0  0  0
   19.3179   20.0932   23.0656 H   0  0  0  0  0  0  0  0  0  0  0  0
   20.9718   20.6783   23.1595 H   0  0  0  0  0  0  0  0  0  0  0  0
   20.5304   19.6644   21.2952 C   0  0  0  0  0  0  0  0  0  0  0  0
   21.3617   18.9799   21.0776 H   0  0  0  0  0  0  0  0  0  0  0  0
   20.8271   20.6365   20.8780 H   0  0  0  0  0  0  0  0  0  0  0  0
   19.2545   19.2069   20.5465 C   0  0  0  0  0  0  0  0  0  0  0  0
   18.4544   19.9446   20.6976 H   0  0  0  0  0  0  0  0  0  0  0  0
   19.4668   19.2006   19.4685 H   0  0  0  0  0  0  0  0  0  0  0  0
   18.7461   17.8097   20.9576 C   0  0  0  0  0  0  0  0  0  0  0  0
   17.9246   17.4925   20.3023 H   0  0  0  0  0  0  0  0  0  0  0  0
   19.5460   17.0615   20.8845 H   0  0  0  0  0  0  0  0  0  0  0  0
   18.3641   17.8147   21.9861 H   0  0  0  0  0  0  0  0  0  0  0  0
  1  2  1  0  0  0  0
  1  3  2  0  0  0  0
  1  4  1  0  0  0  0
  4  5  1  0  0  0  0
  4  6  1  0  0  0  0
  4  7  1  0  0  0  0
  7  8  1  0  0  0  0
  7  9  1  0  0  0  0
  7 10  1  0  0  0  0
 10 11  1  0  0  0  0
 10 12  1  0  0  0  0
 10 13  1  0  0  0  0
 13 14  1  0  0  0  0
 13 15  1  0  0  0  0
 13 16  1  0  0  0  0
 16 17  1  0  0  0  0
 16 18  1  0  0  0  0
 16 19  1  0  0  0  0
M  END
> <VConfSearch Rank>
677

> <Conf_Id>
24

> <Delta U+W>
2.477

> <U+W>
-52.414

> <U>
10.422

> <W>
-62.836

> <W(PB)>
-64.906

> <W(SA)>
2.070

> <Valence>
9.628

> <Coulomb>
0.101

> <VdW>
0.693

> <VdW6>
-6.927

> <VdW12>
7.620

> <Bond>
0.173

> <Angle>
2.989

> <Pdih>
6.465

> <Idih>
0.001

> <Tether>
0.000

$$$$
VeraChem MOL file


 19 18  0  0  0  0  0  0  0  0999 V2000     
   18.9423   21.4774   22.3677 C   0  0  0  0  0  0  0  0  0  0  0  0
   19.1901   21.6970   21.1985 O   0  5  0  0  0  0  0  0  0  0  0  0
   18.0075   21.9790   22.9608 O   0  0  0  0  0  0  0  0  0  0  0  0
   19.8693   20.5451   23.1433 C   0  0  0  0  0  0  0  0  0  0  0  0
   20.1259   21.0509   24.0814 H   0  0  0  0  0  0  0  0  0  0  0  0
   20.8017   20.4381   22.5798 H   0  0  0  0  0  0  0  0  0  0  0  0
   19.2468   19.1573   23.4618 C   0  0  0  0  0  0  0  0  0  0  0  0
   19.8769   18.6245   24.1867 H   0  0  0  0  0  0  0  0  0  0  0  0
   18.2839   19.3243   23.9643 H   0  0  0  0  0  0  0  0  0  0  0  0
   19.0117   18.2642   22.2158 C   0  0  0  0  0  0  0  0  0  0  0  0
   18.8132   18.8832   21.3303 H   0  0  0  0  0  0  0  0  0  0  0  0
   18.0955   17.6814   22.3825 H   0  0  0  0  0  0  0  0  0  0  0  0
   20.1528   17.2614   21.9154 C   0  0  0  0  0  0  0  0  0  0  0  0
   20.2858   16.5861   22.7718 H   0  0  0  0  0  0  0  0  0  0  0  0
   19.8469   16.6293   21.0704 H   0  0  0  0  0  0  0  0  0  0  0  0
   21.5021   17.9253   21.5717 C   0  0  0  0  0  0  0  0  0  0  0  0
   21.9289   18.4300   22.4472 H   0  0  0  0  0  0  0  0  0  0  0  0
   22.2271   17.1714   21.2388 H   0  0  0  0  0  0  0  0  0  0  0  0
   21.3843   18.6621   20.7663 H   0  0  0  0  0  0  0  0  0  0  0  0
  1  2  1  0  0  0  0
  1  3  2  0  0  0  0
  1  4  1  0  0  0  0
  4  5  1  0  0  0  0
  4  6  1  0  0  0  0
  4  7  1  0  0  0  0
  7  8  1  0  0  0  0
  7  9  1  0  0  0  0
  7 10  1  0  0  0  0
 10 11  1  0  0  0  0
 10 12  1  0  0  0  0
 10 13  1  0  0  0  0
 13 14  1  0  0  0  0
 13 15  1  0  0  0  0
 13 16  1  0  0  0  0
 16 17  1  0  0  0  0
 16 18  1  0  0  0  0
 16 19  1  0  0  0  0
M  END
> <VConfSearch Rank>
678

> <Conf_Id>
4

> <Delta U+W>
3.753

> <U+W>
-51.138

> <U>
12.334

> <W>
-63.472

> <W(PB)>
-65.500

> <W(SA)>
2.028

> <Valence>
9.984

> <Coulomb>
1.767

> <VdW>
0.583

> <VdW6>
-7.767

> <VdW12>
8.349

> <Bond>
0.203

> <Angle>
3.191

> <Pdih>
6.589

> <Idih>
0.001

> <Tether>
0.000

$$$$
VeraChem MOL file


 19 18  0  0  0  0  0  0  0  0999 V2000     
   17.7139   18.2566   21.1851 C   0  0  0  0  0  0  0  0  0  0  0  0
   17.5112   17.4879   20.2658 O   0  5  0  0  0  0  0  0  0  0  0  0
   16.9905   18.3446   22.1576 O   0  0  0  0  0  0  0  0  0  0  0  0
   18.9262   19.1800   21.0966 C   0  0  0  0  0  0  0  0  0  0  0  0
   18.7918   19.9960   21.8138 H   0  0  0  0  0  0  0  0  0  0  0  0
   18.9151   19.6340   20.0989 H   0  0  0  0  0  0  0  0  0  0  0  0
   20.2856   18.4601   21.3178 C   0  0  0  0  0  0  0  0  0  0  0  0
   20.3378   17.6117   20.6214 H   0  0  0  0  0  0  0  0  0  0  0  0
   21.1106   19.1296   21.0399 H   0  0  0  0  0  0  0  0  0  0  0  0
   20.5002   17.9353   22.7614 C   0  0  0  0  0  0  0  0  0  0  0  0
   21.0660   16.9955   22.7015 H   0  0  0  0  0  0  0  0  0  0  0  0
   19.5383   17.6742   23.2232 H   0  0  0  0  0  0  0  0  0  0  0  0
   21.2883   18.8947   23.6869 C   0  0  0  0  0  0  0  0  0  0  0  0
   21.4528   18.3920   24.6499 H   0  0  0  0  0  0  0  0  0  0  0  0
   22.2848   19.0807   23.2632 H   0  0  0  0  0  0  0  0  0  0  0  0
   20.5827   20.2414   23.9476 C   0  0  0  0  0  0  0  0  0  0  0  0
   19.5553   20.0853   24.3021 H   0  0  0  0  0  0  0  0  0  0  0  0
   21.1218   20.8157   24.7120 H   0  0  0  0  0  0  0  0  0  0  0  0
   20.5491   20.8530   23.0376 H   0  0  0  0  0  0  0  0  0  0  0  0
  1  2  1  0  0  0  0
  1  3  2  0  0  0  0
  1  4  1  0  0  0  0
  4  5  1  0  0  0  0
  4  6  1  0  0  0  0
  4  7  1  0  0  0  0
  7  8  1  0  0  0  0
  7  9  1  0  0  0  0
  7 10  1  0  0  0  0
 10 11  1  0  0  0  0
 10 12  1  0  0  0  0
 10 13  1  0  0  0  0
 13 14  1  0  0  0  0
 13 15  1  0  0  0  0
 13 16  1  0  0  0  0
 16 17  1  0  0  0  0
 16 18  1  0  0  0  0
 16 19  1  0  0  0  0
M  END
> <VConfSearch Rank>
679

> <Conf_Id>
73

> <Delta U+W>
3.707

> <U+W>
-51.184

> <U>
12.334

> <W>
-63.519

> <W(PB)>
-65.541

> <W(SA)>
2.022

> <Valence>
9.984

> <Coulomb>
1.768

> <VdW>
0.583

> <VdW6>
-7.767

> <VdW12>
8.350

> <Bond>
0.203

> <Angle>
3.192

> <Pdih>
6.589

> <Idih>
0.001

> <Tether>
0.000

$$$$
VeraChem MOL file


 19 18  0  0  0  0  0  0  0  0999 V2000     
   19.5079   19.1647   24.9542 C   0  0  0  0  0  0  0  0  0  0  0  0
   20.6818   19.2728   25.2495 O   0  5  0  0  0  0  0  0  0  0  0  0
   18.6089   19.7039   25.5691 O   0  0  0  0  0  0  0  0  0  0  0  0
   19.1375   18.2791   23.7677 C   0  0  0  0  0  0  0  0  0  0  0  0
   18.3535   17.5915   24.1058 H   0  0  0  0  0  0  0  0  0  0  0  0
   20.0030   17.6590   23.5077 H   0  0  0  0  0  0  0  0  0  0  0  0
   18.6332   19.0614   22.5244 C   0  0  0  0  0  0  0  0  0  0  0  0
   18.3207   18.3483   21.7506 H   0  0  0  0  0  0  0  0  0  0  0  0
   17.7285   19.6192   22.8031 H   0  0  0  0  0  0  0  0  0  0  0  0
   19.6649   20.0552   21.9311 C   0  0  0  0  0  0  0  0  0  0  0  0
   19.8788   20.8357   22.6742 H   0  0  0  0  0  0  0  0  0  0  0  0
   19.2066   20.5703   21.0760 H   0  0  0  0  0  0  0  0  0  0  0  0
   21.0031   19.4231   21.4762 C   0  0  0  0  0  0  0  0  0  0  0  0
   21.6539   20.2209   21.0929 H   0  0  0  0  0  0  0  0  0  0  0  0
   21.5291   18.9920   22.3387 H   0  0  0  0  0  0  0  0  0  0  0  0
   20.8319   18.3510   20.3785 C   0  0  0  0  0  0  0  0  0  0  0  0
   20.2816   17.4795   20.7547 H   0  0  0  0  0  0  0  0  0  0  0  0
   20.2884   18.7563   19.5151 H   0  0  0  0  0  0  0  0  0  0  0  0
   21.8112   18.0003   20.0282 H   0  0  0  0  0  0  0  0  0  0  0  0
  1  2  1  0  0  0  0
  1  3  2  0  0  0  0
  1  4  1  0  0  0  0
  4  5  1  0  0  0  0
  4  6  1  0  0  0  0
  4  7  1  0  0  0  0
  7  8  1  0  0  0  0
  7  9  1  0  0  0  0
  7 10  1  0  0  0  0
 10 11  1  0  0  0  0
 10 12  1  0  0  0  0
 10 13  1  0  0  0  0
 13 14  1  0  0  0  0
 13 15  1  0  0  0  0
 13 16  1  0  0  0  0
 16 17  1  0  0  0  0
 16 18  1  0  0  0  0
 16 19  1  0  0  0  0
M  END
> <VConfSearch Rank>
680

> <Conf_Id>
56

> <Delta U+W>
1.735

> <U+W>
-53.156

> <U>
10.214

> <W>
-63.370

> <W(PB)>
-65.388

> <W(SA)>
2.018

> <Valence>
7.868

> <Coulomb>
1.968

> <VdW>
0.378

> <VdW6>
-8.067

> <VdW12>
8.445

> <Bond>
0.191

> <Angle>
3.117

> <Pdih>
4.559

> <Idih>
0.001

> <Tether>
0.000

$$$$
VeraChem MOL file


 19 18  0  0  0  0  0  0  0  0999 V2000     
   19.0794   21.5474   23.3173 C   0  0  0  0  0  0  0  0  0  0  0  0
   18.8819   21.7597   24.4973 O   0  5  0  0  0  0  0  0  0  0  0  0
   18.7488   22.3116   22.4325 O   0  0  0  0  0  0  0  0  0  0  0  0
   19.7598   20.2409   22.9246 C   0  0  0  0  0  0  0  0  0  0  0  0
   20.4477   19.9584   23.7304 H   0  0  0  0  0  0  0  0  0  0  0  0
   20.3614   20.4365   22.0299 H   0  0  0  0  0  0  0  0  0  0  0  0
   18.7514   19.0958   22.6546 C   0  0  0  0  0  0  0  0  0  0  0  0
   18.0698   19.0181   23.5129 H   0  0  0  0  0  0  0  0  0  0  0  0
   18.1274   19.3600   21.7896 H   0  0  0  0  0  0  0  0  0  0  0  0
   19.4050   17.7107   22.4205 C   0  0  0  0  0  0  0  0  0  0  0  0
   18.5942   16.9800   22.2953 H   0  0  0  0  0  0  0  0  0  0  0  0
   19.9542   17.3959   23.3185 H   0  0  0  0  0  0  0  0  0  0  0  0
   20.3225   17.6303   21.1751 C   0  0  0  0  0  0  0  0  0  0  0  0
   20.2150   16.6340   20.7243 H   0  0  0  0  0  0  0  0  0  0  0  0
   19.9924   18.3481   20.4114 H   0  0  0  0  0  0  0  0  0  0  0  0
   21.8167   17.8459   21.5032 C   0  0  0  0  0  0  0  0  0  0  0  0
   22.4249   17.7621   20.5933 H   0  0  0  0  0  0  0  0  0  0  0  0
   22.0015   18.8342   21.9387 H   0  0  0  0  0  0  0  0  0  0  0  0
   22.1727   17.0899   22.2152 H   0  0  0  0  0  0  0  0  0  0  0  0
  1  2  1  0  0  0  0
  1  3  2  0  0  0  0
  1  4  1  0  0  0  0
  4  5  1  0  0  0  0
  4  6  1  0  0  0  0
  4  7  1  0  0  0  0
  7  8  1  0  0  0  0
  7  9  1  0  0  0  0
  7 10  1  0  0  0  0
 10 11  1  0  0  0  0
 10 12  1  0  0  0  0
 10 13  1  0  0  0  0
 13 14  1  0  0  0  0
 13 15  1  0  0  0  0
 13 16  1  0  0  0  0
 16 17  1  0  0  0  0
 16 18  1  0  0  0  0
 16 19  1  0  0  0  0
M  END
> <VConfSearch Rank>
681

> <Conf_Id>
53

> <Delta U+W>
2.279

> <U+W>
-52.612

> <U>
10.231

> <W>
-62.843

> <W(PB)>
-64.893

> <W(SA)>
2.050

> <Valence>
9.644

> <Coulomb>
-0.164

> <VdW>
0.751

> <VdW6>
-6.881

> <VdW12>
7.631

> <Bond>
0.163

> <Angle>
2.998

> <Pdih>
6.482

> <Idih>
0.001

> <Tether>
0.000

$$$$
VeraChem MOL file


 19 18  0  0  0  0  0  0  0  0999 V2000     
   19.3756   20.7297   23.8790 C   0  0  0  0  0  0  0  0  0  0  0  0
   20.1110   20.6887   24.8456 O   0  5  0  0  0  0  0  0  0  0  0  0
   18.1647   20.6594   23.9555 O   0  0  0  0  0  0  0  0  0  0  0  0
   20.0043   20.9516   22.5045 C   0  0  0  0  0  0  0  0  0  0  0  0
   21.0906   21.0478   22.6204 H   0  0  0  0  0  0  0  0  0  0  0  0
   19.6395   21.9233   22.1519 H   0  0  0  0  0  0  0  0  0  0  0  0
   19.6704   19.8697   21.4391 C   0  0  0  0  0  0  0  0  0  0  0  0
   18.5990   19.6281   21.4735 H   0  0  0  0  0  0  0  0  0  0  0  0
   19.8501   20.3048   20.4467 H   0  0  0  0  0  0  0  0  0  0  0  0
   20.5110   18.5731   21.5444 C   0  0  0  0  0  0  0  0  0  0  0  0
   21.5803   18.8211   21.5021 H   0  0  0  0  0  0  0  0  0  0  0  0
   20.3019   17.9571   20.6590 H   0  0  0  0  0  0  0  0  0  0  0  0
   20.2218   17.7360   22.8097 C   0  0  0  0  0  0  0  0  0  0  0  0
   20.5475   18.2812   23.7047 H   0  0  0  0  0  0  0  0  0  0  0  0
   19.1398   17.5721   22.9088 H   0  0  0  0  0  0  0  0  0  0  0  0
   20.9461   16.3753   22.7653 C   0  0  0  0  0  0  0  0  0  0  0  0
   22.0330   16.5119   22.6922 H   0  0  0  0  0  0  0  0  0  0  0  0
   20.7374   15.7968   23.6746 H   0  0  0  0  0  0  0  0  0  0  0  0
   20.6158   15.7816   21.9029 H   0  0  0  0  0  0  0  0  0  0  0  0
  1  2  1  0  0  0  0
  1  3  2  0  0  0  0
  1  4  1  0  0  0  0
  4  5  1  0  0  0  0
  4  6  1  0  0  0  0
  4  7  1  0  0  0  0
  7  8  1  0  0  0  0
  7  9  1  0  0  0  0
  7 10  1  0  0  0  0
 10 11  1  0  0  0  0
 10 12  1  0  0  0  0
 10 13  1  0  0  0  0
 13 14  1  0  0  0  0
 13 15  1  0  0  0  0
 13 16  1  0  0  0  0
 16 17  1  0  0  0  0
 16 18  1  0  0  0  0
 16 19  1  0  0  0  0
M  END
> <VConfSearch Rank>
682

> <Conf_Id>
25

> <Delta U+W>
2.065

> <U+W>
-52.826

> <U>
10.967

> <W>
-63.794

> <W(PB)>
-65.830

> <W(SA)>
2.036

> <Valence>
8.609

> <Coulomb>
1.892

> <VdW>
0.467

> <VdW6>
-7.569

> <VdW12>
8.036

> <Bond>
0.170

> <Angle>
3.195

> <Pdih>
5.237

> <Idih>
0.007

> <Tether>
0.000

$$$$
VeraChem MOL file


 19 18  0  0  0  0  0  0  0  0999 V2000     
   22.1266   20.1916   22.4959 C   0  0  0  0  0  0  0  0  0  0  0  0
   22.8506   19.8074   23.3933 O   0  5  0  0  0  0  0  0  0  0  0  0
   21.7044   21.3284   22.4165 O   0  0  0  0  0  0  0  0  0  0  0  0
   21.7851   19.2162   21.3710 C   0  0  0  0  0  0  0  0  0  0  0  0
   22.7339   18.9635   20.8835 H   0  0  0  0  0  0  0  0  0  0  0  0
   21.1758   19.7353   20.6212 H   0  0  0  0  0  0  0  0  0  0  0  0
   21.0828   17.9039   21.8203 C   0  0  0  0  0  0  0  0  0  0  0  0
   21.2218   17.1567   21.0273 H   0  0  0  0  0  0  0  0  0  0  0  0
   21.5833   17.4968   22.7099 H   0  0  0  0  0  0  0  0  0  0  0  0
   19.5620   18.0374   22.0808 C   0  0  0  0  0  0  0  0  0  0  0  0
   19.1518   17.0300   22.2354 H   0  0  0  0  0  0  0  0  0  0  0  0
   19.0671   18.4378   21.1855 H   0  0  0  0  0  0  0  0  0  0  0  0
   19.2067   18.9101   23.3046 C   0  0  0  0  0  0  0  0  0  0  0  0
   19.7786   18.5740   24.1805 H   0  0  0  0  0  0  0  0  0  0  0  0
   19.4892   19.9540   23.1176 H   0  0  0  0  0  0  0  0  0  0  0  0
   17.6987   18.8521   23.6218 C   0  0  0  0  0  0  0  0  0  0  0  0
   17.4617   19.4837   24.4878 H   0  0  0  0  0  0  0  0  0  0  0  0
   17.1048   19.2080   22.7698 H   0  0  0  0  0  0  0  0  0  0  0  0
   17.3847   17.8262   23.8547 H   0  0  0  0  0  0  0  0  0  0  0  0
  1  2  1  0  0  0  0
  1  3  2  0  0  0  0
  1  4  1  0  0  0  0
  4  5  1  0  0  0  0
  4  6  1  0  0  0  0
  4  7  1  0  0  0  0
  7  8  1  0  0  0  0
  7  9  1  0  0  0  0
  7 10  1  0  0  0  0
 10 11  1  0  0  0  0
 10 12  1  0  0  0  0
 10 13  1  0  0  0  0
 13 14  1  0  0  0  0
 13 15  1  0  0  0  0
 13 16  1  0  0  0  0
 16 17  1  0  0  0  0
 16 18  1  0  0  0  0
 16 19  1  0  0  0  0
M  END
> <VConfSearch Rank>
683

> <Conf_Id>
52

> <Delta U+W>
2.070

> <U+W>
-52.822

> <U>
10.967

> <W>
-63.789

> <W(PB)>
-65.837

> <W(SA)>
2.048

> <Valence>
8.609

> <Coulomb>
1.892

> <VdW>
0.467

> <VdW6>
-7.569

> <VdW12>
8.035

> <Bond>
0.170

> <Angle>
3.196

> <Pdih>
5.237

> <Idih>
0.007

> <Tether>
0.000

$$$$
VeraChem MOL file


 19 18  0  0  0  0  0  0  0  0999 V2000     
   18.8643   16.9720   22.6729 C   0  0  0  0  0  0  0  0  0  0  0  0
   18.5282   16.7644   23.8227 O   0  5  0  0  0  0  0  0  0  0  0  0
   18.1008   16.8876   21.7313 O   0  0  0  0  0  0  0  0  0  0  0  0
   20.3425   17.2278   22.3748 C   0  0  0  0  0  0  0  0  0  0  0  0
   20.4471   17.5425   21.3295 H   0  0  0  0  0  0  0  0  0  0  0  0
   20.8409   16.2553   22.4592 H   0  0  0  0  0  0  0  0  0  0  0  0
   21.0562   18.2409   23.3148 C   0  0  0  0  0  0  0  0  0  0  0  0
   20.7337   18.0814   24.3530 H   0  0  0  0  0  0  0  0  0  0  0  0
   22.1311   18.0153   23.2996 H   0  0  0  0  0  0  0  0  0  0  0  0
   20.8885   19.7340   22.9333 C   0  0  0  0  0  0  0  0  0  0  0  0
   21.3035   19.9145   21.9322 H   0  0  0  0  0  0  0  0  0  0  0  0
   21.5111   20.3218   23.6217 H   0  0  0  0  0  0  0  0  0  0  0  0
   19.4399   20.2727   23.0201 C   0  0  0  0  0  0  0  0  0  0  0  0
   18.8388   19.6511   23.6980 H   0  0  0  0  0  0  0  0  0  0  0  0
   19.4610   21.2764   23.4664 H   0  0  0  0  0  0  0  0  0  0  0  0
   18.7572   20.3758   21.6393 C   0  0  0  0  0  0  0  0  0  0  0  0
   19.2972   21.0742   20.9869 H   0  0  0  0  0  0  0  0  0  0  0  0
   18.7195   19.4026   21.1360 H   0  0  0  0  0  0  0  0  0  0  0  0
   17.7272   20.7399   21.7451 H   0  0  0  0  0  0  0  0  0  0  0  0
  1  2  1  0  0  0  0
  1  3  2  0  0  0  0
  1  4  1  0  0  0  0
  4  5  1  0  0  0  0
  4  6  1  0  0  0  0
  4  7  1  0  0  0  0
  7  8  1  0  0  0  0
  7  9  1  0  0  0  0
  7 10  1  0  0  0  0
 10 11  1  0  0  0  0
 10 12  1  0  0  0  0
 10 13  1  0  0  0  0
 13 14  1  0  0  0  0
 13 15  1  0  0  0  0
 13 16  1  0  0  0  0
 16 17  1  0  0  0  0
 16 18  1  0  0  0  0
 16 19  1  0  0  0  0
M  END
> <VConfSearch Rank>
684

> <Conf_Id>
66

> <Delta U+W>
5.819

> <U+W>
-49.072

> <U>
15.324

> <W>
-64.396

> <W(PB)>
-66.382

> <W(SA)>
1.986

> <Valence>
11.748

> <Coulomb>
3.201

> <VdW>
0.375

> <VdW6>
-8.854

> <VdW12>
9.229

> <Bond>
0.216

> <Angle>
3.812

> <Pdih>
7.699

> <Idih>
0.022

> <Tether>
0.000

$$$$
VeraChem MOL file


 19 18  0  0  0  0  0  0  0  0999 V2000     
   18.9312   17.5655   19.1657 C   0  0  0  0  0  0  0  0  0  0  0  0
   18.0122   17.6178   18.3730 O   0  5  0  0  0  0  0  0  0  0  0  0
   19.8968   16.8422   19.0152 O   0  0  0  0  0  0  0  0  0  0  0  0
   18.8400   18.4633   20.4007 C   0  0  0  0  0  0  0  0  0  0  0  0
   17.9098   18.2086   20.9223 H   0  0  0  0  0  0  0  0  0  0  0  0
   18.7373   19.4961   20.0476 H   0  0  0  0  0  0  0  0  0  0  0  0
   20.0365   18.3621   21.3838 C   0  0  0  0  0  0  0  0  0  0  0  0
   20.1375   17.3239   21.7294 H   0  0  0  0  0  0  0  0  0  0  0  0
   20.9659   18.6127   20.8537 H   0  0  0  0  0  0  0  0  0  0  0  0
   19.8624   19.2993   22.5985 C   0  0  0  0  0  0  0  0  0  0  0  0
   18.9327   19.0472   23.1269 H   0  0  0  0  0  0  0  0  0  0  0  0
   19.7615   20.3367   22.2508 H   0  0  0  0  0  0  0  0  0  0  0  0
   21.0529   19.1972   23.5746 C   0  0  0  0  0  0  0  0  0  0  0  0
   21.1560   18.1613   23.9262 H   0  0  0  0  0  0  0  0  0  0  0  0
   21.9848   19.4508   23.0503 H   0  0  0  0  0  0  0  0  0  0  0  0
   20.8757   20.1341   24.7861 C   0  0  0  0  0  0  0  0  0  0  0  0
   19.9665   19.8823   25.3477 H   0  0  0  0  0  0  0  0  0  0  0  0
   21.7306   20.0488   25.4694 H   0  0  0  0  0  0  0  0  0  0  0  0
   20.8014   21.1815   24.4651 H   0  0  0  0  0  0  0  0  0  0  0  0
  1  2  1  0  0  0  0
  1  3  2  0  0  0  0
  1  4  1  0  0  0  0
  4  5  1  0  0  0  0
  4  6  1  0  0  0  0
  4  7  1  0  0  0  0
  7  8  1  0  0  0  0
  7  9  1  0  0  0  0
  7 10  1  0  0  0  0
 10 11  1  0  0  0  0
 10 12  1  0  0  0  0
 10 13  1  0  0  0  0
 13 14  1  0  0  0  0
 13 15  1  0  0  0  0
 13 16  1  0  0  0  0
 16 17  1  0  0  0  0
 16 18  1  0  0  0  0
 16 19  1  0  0  0  0
M  END
> <VConfSearch Rank>
685

> <Conf_Id>
0

> <Delta U+W>
0.000

> <U+W>
-54.891

> <U>
6.966

> <W>
-61.857

> <W(PB)>
-63.965

> <W(SA)>
2.108

> <Valence>
7.175

> <Coulomb>
-1.360

> <VdW>
1.151

> <VdW6>
-5.641

> <VdW12>
6.792

> <Bond>
0.119

> <Angle>
2.715

> <Pdih>
4.340

> <Idih>
0.000

> <Tether>
0.000

$$$$
VeraChem MOL file


 19 18  0  0  0  0  0  0  0  0999 V2000     
   18.2920   16.0121   22.7012 C   0  0  0  0  0  0  0  0  0  0  0  0
   18.3920   15.1897   21.8125 O   0  5  0  0  0  0  0  0  0  0  0  0
   18.1462   15.7226   23.8722 O   0  0  0  0  0  0  0  0  0  0  0  0
   18.3746   17.4883   22.3291 C   0  0  0  0  0  0  0  0  0  0  0  0
   17.7416   18.0513   23.0255 H   0  0  0  0  0  0  0  0  0  0  0  0
   17.9446   17.6120   21.3278 H   0  0  0  0  0  0  0  0  0  0  0  0
   19.8224   18.0370   22.3602 C   0  0  0  0  0  0  0  0  0  0  0  0
   20.2430   17.8943   23.3653 H   0  0  0  0  0  0  0  0  0  0  0  0
   20.4460   17.4548   21.6676 H   0  0  0  0  0  0  0  0  0  0  0  0
   19.8785   19.5323   21.9798 C   0  0  0  0  0  0  0  0  0  0  0  0
   19.2531   20.1114   22.6731 H   0  0  0  0  0  0  0  0  0  0  0  0
   19.4563   19.6718   20.9751 H   0  0  0  0  0  0  0  0  0  0  0  0
   21.3219   20.0762   22.0118 C   0  0  0  0  0  0  0  0  0  0  0  0
   21.7472   19.9401   23.0158 H   0  0  0  0  0  0  0  0  0  0  0  0
   21.9504   19.5007   21.3180 H   0  0  0  0  0  0  0  0  0  0  0  0
   21.3743   21.5694   21.6315 C   0  0  0  0  0  0  0  0  0  0  0  0
   22.4073   21.9397   21.6593 H   0  0  0  0  0  0  0  0  0  0  0  0
   20.9836   21.7307   20.6182 H   0  0  0  0  0  0  0  0  0  0  0  0
   20.7788   22.1734   22.3288 H   0  0  0  0  0  0  0  0  0  0  0  0
  1  2  1  0  0  0  0
  1  3  2  0  0  0  0
  1  4  1  0  0  0  0
  4  5  1  0  0  0  0
  4  6  1  0  0  0  0
  4  7  1  0  0  0  0
  7  8  1  0  0  0  0
  7  9  1  0  0  0  0
  7 10  1  0  0  0  0
 10 11  1  0  0  0  0
 10 12  1  0  0  0  0
 10 13  1  0  0  0  0
 13 14  1  0  0  0  0
 13 15  1  0  0  0  0
 13 16  1  0  0  0  0
 16 17  1  0  0  0  0
 16 18  1  0  0  0  0
 16 19  1  0  0  0  0
M  END
> <VConfSearch Rank>
686

> <Conf_Id>
18

> <Delta U+W>
-1.199

> <U+W>
-56.090

> <U>
5.975

> <W>
-62.066

> <W(PB)>
-64.219

> <W(SA)>
2.153

> <Valence>
6.673

> <Coulomb>
-1.307

> <VdW>
0.610

> <VdW6>
-5.351

> <VdW12>
5.961

> <Bond>
0.086

> <Angle>
2.253

> <Pdih>
4.333

> <Idih>
0.001

> <Tether>
0.000

$$$$
VeraChem MOL file


 19 18  0  0  0  0  0  0  0  0999 V2000     
   19.7696   18.6857   18.9875 C   0  0  0  0  0  0  0  0  0  0  0  0
   19.6018   17.6357   18.3997 O   0  5  0  0  0  0  0  0  0  0  0  0
   19.5597   19.7748   18.4914 O   0  0  0  0  0  0  0  0  0  0  0  0
   20.2496   18.6329   20.4335 C   0  0  0  0  0  0  0  0  0  0  0  0
   20.8731   19.5166   20.6103 H   0  0  0  0  0  0  0  0  0  0  0  0
   20.8933   17.7523   20.5465 H   0  0  0  0  0  0  0  0  0  0  0  0
   19.0815   18.5756   21.4520 C   0  0  0  0  0  0  0  0  0  0  0  0
   18.4694   19.4834   21.3599 H   0  0  0  0  0  0  0  0  0  0  0  0
   18.4270   17.7325   21.1905 H   0  0  0  0  0  0  0  0  0  0  0  0
   19.5472   18.4054   22.9175 C   0  0  0  0  0  0  0  0  0  0  0  0
   20.1517   17.4925   23.0079 H   0  0  0  0  0  0  0  0  0  0  0  0
   18.6613   18.2553   23.5496 H   0  0  0  0  0  0  0  0  0  0  0  0
   20.3467   19.6146   23.4525 C   0  0  0  0  0  0  0  0  0  0  0  0
   21.2764   19.7365   22.8814 H   0  0  0  0  0  0  0  0  0  0  0  0
   19.7626   20.5351   23.3154 H   0  0  0  0  0  0  0  0  0  0  0  0
   20.6939   19.4463   24.9452 C   0  0  0  0  0  0  0  0  0  0  0  0
   21.2638   20.3110   25.3095 H   0  0  0  0  0  0  0  0  0  0  0  0
   19.7840   19.3598   25.5534 H   0  0  0  0  0  0  0  0  0  0  0  0
   21.3020   18.5467   25.1077 H   0  0  0  0  0  0  0  0  0  0  0  0
  1  2  1  0  0  0  0
  1  3  2  0  0  0  0
  1  4  1  0  0  0  0
  4  5  1  0  0  0  0
  4  6  1  0  0  0  0
  4  7  1  0  0  0  0
  7  8  1  0  0  0  0
  7  9  1  0  0  0  0
  7 10  1  0  0  0  0
 10 11  1  0  0  0  0
 10 12  1  0  0  0  0
 10 13  1  0  0  0  0
 13 14  1  0  0  0  0
 13 15  1  0  0  0  0
 13 16  1  0  0  0  0
 16 17  1  0  0  0  0
 16 18  1  0  0  0  0
 16 19  1  0  0  0  0
M  END
> <VConfSearch Rank>
687

> <Conf_Id>
34

> <Delta U+W>
-0.563

> <U+W>
-55.455

> <U>
6.914

> <W>
-62.369

> <W(PB)>
-64.446

> <W(SA)>
2.077

> <Valence>
7.196

> <Coulomb>
-1.020

> <VdW>
0.738

> <VdW6>
-6.010

> <VdW12>
6.748

> <Bond>
0.126

> <Angle>
2.499

> <Pdih>
4.570

> <Idih>
0.001

> <Tether>
0.000

$$$$
VeraChem MOL file


 19 18  0  0  0  0  0  0  0  0999 V2000     
   18.3279   17.7387   19.6921 C   0  0  0  0  0  0  0  0  0  0  0  0
   17.1464   17.4589   19.7381 O   0  5  0  0  0  0  0  0  0  0  0  0
   19.0850   17.3209   18.8386 O   0  0  0  0  0  0  0  0  0  0  0  0
   18.8958   18.6461   20.7777 C   0  0  0  0  0  0  0  0  0  0  0  0
   18.1075   19.3436   21.0851 H   0  0  0  0  0  0  0  0  0  0  0  0
   19.6993   19.2406   20.3285 H   0  0  0  0  0  0  0  0  0  0  0  0
   19.4204   17.8572   22.0056 C   0  0  0  0  0  0  0  0  0  0  0  0
   18.6171   17.2045   22.3745 H   0  0  0  0  0  0  0  0  0  0  0  0
   20.2395   17.1947   21.6934 H   0  0  0  0  0  0  0  0  0  0  0  0
   19.8946   18.7640   23.1660 C   0  0  0  0  0  0  0  0  0  0  0  0
   20.1342   18.1284   24.0295 H   0  0  0  0  0  0  0  0  0  0  0  0
   19.0710   19.4191   23.4813 H   0  0  0  0  0  0  0  0  0  0  0  0
   21.1329   19.6177   22.8120 C   0  0  0  0  0  0  0  0  0  0  0  0
   21.9400   18.9670   22.4480 H   0  0  0  0  0  0  0  0  0  0  0  0
   20.8921   20.3155   21.9993 H   0  0  0  0  0  0  0  0  0  0  0  0
   21.6325   20.4203   24.0300 C   0  0  0  0  0  0  0  0  0  0  0  0
   20.8533   21.1003   24.3983 H   0  0  0  0  0  0  0  0  0  0  0  0
   21.9197   19.7507   24.8513 H   0  0  0  0  0  0  0  0  0  0  0  0
   22.5099   21.0233   23.7622 H   0  0  0  0  0  0  0  0  0  0  0  0
  1  2  1  0  0  0  0
  1  3  2  0  0  0  0
  1  4  1  0  0  0  0
  4  5  1  0  0  0  0
  4  6  1  0  0  0  0
  4  7  1  0  0  0  0
  7  8  1  0  0  0  0
  7  9  1  0  0  0  0
  7 10  1  0  0  0  0
 10 11  1  0  0  0  0
 10 12  1  0  0  0  0
 10 13  1  0  0  0  0
 13 14  1  0  0  0  0
 13 15  1  0  0  0  0
 13 16  1  0  0  0  0
 16 17  1  0  0  0  0
 16 18  1  0  0  0  0
 16 19  1  0  0  0  0
M  END
> <VConfSearch Rank>
688

> <Conf_Id>
33

> <Delta U+W>
-0.526

> <U+W>
-55.418

> <U>
6.914

> <W>
-62.332

> <W(PB)>
-64.421

> <W(SA)>
2.090

> <Valence>
7.196

> <Coulomb>
-1.020

> <VdW>
0.738

> <VdW6>
-6.010

> <VdW12>
6.748

> <Bond>
0.126

> <Angle>
2.499

> <Pdih>
4.570

> <Idih>
0.001

> <Tether>
0.000

$$$$
VeraChem MOL file


 19 18  0  0  0  0  0  0  0  0999 V2000     
   23.0584   18.8078   21.9589 C   0  0  0  0  0  0  0  0  0  0  0  0
   23.5436   19.8955   22.1995 O   0  5  0  0  0  0  0  0  0  0  0  0
   23.5926   17.7549   22.2456 O   0  0  0  0  0  0  0  0  0  0  0  0
   21.6964   18.7619   21.2754 C   0  0  0  0  0  0  0  0  0  0  0  0
   21.6630   17.8670   20.6424 H   0  0  0  0  0  0  0  0  0  0  0  0
   21.6183   19.6315   20.6118 H   0  0  0  0  0  0  0  0  0  0  0  0
   20.5183   18.7503   22.2805 C   0  0  0  0  0  0  0  0  0  0  0  0
   20.6157   17.8796   22.9436 H   0  0  0  0  0  0  0  0  0  0  0  0
   20.5832   19.6445   22.9144 H   0  0  0  0  0  0  0  0  0  0  0  0
   19.1507   18.7071   21.5605 C   0  0  0  0  0  0  0  0  0  0  0  0
   19.1329   17.8462   20.8781 H   0  0  0  0  0  0  0  0  0  0  0  0
   19.0327   19.6026   20.9351 H   0  0  0  0  0  0  0  0  0  0  0  0
   17.9506   18.5909   22.5285 C   0  0  0  0  0  0  0  0  0  0  0  0
   17.0347   18.4474   21.9389 H   0  0  0  0  0  0  0  0  0  0  0  0
   18.0622   17.6931   23.1521 H   0  0  0  0  0  0  0  0  0  0  0  0
   17.7714   19.8309   23.4308 C   0  0  0  0  0  0  0  0  0  0  0  0
   17.6870   20.7455   22.8294 H   0  0  0  0  0  0  0  0  0  0  0  0
   16.8590   19.7378   24.0340 H   0  0  0  0  0  0  0  0  0  0  0  0
   18.6154   19.9493   24.1217 H   0  0  0  0  0  0  0  0  0  0  0  0
  1  2  1  0  0  0  0
  1  3  2  0  0  0  0
  1  4  1  0  0  0  0
  4  5  1  0  0  0  0
  4  6  1  0  0  0  0
  4  7  1  0  0  0  0
  7  8  1  0  0  0  0
  7  9  1  0  0  0  0
  7 10  1  0  0  0  0
 10 11  1  0  0  0  0
 10 12  1  0  0  0  0
 10 13  1  0  0  0  0
 13 14  1  0  0  0  0
 13 15  1  0  0  0  0
 13 16  1  0  0  0  0
 16 17  1  0  0  0  0
 16 18  1  0  0  0  0
 16 19  1  0  0  0  0
M  END
> <VConfSearch Rank>
689

> <Conf_Id>
42

> <Delta U+W>
-0.344

> <U+W>
-55.236

> <U>
7.244

> <W>
-62.479

> <W(PB)>
-64.610

> <W(SA)>
2.130

> <Valence>
7.174

> <Coulomb>
-0.669

> <VdW>
0.739

> <VdW6>
-5.969

> <VdW12>
6.708

> <Bond>
0.116

> <Angle>
2.481

> <Pdih>
4.576

> <Idih>
0.000

> <Tether>
0.000

$$$$
VeraChem MOL file


 19 18  0  0  0  0  0  0  0  0999 V2000     
   21.8408   21.5595   22.1121 C   0  0  0  0  0  0  0  0  0  0  0  0
   22.8424   21.4081   22.7829 O   0  5  0  0  0  0  0  0  0  0  0  0
   21.2598   22.6208   22.0011 O   0  0  0  0  0  0  0  0  0  0  0  0
   21.2711   20.3471   21.3841 C   0  0  0  0  0  0  0  0  0  0  0  0
   22.1063   19.6934   21.1050 H   0  0  0  0  0  0  0  0  0  0  0  0
   20.8072   20.6956   20.4535 H   0  0  0  0  0  0  0  0  0  0  0  0
   20.2411   19.5632   22.2344 C   0  0  0  0  0  0  0  0  0  0  0  0
   20.7221   19.2412   23.1674 H   0  0  0  0  0  0  0  0  0  0  0  0
   19.4163   20.2333   22.5136 H   0  0  0  0  0  0  0  0  0  0  0  0
   19.6832   18.3382   21.4736 C   0  0  0  0  0  0  0  0  0  0  0  0
   20.5017   17.6444   21.2375 H   0  0  0  0  0  0  0  0  0  0  0  0
   19.2709   18.6722   20.5116 H   0  0  0  0  0  0  0  0  0  0  0  0
   18.5758   17.5869   22.2479 C   0  0  0  0  0  0  0  0  0  0  0  0
   17.7526   18.2764   22.4810 H   0  0  0  0  0  0  0  0  0  0  0  0
   18.1543   16.8099   21.5952 H   0  0  0  0  0  0  0  0  0  0  0  0
   19.0814   16.9236   23.5472 C   0  0  0  0  0  0  0  0  0  0  0  0
   19.4076   17.6730   24.2791 H   0  0  0  0  0  0  0  0  0  0  0  0
   18.2822   16.3316   24.0119 H   0  0  0  0  0  0  0  0  0  0  0  0
   19.9247   16.2512   23.3427 H   0  0  0  0  0  0  0  0  0  0  0  0
  1  2  1  0  0  0  0
  1  3  2  0  0  0  0
  1  4  1  0  0  0  0
  4  5  1  0  0  0  0
  4  6  1  0  0  0  0
  4  7  1  0  0  0  0
  7  8  1  0  0  0  0
  7  9  1  0  0  0  0
  7 10  1  0  0  0  0
 10 11  1  0  0  0  0
 10 12  1  0  0  0  0
 10 13  1  0  0  0  0
 13 14  1  0  0  0  0
 13 15  1  0  0  0  0
 13 16  1  0  0  0  0
 16 17  1  0  0  0  0
 16 18  1  0  0  0  0
 16 19  1  0  0  0  0
M  END
> <VConfSearch Rank>
690

> <Conf_Id>
41

> <Delta U+W>
-0.361

> <U+W>
-55.252

> <U>
7.244

> <W>
-62.496

> <W(PB)>
-64.596

> <W(SA)>
2.099

> <Valence>
7.174

> <Coulomb>
-0.669

> <VdW>
0.739

> <VdW6>
-5.969

> <VdW12>
6.708

> <Bond>
0.116

> <Angle>
2.481

> <Pdih>
4.576

> <Idih>
0.000

> <Tether>
0.000

$$$$
VeraChem MOL file


 19 18  0  0  0  0  0  0  0  0999 V2000     
   20.6923   17.9283   24.8618 C   0  0  0  0  0  0  0  0  0  0  0  0
   20.0155   18.6014   25.6137 O   0  5  0  0  0  0  0  0  0  0  0  0
   20.7502   16.7156   24.9139 O   0  0  0  0  0  0  0  0  0  0  0  0
   21.5332   18.6439   23.8082 C   0  0  0  0  0  0  0  0  0  0  0  0
   22.5366   18.2028   23.8344 H   0  0  0  0  0  0  0  0  0  0  0  0
   21.6412   19.6954   24.1010 H   0  0  0  0  0  0  0  0  0  0  0  0
   20.9617   18.5448   22.3700 C   0  0  0  0  0  0  0  0  0  0  0  0
   21.6942   18.9623   21.6659 H   0  0  0  0  0  0  0  0  0  0  0  0
   20.8324   17.4870   22.1018 H   0  0  0  0  0  0  0  0  0  0  0  0
   19.6191   19.2929   22.2112 C   0  0  0  0  0  0  0  0  0  0  0  0
   19.7504   20.3467   22.4928 H   0  0  0  0  0  0  0  0  0  0  0  0
   18.8755   18.8695   22.9006 H   0  0  0  0  0  0  0  0  0  0  0  0
   19.0852   19.2077   20.7661 C   0  0  0  0  0  0  0  0  0  0  0  0
   19.8232   19.6337   20.0723 H   0  0  0  0  0  0  0  0  0  0  0  0
   18.9506   18.1547   20.4826 H   0  0  0  0  0  0  0  0  0  0  0  0
   17.7457   19.9551   20.6109 C   0  0  0  0  0  0  0  0  0  0  0  0
   17.8585   21.0188   20.8582 H   0  0  0  0  0  0  0  0  0  0  0  0
   17.3804   19.8841   19.5781 H   0  0  0  0  0  0  0  0  0  0  0  0
   16.9794   19.5289   21.2716 H   0  0  0  0  0  0  0  0  0  0  0  0
  1  2  1  0  0  0  0
  1  3  2  0  0  0  0
  1  4  1  0  0  0  0
  4  5  1  0  0  0  0
  4  6  1  0  0  0  0
  4  7  1  0  0  0  0
  7  8  1  0  0  0  0
  7  9  1  0  0  0  0
  7 10  1  0  0  0  0
 10 11  1  0  0  0  0
 10 12  1  0  0  0  0
 10 13  1  0  0  0  0
 13 14  1  0  0  0  0
 13 15  1  0  0  0  0
 13 16  1  0  0  0  0
 16 17  1  0  0  0  0
 16 18  1  0  0  0  0
 16 19  1  0  0  0  0
M  END
> <VConfSearch Rank>
691

> <Conf_Id>
36

> <Delta U+W>
-0.079

> <U+W>
-54.971

> <U>
8.266

> <W>
-63.237

> <W(PB)>
-65.340

> <W(SA)>
2.103

> <Valence>
6.935

> <Coulomb>
0.874

> <VdW>
0.457

> <VdW6>
-6.205

> <VdW12>
6.662

> <Bond>
0.107

> <Angle>
2.420

> <Pdih>
4.407

> <Idih>
0.001

> <Tether>
0.000

$$$$
VeraChem MOL file


 19 18  0  0  0  0  0  0  0  0999 V2000     
   19.9354   16.3831   23.5895 C   0  0  0  0  0  0  0  0  0  0  0  0
   19.1672   15.8389   22.8211 O   0  5  0  0  0  0  0  0  0  0  0  0
   19.7731   16.4123   24.7934 O   0  0  0  0  0  0  0  0  0  0  0  0
   21.1834   17.0481   23.0155 C   0  0  0  0  0  0  0  0  0  0  0  0
   21.3586   16.6534   22.0073 H   0  0  0  0  0  0  0  0  0  0  0  0
   22.0347   16.7345   23.6312 H   0  0  0  0  0  0  0  0  0  0  0  0
   21.1137   18.5969   22.9792 C   0  0  0  0  0  0  0  0  0  0  0  0
   20.9095   18.9758   23.9903 H   0  0  0  0  0  0  0  0  0  0  0  0
   22.0962   18.9910   22.6862 H   0  0  0  0  0  0  0  0  0  0  0  0
   20.0415   19.1206   21.9976 C   0  0  0  0  0  0  0  0  0  0  0  0
   19.0526   18.7444   22.2940 H   0  0  0  0  0  0  0  0  0  0  0  0
   20.2425   18.7287   20.9911 H   0  0  0  0  0  0  0  0  0  0  0  0
   20.0113   20.6627   21.9542 C   0  0  0  0  0  0  0  0  0  0  0  0
   19.8081   21.0574   22.9594 H   0  0  0  0  0  0  0  0  0  0  0  0
   20.9969   21.0447   21.6540 H   0  0  0  0  0  0  0  0  0  0  0  0
   18.9406   21.1820   20.9739 C   0  0  0  0  0  0  0  0  0  0  0  0
   17.9397   20.8403   21.2686 H   0  0  0  0  0  0  0  0  0  0  0  0
   18.9324   22.2796   20.9559 H   0  0  0  0  0  0  0  0  0  0  0  0
   19.1373   20.8276   19.9536 H   0  0  0  0  0  0  0  0  0  0  0  0
  1  2  1  0  0  0  0
  1  3  2  0  0  0  0
  1  4  1  0  0  0  0
  4  5  1  0  0  0  0
  4  6  1  0  0  0  0
  4  7  1  0  0  0  0
  7  8  1  0  0  0  0
  7  9  1  0  0  0  0
  7 10  1  0  0  0  0
 10 11  1  0  0  0  0
 10 12  1  0  0  0  0
 10 13  1  0  0  0  0
 13 14  1  0  0  0  0
 13 15  1  0  0  0  0
 13 16  1  0  0  0  0
 16 17  1  0  0  0  0
 16 18  1  0  0  0  0
 16 19  1  0  0  0  0
M  END
> <VConfSearch Rank>
692

> <Conf_Id>
35

> <Delta U+W>
-0.030

> <U+W>
-54.921

> <U>
8.267

> <W>
-63.188

> <W(PB)>
-65.294

> <W(SA)>
2.106

> <Valence>
6.935

> <Coulomb>
0.875

> <VdW>
0.457

> <VdW6>
-6.205

> <VdW12>
6.662

> <Bond>
0.107

> <Angle>
2.420

> <Pdih>
4.407

> <Idih>
0.001

> <Tether>
0.000

$$$$
VeraChem MOL file


 19 18  0  0  0  0  0  0  0  0999 V2000     
   20.4864   21.1758   20.5342 C   0  0  0  0  0  0  0  0  0  0  0  0
   20.1923   20.9473   19.3775 O   0  5  0  0  0  0  0  0  0  0  0  0
   21.5243   21.7111   20.8701 O   0  0  0  0  0  0  0  0  0  0  0  0
   19.4870   20.7884   21.6208 C   0  0  0  0  0  0  0  0  0  0  0  0
   18.4975   21.1259   21.2905 H   0  0  0  0  0  0  0  0  0  0  0  0
   19.7254   21.3492   22.5327 H   0  0  0  0  0  0  0  0  0  0  0  0
   19.4398   19.2682   21.9247 C   0  0  0  0  0  0  0  0  0  0  0  0
   18.5947   19.0737   22.5972 H   0  0  0  0  0  0  0  0  0  0  0  0
   19.2395   18.7173   20.9953 H   0  0  0  0  0  0  0  0  0  0  0  0
   20.7478   18.7506   22.5698 C   0  0  0  0  0  0  0  0  0  0  0  0
   20.9260   19.2757   23.5181 H   0  0  0  0  0  0  0  0  0  0  0  0
   21.5952   18.9972   21.9155 H   0  0  0  0  0  0  0  0  0  0  0  0
   20.7494   17.2239   22.8149 C   0  0  0  0  0  0  0  0  0  0  0  0
   20.5735   16.6959   21.8676 H   0  0  0  0  0  0  0  0  0  0  0  0
   21.7496   16.9234   23.1563 H   0  0  0  0  0  0  0  0  0  0  0  0
   19.7104   16.7711   23.8634 C   0  0  0  0  0  0  0  0  0  0  0  0
   18.6853   16.9443   23.5130 H   0  0  0  0  0  0  0  0  0  0  0  0
   19.8142   15.6975   24.0673 H   0  0  0  0  0  0  0  0  0  0  0  0
   19.8472   17.3096   24.8102 H   0  0  0  0  0  0  0  0  0  0  0  0
  1  2  1  0  0  0  0
  1  3  2  0  0  0  0
  1  4  1  0  0  0  0
  4  5  1  0  0  0  0
  4  6  1  0  0  0  0
  4  7  1  0  0  0  0
  7  8  1  0  0  0  0
  7  9  1  0  0  0  0
  7 10  1  0  0  0  0
 10 11  1  0  0  0  0
 10 12  1  0  0  0  0
 10 13  1  0  0  0  0
 13 14  1  0  0  0  0
 13 15  1  0  0  0  0
 13 16  1  0  0  0  0
 16 17  1  0  0  0  0
 16 18  1  0  0  0  0
 16 19  1  0  0  0  0
M  END
> <VConfSearch Rank>
693

> <Conf_Id>
74

> <Delta U+W>
0.797

> <U+W>
-54.095

> <U>
8.869

> <W>
-62.964

> <W(PB)>
-65.046

> <W(SA)>
2.082

> <Valence>
7.469

> <Coulomb>
0.762

> <VdW>
0.639

> <VdW6>
-6.782

> <VdW12>
7.421

> <Bond>
0.141

> <Angle>
2.667

> <Pdih>
4.660

> <Idih>
0.001

> <Tether>
0.000

$$$$
VeraChem MOL file


 19 18  0  0  0  0  0  0  0  0999 V2000     
   20.0180   21.8304   22.7077 C   0  0  0  0  0  0  0  0  0  0  0  0
   19.5248   22.7096   22.0292 O   0  5  0  0  0  0  0  0  0  0  0  0
   20.2853   21.9606   23.8858 O   0  0  0  0  0  0  0  0  0  0  0  0
   20.2990   20.4846   22.0488 C   0  0  0  0  0  0  0  0  0  0  0  0
   21.1864   20.0567   22.5291 H   0  0  0  0  0  0  0  0  0  0  0  0
   20.5524   20.6658   20.9975 H   0  0  0  0  0  0  0  0  0  0  0  0
   19.1012   19.5049   22.1493 C   0  0  0  0  0  0  0  0  0  0  0  0
   18.8811   19.3010   23.2056 H   0  0  0  0  0  0  0  0  0  0  0  0
   18.2076   19.9980   21.7426 H   0  0  0  0  0  0  0  0  0  0  0  0
   19.3222   18.1760   21.3838 C   0  0  0  0  0  0  0  0  0  0  0  0
   19.4384   18.3968   20.3140 H   0  0  0  0  0  0  0  0  0  0  0  0
   18.4139   17.5642   21.4701 H   0  0  0  0  0  0  0  0  0  0  0  0
   20.5364   17.3377   21.8539 C   0  0  0  0  0  0  0  0  0  0  0  0
   20.5988   16.4339   21.2323 H   0  0  0  0  0  0  0  0  0  0  0  0
   21.4691   17.8903   21.6797 H   0  0  0  0  0  0  0  0  0  0  0  0
   20.4506   16.9154   23.3364 C   0  0  0  0  0  0  0  0  0  0  0  0
   19.5138   16.3803   23.5389 H   0  0  0  0  0  0  0  0  0  0  0  0
   21.2839   16.2494   23.5949 H   0  0  0  0  0  0  0  0  0  0  0  0
   20.5019   17.7860   24.0025 H   0  0  0  0  0  0  0  0  0  0  0  0
  1  2  1  0  0  0  0
  1  3  2  0  0  0  0
  1  4  1  0  0  0  0
  4  5  1  0  0  0  0
  4  6  1  0  0  0  0
  4  7  1  0  0  0  0
  7  8  1  0  0  0  0
  7  9  1  0  0  0  0
  7 10  1  0  0  0  0
 10 11  1  0  0  0  0
 10 12  1  0  0  0  0
 10 13  1  0  0  0  0
 13 14  1  0  0  0  0
 13 15  1  0  0  0  0
 13 16  1  0  0  0  0
 16 17  1  0  0  0  0
 16 18  1  0  0  0  0
 16 19  1  0  0  0  0
M  END
> <VConfSearch Rank>
694

> <Conf_Id>
67

> <Delta U+W>
0.308

> <U+W>
-54.583

> <U>
8.219

> <W>
-62.802

> <W(PB)>
-64.859

> <W(SA)>
2.057

> <Valence>
7.609

> <Coulomb>
-0.089

> <VdW>
0.699

> <VdW6>
-6.924

> <VdW12>
7.623

> <Bond>
0.163

> <Angle>
2.870

> <Pdih>
4.576

> <Idih>
0.001

> <Tether>
0.000

$$$$
VeraChem MOL file


 19 18  0  0  0  0  0  0  0  0999 V2000     
   19.2328   21.7549   22.4875 C   0  0  0  0  0  0  0  0  0  0  0  0
   18.8516   22.3876   23.4523 O   0  5  0  0  0  0  0  0  0  0  0  0
   19.0023   22.0769   21.3388 O   0  0  0  0  0  0  0  0  0  0  0  0
   20.0269   20.4768   22.7326 C   0  0  0  0  0  0  0  0  0  0  0  0
   20.6105   20.6087   23.6515 H   0  0  0  0  0  0  0  0  0  0  0  0
   20.7392   20.3630   21.9075 H   0  0  0  0  0  0  0  0  0  0  0  0
   19.1240   19.2214   22.8480 C   0  0  0  0  0  0  0  0  0  0  0  0
   18.3642   19.4036   23.6205 H   0  0  0  0  0  0  0  0  0  0  0  0
   18.5734   19.0775   21.9089 H   0  0  0  0  0  0  0  0  0  0  0  0
   19.9004   17.9317   23.2148 C   0  0  0  0  0  0  0  0  0  0  0  0
   19.1832   17.1061   23.3190 H   0  0  0  0  0  0  0  0  0  0  0  0
   20.3587   18.0618   24.2046 H   0  0  0  0  0  0  0  0  0  0  0  0
   21.0003   17.5147   22.2077 C   0  0  0  0  0  0  0  0  0  0  0  0
   21.7854   18.2810   22.1646 H   0  0  0  0  0  0  0  0  0  0  0  0
   21.4870   16.6026   22.5796 H   0  0  0  0  0  0  0  0  0  0  0  0
   20.4583   17.2441   20.7877 C   0  0  0  0  0  0  0  0  0  0  0  0
   20.0644   18.1604   20.3299 H   0  0  0  0  0  0  0  0  0  0  0  0
   21.2570   16.8643   20.1375 H   0  0  0  0  0  0  0  0  0  0  0  0
   19.6550   16.4963   20.8096 H   0  0  0  0  0  0  0  0  0  0  0  0
  1  2  1  0  0  0  0
  1  3  2  0  0  0  0
  1  4  1  0  0  0  0
  4  5  1  0  0  0  0
  4  6  1  0  0  0  0
  4  7  1  0  0  0  0
  7  8  1  0  0  0  0
  7  9  1  0  0  0  0
  7 10  1  0  0  0  0
 10 11  1  0  0  0  0
 10 12  1  0  0  0  0
 10 13  1  0  0  0  0
 13 14  1  0  0  0  0
 13 15  1  0  0  0  0
 13 16  1  0  0  0  0
 16 17  1  0  0  0  0
 16 18  1  0  0  0  0
 16 19  1  0  0  0  0
M  END
> <VConfSearch Rank>
695

> <Conf_Id>
21

> <Delta U+W>
0.319

> <U+W>
-54.572

> <U>
8.220

> <W>
-62.792

> <W(PB)>
-64.830

> <W(SA)>
2.038

> <Valence>
7.609

> <Coulomb>
-0.088

> <VdW>
0.699

> <VdW6>
-6.924

> <VdW12>
7.623

> <Bond>
0.163

> <Angle>
2.870

> <Pdih>
4.576

> <Idih>
0.000

> <Tether>
0.000

$$$$
VeraChem MOL file


 19 18  0  0  0  0  0  0  0  0999 V2000     
   21.4600   16.4688   21.8869 C   0  0  0  0  0  0  0  0  0  0  0  0
   22.2235   16.1558   20.9949 O   0  5  0  0  0  0  0  0  0  0  0  0
   21.4603   15.9491   22.9852 O   0  0  0  0  0  0  0  0  0  0  0  0
   20.4596   17.5874   21.6188 C   0  0  0  0  0  0  0  0  0  0  0  0
   19.5568   17.3770   22.2006 H   0  0  0  0  0  0  0  0  0  0  0  0
   20.1754   17.5405   20.5607 H   0  0  0  0  0  0  0  0  0  0  0  0
   21.0253   18.9926   21.9548 C   0  0  0  0  0  0  0  0  0  0  0  0
   21.3648   19.0239   22.9994 H   0  0  0  0  0  0  0  0  0  0  0  0
   21.9201   19.1528   21.3376 H   0  0  0  0  0  0  0  0  0  0  0  0
   20.0227   20.1426   21.6820 C   0  0  0  0  0  0  0  0  0  0  0  0
   19.3457   19.8708   20.8606 H   0  0  0  0  0  0  0  0  0  0  0  0
   20.5905   21.0129   21.3252 H   0  0  0  0  0  0  0  0  0  0  0  0
   19.2059   20.5949   22.9173 C   0  0  0  0  0  0  0  0  0  0  0  0
   19.8895   20.9490   23.7012 H   0  0  0  0  0  0  0  0  0  0  0  0
   18.5922   21.4602   22.6312 H   0  0  0  0  0  0  0  0  0  0  0  0
   18.2819   19.5050   23.4988 C   0  0  0  0  0  0  0  0  0  0  0  0
   17.6391   19.9256   24.2829 H   0  0  0  0  0  0  0  0  0  0  0  0
   17.6339   19.0809   22.7208 H   0  0  0  0  0  0  0  0  0  0  0  0
   18.8645   18.6925   23.9507 H   0  0  0  0  0  0  0  0  0  0  0  0
  1  2  1  0  0  0  0
  1  3  2  0  0  0  0
  1  4  1  0  0  0  0
  4  5  1  0  0  0  0
  4  6  1  0  0  0  0
  4  7  1  0  0  0  0
  7  8  1  0  0  0  0
  7  9  1  0  0  0  0
  7 10  1  0  0  0  0
 10 11  1  0  0  0  0
 10 12  1  0  0  0  0
 10 13  1  0  0  0  0
 13 14  1  0  0  0  0
 13 15  1  0  0  0  0
 13 16  1  0  0  0  0
 16 17  1  0  0  0  0
 16 18  1  0  0  0  0
 16 19  1  0  0  0  0
M  END
> <VConfSearch Rank>
696

> <Conf_Id>
24

> <Delta U+W>
2.477

> <U+W>
-52.414

> <U>
10.422

> <W>
-62.836

> <W(PB)>
-64.906

> <W(SA)>
2.070

> <Valence>
9.628

> <Coulomb>
0.101

> <VdW>
0.693

> <VdW6>
-6.927

> <VdW12>
7.620

> <Bond>
0.173

> <Angle>
2.989

> <Pdih>
6.465

> <Idih>
0.001

> <Tether>
0.000

$$$$
VeraChem MOL file


 19 18  0  0  0  0  0  0  0  0999 V2000     
   20.6743   18.1585   24.7225 C   0  0  0  0  0  0  0  0  0  0  0  0
   21.4471   19.0681   24.9507 O   0  5  0  0  0  0  0  0  0  0  0  0
   20.0780   17.5514   25.5902 O   0  0  0  0  0  0  0  0  0  0  0  0
   20.4611   17.7343   23.2717 C   0  0  0  0  0  0  0  0  0  0  0  0
   20.5625   16.6434   23.2353 H   0  0  0  0  0  0  0  0  0  0  0  0
   21.2768   18.1451   22.6684 H   0  0  0  0  0  0  0  0  0  0  0  0
   19.0778   18.1409   22.6918 C   0  0  0  0  0  0  0  0  0  0  0  0
   18.9130   17.6330   21.7320 H   0  0  0  0  0  0  0  0  0  0  0  0
   18.3007   17.7629   23.3706 H   0  0  0  0  0  0  0  0  0  0  0  0
   18.8863   19.6698   22.5153 C   0  0  0  0  0  0  0  0  0  0  0  0
   19.4687   20.2201   23.2668 H   0  0  0  0  0  0  0  0  0  0  0  0
   17.8339   19.9073   22.7223 H   0  0  0  0  0  0  0  0  0  0  0  0
   19.2135   20.2023   21.0985 C   0  0  0  0  0  0  0  0  0  0  0  0
   18.5638   19.7118   20.3606 H   0  0  0  0  0  0  0  0  0  0  0  0
   18.9655   21.2721   21.0632 H   0  0  0  0  0  0  0  0  0  0  0  0
   20.6880   20.0237   20.6821 C   0  0  0  0  0  0  0  0  0  0  0  0
   20.9331   18.9640   20.5395 H   0  0  0  0  0  0  0  0  0  0  0  0
   20.8841   20.5389   19.7329 H   0  0  0  0  0  0  0  0  0  0  0  0
   21.3643   20.4401   21.4403 H   0  0  0  0  0  0  0  0  0  0  0  0
  1  2  1  0  0  0  0
  1  3  2  0  0  0  0
  1  4  1  0  0  0  0
  4  5  1  0  0  0  0
  4  6  1  0  0  0  0
  4  7  1  0  0  0  0
  7  8  1  0  0  0  0
  7  9  1  0  0  0  0
  7 10  1  0  0  0  0
 10 11  1  0  0  0  0
 10 12  1  0  0  0  0
 10 13  1  0  0  0  0
 13 14  1  0  0  0  0
 13 15  1  0  0  0  0
 13 16  1  0  0  0  0
 16 17  1  0  0  0  0
 16 18  1  0  0  0  0
 16 19  1  0  0  0  0
M  END
> <VConfSearch Rank>
697

> <Conf_Id>
4

> <Delta U+W>
3.753

> <U+W>
-51.138

> <U>
12.334

> <W>
-63.472

> <W(PB)>
-65.500

> <W(SA)>
2.028

> <Valence>
9.984

> <Coulomb>
1.767

> <VdW>
0.583

> <VdW6>
-7.767

> <VdW12>
8.349

> <Bond>
0.203

> <Angle>
3.191

> <Pdih>
6.589

> <Idih>
0.001

> <Tether>
0.000

$$$$
VeraChem MOL file


 19 18  0  0  0  0  0  0  0  0999 V2000     
   19.4438   16.4884   21.5406 C   0  0  0  0  0  0  0  0  0  0  0  0
   20.1919   15.5499   21.3491 O   0  5  0  0  0  0  0  0  0  0  0  0
   18.3465   16.3780   22.0507 O   0  0  0  0  0  0  0  0  0  0  0  0
   19.8979   17.8740   21.0886 C   0  0  0  0  0  0  0  0  0  0  0  0
   19.0200   18.5260   21.0396 H   0  0  0  0  0  0  0  0  0  0  0  0
   20.2716   17.7734   20.0629 H   0  0  0  0  0  0  0  0  0  0  0  0
   21.0075   18.4970   21.9805 C   0  0  0  0  0  0  0  0  0  0  0  0
   21.8323   17.7743   22.0507 H   0  0  0  0  0  0  0  0  0  0  0  0
   21.4257   19.3851   21.4880 H   0  0  0  0  0  0  0  0  0  0  0  0
   20.5411   18.8633   23.4136 C   0  0  0  0  0  0  0  0  0  0  0  0
   21.3796   18.6853   24.1006 H   0  0  0  0  0  0  0  0  0  0  0  0
   19.7392   18.1879   23.7420 H   0  0  0  0  0  0  0  0  0  0  0  0
   20.0981   20.3363   23.5918 C   0  0  0  0  0  0  0  0  0  0  0  0
   19.8700   20.5049   24.6533 H   0  0  0  0  0  0  0  0  0  0  0  0
   20.9346   21.0055   23.3474 H   0  0  0  0  0  0  0  0  0  0  0  0
   18.8647   20.7304   22.7535 C   0  0  0  0  0  0  0  0  0  0  0  0
   18.0347   20.0318   22.9222 H   0  0  0  0  0  0  0  0  0  0  0  0
   18.5216   21.7371   23.0249 H   0  0  0  0  0  0  0  0  0  0  0  0
   19.1012   20.7397   21.6823 H   0  0  0  0  0  0  0  0  0  0  0  0
  1  2  1  0  0  0  0
  1  3  2  0  0  0  0
  1  4  1  0  0  0  0
  4  5  1  0  0  0  0
  4  6  1  0  0  0  0
  4  7  1  0  0  0  0
  7  8  1  0  0  0  0
  7  9  1  0  0  0  0
  7 10  1  0  0  0  0
 10 11  1  0  0  0  0
 10 12  1  0  0  0  0
 10 13  1  0  0  0  0
 13 14  1  0  0  0  0
 13 15  1  0  0  0  0
 13 16  1  0  0  0  0
 16 17  1  0  0  0  0
 16 18  1  0  0  0  0
 16 19  1  0  0  0  0
M  END
> <VConfSearch Rank>
698

> <Conf_Id>
73

> <Delta U+W>
3.707

> <U+W>
-51.184

> <U>
12.334

> <W>
-63.519

> <W(PB)>
-65.541

> <W(SA)>
2.022

> <Valence>
9.984

> <Coulomb>
1.768

> <VdW>
0.583

> <VdW6>
-7.767

> <VdW12>
8.350

> <Bond>
0.203

> <Angle>
3.192

> <Pdih>
6.589

> <Idih>
0.001

> <Tether>
0.000

$$$$
VeraChem MOL file


 19 18  0  0  0  0  0  0  0  0999 V2000     
   22.3497   19.3658   22.9550 C   0  0  0  0  0  0  0  0  0  0  0  0
   22.6038   18.2032   23.2009 O   0  5  0  0  0  0  0  0  0  0  0  0
   23.1417   20.1317   22.4419 O   0  0  0  0  0  0  0  0  0  0  0  0
   20.9743   19.9042   23.3391 C   0  0  0  0  0  0  0  0  0  0  0  0
   21.1325   20.8284   23.9070 H   0  0  0  0  0  0  0  0  0  0  0  0
   20.4983   19.1954   24.0264 H   0  0  0  0  0  0  0  0  0  0  0  0
   20.0464   20.1976   22.1287 C   0  0  0  0  0  0  0  0  0  0  0  0
   19.1128   20.6482   22.4895 H   0  0  0  0  0  0  0  0  0  0  0  0
   20.5236   20.9587   21.4962 H   0  0  0  0  0  0  0  0  0  0  0  0
   19.7231   18.9586   21.2543 C   0  0  0  0  0  0  0  0  0  0  0  0
   20.6524   18.5883   20.8001 H   0  0  0  0  0  0  0  0  0  0  0  0
   19.0838   19.2741   20.4187 H   0  0  0  0  0  0  0  0  0  0  0  0
   19.0338   17.7885   21.9980 C   0  0  0  0  0  0  0  0  0  0  0  0
   18.8719   16.9684   21.2851 H   0  0  0  0  0  0  0  0  0  0  0  0
   19.7017   17.3882   22.7727 H   0  0  0  0  0  0  0  0  0  0  0  0
   17.6776   18.1762   22.6256 C   0  0  0  0  0  0  0  0  0  0  0  0
   17.8056   18.9148   23.4269 H   0  0  0  0  0  0  0  0  0  0  0  0
   17.0021   18.5993   21.8708 H   0  0  0  0  0  0  0  0  0  0  0  0
   17.1897   17.2945   23.0608 H   0  0  0  0  0  0  0  0  0  0  0  0
  1  2  1  0  0  0  0
  1  3  2  0  0  0  0
  1  4  1  0  0  0  0
  4  5  1  0  0  0  0
  4  6  1  0  0  0  0
  4  7  1  0  0  0  0
  7  8  1  0  0  0  0
  7  9  1  0  0  0  0
  7 10  1  0  0  0  0
 10 11  1  0  0  0  0
 10 12  1  0  0  0  0
 10 13  1  0  0  0  0
 13 14  1  0  0  0  0
 13 15  1  0  0  0  0
 13 16  1  0  0  0  0
 16 17  1  0  0  0  0
 16 18  1  0  0  0  0
 16 19  1  0  0  0  0
M  END
> <VConfSearch Rank>
699

> <Conf_Id>
56

> <Delta U+W>
1.735

> <U+W>
-53.156

> <U>
10.214

> <W>
-63.370

> <W(PB)>
-65.388

> <W(SA)>
2.018

> <Valence>
7.868

> <Coulomb>
1.968

> <VdW>
0.378

> <VdW6>
-8.067

> <VdW12>
8.445

> <Bond>
0.191

> <Angle>
3.117

> <Pdih>
4.559

> <Idih>
0.001

> <Tether>
0.000

$$$$
VeraChem MOL file


 19 18  0  0  0  0  0  0  0  0999 V2000     
   21.3917   20.6226   24.2158 C   0  0  0  0  0  0  0  0  0  0  0  0
   22.4324   21.1911   23.9508 O   0  5  0  0  0  0  0  0  0  0  0  0
   20.9482   20.5235   25.3426 O   0  0  0  0  0  0  0  0  0  0  0  0
   20.6110   19.9803   23.0746 C   0  0  0  0  0  0  0  0  0  0  0  0
   20.7821   20.5727   22.1679 H   0  0  0  0  0  0  0  0  0  0  0  0
   19.5456   20.0523   23.3203 H   0  0  0  0  0  0  0  0  0  0  0  0
   21.0082   18.5023   22.8322 C   0  0  0  0  0  0  0  0  0  0  0  0
   22.1007   18.4442   22.7304 H   0  0  0  0  0  0  0  0  0  0  0  0
   20.7503   17.9084   23.7199 H   0  0  0  0  0  0  0  0  0  0  0  0
   20.3640   17.8655   21.5753 C   0  0  0  0  0  0  0  0  0  0  0  0
   20.7604   16.8451   21.4822 H   0  0  0  0  0  0  0  0  0  0  0  0
   20.6933   18.3970   20.6720 H   0  0  0  0  0  0  0  0  0  0  0  0
   18.8179   17.7799   21.6135 C   0  0  0  0  0  0  0  0  0  0  0  0
   18.5060   16.8497   21.1187 H   0  0  0  0  0  0  0  0  0  0  0  0
   18.4656   17.7063   22.6517 H   0  0  0  0  0  0  0  0  0  0  0  0
   18.1238   18.9577   20.8941 C   0  0  0  0  0  0  0  0  0  0  0  0
   17.0329   18.8420   20.9337 H   0  0  0  0  0  0  0  0  0  0  0  0
   18.3743   19.9214   21.3515 H   0  0  0  0  0  0  0  0  0  0  0  0
   18.4184   18.9976   19.8373 H   0  0  0  0  0  0  0  0  0  0  0  0
  1  2  1  0  0  0  0
  1  3  2  0  0  0  0
  1  4  1  0  0  0  0
  4  5  1  0  0  0  0
  4  6  1  0  0  0  0
  4  7  1  0  0  0  0
  7  8  1  0  0  0  0
  7  9  1  0  0  0  0
  7 10  1  0  0  0  0
 10 11  1  0  0  0  0
 10 12  1  0  0  0  0
 10 13  1  0  0  0  0
 13 14  1  0  0  0  0
 13 15  1  0  0  0  0
 13 16  1  0  0  0  0
 16 17  1  0  0  0  0
 16 18  1  0  0  0  0
 16 19  1  0  0  0  0
M  END
> <VConfSearch Rank>
700

> <Conf_Id>
53

> <Delta U+W>
2.279

> <U+W>
-52.612

> <U>
10.231

> <W>
-62.843

> <W(PB)>
-64.893

> <W(SA)>
2.050

> <Valence>
9.644

> <Coulomb>
-0.164

> <VdW>
0.751

> <VdW6>
-6.881

> <VdW12>
7.631

> <Bond>
0.163

> <Angle>
2.998

> <Pdih>
6.482

> <Idih>
0.001

> <Tether>
0.000

$$$$
VeraChem MOL file


 19 18  0  0  0  0  0  0  0  0999 V2000     
   21.8268   20.1352   23.7569 C   0  0  0  0  0  0  0  0  0  0  0  0
   21.1605   20.8796   24.4488 O   0  5  0  0  0  0  0  0  0  0  0  0
   22.6835   20.5241   22.9874 O   0  0  0  0  0  0  0  0  0  0  0  0
   21.6237   18.6295   23.9159 C   0  0  0  0  0  0  0  0  0  0  0  0
   20.8603   18.4515   24.6830 H   0  0  0  0  0  0  0  0  0  0  0  0
   22.5651   18.2317   24.3125 H   0  0  0  0  0  0  0  0  0  0  0  0
   21.2629   17.8665   22.6103 C   0  0  0  0  0  0  0  0  0  0  0  0
   21.9065   18.2071   21.7873 H   0  0  0  0  0  0  0  0  0  0  0  0
   21.5020   16.8052   22.7611 H   0  0  0  0  0  0  0  0  0  0  0  0
   19.7741   17.9596   22.1938 C   0  0  0  0  0  0  0  0  0  0  0  0
   19.1370   17.6110   23.0181 H   0  0  0  0  0  0  0  0  0  0  0  0
   19.6080   17.2637   21.3600 H   0  0  0  0  0  0  0  0  0  0  0  0
   19.3296   19.3725   21.7559 C   0  0  0  0  0  0  0  0  0  0  0  0
   19.3610   20.0593   22.6112 H   0  0  0  0  0  0  0  0  0  0  0  0
   20.0262   19.7652   21.0022 H   0  0  0  0  0  0  0  0  0  0  0  0
   17.8997   19.3619   21.1786 C   0  0  0  0  0  0  0  0  0  0  0  0
   17.1793   18.9971   21.9224 H   0  0  0  0  0  0  0  0  0  0  0  0
   17.5961   20.3738   20.8805 H   0  0  0  0  0  0  0  0  0  0  0  0
   17.8372   18.7150   20.2938 H   0  0  0  0  0  0  0  0  0  0  0  0
  1  2  1  0  0  0  0
  1  3  2  0  0  0  0
  1  4  1  0  0  0  0
  4  5  1  0  0  0  0
  4  6  1  0  0  0  0
  4  7  1  0  0  0  0
  7  8  1  0  0  0  0
  7  9  1  0  0  0  0
  7 10  1  0  0  0  0
 10 11  1  0  0  0  0
 10 12  1  0  0  0  0
 10 13  1  0  0  0  0
 13 14  1  0  0  0  0
 13 15  1  0  0  0  0
 13 16  1  0  0  0  0
 16 17  1  0  0  0  0
 16 18  1  0  0  0  0
 16 19  1  0  0  0  0
M  END
> <VConfSearch Rank>
701

> <Conf_Id>
25

> <Delta U+W>
2.065

> <U+W>
-52.826

> <U>
10.967

> <W>
-63.794

> <W(PB)>
-65.830

> <W(SA)>
2.036

> <Valence>
8.609

> <Coulomb>
1.892

> <VdW>
0.467

> <VdW6>
-7.569

> <VdW12>
8.036

> <Bond>
0.170

> <Angle>
3.195

> <Pdih>
5.237

> <Idih>
0.007

> <Tether>
0.000

$$$$
VeraChem MOL file


 19 18  0  0  0  0  0  0  0  0999 V2000     
   18.2673   19.3451   21.0219 C   0  0  0  0  0  0  0  0  0  0  0  0
   17.3538   18.5844   21.2753 O   0  5  0  0  0  0  0  0  0  0  0  0
   18.7956   19.4168   19.9298 O   0  0  0  0  0  0  0  0  0  0  0  0
   18.7302   20.3113   22.1108 C   0  0  0  0  0  0  0  0  0  0  0  0
   17.8737   20.9584   22.3332 H   0  0  0  0  0  0  0  0  0  0  0  0
   19.5151   20.9595   21.7026 H   0  0  0  0  0  0  0  0  0  0  0  0
   19.2147   19.6439   23.4287 C   0  0  0  0  0  0  0  0  0  0  0  0
   19.1647   20.3960   24.2276 H   0  0  0  0  0  0  0  0  0  0  0  0
   18.5193   18.8451   23.7219 H   0  0  0  0  0  0  0  0  0  0  0  0
   20.6634   19.0977   23.3858 C   0  0  0  0  0  0  0  0  0  0  0  0
   20.9458   18.7969   24.4040 H   0  0  0  0  0  0  0  0  0  0  0  0
   21.3538   19.9027   23.0993 H   0  0  0  0  0  0  0  0  0  0  0  0
   20.8536   17.8901   22.4418 C   0  0  0  0  0  0  0  0  0  0  0  0
   20.0972   17.1237   22.6603 H   0  0  0  0  0  0  0  0  0  0  0  0
   20.7054   18.1998   21.3994 H   0  0  0  0  0  0  0  0  0  0  0  0
   22.2618   17.2780   22.5834 C   0  0  0  0  0  0  0  0  0  0  0  0
   22.3836   16.4272   21.9004 H   0  0  0  0  0  0  0  0  0  0  0  0
   23.0369   18.0180   22.3448 H   0  0  0  0  0  0  0  0  0  0  0  0
   22.4336   16.9183   23.6064 H   0  0  0  0  0  0  0  0  0  0  0  0
  1  2  1  0  0  0  0
  1  3  2  0  0  0  0
  1  4  1  0  0  0  0
  4  5  1  0  0  0  0
  4  6  1  0  0  0  0
  4  7  1  0  0  0  0
  7  8  1  0  0  0  0
  7  9  1  0  0  0  0
  7 10  1  0  0  0  0
 10 11  1  0  0  0  0
 10 12  1  0  0  0  0
 10 13  1  0  0  0  0
 13 14  1  0  0  0  0
 13 15  1  0  0  0  0
 13 16  1  0  0  0  0
 16 17  1  0  0  0  0
 16 18  1  0  0  0  0
 16 19  1  0  0  0  0
M  END
> <VConfSearch Rank>
702

> <Conf_Id>
52

> <Delta U+W>
2.070

> <U+W>
-52.822

> <U>
10.967

> <W>
-63.789

> <W(PB)>
-65.837

> <W(SA)>
2.048

> <Valence>
8.609

> <Coulomb>
1.892

> <VdW>
0.467

> <VdW6>
-7.569

> <VdW12>
8.035

> <Bond>
0.170

> <Angle>
3.196

> <Pdih>
5.237

> <Idih>
0.007

> <Tether>
0.000

$$$$
VeraChem MOL file


 19 18  0  0  0  0  0  0  0  0999 V2000     
   18.9063   20.4693   21.5070 C   0  0  0  0  0  0  0  0  0  0  0  0
   17.7492   20.5448   21.8722 O   0  5  0  0  0  0  0  0  0  0  0  0
   19.6579   21.4237   21.4771 O   0  0  0  0  0  0  0  0  0  0  0  0
   19.4116   19.1426   20.9377 C   0  0  0  0  0  0  0  0  0  0  0  0
   20.4981   19.2025   20.8022 H   0  0  0  0  0  0  0  0  0  0  0  0
   18.9762   19.0581   19.9355 H   0  0  0  0  0  0  0  0  0  0  0  0
   19.0414   17.8718   21.7547 C   0  0  0  0  0  0  0  0  0  0  0  0
   18.0064   17.9460   22.1161 H   0  0  0  0  0  0  0  0  0  0  0  0
   19.0557   17.0141   21.0687 H   0  0  0  0  0  0  0  0  0  0  0  0
   19.9903   17.5401   22.9348 C   0  0  0  0  0  0  0  0  0  0  0  0
   21.0084   17.3663   22.5602 H   0  0  0  0  0  0  0  0  0  0  0  0
   19.6642   16.5810   23.3601 H   0  0  0  0  0  0  0  0  0  0  0  0
   20.0080   18.5874   24.0744 C   0  0  0  0  0  0  0  0  0  0  0  0
   19.0839   19.1818   24.0644 H   0  0  0  0  0  0  0  0  0  0  0  0
   20.0207   18.0617   25.0391 H   0  0  0  0  0  0  0  0  0  0  0  0
   21.2421   19.5130   24.0161 C   0  0  0  0  0  0  0  0  0  0  0  0
   22.1695   18.9361   24.1260 H   0  0  0  0  0  0  0  0  0  0  0  0
   21.2922   20.0565   23.0654 H   0  0  0  0  0  0  0  0  0  0  0  0
   21.2068   20.2535   24.8254 H   0  0  0  0  0  0  0  0  0  0  0  0
  1  2  1  0  0  0  0
  1  3  2  0  0  0  0
  1  4  1  0  0  0  0
  4  5  1  0  0  0  0
  4  6  1  0  0  0  0
  4  7  1  0  0  0  0
  7  8  1  0  0  0  0
  7  9  1  0  0  0  0
  7 10  1  0  0  0  0
 10 11  1  0  0  0  0
 10 12  1  0  0  0  0
 10 13  1  0  0  0  0
 13 14  1  0  0  0  0
 13 15  1  0  0  0  0
 13 16  1  0  0  0  0
 16 17  1  0  0  0  0
 16 18  1  0  0  0  0
 16 19  1  0  0  0  0
M  END
> <VConfSearch Rank>
703

> <Conf_Id>
66

> <Delta U+W>
5.819

> <U+W>
-49.072

> <U>
15.324

> <W>
-64.396

> <W(PB)>
-66.382

> <W(SA)>
1.986

> <Valence>
11.748

> <Coulomb>
3.201

> <VdW>
0.375

> <VdW6>
-8.854

> <VdW12>
9.229

> <Bond>
0.216

> <Angle>
3.812

> <Pdih>
7.699

> <Idih>
0.022

> <Tether>
0.000

$$$$
VeraChem MOL file


 19 18  0  0  0  0  0  0  0  0999 V2000     
   17.5985   21.2769   22.7695 C   0  0  0  0  0  0  0  0  0  0  0  0
   17.2972   22.1218   23.5886 O   0  5  0  0  0  0  0  0  0  0  0  0
   16.9437   21.0601   21.7683 O   0  0  0  0  0  0  0  0  0  0  0  0
   18.8661   20.4642   23.0387 C   0  0  0  0  0  0  0  0  0  0  0  0
   18.7436   19.9807   24.0150 H   0  0  0  0  0  0  0  0  0  0  0  0
   19.6959   21.1744   23.1343 H   0  0  0  0  0  0  0  0  0  0  0  0
   19.2103   19.3976   21.9652 C   0  0  0  0  0  0  0  0  0  0  0  0
   18.3727   18.6927   21.8702 H   0  0  0  0  0  0  0  0  0  0  0  0
   19.3260   19.8876   20.9885 H   0  0  0  0  0  0  0  0  0  0  0  0
   20.5013   18.6262   22.3156 C   0  0  0  0  0  0  0  0  0  0  0  0
   20.3835   18.1372   23.2924 H   0  0  0  0  0  0  0  0  0  0  0  0
   21.3373   19.3328   22.4102 H   0  0  0  0  0  0  0  0  0  0  0  0
   20.8416   17.5664   21.2472 C   0  0  0  0  0  0  0  0  0  0  0  0
   20.0084   16.8565   21.1509 H   0  0  0  0  0  0  0  0  0  0  0  0
   20.9622   18.0519   20.2688 H   0  0  0  0  0  0  0  0  0  0  0  0
   22.1309   16.7982   21.6003 C   0  0  0  0  0  0  0  0  0  0  0  0
   22.0267   16.2764   22.5607 H   0  0  0  0  0  0  0  0  0  0  0  0
   22.3579   16.0491   20.8305 H   0  0  0  0  0  0  0  0  0  0  0  0
   22.9877   17.4809   21.6720 H   0  0  0  0  0  0  0  0  0  0  0  0
  1  2  1  0  0  0  0
  1  3  2  0  0  0  0
  1  4  1  0  0  0  0
  4  5  1  0  0  0  0
  4  6  1  0  0  0  0
  4  7  1  0  0  0  0
  7  8  1  0  0  0  0
  7  9  1  0  0  0  0
  7 10  1  0  0  0  0
 10 11  1  0  0  0  0
 10 12  1  0  0  0  0
 10 13  1  0  0  0  0
 13 14  1  0  0  0  0
 13 15  1  0  0  0  0
 13 16  1  0  0  0  0
 16 17  1  0  0  0  0
 16 18  1  0  0  0  0
 16 19  1  0  0  0  0
M  END
> <VConfSearch Rank>
704

> <Conf_Id>
0

> <Delta U+W>
0.000

> <U+W>
-54.891

> <U>
6.966

> <W>
-61.857

> <W(PB)>
-63.965

> <W(SA)>
2.108

> <Valence>
7.175

> <Coulomb>
-1.360

> <VdW>
1.151

> <VdW6>
-5.641

> <VdW12>
6.792

> <Bond>
0.119

> <Angle>
2.715

> <Pdih>
4.340

> <Idih>
0.000

> <Tether>
0.000

$$$$
VeraChem MOL file


 19 18  0  0  0  0  0  0  0  0999 V2000     
   18.1490   21.1065   24.0444 C   0  0  0  0  0  0  0  0  0  0  0  0
   17.7585   22.0984   23.4614 O   0  5  0  0  0  0  0  0  0  0  0  0
   17.5660   20.6064   24.9858 O   0  0  0  0  0  0  0  0  0  0  0  0
   19.4302   20.4409   23.5547 C   0  0  0  0  0  0  0  0  0  0  0  0
   19.9339   19.9930   24.4199 H   0  0  0  0  0  0  0  0  0  0  0  0
   20.0923   21.2226   23.1632 H   0  0  0  0  0  0  0  0  0  0  0  0
   19.1737   19.3655   22.4703 C   0  0  0  0  0  0  0  0  0  0  0  0
   18.4994   18.5973   22.8736 H   0  0  0  0  0  0  0  0  0  0  0  0
   18.6577   19.8269   21.6168 H   0  0  0  0  0  0  0  0  0  0  0  0
   20.4857   18.7075   21.9918 C   0  0  0  0  0  0  0  0  0  0  0  0
   20.9998   18.2484   22.8474 H   0  0  0  0  0  0  0  0  0  0  0  0
   21.1581   19.4782   21.5904 H   0  0  0  0  0  0  0  0  0  0  0  0
   20.2271   17.6366   20.9116 C   0  0  0  0  0  0  0  0  0  0  0  0
   19.5563   16.8628   21.3100 H   0  0  0  0  0  0  0  0  0  0  0  0
   19.7147   18.0924   20.0530 H   0  0  0  0  0  0  0  0  0  0  0  0
   21.5393   16.9816   20.4361 C   0  0  0  0  0  0  0  0  0  0  0  0
   21.3371   16.2231   19.6687 H   0  0  0  0  0  0  0  0  0  0  0  0
   22.2172   17.7291   20.0036 H   0  0  0  0  0  0  0  0  0  0  0  0
   22.0577   16.4903   21.2700 H   0  0  0  0  0  0  0  0  0  0  0  0
  1  2  1  0  0  0  0
  1  3  2  0  0  0  0
  1  4  1  0  0  0  0
  4  5  1  0  0  0  0
  4  6  1  0  0  0  0
  4  7  1  0  0  0  0
  7  8  1  0  0  0  0
  7  9  1  0  0  0  0
  7 10  1  0  0  0  0
 10 11  1  0  0  0  0
 10 12  1  0  0  0  0
 10 13  1  0  0  0  0
 13 14  1  0  0  0  0
 13 15  1  0  0  0  0
 13 16  1  0  0  0  0
 16 17  1  0  0  0  0
 16 18  1  0  0  0  0
 16 19  1  0  0  0  0
M  END
> <VConfSearch Rank>
705

> <Conf_Id>
18

> <Delta U+W>
-1.199

> <U+W>
-56.090

> <U>
5.975

> <W>
-62.066

> <W(PB)>
-64.219

> <W(SA)>
2.153

> <Valence>
6.673

> <Coulomb>
-1.307

> <VdW>
0.610

> <VdW6>
-5.351

> <VdW12>
5.961

> <Bond>
0.086

> <Angle>
2.253

> <Pdih>
4.333

> <Idih>
0.001

> <Tether>
0.000

$$$$
VeraChem MOL file


 19 18  0  0  0  0  0  0  0  0999 V2000     
   22.4986   18.2825   24.0820 C   0  0  0  0  0  0  0  0  0  0  0  0
   22.7459   17.1773   24.5222 O   0  5  0  0  0  0  0  0  0  0  0  0
   23.3116   19.1840   24.0331 O   0  0  0  0  0  0  0  0  0  0  0  0
   21.0973   18.5456   23.5420 C   0  0  0  0  0  0  0  0  0  0  0  0
   20.8576   19.5973   23.7353 H   0  0  0  0  0  0  0  0  0  0  0  0
   20.3902   17.9388   24.1202 H   0  0  0  0  0  0  0  0  0  0  0  0
   20.9664   18.2240   22.0305 C   0  0  0  0  0  0  0  0  0  0  0  0
   21.6472   18.8689   21.4578 H   0  0  0  0  0  0  0  0  0  0  0  0
   21.3006   17.1912   21.8597 H   0  0  0  0  0  0  0  0  0  0  0  0
   19.5248   18.3742   21.4894 C   0  0  0  0  0  0  0  0  0  0  0  0
   18.8482   17.7219   22.0583 H   0  0  0  0  0  0  0  0  0  0  0  0
   19.5029   18.0150   20.4514 H   0  0  0  0  0  0  0  0  0  0  0  0
   19.0022   19.8278   21.5286 C   0  0  0  0  0  0  0  0  0  0  0  0
   18.9441   20.1815   22.5664 H   0  0  0  0  0  0  0  0  0  0  0  0
   19.7052   20.4888   21.0030 H   0  0  0  0  0  0  0  0  0  0  0  0
   17.6080   19.9445   20.8807 C   0  0  0  0  0  0  0  0  0  0  0  0
   17.2494   20.9814   20.9189 H   0  0  0  0  0  0  0  0  0  0  0  0
   17.6365   19.6346   19.8278 H   0  0  0  0  0  0  0  0  0  0  0  0
   16.8778   19.3137   21.4044 H   0  0  0  0  0  0  0  0  0  0  0  0
  1  2  1  0  0  0  0
  1  3  2  0  0  0  0
  1  4  1  0  0  0  0
  4  5  1  0  0  0  0
  4  6  1  0  0  0  0
  4  7  1  0  0  0  0
  7  8  1  0  0  0  0
  7  9  1  0  0  0  0
  7 10  1  0  0  0  0
 10 11  1  0  0  0  0
 10 12  1  0  0  0  0
 10 13  1  0  0  0  0
 13 14  1  0  0  0  0
 13 15  1  0  0  0  0
 13 16  1  0  0  0  0
 16 17  1  0  0  0  0
 16 18  1  0  0  0  0
 16 19  1  0  0  0  0
M  END
> <VConfSearch Rank>
706

> <Conf_Id>
34

> <Delta U+W>
-0.563

> <U+W>
-55.455

> <U>
6.914

> <W>
-62.369

> <W(PB)>
-64.446

> <W(SA)>
2.077

> <Valence>
7.196

> <Coulomb>
-1.020

> <VdW>
0.738

> <VdW6>
-6.010

> <VdW12>
6.748

> <Bond>
0.126

> <Angle>
2.499

> <Pdih>
4.570

> <Idih>
0.001

> <Tether>
0.000

$$$$
VeraChem MOL file


 19 18  0  0  0  0  0  0  0  0999 V2000     
   21.2455   16.0285   21.6022 C   0  0  0  0  0  0  0  0  0  0  0  0
   22.3597   15.6990   21.9576 O   0  5  0  0  0  0  0  0  0  0  0  0
   20.6184   15.4523   20.7356 O   0  0  0  0  0  0  0  0  0  0  0  0
   20.6085   17.2448   22.2648 C   0  0  0  0  0  0  0  0  0  0  0  0
   20.9666   17.2950   23.3001 H   0  0  0  0  0  0  0  0  0  0  0  0
   19.5265   17.0754   22.3026 H   0  0  0  0  0  0  0  0  0  0  0  0
   20.9289   18.5688   21.5235 C   0  0  0  0  0  0  0  0  0  0  0  0
   22.0192   18.6617   21.4234 H   0  0  0  0  0  0  0  0  0  0  0  0
   20.5264   18.5241   20.5021 H   0  0  0  0  0  0  0  0  0  0  0  0
   20.3885   19.8267   22.2440 C   0  0  0  0  0  0  0  0  0  0  0  0
   20.7605   20.7166   21.7179 H   0  0  0  0  0  0  0  0  0  0  0  0
   20.7994   19.8731   23.2618 H   0  0  0  0  0  0  0  0  0  0  0  0
   18.8456   19.8863   22.3019 C   0  0  0  0  0  0  0  0  0  0  0  0
   18.4325   19.7887   21.2884 H   0  0  0  0  0  0  0  0  0  0  0  0
   18.4559   19.0449   22.8896 H   0  0  0  0  0  0  0  0  0  0  0  0
   18.3544   21.2061   22.9298 C   0  0  0  0  0  0  0  0  0  0  0  0
   18.7308   21.3168   23.9552 H   0  0  0  0  0  0  0  0  0  0  0  0
   18.6942   22.0705   22.3444 H   0  0  0  0  0  0  0  0  0  0  0  0
   17.2576   21.2321   22.9666 H   0  0  0  0  0  0  0  0  0  0  0  0
  1  2  1  0  0  0  0
  1  3  2  0  0  0  0
  1  4  1  0  0  0  0
  4  5  1  0  0  0  0
  4  6  1  0  0  0  0
  4  7  1  0  0  0  0
  7  8  1  0  0  0  0
  7  9  1  0  0  0  0
  7 10  1  0  0  0  0
 10 11  1  0  0  0  0
 10 12  1  0  0  0  0
 10 13  1  0  0  0  0
 13 14  1  0  0  0  0
 13 15  1  0  0  0  0
 13 16  1  0  0  0  0
 16 17  1  0  0  0  0
 16 18  1  0  0  0  0
 16 19  1  0  0  0  0
M  END
> <VConfSearch Rank>
707

> <Conf_Id>
33

> <Delta U+W>
-0.526

> <U+W>
-55.418

> <U>
6.914

> <W>
-62.332

> <W(PB)>
-64.421

> <W(SA)>
2.090

> <Valence>
7.196

> <Coulomb>
-1.020

> <VdW>
0.738

> <VdW6>
-6.010

> <VdW12>
6.748

> <Bond>
0.126

> <Angle>
2.499

> <Pdih>
4.570

> <Idih>
0.001

> <Tether>
0.000

$$$$
VeraChem MOL file


 19 18  0  0  0  0  0  0  0  0999 V2000     
   21.3984   19.3007   25.0097 C   0  0  0  0  0  0  0  0  0  0  0  0
   21.4957   20.4812   25.2801 O   0  5  0  0  0  0  0  0  0  0  0  0
   21.2318   18.4316   25.8422 O   0  0  0  0  0  0  0  0  0  0  0  0
   21.4717   18.8890   23.5435 C   0  0  0  0  0  0  0  0  0  0  0  0
   21.9335   17.8957   23.4914 H   0  0  0  0  0  0  0  0  0  0  0  0
   22.1425   19.5860   23.0267 H   0  0  0  0  0  0  0  0  0  0  0  0
   20.0857   18.8715   22.8529 C   0  0  0  0  0  0  0  0  0  0  0  0
   19.4230   18.1767   23.3872 H   0  0  0  0  0  0  0  0  0  0  0  0
   19.6356   19.8697   22.9339 H   0  0  0  0  0  0  0  0  0  0  0  0
   20.1903   18.4544   21.3677 C   0  0  0  0  0  0  0  0  0  0  0  0
   20.7071   17.4870   21.3036 H   0  0  0  0  0  0  0  0  0  0  0  0
   20.8134   19.1769   20.8230 H   0  0  0  0  0  0  0  0  0  0  0  0
   18.8175   18.3248   20.6683 C   0  0  0  0  0  0  0  0  0  0  0  0
   18.9724   17.9139   19.6611 H   0  0  0  0  0  0  0  0  0  0  0  0
   18.1934   17.5986   21.2071 H   0  0  0  0  0  0  0  0  0  0  0  0
   18.0648   19.6674   20.5466 C   0  0  0  0  0  0  0  0  0  0  0  0
   18.6815   20.4188   20.0364 H   0  0  0  0  0  0  0  0  0  0  0  0
   17.1414   19.5384   19.9674 H   0  0  0  0  0  0  0  0  0  0  0  0
   17.7862   20.0614   21.5319 H   0  0  0  0  0  0  0  0  0  0  0  0
  1  2  1  0  0  0  0
  1  3  2  0  0  0  0
  1  4  1  0  0  0  0
  4  5  1  0  0  0  0
  4  6  1  0  0  0  0
  4  7  1  0  0  0  0
  7  8  1  0  0  0  0
  7  9  1  0  0  0  0
  7 10  1  0  0  0  0
 10 11  1  0  0  0  0
 10 12  1  0  0  0  0
 10 13  1  0  0  0  0
 13 14  1  0  0  0  0
 13 15  1  0  0  0  0
 13 16  1  0  0  0  0
 16 17  1  0  0  0  0
 16 18  1  0  0  0  0
 16 19  1  0  0  0  0
M  END
> <VConfSearch Rank>
708

> <Conf_Id>
42

> <Delta U+W>
-0.344

> <U+W>
-55.236

> <U>
7.244

> <W>
-62.479

> <W(PB)>
-64.610

> <W(SA)>
2.130

> <Valence>
7.174

> <Coulomb>
-0.669

> <VdW>
0.739

> <VdW6>
-5.969

> <VdW12>
6.708

> <Bond>
0.116

> <Angle>
2.481

> <Pdih>
4.576

> <Idih>
0.000

> <Tether>
0.000

$$$$
VeraChem MOL file


 19 18  0  0  0  0  0  0  0  0999 V2000     
   19.3026   19.2305   25.2998 C   0  0  0  0  0  0  0  0  0  0  0  0
   18.0997   19.1297   25.4376 O   0  5  0  0  0  0  0  0  0  0  0  0
   19.9981   19.9617   25.9766 O   0  0  0  0  0  0  0  0  0  0  0  0
   19.9739   18.4080   24.2056 C   0  0  0  0  0  0  0  0  0  0  0  0
   19.4178   17.4693   24.0948 H   0  0  0  0  0  0  0  0  0  0  0  0
   20.9837   18.1485   24.5457 H   0  0  0  0  0  0  0  0  0  0  0  0
   20.0411   19.1516   22.8487 C   0  0  0  0  0  0  0  0  0  0  0  0
   19.0219   19.4172   22.5383 H   0  0  0  0  0  0  0  0  0  0  0  0
   20.5924   20.0932   22.9780 H   0  0  0  0  0  0  0  0  0  0  0  0
   20.7226   18.2937   21.7578 C   0  0  0  0  0  0  0  0  0  0  0  0
   20.1437   17.3745   21.5939 H   0  0  0  0  0  0  0  0  0  0  0  0
   21.7120   17.9786   22.1170 H   0  0  0  0  0  0  0  0  0  0  0  0
   20.9022   19.0380   20.4146 C   0  0  0  0  0  0  0  0  0  0  0  0
   21.4858   19.9553   20.5736 H   0  0  0  0  0  0  0  0  0  0  0  0
   21.4947   18.4066   19.7382 H   0  0  0  0  0  0  0  0  0  0  0  0
   19.5651   19.3859   19.7255 C   0  0  0  0  0  0  0  0  0  0  0  0
   18.9866   20.1083   20.3147 H   0  0  0  0  0  0  0  0  0  0  0  0
   19.7465   19.8317   18.7389 H   0  0  0  0  0  0  0  0  0  0  0  0
   18.9512   18.4871   19.5824 H   0  0  0  0  0  0  0  0  0  0  0  0
  1  2  1  0  0  0  0
  1  3  2  0  0  0  0
  1  4  1  0  0  0  0
  4  5  1  0  0  0  0
  4  6  1  0  0  0  0
  4  7  1  0  0  0  0
  7  8  1  0  0  0  0
  7  9  1  0  0  0  0
  7 10  1  0  0  0  0
 10 11  1  0  0  0  0
 10 12  1  0  0  0  0
 10 13  1  0  0  0  0
 13 14  1  0  0  0  0
 13 15  1  0  0  0  0
 13 16  1  0  0  0  0
 16 17  1  0  0  0  0
 16 18  1  0  0  0  0
 16 19  1  0  0  0  0
M  END
> <VConfSearch Rank>
709

> <Conf_Id>
41

> <Delta U+W>
-0.361

> <U+W>
-55.252

> <U>
7.244

> <W>
-62.496

> <W(PB)>
-64.596

> <W(SA)>
2.099

> <Valence>
7.174

> <Coulomb>
-0.669

> <VdW>
0.739

> <VdW6>
-5.969

> <VdW12>
6.708

> <Bond>
0.116

> <Angle>
2.481

> <Pdih>
4.576

> <Idih>
0.000

> <Tether>
0.000

$$$$
VeraChem MOL file


 19 18  0  0  0  0  0  0  0  0999 V2000     
   19.7128   21.7683   21.6854 C   0  0  0  0  0  0  0  0  0  0  0  0
   18.5166   21.9575   21.7847 O   0  5  0  0  0  0  0  0  0  0  0  0
   20.5497   22.4568   22.2352 O   0  0  0  0  0  0  0  0  0  0  0  0
   20.1931   20.6177   20.8052 C   0  0  0  0  0  0  0  0  0  0  0  0
   21.0012   21.0039   20.1728 H   0  0  0  0  0  0  0  0  0  0  0  0
   19.3765   20.3257   20.1337 H   0  0  0  0  0  0  0  0  0  0  0  0
   20.7005   19.3853   21.5982 C   0  0  0  0  0  0  0  0  0  0  0  0
   21.1514   18.6709   20.8961 H   0  0  0  0  0  0  0  0  0  0  0  0
   21.4979   19.6986   22.2865 H   0  0  0  0  0  0  0  0  0  0  0  0
   19.5741   18.6817   22.3876 C   0  0  0  0  0  0  0  0  0  0  0  0
   18.7737   18.3822   21.6972 H   0  0  0  0  0  0  0  0  0  0  0  0
   19.1290   19.3854   23.1046 H   0  0  0  0  0  0  0  0  0  0  0  0
   20.0948   17.4412   23.1430 C   0  0  0  0  0  0  0  0  0  0  0  0
   20.5374   16.7316   22.4302 H   0  0  0  0  0  0  0  0  0  0  0  0
   20.8940   17.7383   23.8362 H   0  0  0  0  0  0  0  0  0  0  0  0
   18.9686   16.7413   23.9296 C   0  0  0  0  0  0  0  0  0  0  0  0
   18.1693   16.4054   23.2560 H   0  0  0  0  0  0  0  0  0  0  0  0
   19.3562   15.8622   24.4607 H   0  0  0  0  0  0  0  0  0  0  0  0
   18.5285   17.4195   24.6724 H   0  0  0  0  0  0  0  0  0  0  0  0
  1  2  1  0  0  0  0
  1  3  2  0  0  0  0
  1  4  1  0  0  0  0
  4  5  1  0  0  0  0
  4  6  1  0  0  0  0
  4  7  1  0  0  0  0
  7  8  1  0  0  0  0
  7  9  1  0  0  0  0
  7 10  1  0  0  0  0
 10 11  1  0  0  0  0
 10 12  1  0  0  0  0
 10 13  1  0  0  0  0
 13 14  1  0  0  0  0
 13 15  1  0  0  0  0
 13 16  1  0  0  0  0
 16 17  1  0  0  0  0
 16 18  1  0  0  0  0
 16 19  1  0  0  0  0
M  END
> <VConfSearch Rank>
710

> <Conf_Id>
36

> <Delta U+W>
-0.079

> <U+W>
-54.971

> <U>
8.266

> <W>
-63.237

> <W(PB)>
-65.340

> <W(SA)>
2.103

> <Valence>
6.935

> <Coulomb>
0.874

> <VdW>
0.457

> <VdW6>
-6.205

> <VdW12>
6.662

> <Bond>
0.107

> <Angle>
2.420

> <Pdih>
4.407

> <Idih>
0.001

> <Tether>
0.000

$$$$
VeraChem MOL file


 19 18  0  0  0  0  0  0  0  0999 V2000     
   18.7732   17.6853   24.5167 C   0  0  0  0  0  0  0  0  0  0  0  0
   18.8452   16.5257   24.1609 O   0  5  0  0  0  0  0  0  0  0  0  0
   17.7352   18.2230   24.8486 O   0  0  0  0  0  0  0  0  0  0  0  0
   20.0582   18.5069   24.5711 C   0  0  0  0  0  0  0  0  0  0  0  0
   20.9133   17.8200   24.5803 H   0  0  0  0  0  0  0  0  0  0  0  0
   20.0676   19.0379   25.5303 H   0  0  0  0  0  0  0  0  0  0  0  0
   20.2044   19.5279   23.4130 C   0  0  0  0  0  0  0  0  0  0  0  0
   19.3276   20.1903   23.3989 H   0  0  0  0  0  0  0  0  0  0  0  0
   21.0784   20.1643   23.6072 H   0  0  0  0  0  0  0  0  0  0  0  0
   20.3671   18.8457   22.0362 C   0  0  0  0  0  0  0  0  0  0  0  0
   19.4883   18.2201   21.8268 H   0  0  0  0  0  0  0  0  0  0  0  0
   21.2369   18.1749   22.0594 H   0  0  0  0  0  0  0  0  0  0  0  0
   20.5424   19.8789   20.9038 C   0  0  0  0  0  0  0  0  0  0  0  0
   19.6725   20.5497   20.8769 H   0  0  0  0  0  0  0  0  0  0  0  0
   21.4226   20.5049   21.1058 H   0  0  0  0  0  0  0  0  0  0  0  0
   20.7045   19.1950   19.5316 C   0  0  0  0  0  0  0  0  0  0  0  0
   19.8233   18.5863   19.2898 H   0  0  0  0  0  0  0  0  0  0  0  0
   20.8274   19.9438   18.7383 H   0  0  0  0  0  0  0  0  0  0  0  0
   21.5864   18.5412   19.5204 H   0  0  0  0  0  0  0  0  0  0  0  0
  1  2  1  0  0  0  0
  1  3  2  0  0  0  0
  1  4  1  0  0  0  0
  4  5  1  0  0  0  0
  4  6  1  0  0  0  0
  4  7  1  0  0  0  0
  7  8  1  0  0  0  0
  7  9  1  0  0  0  0
  7 10  1  0  0  0  0
 10 11  1  0  0  0  0
 10 12  1  0  0  0  0
 10 13  1  0  0  0  0
 13 14  1  0  0  0  0
 13 15  1  0  0  0  0
 13 16  1  0  0  0  0
 16 17  1  0  0  0  0
 16 18  1  0  0  0  0
 16 19  1  0  0  0  0
M  END
> <VConfSearch Rank>
711

> <Conf_Id>
35

> <Delta U+W>
-0.030

> <U+W>
-54.921

> <U>
8.267

> <W>
-63.188

> <W(PB)>
-65.294

> <W(SA)>
2.106

> <Valence>
6.935

> <Coulomb>
0.875

> <VdW>
0.457

> <VdW6>
-6.205

> <VdW12>
6.662

> <Bond>
0.107

> <Angle>
2.420

> <Pdih>
4.407

> <Idih>
0.001

> <Tether>
0.000

$$$$
VeraChem MOL file


 19 18  0  0  0  0  0  0  0  0999 V2000     
   18.5760   21.2360   23.1757 C   0  0  0  0  0  0  0  0  0  0  0  0
   18.4641   21.3171   24.3831 O   0  5  0  0  0  0  0  0  0  0  0  0
   17.6467   21.3718   22.4046 O   0  0  0  0  0  0  0  0  0  0  0  0
   19.9635   20.9707   22.5978 C   0  0  0  0  0  0  0  0  0  0  0  0
   20.6650   21.6386   23.1115 H   0  0  0  0  0  0  0  0  0  0  0  0
   19.9646   21.2619   21.5404 H   0  0  0  0  0  0  0  0  0  0  0  0
   20.4422   19.5031   22.7489 C   0  0  0  0  0  0  0  0  0  0  0  0
   21.4963   19.4481   22.4486 H   0  0  0  0  0  0  0  0  0  0  0  0
   20.3981   19.2131   23.8078 H   0  0  0  0  0  0  0  0  0  0  0  0
   19.6071   18.5155   21.8993 C   0  0  0  0  0  0  0  0  0  0  0  0
   19.6837   18.7844   20.8369 H   0  0  0  0  0  0  0  0  0  0  0  0
   18.5465   18.6154   22.1681 H   0  0  0  0  0  0  0  0  0  0  0  0
   20.0213   17.0381   22.0907 C   0  0  0  0  0  0  0  0  0  0  0  0
   19.9437   16.7656   23.1523 H   0  0  0  0  0  0  0  0  0  0  0  0
   19.3064   16.3998   21.5535 H   0  0  0  0  0  0  0  0  0  0  0  0
   21.4446   16.7300   21.5775 C   0  0  0  0  0  0  0  0  0  0  0  0
   22.2059   17.2579   22.1652 H   0  0  0  0  0  0  0  0  0  0  0  0
   21.6546   15.6551   21.6518 H   0  0  0  0  0  0  0  0  0  0  0  0
   21.5553   17.0239   20.5256 H   0  0  0  0  0  0  0  0  0  0  0  0
  1  2  1  0  0  0  0
  1  3  2  0  0  0  0
  1  4  1  0  0  0  0
  4  5  1  0  0  0  0
  4  6  1  0  0  0  0
  4  7  1  0  0  0  0
  7  8  1  0  0  0  0
  7  9  1  0  0  0  0
  7 10  1  0  0  0  0
 10 11  1  0  0  0  0
 10 12  1  0  0  0  0
 10 13  1  0  0  0  0
 13 14  1  0  0  0  0
 13 15  1  0  0  0  0
 13 16  1  0  0  0  0
 16 17  1  0  0  0  0
 16 18  1  0  0  0  0
 16 19  1  0  0  0  0
M  END
> <VConfSearch Rank>
712

> <Conf_Id>
74

> <Delta U+W>
0.797

> <U+W>
-54.095

> <U>
8.869

> <W>
-62.964

> <W(PB)>
-65.046

> <W(SA)>
2.082

> <Valence>
7.469

> <Coulomb>
0.762

> <VdW>
0.639

> <VdW6>
-6.782

> <VdW12>
7.421

> <Bond>
0.141

> <Angle>
2.667

> <Pdih>
4.660

> <Idih>
0.001

> <Tether>
0.000

$$$$
VeraChem MOL file


 19 18  0  0  0  0  0  0  0  0999 V2000     
   18.3438   21.1548   23.2804 C   0  0  0  0  0  0  0  0  0  0  0  0
   17.1700   21.3951   23.0782 O   0  5  0  0  0  0  0  0  0  0  0  0
   18.9605   21.5757   24.2390 O   0  0  0  0  0  0  0  0  0  0  0  0
   19.0773   20.2611   22.2867 C   0  0  0  0  0  0  0  0  0  0  0  0
   20.1219   20.5904   22.2496 H   0  0  0  0  0  0  0  0  0  0  0  0
   18.6463   20.4305   21.2928 H   0  0  0  0  0  0  0  0  0  0  0  0
   18.9944   18.7574   22.6565 C   0  0  0  0  0  0  0  0  0  0  0  0
   19.4629   18.5937   23.6360 H   0  0  0  0  0  0  0  0  0  0  0  0
   17.9376   18.4815   22.7755 H   0  0  0  0  0  0  0  0  0  0  0  0
   19.6314   17.8232   21.5971 C   0  0  0  0  0  0  0  0  0  0  0  0
   19.0809   17.9291   20.6524 H   0  0  0  0  0  0  0  0  0  0  0  0
   19.4898   16.7813   21.9153 H   0  0  0  0  0  0  0  0  0  0  0  0
   21.1370   18.0631   21.3257 C   0  0  0  0  0  0  0  0  0  0  0  0
   21.4695   17.3570   20.5525 H   0  0  0  0  0  0  0  0  0  0  0  0
   21.2918   19.0661   20.9068 H   0  0  0  0  0  0  0  0  0  0  0  0
   22.0209   17.8799   22.5781 C   0  0  0  0  0  0  0  0  0  0  0  0
   21.8652   16.8905   23.0276 H   0  0  0  0  0  0  0  0  0  0  0  0
   23.0828   17.9692   22.3153 H   0  0  0  0  0  0  0  0  0  0  0  0
   21.8007   18.6420   23.3364 H   0  0  0  0  0  0  0  0  0  0  0  0
  1  2  1  0  0  0  0
  1  3  2  0  0  0  0
  1  4  1  0  0  0  0
  4  5  1  0  0  0  0
  4  6  1  0  0  0  0
  4  7  1  0  0  0  0
  7  8  1  0  0  0  0
  7  9  1  0  0  0  0
  7 10  1  0  0  0  0
 10 11  1  0  0  0  0
 10 12  1  0  0  0  0
 10 13  1  0  0  0  0
 13 14  1  0  0  0  0
 13 15  1  0  0  0  0
 13 16  1  0  0  0  0
 16 17  1  0  0  0  0
 16 18  1  0  0  0  0
 16 19  1  0  0  0  0
M  END
> <VConfSearch Rank>
713

> <Conf_Id>
67

> <Delta U+W>
0.308

> <U+W>
-54.583

> <U>
8.219

> <W>
-62.802

> <W(PB)>
-64.859

> <W(SA)>
2.057

> <Valence>
7.609

> <Coulomb>
-0.089

> <VdW>
0.699

> <VdW6>
-6.924

> <VdW12>
7.623

> <Bond>
0.163

> <Angle>
2.870

> <Pdih>
4.576

> <Idih>
0.001

> <Tether>
0.000

$$$$
VeraChem MOL file


 19 18  0  0  0  0  0  0  0  0999 V2000     
   22.3805   18.5579   20.6561 C   0  0  0  0  0  0  0  0  0  0  0  0
   23.0032   19.3758   20.0084 O   0  5  0  0  0  0  0  0  0  0  0  0
   22.4048   17.3639   20.4324 O   0  0  0  0  0  0  0  0  0  0  0  0
   21.5059   19.0597   21.7995 C   0  0  0  0  0  0  0  0  0  0  0  0
   21.9815   19.9503   22.2272 H   0  0  0  0  0  0  0  0  0  0  0  0
   21.4989   18.2881   22.5778 H   0  0  0  0  0  0  0  0  0  0  0  0
   20.0593   19.3899   21.3490 C   0  0  0  0  0  0  0  0  0  0  0  0
   20.1046   20.0958   20.5081 H   0  0  0  0  0  0  0  0  0  0  0  0
   19.5803   18.4826   20.9579 H   0  0  0  0  0  0  0  0  0  0  0  0
   19.1888   20.0130   22.4691 C   0  0  0  0  0  0  0  0  0  0  0  0
   18.2008   20.2551   22.0542 H   0  0  0  0  0  0  0  0  0  0  0  0
   19.6327   20.9707   22.7735 H   0  0  0  0  0  0  0  0  0  0  0  0
   19.0003   19.1295   23.7268 C   0  0  0  0  0  0  0  0  0  0  0  0
   19.9667   18.9602   24.2197 H   0  0  0  0  0  0  0  0  0  0  0  0
   18.3829   19.6791   24.4506 H   0  0  0  0  0  0  0  0  0  0  0  0
   18.3246   17.7743   23.4263 C   0  0  0  0  0  0  0  0  0  0  0  0
   18.9625   17.1418   22.7959 H   0  0  0  0  0  0  0  0  0  0  0  0
   18.1304   17.2270   24.3577 H   0  0  0  0  0  0  0  0  0  0  0  0
   17.3656   17.9188   22.9120 H   0  0  0  0  0  0  0  0  0  0  0  0
  1  2  1  0  0  0  0
  1  3  2  0  0  0  0
  1  4  1  0  0  0  0
  4  5  1  0  0  0  0
  4  6  1  0  0  0  0
  4  7  1  0  0  0  0
  7  8  1  0  0  0  0
  7  9  1  0  0  0  0
  7 10  1  0  0  0  0
 10 11  1  0  0  0  0
 10 12  1  0  0  0  0
 10 13  1  0  0  0  0
 13 14  1  0  0  0  0
 13 15  1  0  0  0  0
 13 16  1  0  0  0  0
 16 17  1  0  0  0  0
 16 18  1  0  0  0  0
 16 19  1  0  0  0  0
M  END
> <VConfSearch Rank>
714

> <Conf_Id>
21

> <Delta U+W>
0.319

> <U+W>
-54.572

> <U>
8.220

> <W>
-62.792

> <W(PB)>
-64.830

> <W(SA)>
2.038

> <Valence>
7.609

> <Coulomb>
-0.088

> <VdW>
0.699

> <VdW6>
-6.924

> <VdW12>
7.623

> <Bond>
0.163

> <Angle>
2.870

> <Pdih>
4.576

> <Idih>
0.000

> <Tether>
0.000

$$$$
VeraChem MOL file


 19 18  0  0  0  0  0  0  0  0999 V2000     
   21.0477   19.3843   19.6703 C   0  0  0  0  0  0  0  0  0  0  0  0
   21.1429   20.4112   19.0279 O   0  5  0  0  0  0  0  0  0  0  0  0
   21.7352   18.4020   19.4733 O   0  0  0  0  0  0  0  0  0  0  0  0
   20.0221   19.3325   20.7971 C   0  0  0  0  0  0  0  0  0  0  0  0
   19.6608   18.3023   20.8751 H   0  0  0  0  0  0  0  0  0  0  0  0
   19.1650   19.9498   20.5028 H   0  0  0  0  0  0  0  0  0  0  0  0
   20.5930   19.8277   22.1522 C   0  0  0  0  0  0  0  0  0  0  0  0
   21.4872   19.2483   22.4205 H   0  0  0  0  0  0  0  0  0  0  0  0
   20.9297   20.8650   22.0178 H   0  0  0  0  0  0  0  0  0  0  0  0
   19.5610   19.7876   23.3079 C   0  0  0  0  0  0  0  0  0  0  0  0
   18.5446   19.9296   22.9160 H   0  0  0  0  0  0  0  0  0  0  0  0
   19.7506   20.6476   23.9647 H   0  0  0  0  0  0  0  0  0  0  0  0
   19.6204   18.5118   24.1835 C   0  0  0  0  0  0  0  0  0  0  0  0
   20.6148   18.4264   24.6428 H   0  0  0  0  0  0  0  0  0  0  0  0
   18.9080   18.6250   25.0124 H   0  0  0  0  0  0  0  0  0  0  0  0
   19.2933   17.2084   23.4260 C   0  0  0  0  0  0  0  0  0  0  0  0
   19.2237   16.3655   24.1256 H   0  0  0  0  0  0  0  0  0  0  0  0
   18.3350   17.2895   22.8969 H   0  0  0  0  0  0  0  0  0  0  0  0
   20.0768   16.9677   22.6967 H   0  0  0  0  0  0  0  0  0  0  0  0
  1  2  1  0  0  0  0
  1  3  2  0  0  0  0
  1  4  1  0  0  0  0
  4  5  1  0  0  0  0
  4  6  1  0  0  0  0
  4  7  1  0  0  0  0
  7  8  1  0  0  0  0
  7  9  1  0  0  0  0
  7 10  1  0  0  0  0
 10 11  1  0  0  0  0
 10 12  1  0  0  0  0
 10 13  1  0  0  0  0
 13 14  1  0  0  0  0
 13 15  1  0  0  0  0
 13 16  1  0  0  0  0
 16 17  1  0  0  0  0
 16 18  1  0  0  0  0
 16 19  1  0  0  0  0
M  END
> <VConfSearch Rank>
715

> <Conf_Id>
24

> <Delta U+W>
2.477

> <U+W>
-52.414

> <U>
10.422

> <W>
-62.836

> <W(PB)>
-64.906

> <W(SA)>
2.070

> <Valence>
9.628

> <Coulomb>
0.101

> <VdW>
0.693

> <VdW6>
-6.927

> <VdW12>
7.620

> <Bond>
0.173

> <Angle>
2.989

> <Pdih>
6.465

> <Idih>
0.001

> <Tether>
0.000

$$$$
VeraChem MOL file


 19 18  0  0  0  0  0  0  0  0999 V2000     
   21.9479   19.8821   23.7411 C   0  0  0  0  0  0  0  0  0  0  0  0
   21.3222   20.3840   24.6539 O   0  5  0  0  0  0  0  0  0  0  0  0
   23.0564   19.4013   23.8725 O   0  0  0  0  0  0  0  0  0  0  0  0
   21.3234   19.8800   22.3482 C   0  0  0  0  0  0  0  0  0  0  0  0
   22.0831   20.2550   21.6525 H   0  0  0  0  0  0  0  0  0  0  0  0
   20.5029   20.6045   22.3365 H   0  0  0  0  0  0  0  0  0  0  0  0
   20.8400   18.4809   21.8752 C   0  0  0  0  0  0  0  0  0  0  0  0
   20.5966   18.5137   20.8047 H   0  0  0  0  0  0  0  0  0  0  0  0
   21.6811   17.7804   21.9720 H   0  0  0  0  0  0  0  0  0  0  0  0
   19.6311   17.9228   22.6705 C   0  0  0  0  0  0  0  0  0  0  0  0
   19.6444   18.2964   23.7035 H   0  0  0  0  0  0  0  0  0  0  0  0
   19.7475   16.8332   22.7469 H   0  0  0  0  0  0  0  0  0  0  0  0
   18.2507   18.1993   22.0256 C   0  0  0  0  0  0  0  0  0  0  0  0
   18.2126   17.7449   21.0260 H   0  0  0  0  0  0  0  0  0  0  0  0
   17.4800   17.6930   22.6230 H   0  0  0  0  0  0  0  0  0  0  0  0
   17.8907   19.6958   21.9224 C   0  0  0  0  0  0  0  0  0  0  0  0
   18.5360   20.2087   21.1985 H   0  0  0  0  0  0  0  0  0  0  0  0
   16.8533   19.8187   21.5855 H   0  0  0  0  0  0  0  0  0  0  0  0
   17.9928   20.1932   22.8958 H   0  0  0  0  0  0  0  0  0  0  0  0
  1  2  1  0  0  0  0
  1  3  2  0  0  0  0
  1  4  1  0  0  0  0
  4  5  1  0  0  0  0
  4  6  1  0  0  0  0
  4  7  1  0  0  0  0
  7  8  1  0  0  0  0
  7  9  1  0  0  0  0
  7 10  1  0  0  0  0
 10 11  1  0  0  0  0
 10 12  1  0  0  0  0
 10 13  1  0  0  0  0
 13 14  1  0  0  0  0
 13 15  1  0  0  0  0
 13 16  1  0  0  0  0
 16 17  1  0  0  0  0
 16 18  1  0  0  0  0
 16 19  1  0  0  0  0
M  END
> <VConfSearch Rank>
716

> <Conf_Id>
4

> <Delta U+W>
3.753

> <U+W>
-51.138

> <U>
12.334

> <W>
-63.472

> <W(PB)>
-65.500

> <W(SA)>
2.028

> <Valence>
9.984

> <Coulomb>
1.767

> <VdW>
0.583

> <VdW6>
-7.767

> <VdW12>
8.349

> <Bond>
0.203

> <Angle>
3.191

> <Pdih>
6.589

> <Idih>
0.001

> <Tether>
0.000

$$$$
VeraChem MOL file


 19 18  0  0  0  0  0  0  0  0999 V2000     
   18.3397   17.5497   20.8407 C   0  0  0  0  0  0  0  0  0  0  0  0
   18.4866   16.4702   20.3021 O   0  5  0  0  0  0  0  0  0  0  0  0
   17.3010   17.9026   21.3634 O   0  0  0  0  0  0  0  0  0  0  0  0
   19.5154   18.5234   20.8328 C   0  0  0  0  0  0  0  0  0  0  0  0
   19.1361   19.5246   21.0607 H   0  0  0  0  0  0  0  0  0  0  0  0
   19.8990   18.5592   19.8065 H   0  0  0  0  0  0  0  0  0  0  0  0
   20.6678   18.1295   21.7980 C   0  0  0  0  0  0  0  0  0  0  0  0
   20.9625   17.0955   21.5710 H   0  0  0  0  0  0  0  0  0  0  0  0
   21.5525   18.7472   21.5928 H   0  0  0  0  0  0  0  0  0  0  0  0
   20.2993   18.2251   23.3016 C   0  0  0  0  0  0  0  0  0  0  0  0
   20.8217   17.4174   23.8322 H   0  0  0  0  0  0  0  0  0  0  0  0
   19.2277   18.0329   23.4483 H   0  0  0  0  0  0  0  0  0  0  0  0
   20.6952   19.5597   23.9799 C   0  0  0  0  0  0  0  0  0  0  0  0
   20.4654   19.4866   25.0518 H   0  0  0  0  0  0  0  0  0  0  0  0
   21.7822   19.7022   23.9077 H   0  0  0  0  0  0  0  0  0  0  0  0
   19.9766   20.7975   23.4046 C   0  0  0  0  0  0  0  0  0  0  0  0
   18.8884   20.6519   23.3953 H   0  0  0  0  0  0  0  0  0  0  0  0
   20.1951   21.6852   24.0121 H   0  0  0  0  0  0  0  0  0  0  0  0
   20.3097   21.0078   22.3808 H   0  0  0  0  0  0  0  0  0  0  0  0
  1  2  1  0  0  0  0
  1  3  2  0  0  0  0
  1  4  1  0  0  0  0
  4  5  1  0  0  0  0
  4  6  1  0  0  0  0
  4  7  1  0  0  0  0
  7  8  1  0  0  0  0
  7  9  1  0  0  0  0
  7 10  1  0  0  0  0
 10 11  1  0  0  0  0
 10 12  1  0  0  0  0
 10 13  1  0  0  0  0
 13 14  1  0  0  0  0
 13 15  1  0  0  0  0
 13 16  1  0  0  0  0
 16 17  1  0  0  0  0
 16 18  1  0  0  0  0
 16 19  1  0  0  0  0
M  END
> <VConfSearch Rank>
717

> <Conf_Id>
73

> <Delta U+W>
3.707

> <U+W>
-51.184

> <U>
12.334

> <W>
-63.519

> <W(PB)>
-65.541

> <W(SA)>
2.022

> <Valence>
9.984

> <Coulomb>
1.768

> <VdW>
0.583

> <VdW6>
-7.767

> <VdW12>
8.350

> <Bond>
0.203

> <Angle>
3.192

> <Pdih>
6.589

> <Idih>
0.001

> <Tether>
0.000

$$$$
VeraChem MOL file


 19 18  0  0  0  0  0  0  0  0999 V2000     
   18.1746   17.5705   23.7305 C   0  0  0  0  0  0  0  0  0  0  0  0
   18.7075   17.6983   24.8151 O   0  5  0  0  0  0  0  0  0  0  0  0
   16.9726   17.4701   23.5810 O   0  0  0  0  0  0  0  0  0  0  0  0
   19.0619   17.4996   22.4907 C   0  0  0  0  0  0  0  0  0  0  0  0
   18.7558   16.6148   21.9205 H   0  0  0  0  0  0  0  0  0  0  0  0
   20.0959   17.3221   22.8077 H   0  0  0  0  0  0  0  0  0  0  0  0
   18.9785   18.7532   21.5776 C   0  0  0  0  0  0  0  0  0  0  0  0
   19.5862   18.5870   20.6788 H   0  0  0  0  0  0  0  0  0  0  0  0
   17.9436   18.8635   21.2255 H   0  0  0  0  0  0  0  0  0  0  0  0
   19.4123   20.0747   22.2628 C   0  0  0  0  0  0  0  0  0  0  0  0
   18.7211   20.2940   23.0882 H   0  0  0  0  0  0  0  0  0  0  0  0
   19.2962   20.8983   21.5453 H   0  0  0  0  0  0  0  0  0  0  0  0
   20.8602   20.0888   22.8112 C   0  0  0  0  0  0  0  0  0  0  0  0
   21.0449   21.0625   23.2851 H   0  0  0  0  0  0  0  0  0  0  0  0
   20.9695   19.3396   23.6070 H   0  0  0  0  0  0  0  0  0  0  0  0
   21.9295   19.8553   21.7223 C   0  0  0  0  0  0  0  0  0  0  0  0
   21.8535   18.8460   21.2986 H   0  0  0  0  0  0  0  0  0  0  0  0
   21.8237   20.5814   20.9059 H   0  0  0  0  0  0  0  0  0  0  0  0
   22.9371   19.9641   22.1440 H   0  0  0  0  0  0  0  0  0  0  0  0
  1  2  1  0  0  0  0
  1  3  2  0  0  0  0
  1  4  1  0  0  0  0
  4  5  1  0  0  0  0
  4  6  1  0  0  0  0
  4  7  1  0  0  0  0
  7  8  1  0  0  0  0
  7  9  1  0  0  0  0
  7 10  1  0  0  0  0
 10 11  1  0  0  0  0
 10 12  1  0  0  0  0
 10 13  1  0  0  0  0
 13 14  1  0  0  0  0
 13 15  1  0  0  0  0
 13 16  1  0  0  0  0
 16 17  1  0  0  0  0
 16 18  1  0  0  0  0
 16 19  1  0  0  0  0
M  END
> <VConfSearch Rank>
718

> <Conf_Id>
56

> <Delta U+W>
1.735

> <U+W>
-53.156

> <U>
10.214

> <W>
-63.370

> <W(PB)>
-65.388

> <W(SA)>
2.018

> <Valence>
7.868

> <Coulomb>
1.968

> <VdW>
0.378

> <VdW6>
-8.067

> <VdW12>
8.445

> <Bond>
0.191

> <Angle>
3.117

> <Pdih>
4.559

> <Idih>
0.001

> <Tether>
0.000

$$$$
VeraChem MOL file


 19 18  0  0  0  0  0  0  0  0999 V2000     
   18.2285   16.6095   22.6896 C   0  0  0  0  0  0  0  0  0  0  0  0
   18.2809   15.6199   21.9864 O   0  5  0  0  0  0  0  0  0  0  0  0
   17.3385   16.8188   23.4898 O   0  0  0  0  0  0  0  0  0  0  0  0
   19.3280   17.6555   22.5442 C   0  0  0  0  0  0  0  0  0  0  0  0
   20.2546   17.1403   22.2645 H   0  0  0  0  0  0  0  0  0  0  0  0
   19.4862   18.1089   23.5290 H   0  0  0  0  0  0  0  0  0  0  0  0
   18.9848   18.7465   21.4988 C   0  0  0  0  0  0  0  0  0  0  0  0
   18.6924   18.2548   20.5606 H   0  0  0  0  0  0  0  0  0  0  0  0
   18.1039   19.3085   21.8386 H   0  0  0  0  0  0  0  0  0  0  0  0
   20.1439   19.7293   21.1968 C   0  0  0  0  0  0  0  0  0  0  0  0
   19.7993   20.4143   20.4101 H   0  0  0  0  0  0  0  0  0  0  0  0
   20.9968   19.1863   20.7670 H   0  0  0  0  0  0  0  0  0  0  0  0
   20.6040   20.5787   22.4076 C   0  0  0  0  0  0  0  0  0  0  0  0
   20.8835   21.5787   22.0482 H   0  0  0  0  0  0  0  0  0  0  0  0
   19.7703   20.7279   23.1076 H   0  0  0  0  0  0  0  0  0  0  0  0
   21.8225   19.9800   23.1449 C   0  0  0  0  0  0  0  0  0  0  0  0
   22.1197   20.6258   23.9813 H   0  0  0  0  0  0  0  0  0  0  0  0
   21.6068   18.9855   23.5511 H   0  0  0  0  0  0  0  0  0  0  0  0
   22.6824   19.8905   22.4685 H   0  0  0  0  0  0  0  0  0  0  0  0
  1  2  1  0  0  0  0
  1  3  2  0  0  0  0
  1  4  1  0  0  0  0
  4  5  1  0  0  0  0
  4  6  1  0  0  0  0
  4  7  1  0  0  0  0
  7  8  1  0  0  0  0
  7  9  1  0  0  0  0
  7 10  1  0  0  0  0
 10 11  1  0  0  0  0
 10 12  1  0  0  0  0
 10 13  1  0  0  0  0
 13 14  1  0  0  0  0
 13 15  1  0  0  0  0
 13 16  1  0  0  0  0
 16 17  1  0  0  0  0
 16 18  1  0  0  0  0
 16 19  1  0  0  0  0
M  END
> <VConfSearch Rank>
719

> <Conf_Id>
53

> <Delta U+W>
2.279

> <U+W>
-52.612

> <U>
10.231

> <W>
-62.843

> <W(PB)>
-64.893

> <W(SA)>
2.050

> <Valence>
9.644

> <Coulomb>
-0.164

> <VdW>
0.751

> <VdW6>
-6.881

> <VdW12>
7.631

> <Bond>
0.163

> <Angle>
2.998

> <Pdih>
6.482

> <Idih>
0.001

> <Tether>
0.000

$$$$
VeraChem MOL file


 19 18  0  0  0  0  0  0  0  0999 V2000     
   21.2134   20.4843   24.0037 C   0  0  0  0  0  0  0  0  0  0  0  0
   20.5619   21.4978   23.8452 O   0  5  0  0  0  0  0  0  0  0  0  0
   22.4169   20.4299   23.8428 O   0  0  0  0  0  0  0  0  0  0  0  0
   20.4902   19.2331   24.4986 C   0  0  0  0  0  0  0  0  0  0  0  0
   19.4288   19.4684   24.6438 H   0  0  0  0  0  0  0  0  0  0  0  0
   20.9007   19.0118   25.4906 H   0  0  0  0  0  0  0  0  0  0  0  0
   20.6442   17.9764   23.5963 C   0  0  0  0  0  0  0  0  0  0  0  0
   21.6918   17.8660   23.2833 H   0  0  0  0  0  0  0  0  0  0  0  0
   20.4165   17.0916   24.2060 H   0  0  0  0  0  0  0  0  0  0  0  0
   19.7141   17.9476   22.3583 C   0  0  0  0  0  0  0  0  0  0  0  0
   18.6684   18.0511   22.6788 H   0  0  0  0  0  0  0  0  0  0  0  0
   19.7969   16.9567   21.8912 H   0  0  0  0  0  0  0  0  0  0  0  0
   20.0413   19.0233   21.2993 C   0  0  0  0  0  0  0  0  0  0  0  0
   19.8378   20.0234   21.7029 H   0  0  0  0  0  0  0  0  0  0  0  0
   21.1111   18.9882   21.0510 H   0  0  0  0  0  0  0  0  0  0  0  0
   19.2088   18.8257   20.0165 C   0  0  0  0  0  0  0  0  0  0  0  0
   18.1342   18.8823   20.2338 H   0  0  0  0  0  0  0  0  0  0  0  0
   19.4468   19.6024   19.2782 H   0  0  0  0  0  0  0  0  0  0  0  0
   19.4158   17.8492   19.5594 H   0  0  0  0  0  0  0  0  0  0  0  0
  1  2  1  0  0  0  0
  1  3  2  0  0  0  0
  1  4  1  0  0  0  0
  4  5  1  0  0  0  0
  4  6  1  0  0  0  0
  4  7  1  0  0  0  0
  7  8  1  0  0  0  0
  7  9  1  0  0  0  0
  7 10  1  0  0  0  0
 10 11  1  0  0  0  0
 10 12  1  0  0  0  0
 10 13  1  0  0  0  0
 13 14  1  0  0  0  0
 13 15  1  0  0  0  0
 13 16  1  0  0  0  0
 16 17  1  0  0  0  0
 16 18  1  0  0  0  0
 16 19  1  0  0  0  0
M  END
> <VConfSearch Rank>
720

> <Conf_Id>
25

> <Delta U+W>
2.065

> <U+W>
-52.826

> <U>
10.967

> <W>
-63.794

> <W(PB)>
-65.830

> <W(SA)>
2.036

> <Valence>
8.609

> <Coulomb>
1.892

> <VdW>
0.467

> <VdW6>
-7.569

> <VdW12>
8.036

> <Bond>
0.170

> <Angle>
3.195

> <Pdih>
5.237

> <Idih>
0.007

> <Tether>
0.000

$$$$
VeraChem MOL file


 19 18  0  0  0  0  0  0  0  0999 V2000     
   21.3681   19.9224   24.2727 C   0  0  0  0  0  0  0  0  0  0  0  0
   21.3867   21.1190   24.0605 O   0  5  0  0  0  0  0  0  0  0  0  0
   22.3714   19.2420   24.3584 O   0  0  0  0  0  0  0  0  0  0  0  0
   20.0184   19.2492   24.5144 C   0  0  0  0  0  0  0  0  0  0  0  0
   19.6039   19.7060   25.4206 H   0  0  0  0  0  0  0  0  0  0  0  0
   20.1842   18.1899   24.7449 H   0  0  0  0  0  0  0  0  0  0  0  0
   18.9880   19.3937   23.3591 C   0  0  0  0  0  0  0  0  0  0  0  0
   17.9870   19.2120   23.7733 H   0  0  0  0  0  0  0  0  0  0  0  0
   18.9794   20.4294   22.9921 H   0  0  0  0  0  0  0  0  0  0  0  0
   19.1944   18.4132   22.1781 C   0  0  0  0  0  0  0  0  0  0  0  0
   18.3286   18.4989   21.5072 H   0  0  0  0  0  0  0  0  0  0  0  0
   19.1946   17.3799   22.5510 H   0  0  0  0  0  0  0  0  0  0  0  0
   20.4805   18.6712   21.3627 C   0  0  0  0  0  0  0  0  0  0  0  0
   20.5324   19.7301   21.0740 H   0  0  0  0  0  0  0  0  0  0  0  0
   21.3649   18.4622   21.9779 H   0  0  0  0  0  0  0  0  0  0  0  0
   20.5346   17.7902   20.0983 C   0  0  0  0  0  0  0  0  0  0  0  0
   21.4577   17.9792   19.5351 H   0  0  0  0  0  0  0  0  0  0  0  0
   20.5101   16.7246   20.3614 H   0  0  0  0  0  0  0  0  0  0  0  0
   19.6846   17.9999   19.4357 H   0  0  0  0  0  0  0  0  0  0  0  0
  1  2  1  0  0  0  0
  1  3  2  0  0  0  0
  1  4  1  0  0  0  0
  4  5  1  0  0  0  0
  4  6  1  0  0  0  0
  4  7  1  0  0  0  0
  7  8  1  0  0  0  0
  7  9  1  0  0  0  0
  7 10  1  0  0  0  0
 10 11  1  0  0  0  0
 10 12  1  0  0  0  0
 10 13  1  0  0  0  0
 13 14  1  0  0  0  0
 13 15  1  0  0  0  0
 13 16  1  0  0  0  0
 16 17  1  0  0  0  0
 16 18  1  0  0  0  0
 16 19  1  0  0  0  0
M  END
> <VConfSearch Rank>
721

> <Conf_Id>
52

> <Delta U+W>
2.070

> <U+W>
-52.822

> <U>
10.967

> <W>
-63.789

> <W(PB)>
-65.837

> <W(SA)>
2.048

> <Valence>
8.609

> <Coulomb>
1.892

> <VdW>
0.467

> <VdW6>
-7.569

> <VdW12>
8.035

> <Bond>
0.170

> <Angle>
3.196

> <Pdih>
5.237

> <Idih>
0.007

> <Tether>
0.000

$$$$
VeraChem MOL file


 19 18  0  0  0  0  0  0  0  0999 V2000     
   19.2421   16.8322   22.8227 C   0  0  0  0  0  0  0  0  0  0  0  0
   18.0415   16.8129   23.0134 O   0  5  0  0  0  0  0  0  0  0  0  0
   19.7899   16.1692   21.9643 O   0  0  0  0  0  0  0  0  0  0  0  0
   20.1256   17.6277   23.7850 C   0  0  0  0  0  0  0  0  0  0  0  0
   21.1464   17.6638   23.3860 H   0  0  0  0  0  0  0  0  0  0  0  0
   20.1723   17.0400   24.7089 H   0  0  0  0  0  0  0  0  0  0  0  0
   19.6316   19.0624   24.1271 C   0  0  0  0  0  0  0  0  0  0  0  0
   18.5421   19.0604   24.2696 H   0  0  0  0  0  0  0  0  0  0  0  0
   20.0579   19.3427   25.0997 H   0  0  0  0  0  0  0  0  0  0  0  0
   20.0289   20.1627   23.1099 C   0  0  0  0  0  0  0  0  0  0  0  0
   21.1232   20.2336   23.0422 H   0  0  0  0  0  0  0  0  0  0  0  0
   19.6951   21.1259   23.5196 H   0  0  0  0  0  0  0  0  0  0  0  0
   19.4120   20.0032   21.6993 C   0  0  0  0  0  0  0  0  0  0  0  0
   18.5041   19.3860   21.7445 H   0  0  0  0  0  0  0  0  0  0  0  0
   19.0909   20.9903   21.3390 H   0  0  0  0  0  0  0  0  0  0  0  0
   20.4077   19.4190   20.6744 C   0  0  0  0  0  0  0  0  0  0  0  0
   21.2738   20.0816   20.5486 H   0  0  0  0  0  0  0  0  0  0  0  0
   20.7766   18.4355   20.9881 H   0  0  0  0  0  0  0  0  0  0  0  0
   19.9273   19.3012   19.6946 H   0  0  0  0  0  0  0  0  0  0  0  0
  1  2  1  0  0  0  0
  1  3  2  0  0  0  0
  1  4  1  0  0  0  0
  4  5  1  0  0  0  0
  4  6  1  0  0  0  0
  4  7  1  0  0  0  0
  7  8  1  0  0  0  0
  7  9  1  0  0  0  0
  7 10  1  0  0  0  0
 10 11  1  0  0  0  0
 10 12  1  0  0  0  0
 10 13  1  0  0  0  0
 13 14  1  0  0  0  0
 13 15  1  0  0  0  0
 13 16  1  0  0  0  0
 16 17  1  0  0  0  0
 16 18  1  0  0  0  0
 16 19  1  0  0  0  0
M  END
> <VConfSearch Rank>
722

> <Conf_Id>
66

> <Delta U+W>
5.819

> <U+W>
-49.072

> <U>
15.324

> <W>
-64.396

> <W(PB)>
-66.382

> <W(SA)>
1.986

> <Valence>
11.748

> <Coulomb>
3.201

> <VdW>
0.375

> <VdW6>
-8.854

> <VdW12>
9.229

> <Bond>
0.216

> <Angle>
3.812

> <Pdih>
7.699

> <Idih>
0.022

> <Tether>
0.000

$$$$
VeraChem MOL file


 19 18  0  0  0  0  0  0  0  0999 V2000     
   22.2717   16.4013   22.5209 C   0  0  0  0  0  0  0  0  0  0  0  0
   22.3458   15.2104   22.7483 O   0  5  0  0  0  0  0  0  0  0  0  0
   23.2473   17.1050   22.3445 O   0  0  0  0  0  0  0  0  0  0  0  0
   20.8718   17.0148   22.4602 C   0  0  0  0  0  0  0  0  0  0  0  0
   20.3822   16.8080   23.4191 H   0  0  0  0  0  0  0  0  0  0  0  0
   20.3104   16.4731   21.6899 H   0  0  0  0  0  0  0  0  0  0  0  0
   20.8276   18.5381   22.1670 C   0  0  0  0  0  0  0  0  0  0  0  0
   21.3967   19.0745   22.9390 H   0  0  0  0  0  0  0  0  0  0  0  0
   21.3249   18.7392   21.2080 H   0  0  0  0  0  0  0  0  0  0  0  0
   19.3796   19.0727   22.1236 C   0  0  0  0  0  0  0  0  0  0  0  0
   18.8844   18.8704   23.0833 H   0  0  0  0  0  0  0  0  0  0  0  0
   18.8125   18.5350   21.3513 H   0  0  0  0  0  0  0  0  0  0  0  0
   19.3379   20.5872   21.8321 C   0  0  0  0  0  0  0  0  0  0  0  0
   19.9027   21.1288   22.6036 H   0  0  0  0  0  0  0  0  0  0  0  0
   19.8307   20.7934   20.8718 H   0  0  0  0  0  0  0  0  0  0  0  0
   17.8909   21.1174   21.7895 C   0  0  0  0  0  0  0  0  0  0  0  0
   17.3837   20.9524   22.7492 H   0  0  0  0  0  0  0  0  0  0  0  0
   17.8798   22.1952   21.5813 H   0  0  0  0  0  0  0  0  0  0  0  0
   17.3112   20.6145   21.0044 H   0  0  0  0  0  0  0  0  0  0  0  0
  1  2  1  0  0  0  0
  1  3  2  0  0  0  0
  1  4  1  0  0  0  0
  4  5  1  0  0  0  0
  4  6  1  0  0  0  0
  4  7  1  0  0  0  0
  7  8  1  0  0  0  0
  7  9  1  0  0  0  0
  7 10  1  0  0  0  0
 10 11  1  0  0  0  0
 10 12  1  0  0  0  0
 10 13  1  0  0  0  0
 13 14  1  0  0  0  0
 13 15  1  0  0  0  0
 13 16  1  0  0  0  0
 16 17  1  0  0  0  0
 16 18  1  0  0  0  0
 16 19  1  0  0  0  0
M  END
> <VConfSearch Rank>
723

> <Conf_Id>
0

> <Delta U+W>
0.000

> <U+W>
-54.891

> <U>
6.966

> <W>
-61.857

> <W(PB)>
-63.965

> <W(SA)>
2.108

> <Valence>
7.175

> <Coulomb>
-1.360

> <VdW>
1.151

> <VdW6>
-5.641

> <VdW12>
6.792

> <Bond>
0.119

> <Angle>
2.715

> <Pdih>
4.340

> <Idih>
0.000

> <Tether>
0.000

$$$$
VeraChem MOL file


 19 18  0  0  0  0  0  0  0  0999 V2000     
   22.8866   17.4568   22.8816 C   0  0  0  0  0  0  0  0  0  0  0  0
   23.3257   16.7248   22.0169 O   0  5  0  0  0  0  0  0  0  0  0  0
   23.5866   18.0741   23.6594 O   0  0  0  0  0  0  0  0  0  0  0  0
   21.3748   17.6259   22.9827 C   0  0  0  0  0  0  0  0  0  0  0  0
   21.1203   17.7935   24.0363 H   0  0  0  0  0  0  0  0  0  0  0  0
   20.9053   16.6816   22.6821 H   0  0  0  0  0  0  0  0  0  0  0  0
   20.8395   18.7895   22.1123 C   0  0  0  0  0  0  0  0  0  0  0  0
   21.3284   19.7253   22.4171 H   0  0  0  0  0  0  0  0  0  0  0  0
   21.1135   18.6134   21.0628 H   0  0  0  0  0  0  0  0  0  0  0  0
   19.3076   18.9394   22.2324 C   0  0  0  0  0  0  0  0  0  0  0  0
   19.0368   19.1140   23.2828 H   0  0  0  0  0  0  0  0  0  0  0  0
   18.8219   18.0020   21.9282 H   0  0  0  0  0  0  0  0  0  0  0  0
   18.7771   20.0993   21.3643 C   0  0  0  0  0  0  0  0  0  0  0  0
   19.2593   21.0392   21.6668 H   0  0  0  0  0  0  0  0  0  0  0  0
   19.0443   19.9273   20.3124 H   0  0  0  0  0  0  0  0  0  0  0  0
   17.2473   20.2461   21.4866 C   0  0  0  0  0  0  0  0  0  0  0  0
   16.8872   21.0749   20.8633 H   0  0  0  0  0  0  0  0  0  0  0  0
   16.7374   19.3302   21.1602 H   0  0  0  0  0  0  0  0  0  0  0  0
   16.9541   20.4504   22.5247 H   0  0  0  0  0  0  0  0  0  0  0  0
  1  2  1  0  0  0  0
  1  3  2  0  0  0  0
  1  4  1  0  0  0  0
  4  5  1  0  0  0  0
  4  6  1  0  0  0  0
  4  7  1  0  0  0  0
  7  8  1  0  0  0  0
  7  9  1  0  0  0  0
  7 10  1  0  0  0  0
 10 11  1  0  0  0  0
 10 12  1  0  0  0  0
 10 13  1  0  0  0  0
 13 14  1  0  0  0  0
 13 15  1  0  0  0  0
 13 16  1  0  0  0  0
 16 17  1  0  0  0  0
 16 18  1  0  0  0  0
 16 19  1  0  0  0  0
M  END
> <VConfSearch Rank>
724

> <Conf_Id>
18

> <Delta U+W>
-1.199

> <U+W>
-56.090

> <U>
5.975

> <W>
-62.066

> <W(PB)>
-64.219

> <W(SA)>
2.153

> <Valence>
6.673

> <Coulomb>
-1.307

> <VdW>
0.610

> <VdW6>
-5.351

> <VdW12>
5.961

> <Bond>
0.086

> <Angle>
2.253

> <Pdih>
4.333

> <Idih>
0.001

> <Tether>
0.000

$$$$
VeraChem MOL file


 19 18  0  0  0  0  0  0  0  0999 V2000     
   17.9366   20.5247   20.2991 C   0  0  0  0  0  0  0  0  0  0  0  0
   17.1611   21.3650   20.7097 O   0  5  0  0  0  0  0  0  0  0  0  0
   18.2566   20.4184   19.1318 O   0  0  0  0  0  0  0  0  0  0  0  0
   18.5586   19.5648   21.3071 C   0  0  0  0  0  0  0  0  0  0  0  0
   18.7169   18.6061   20.8005 H   0  0  0  0  0  0  0  0  0  0  0  0
   17.8298   19.3934   22.1083 H   0  0  0  0  0  0  0  0  0  0  0  0
   19.8896   20.0963   21.8997 C   0  0  0  0  0  0  0  0  0  0  0  0
   20.6259   20.2219   21.0938 H   0  0  0  0  0  0  0  0  0  0  0  0
   19.7143   21.0970   22.3182 H   0  0  0  0  0  0  0  0  0  0  0  0
   20.4772   19.1914   23.0085 C   0  0  0  0  0  0  0  0  0  0  0  0
   19.7420   19.0748   23.8165 H   0  0  0  0  0  0  0  0  0  0  0  0
   21.3456   19.6996   23.4495 H   0  0  0  0  0  0  0  0  0  0  0  0
   20.9154   17.8003   22.4982 C   0  0  0  0  0  0  0  0  0  0  0  0
   20.0470   17.2441   22.1217 H   0  0  0  0  0  0  0  0  0  0  0  0
   21.6118   17.9167   21.6564 H   0  0  0  0  0  0  0  0  0  0  0  0
   21.5926   16.9775   23.6125 C   0  0  0  0  0  0  0  0  0  0  0  0
   21.8953   15.9918   23.2358 H   0  0  0  0  0  0  0  0  0  0  0  0
   22.4900   17.4869   23.9876 H   0  0  0  0  0  0  0  0  0  0  0  0
   20.9081   16.8222   24.4568 H   0  0  0  0  0  0  0  0  0  0  0  0
  1  2  1  0  0  0  0
  1  3  2  0  0  0  0
  1  4  1  0  0  0  0
  4  5  1  0  0  0  0
  4  6  1  0  0  0  0
  4  7  1  0  0  0  0
  7  8  1  0  0  0  0
  7  9  1  0  0  0  0
  7 10  1  0  0  0  0
 10 11  1  0  0  0  0
 10 12  1  0  0  0  0
 10 13  1  0  0  0  0
 13 14  1  0  0  0  0
 13 15  1  0  0  0  0
 13 16  1  0  0  0  0
 16 17  1  0  0  0  0
 16 18  1  0  0  0  0
 16 19  1  0  0  0  0
M  END
> <VConfSearch Rank>
725

> <Conf_Id>
34

> <Delta U+W>
-0.563

> <U+W>
-55.455

> <U>
6.914

> <W>
-62.369

> <W(PB)>
-64.446

> <W(SA)>
2.077

> <Valence>
7.196

> <Coulomb>
-1.020

> <VdW>
0.738

> <VdW6>
-6.010

> <VdW12>
6.748

> <Bond>
0.126

> <Angle>
2.499

> <Pdih>
4.570

> <Idih>
0.001

> <Tether>
0.000

$$$$
VeraChem MOL file


 19 18  0  0  0  0  0  0  0  0999 V2000     
   17.4459   20.0778   23.7953 C   0  0  0  0  0  0  0  0  0  0  0  0
   16.7234   19.3948   24.4936 O   0  5  0  0  0  0  0  0  0  0  0  0
   17.1313   21.1715   23.3699 O   0  0  0  0  0  0  0  0  0  0  0  0
   18.8136   19.5223   23.4140 C   0  0  0  0  0  0  0  0  0  0  0  0
   19.1676   18.8932   24.2395 H   0  0  0  0  0  0  0  0  0  0  0  0
   19.5052   20.3682   23.3297 H   0  0  0  0  0  0  0  0  0  0  0  0
   18.7838   18.7070   22.0951 C   0  0  0  0  0  0  0  0  0  0  0  0
   18.0165   17.9251   22.1814 H   0  0  0  0  0  0  0  0  0  0  0  0
   18.4707   19.3587   21.2677 H   0  0  0  0  0  0  0  0  0  0  0  0
   20.1360   18.0385   21.7513 C   0  0  0  0  0  0  0  0  0  0  0  0
   19.9921   17.3912   20.8754 H   0  0  0  0  0  0  0  0  0  0  0  0
   20.4421   17.3811   22.5766 H   0  0  0  0  0  0  0  0  0  0  0  0
   21.2624   19.0516   21.4472 C   0  0  0  0  0  0  0  0  0  0  0  0
   20.9368   19.7417   20.6566 H   0  0  0  0  0  0  0  0  0  0  0  0
   21.4751   19.6596   22.3362 H   0  0  0  0  0  0  0  0  0  0  0  0
   22.5571   18.3407   21.0048 C   0  0  0  0  0  0  0  0  0  0  0  0
   22.9207   17.6637   21.7889 H   0  0  0  0  0  0  0  0  0  0  0  0
   22.3907   17.7519   20.0932 H   0  0  0  0  0  0  0  0  0  0  0  0
   23.3480   19.0727   20.7954 H   0  0  0  0  0  0  0  0  0  0  0  0
  1  2  1  0  0  0  0
  1  3  2  0  0  0  0
  1  4  1  0  0  0  0
  4  5  1  0  0  0  0
  4  6  1  0  0  0  0
  4  7  1  0  0  0  0
  7  8  1  0  0  0  0
  7  9  1  0  0  0  0
  7 10  1  0  0  0  0
 10 11  1  0  0  0  0
 10 12  1  0  0  0  0
 10 13  1  0  0  0  0
 13 14  1  0  0  0  0
 13 15  1  0  0  0  0
 13 16  1  0  0  0  0
 16 17  1  0  0  0  0
 16 18  1  0  0  0  0
 16 19  1  0  0  0  0
M  END
> <VConfSearch Rank>
726

> <Conf_Id>
33

> <Delta U+W>
-0.526

> <U+W>
-55.418

> <U>
6.914

> <W>
-62.332

> <W(PB)>
-64.421

> <W(SA)>
2.090

> <Valence>
7.196

> <Coulomb>
-1.020

> <VdW>
0.738

> <VdW6>
-6.010

> <VdW12>
6.748

> <Bond>
0.126

> <Angle>
2.499

> <Pdih>
4.570

> <Idih>
0.001

> <Tether>
0.000

$$$$
VeraChem MOL file


 19 18  0  0  0  0  0  0  0  0999 V2000     
   20.9939   17.9262   19.4429 C   0  0  0  0  0  0  0  0  0  0  0  0
   21.8960   17.1319   19.6205 O   0  5  0  0  0  0  0  0  0  0  0  0
   20.1947   17.8434   18.5315 O   0  0  0  0  0  0  0  0  0  0  0  0
   20.8459   19.0805   20.4279 C   0  0  0  0  0  0  0  0  0  0  0  0
   20.4488   19.9450   19.8824 H   0  0  0  0  0  0  0  0  0  0  0  0
   21.8459   19.3541   20.7854 H   0  0  0  0  0  0  0  0  0  0  0  0
   19.9270   18.7358   21.6259 C   0  0  0  0  0  0  0  0  0  0  0  0
   18.9329   18.4549   21.2515 H   0  0  0  0  0  0  0  0  0  0  0  0
   20.3338   17.8577   22.1447 H   0  0  0  0  0  0  0  0  0  0  0  0
   19.7979   19.9219   22.6094 C   0  0  0  0  0  0  0  0  0  0  0  0
   19.4581   20.8088   22.0572 H   0  0  0  0  0  0  0  0  0  0  0  0
   20.7855   20.1709   23.0212 H   0  0  0  0  0  0  0  0  0  0  0  0
   18.8077   19.6549   23.7665 C   0  0  0  0  0  0  0  0  0  0  0  0
   18.6852   20.5802   24.3462 H   0  0  0  0  0  0  0  0  0  0  0  0
   17.8171   19.4109   23.3585 H   0  0  0  0  0  0  0  0  0  0  0  0
   19.2691   18.5300   24.7180 C   0  0  0  0  0  0  0  0  0  0  0  0
   20.2708   18.7381   25.1159 H   0  0  0  0  0  0  0  0  0  0  0  0
   18.5800   18.4396   25.5677 H   0  0  0  0  0  0  0  0  0  0  0  0
   19.2957   17.5591   24.2077 H   0  0  0  0  0  0  0  0  0  0  0  0
  1  2  1  0  0  0  0
  1  3  2  0  0  0  0
  1  4  1  0  0  0  0
  4  5  1  0  0  0  0
  4  6  1  0  0  0  0
  4  7  1  0  0  0  0
  7  8  1  0  0  0  0
  7  9  1  0  0  0  0
  7 10  1  0  0  0  0
 10 11  1  0  0  0  0
 10 12  1  0  0  0  0
 10 13  1  0  0  0  0
 13 14  1  0  0  0  0
 13 15  1  0  0  0  0
 13 16  1  0  0  0  0
 16 17  1  0  0  0  0
 16 18  1  0  0  0  0
 16 19  1  0  0  0  0
M  END
> <VConfSearch Rank>
727

> <Conf_Id>
42

> <Delta U+W>
-0.344

> <U+W>
-55.236

> <U>
7.244

> <W>
-62.479

> <W(PB)>
-64.610

> <W(SA)>
2.130

> <Valence>
7.174

> <Coulomb>
-0.669

> <VdW>
0.739

> <VdW6>
-5.969

> <VdW12>
6.708

> <Bond>
0.116

> <Angle>
2.481

> <Pdih>
4.576

> <Idih>
0.000

> <Tether>
0.000

$$$$
VeraChem MOL file


 19 18  0  0  0  0  0  0  0  0999 V2000     
   20.1494   16.5586   24.3249 C   0  0  0  0  0  0  0  0  0  0  0  0
   19.9792   16.9898   25.4480 O   0  5  0  0  0  0  0  0  0  0  0  0
   20.8793   15.6220   24.0677 O   0  0  0  0  0  0  0  0  0  0  0  0
   19.4214   17.2420   23.1728 C   0  0  0  0  0  0  0  0  0  0  0  0
   18.4621   17.6166   23.5499 H   0  0  0  0  0  0  0  0  0  0  0  0
   19.1972   16.4830   22.4136 H   0  0  0  0  0  0  0  0  0  0  0  0
   20.2375   18.3999   22.5469 C   0  0  0  0  0  0  0  0  0  0  0  0
   20.4657   19.1367   23.3283 H   0  0  0  0  0  0  0  0  0  0  0  0
   21.1984   18.0109   22.1827 H   0  0  0  0  0  0  0  0  0  0  0  0
   19.4745   19.0764   21.3847 C   0  0  0  0  0  0  0  0  0  0  0  0
   18.5363   19.5083   21.7592 H   0  0  0  0  0  0  0  0  0  0  0  0
   19.1929   18.3111   20.6484 H   0  0  0  0  0  0  0  0  0  0  0  0
   20.2965   20.1706   20.6653 C   0  0  0  0  0  0  0  0  0  0  0  0
   21.2333   19.7410   20.2844 H   0  0  0  0  0  0  0  0  0  0  0  0
   19.7331   20.5145   19.7869 H   0  0  0  0  0  0  0  0  0  0  0  0
   20.6101   21.3877   21.5621 C   0  0  0  0  0  0  0  0  0  0  0  0
   21.2696   21.1128   22.3947 H   0  0  0  0  0  0  0  0  0  0  0  0
   21.1158   22.1710   20.9827 H   0  0  0  0  0  0  0  0  0  0  0  0
   19.6893   21.8166   21.9785 H   0  0  0  0  0  0  0  0  0  0  0  0
  1  2  1  0  0  0  0
  1  3  2  0  0  0  0
  1  4  1  0  0  0  0
  4  5  1  0  0  0  0
  4  6  1  0  0  0  0
  4  7  1  0  0  0  0
  7  8  1  0  0  0  0
  7  9  1  0  0  0  0
  7 10  1  0  0  0  0
 10 11  1  0  0  0  0
 10 12  1  0  0  0  0
 10 13  1  0  0  0  0
 13 14  1  0  0  0  0
 13 15  1  0  0  0  0
 13 16  1  0  0  0  0
 16 17  1  0  0  0  0
 16 18  1  0  0  0  0
 16 19  1  0  0  0  0
M  END
> <VConfSearch Rank>
728

> <Conf_Id>
41

> <Delta U+W>
-0.361

> <U+W>
-55.252

> <U>
7.244

> <W>
-62.496

> <W(PB)>
-64.596

> <W(SA)>
2.099

> <Valence>
7.174

> <Coulomb>
-0.669

> <VdW>
0.739

> <VdW6>
-5.969

> <VdW12>
6.708

> <Bond>
0.116

> <Angle>
2.481

> <Pdih>
4.576

> <Idih>
0.000

> <Tether>
0.000

$$$$
VeraChem MOL file


 19 18  0  0  0  0  0  0  0  0999 V2000     
   19.3950   20.5364   19.9757 C   0  0  0  0  0  0  0  0  0  0  0  0
   18.4039   19.9838   19.5412 O   0  5  0  0  0  0  0  0  0  0  0  0
   19.4799   21.7385   20.1322 O   0  0  0  0  0  0  0  0  0  0  0  0
   20.6083   19.6783   20.3235 C   0  0  0  0  0  0  0  0  0  0  0  0
   21.4900   20.1669   19.8921 H   0  0  0  0  0  0  0  0  0  0  0  0
   20.5064   18.7079   19.8227 H   0  0  0  0  0  0  0  0  0  0  0  0
   20.8223   19.4750   21.8460 C   0  0  0  0  0  0  0  0  0  0  0  0
   21.7845   18.9699   22.0062 H   0  0  0  0  0  0  0  0  0  0  0  0
   20.8939   20.4553   22.3375 H   0  0  0  0  0  0  0  0  0  0  0  0
   19.6956   18.6433   22.4987 C   0  0  0  0  0  0  0  0  0  0  0  0
   19.6193   17.6696   21.9954 H   0  0  0  0  0  0  0  0  0  0  0  0
   18.7313   19.1509   22.3575 H   0  0  0  0  0  0  0  0  0  0  0  0
   19.9450   18.4269   24.0058 C   0  0  0  0  0  0  0  0  0  0  0  0
   20.9065   17.9157   24.1531 H   0  0  0  0  0  0  0  0  0  0  0  0
   20.0193   19.3993   24.5121 H   0  0  0  0  0  0  0  0  0  0  0  0
   18.8192   17.5967   24.6541 C   0  0  0  0  0  0  0  0  0  0  0  0
   18.7432   16.6059   24.1872 H   0  0  0  0  0  0  0  0  0  0  0  0
   19.0122   17.4528   25.7251 H   0  0  0  0  0  0  0  0  0  0  0  0
   17.8494   18.1006   24.5489 H   0  0  0  0  0  0  0  0  0  0  0  0
  1  2  1  0  0  0  0
  1  3  2  0  0  0  0
  1  4  1  0  0  0  0
  4  5  1  0  0  0  0
  4  6  1  0  0  0  0
  4  7  1  0  0  0  0
  7  8  1  0  0  0  0
  7  9  1  0  0  0  0
  7 10  1  0  0  0  0
 10 11  1  0  0  0  0
 10 12  1  0  0  0  0
 10 13  1  0  0  0  0
 13 14  1  0  0  0  0
 13 15  1  0  0  0  0
 13 16  1  0  0  0  0
 16 17  1  0  0  0  0
 16 18  1  0  0  0  0
 16 19  1  0  0  0  0
M  END
> <VConfSearch Rank>
729

> <Conf_Id>
36

> <Delta U+W>
-0.079

> <U+W>
-54.971

> <U>
8.266

> <W>
-63.237

> <W(PB)>
-65.340

> <W(SA)>
2.103

> <Valence>
6.935

> <Coulomb>
0.874

> <VdW>
0.457

> <VdW6>
-6.205

> <VdW12>
6.662

> <Bond>
0.107

> <Angle>
2.420

> <Pdih>
4.407

> <Idih>
0.001

> <Tether>
0.000

$$$$
VeraChem MOL file


 19 18  0  0  0  0  0  0  0  0999 V2000     
   21.4467   20.8701   20.6616 C   0  0  0  0  0  0  0  0  0  0  0  0
   20.5141   21.1984   19.9552 O   0  5  0  0  0  0  0  0  0  0  0  0
   22.5255   20.5163   20.2286 O   0  0  0  0  0  0  0  0  0  0  0  0
   21.2622   20.9249   22.1757 C   0  0  0  0  0  0  0  0  0  0  0  0
   20.4003   21.5647   22.4008 H   0  0  0  0  0  0  0  0  0  0  0  0
   22.1446   21.4221   22.5957 H   0  0  0  0  0  0  0  0  0  0  0  0
   21.0855   19.5353   22.8410 C   0  0  0  0  0  0  0  0  0  0  0  0
   21.9419   18.8968   22.5832 H   0  0  0  0  0  0  0  0  0  0  0  0
   21.0999   19.6584   23.9324 H   0  0  0  0  0  0  0  0  0  0  0  0
   19.7701   18.8399   22.4243 C   0  0  0  0  0  0  0  0  0  0  0  0
   19.7554   18.6977   21.3349 H   0  0  0  0  0  0  0  0  0  0  0  0
   18.9180   19.4876   22.6721 H   0  0  0  0  0  0  0  0  0  0  0  0
   19.6001   17.4742   23.1219 C   0  0  0  0  0  0  0  0  0  0  0  0
   20.4501   16.8235   22.8737 H   0  0  0  0  0  0  0  0  0  0  0  0
   19.6098   17.6108   24.2121 H   0  0  0  0  0  0  0  0  0  0  0  0
   18.2869   16.7830   22.7041 C   0  0  0  0  0  0  0  0  0  0  0  0
   18.2639   16.6057   21.6208 H   0  0  0  0  0  0  0  0  0  0  0  0
   18.1823   15.8137   23.2086 H   0  0  0  0  0  0  0  0  0  0  0  0
   17.4174   17.3988   22.9691 H   0  0  0  0  0  0  0  0  0  0  0  0
  1  2  1  0  0  0  0
  1  3  2  0  0  0  0
  1  4  1  0  0  0  0
  4  5  1  0  0  0  0
  4  6  1  0  0  0  0
  4  7  1  0  0  0  0
  7  8  1  0  0  0  0
  7  9  1  0  0  0  0
  7 10  1  0  0  0  0
 10 11  1  0  0  0  0
 10 12  1  0  0  0  0
 10 13  1  0  0  0  0
 13 14  1  0  0  0  0
 13 15  1  0  0  0  0
 13 16  1  0  0  0  0
 16 17  1  0  0  0  0
 16 18  1  0  0  0  0
 16 19  1  0  0  0  0
M  END
> <VConfSearch Rank>
730

> <Conf_Id>
35

> <Delta U+W>
-0.030

> <U+W>
-54.921

> <U>
8.267

> <W>
-63.188

> <W(PB)>
-65.294

> <W(SA)>
2.106

> <Valence>
6.935

> <Coulomb>
0.875

> <VdW>
0.457

> <VdW6>
-6.205

> <VdW12>
6.662

> <Bond>
0.107

> <Angle>
2.420

> <Pdih>
4.407

> <Idih>
0.001

> <Tether>
0.000

$$$$
VeraChem MOL file


 19 18  0  0  0  0  0  0  0  0999 V2000     
   18.7333   17.0479   20.4672 C   0  0  0  0  0  0  0  0  0  0  0  0
   18.5286   15.9500   20.9461 O   0  5  0  0  0  0  0  0  0  0  0  0
   19.2196   17.2207   19.3671 O   0  0  0  0  0  0  0  0  0  0  0  0
   18.3372   18.2746   21.2844 C   0  0  0  0  0  0  0  0  0  0  0  0
   17.3316   18.0925   21.6814 H   0  0  0  0  0  0  0  0  0  0  0  0
   18.2608   19.1359   20.6096 H   0  0  0  0  0  0  0  0  0  0  0  0
   19.3043   18.5955   22.4538 C   0  0  0  0  0  0  0  0  0  0  0  0
   18.8576   19.3882   23.0674 H   0  0  0  0  0  0  0  0  0  0  0  0
   19.4015   17.7113   23.0987 H   0  0  0  0  0  0  0  0  0  0  0  0
   20.7019   19.0431   21.9629 C   0  0  0  0  0  0  0  0  0  0  0  0
   20.6064   19.9496   21.3498 H   0  0  0  0  0  0  0  0  0  0  0  0
   21.1192   18.2676   21.3059 H   0  0  0  0  0  0  0  0  0  0  0  0
   21.7039   19.2986   23.1125 C   0  0  0  0  0  0  0  0  0  0  0  0
   21.8032   18.3927   23.7263 H   0  0  0  0  0  0  0  0  0  0  0  0
   22.6953   19.4898   22.6792 H   0  0  0  0  0  0  0  0  0  0  0  0
   21.3152   20.4942   24.0089 C   0  0  0  0  0  0  0  0  0  0  0  0
   20.3850   20.2989   24.5568 H   0  0  0  0  0  0  0  0  0  0  0  0
   22.1016   20.6898   24.7495 H   0  0  0  0  0  0  0  0  0  0  0  0
   21.1794   21.4052   23.4118 H   0  0  0  0  0  0  0  0  0  0  0  0
  1  2  1  0  0  0  0
  1  3  2  0  0  0  0
  1  4  1  0  0  0  0
  4  5  1  0  0  0  0
  4  6  1  0  0  0  0
  4  7  1  0  0  0  0
  7  8  1  0  0  0  0
  7  9  1  0  0  0  0
  7 10  1  0  0  0  0
 10 11  1  0  0  0  0
 10 12  1  0  0  0  0
 10 13  1  0  0  0  0
 13 14  1  0  0  0  0
 13 15  1  0  0  0  0
 13 16  1  0  0  0  0
 16 17  1  0  0  0  0
 16 18  1  0  0  0  0
 16 19  1  0  0  0  0
M  END
> <VConfSearch Rank>
731

> <Conf_Id>
74

> <Delta U+W>
0.797

> <U+W>
-54.095

> <U>
8.869

> <W>
-62.964

> <W(PB)>
-65.046

> <W(SA)>
2.082

> <Valence>
7.469

> <Coulomb>
0.762

> <VdW>
0.639

> <VdW6>
-6.782

> <VdW12>
7.421

> <Bond>
0.141

> <Angle>
2.667

> <Pdih>
4.660

> <Idih>
0.001

> <Tether>
0.000

$$$$
VeraChem MOL file


 19 18  0  0  0  0  0  0  0  0999 V2000     
   19.8187   20.6887   19.9624 C   0  0  0  0  0  0  0  0  0  0  0  0
   18.8662   20.9380   19.2504 O   0  5  0  0  0  0  0  0  0  0  0  0
   20.7829   21.4194   20.0752 O   0  0  0  0  0  0  0  0  0  0  0  0
   19.7936   19.3975   20.7725 C   0  0  0  0  0  0  0  0  0  0  0  0
   20.8263   19.0429   20.8674 H   0  0  0  0  0  0  0  0  0  0  0  0
   19.2417   18.6446   20.1973 H   0  0  0  0  0  0  0  0  0  0  0  0
   19.1507   19.5788   22.1719 C   0  0  0  0  0  0  0  0  0  0  0  0
   19.7336   20.3061   22.7525 H   0  0  0  0  0  0  0  0  0  0  0  0
   18.1525   20.0205   22.0466 H   0  0  0  0  0  0  0  0  0  0  0  0
   19.0079   18.2548   22.9641 C   0  0  0  0  0  0  0  0  0  0  0  0
   18.3380   17.5810   22.4128 H   0  0  0  0  0  0  0  0  0  0  0  0
   18.5062   18.4672   23.9180 H   0  0  0  0  0  0  0  0  0  0  0  0
   20.3355   17.5114   23.2517 C   0  0  0  0  0  0  0  0  0  0  0  0
   20.1069   16.5878   23.8010 H   0  0  0  0  0  0  0  0  0  0  0  0
   20.8051   17.1959   22.3107 H   0  0  0  0  0  0  0  0  0  0  0  0
   21.3367   18.3460   24.0790 C   0  0  0  0  0  0  0  0  0  0  0  0
   20.8804   18.6920   25.0155 H   0  0  0  0  0  0  0  0  0  0  0  0
   22.2192   17.7451   24.3340 H   0  0  0  0  0  0  0  0  0  0  0  0
   21.6827   19.2238   23.5187 H   0  0  0  0  0  0  0  0  0  0  0  0
  1  2  1  0  0  0  0
  1  3  2  0  0  0  0
  1  4  1  0  0  0  0
  4  5  1  0  0  0  0
  4  6  1  0  0  0  0
  4  7  1  0  0  0  0
  7  8  1  0  0  0  0
  7  9  1  0  0  0  0
  7 10  1  0  0  0  0
 10 11  1  0  0  0  0
 10 12  1  0  0  0  0
 10 13  1  0  0  0  0
 13 14  1  0  0  0  0
 13 15  1  0  0  0  0
 13 16  1  0  0  0  0
 16 17  1  0  0  0  0
 16 18  1  0  0  0  0
 16 19  1  0  0  0  0
M  END
> <VConfSearch Rank>
732

> <Conf_Id>
67

> <Delta U+W>
0.308

> <U+W>
-54.583

> <U>
8.219

> <W>
-62.802

> <W(PB)>
-64.859

> <W(SA)>
2.057

> <Valence>
7.609

> <Coulomb>
-0.089

> <VdW>
0.699

> <VdW6>
-6.924

> <VdW12>
7.623

> <Bond>
0.163

> <Angle>
2.870

> <Pdih>
4.576

> <Idih>
0.001

> <Tether>
0.000

$$$$
VeraChem MOL file


 19 18  0  0  0  0  0  0  0  0999 V2000     
   20.8577   21.6472   21.6450 C   0  0  0  0  0  0  0  0  0  0  0  0
   21.4411   22.4561   22.3391 O   0  5  0  0  0  0  0  0  0  0  0  0
   20.1834   21.9512   20.6810 O   0  0  0  0  0  0  0  0  0  0  0  0
   20.9621   20.1722   22.0159 C   0  0  0  0  0  0  0  0  0  0  0  0
   21.9490   20.0017   22.4622 H   0  0  0  0  0  0  0  0  0  0  0  0
   20.9190   19.5908   21.0878 H   0  0  0  0  0  0  0  0  0  0  0  0
   19.8473   19.7184   22.9936 C   0  0  0  0  0  0  0  0  0  0  0  0
   19.8585   20.3785   23.8718 H   0  0  0  0  0  0  0  0  0  0  0  0
   18.8657   19.8581   22.5216 H   0  0  0  0  0  0  0  0  0  0  0  0
   20.0045   18.2543   23.4756 C   0  0  0  0  0  0  0  0  0  0  0  0
   19.2038   18.0318   24.1940 H   0  0  0  0  0  0  0  0  0  0  0  0
   20.9464   18.1626   24.0335 H   0  0  0  0  0  0  0  0  0  0  0  0
   19.9831   17.1850   22.3557 C   0  0  0  0  0  0  0  0  0  0  0  0
   20.8386   17.3245   21.6816 H   0  0  0  0  0  0  0  0  0  0  0  0
   20.1169   16.1957   22.8145 H   0  0  0  0  0  0  0  0  0  0  0  0
   18.6726   17.1804   21.5396 C   0  0  0  0  0  0  0  0  0  0  0  0
   18.5545   18.1109   20.9699 H   0  0  0  0  0  0  0  0  0  0  0  0
   18.6692   16.3490   20.8231 H   0  0  0  0  0  0  0  0  0  0  0  0
   17.8009   17.0649   22.1968 H   0  0  0  0  0  0  0  0  0  0  0  0
  1  2  1  0  0  0  0
  1  3  2  0  0  0  0
  1  4  1  0  0  0  0
  4  5  1  0  0  0  0
  4  6  1  0  0  0  0
  4  7  1  0  0  0  0
  7  8  1  0  0  0  0
  7  9  1  0  0  0  0
  7 10  1  0  0  0  0
 10 11  1  0  0  0  0
 10 12  1  0  0  0  0
 10 13  1  0  0  0  0
 13 14  1  0  0  0  0
 13 15  1  0  0  0  0
 13 16  1  0  0  0  0
 16 17  1  0  0  0  0
 16 18  1  0  0  0  0
 16 19  1  0  0  0  0
M  END
> <VConfSearch Rank>
733

> <Conf_Id>
21

> <Delta U+W>
0.319

> <U+W>
-54.572

> <U>
8.220

> <W>
-62.792

> <W(PB)>
-64.830

> <W(SA)>
2.038

> <Valence>
7.609

> <Coulomb>
-0.088

> <VdW>
0.699

> <VdW6>
-6.924

> <VdW12>
7.623

> <Bond>
0.163

> <Angle>
2.870

> <Pdih>
4.576

> <Idih>
0.000

> <Tether>
0.000

$$$$
VeraChem MOL file


 19 18  0  0  0  0  0  0  0  0999 V2000     
   18.8286   16.5077   21.2182 C   0  0  0  0  0  0  0  0  0  0  0  0
   18.3514   15.5373   21.7724 O   0  5  0  0  0  0  0  0  0  0  0  0
   18.5658   16.8260   20.0754 O   0  0  0  0  0  0  0  0  0  0  0  0
   19.7957   17.3838   22.0064 C   0  0  0  0  0  0  0  0  0  0  0  0
   20.5209   17.8017   21.3014 H   0  0  0  0  0  0  0  0  0  0  0  0
   20.3546   16.7372   22.6933 H   0  0  0  0  0  0  0  0  0  0  0  0
   19.0779   18.5072   22.8003 C   0  0  0  0  0  0  0  0  0  0  0  0
   18.4702   19.1213   22.1213 H   0  0  0  0  0  0  0  0  0  0  0  0
   18.3727   18.0315   23.4958 H   0  0  0  0  0  0  0  0  0  0  0  0
   20.0464   19.4038   23.6127 C   0  0  0  0  0  0  0  0  0  0  0  0
   20.9333   18.8304   23.9150 H   0  0  0  0  0  0  0  0  0  0  0  0
   19.5437   19.6905   24.5466 H   0  0  0  0  0  0  0  0  0  0  0  0
   20.4747   20.7080   22.8961 C   0  0  0  0  0  0  0  0  0  0  0  0
   19.5866   21.3168   22.6774 H   0  0  0  0  0  0  0  0  0  0  0  0
   21.0898   21.2997   23.5880 H   0  0  0  0  0  0  0  0  0  0  0  0
   21.2731   20.4826   21.5955 C   0  0  0  0  0  0  0  0  0  0  0  0
   21.6566   21.4364   21.2108 H   0  0  0  0  0  0  0  0  0  0  0  0
   22.1295   19.8180   21.7684 H   0  0  0  0  0  0  0  0  0  0  0  0
   20.6405   20.0425   20.8145 H   0  0  0  0  0  0  0  0  0  0  0  0
  1  2  1  0  0  0  0
  1  3  2  0  0  0  0
  1  4  1  0  0  0  0
  4  5  1  0  0  0  0
  4  6  1  0  0  0  0
  4  7  1  0  0  0  0
  7  8  1  0  0  0  0
  7  9  1  0  0  0  0
  7 10  1  0  0  0  0
 10 11  1  0  0  0  0
 10 12  1  0  0  0  0
 10 13  1  0  0  0  0
 13 14  1  0  0  0  0
 13 15  1  0  0  0  0
 13 16  1  0  0  0  0
 16 17  1  0  0  0  0
 16 18  1  0  0  0  0
 16 19  1  0  0  0  0
M  END
> <VConfSearch Rank>
734

> <Conf_Id>
24

> <Delta U+W>
2.477

> <U+W>
-52.414

> <U>
10.422

> <W>
-62.836

> <W(PB)>
-64.906

> <W(SA)>
2.070

> <Valence>
9.628

> <Coulomb>
0.101

> <VdW>
0.693

> <VdW6>
-6.927

> <VdW12>
7.620

> <Bond>
0.173

> <Angle>
2.989

> <Pdih>
6.465

> <Idih>
0.001

> <Tether>
0.000

$$$$
VeraChem MOL file


 19 18  0  0  0  0  0  0  0  0999 V2000     
   21.2804   20.7800   21.0615 C   0  0  0  0  0  0  0  0  0  0  0  0
   22.0134   19.9721   20.5260 O   0  5  0  0  0  0  0  0  0  0  0  0
   20.9618   21.8368   20.5529 O   0  0  0  0  0  0  0  0  0  0  0  0
   20.7535   20.4666   22.4595 C   0  0  0  0  0  0  0  0  0  0  0  0
   20.9264   21.3556   23.0772 H   0  0  0  0  0  0  0  0  0  0  0  0
   21.3637   19.6646   22.8868 H   0  0  0  0  0  0  0  0  0  0  0  0
   19.2437   20.1006   22.4977 C   0  0  0  0  0  0  0  0  0  0  0  0
   18.8895   20.0908   23.5373 H   0  0  0  0  0  0  0  0  0  0  0  0
   18.6866   20.9045   21.9967 H   0  0  0  0  0  0  0  0  0  0  0  0
   18.8982   18.7522   21.8137 C   0  0  0  0  0  0  0  0  0  0  0  0
   19.6021   18.5436   20.9965 H   0  0  0  0  0  0  0  0  0  0  0  0
   17.9129   18.8539   21.3387 H   0  0  0  0  0  0  0  0  0  0  0  0
   18.8287   17.5398   22.7745 C   0  0  0  0  0  0  0  0  0  0  0  0
   18.0584   17.7174   23.5377 H   0  0  0  0  0  0  0  0  0  0  0  0
   18.4982   16.6616   22.2030 H   0  0  0  0  0  0  0  0  0  0  0  0
   20.1666   17.2042   23.4651 C   0  0  0  0  0  0  0  0  0  0  0  0
   20.4501   17.9869   24.1795 H   0  0  0  0  0  0  0  0  0  0  0  0
   20.0854   16.2619   24.0221 H   0  0  0  0  0  0  0  0  0  0  0  0
   20.9731   17.0946   22.7282 H   0  0  0  0  0  0  0  0  0  0  0  0
  1  2  1  0  0  0  0
  1  3  2  0  0  0  0
  1  4  1  0  0  0  0
  4  5  1  0  0  0  0
  4  6  1  0  0  0  0
  4  7  1  0  0  0  0
  7  8  1  0  0  0  0
  7  9  1  0  0  0  0
  7 10  1  0  0  0  0
 10 11  1  0  0  0  0
 10 12  1  0  0  0  0
 10 13  1  0  0  0  0
 13 14  1  0  0  0  0
 13 15  1  0  0  0  0
 13 16  1  0  0  0  0
 16 17  1  0  0  0  0
 16 18  1  0  0  0  0
 16 19  1  0  0  0  0
M  END
> <VConfSearch Rank>
735

> <Conf_Id>
4

> <Delta U+W>
3.753

> <U+W>
-51.138

> <U>
12.334

> <W>
-63.472

> <W(PB)>
-65.500

> <W(SA)>
2.028

> <Valence>
9.984

> <Coulomb>
1.767

> <VdW>
0.583

> <VdW6>
-7.767

> <VdW12>
8.349

> <Bond>
0.203

> <Angle>
3.191

> <Pdih>
6.589

> <Idih>
0.001

> <Tether>
0.000

$$$$
VeraChem MOL file


 19 18  0  0  0  0  0  0  0  0999 V2000     
   22.0528   20.1094   21.5233 C   0  0  0  0  0  0  0  0  0  0  0  0
   22.7772   20.9319   22.0485 O   0  5  0  0  0  0  0  0  0  0  0  0
   22.4654   19.1793   20.8589 O   0  0  0  0  0  0  0  0  0  0  0  0
   20.5437   20.2728   21.6844 C   0  0  0  0  0  0  0  0  0  0  0  0
   20.0471   19.6676   20.9194 H   0  0  0  0  0  0  0  0  0  0  0  0
   20.3057   21.3192   21.4600 H   0  0  0  0  0  0  0  0  0  0  0  0
   20.0183   19.9200   23.1038 C   0  0  0  0  0  0  0  0  0  0  0  0
   20.5959   20.5033   23.8343 H   0  0  0  0  0  0  0  0  0  0  0  0
   18.9768   20.2522   23.2082 H   0  0  0  0  0  0  0  0  0  0  0  0
   20.1275   18.4161   23.4670 C   0  0  0  0  0  0  0  0  0  0  0  0
   20.3508   18.3402   24.5399 H   0  0  0  0  0  0  0  0  0  0  0  0
   20.9823   17.9567   22.9522 H   0  0  0  0  0  0  0  0  0  0  0  0
   18.8439   17.5923   23.1994 C   0  0  0  0  0  0  0  0  0  0  0  0
   19.0041   16.5694   23.5671 H   0  0  0  0  0  0  0  0  0  0  0  0
   18.0120   18.0035   23.7878 H   0  0  0  0  0  0  0  0  0  0  0  0
   18.4360   17.5241   21.7133 C   0  0  0  0  0  0  0  0  0  0  0  0
   19.2745   17.1864   21.0902 H   0  0  0  0  0  0  0  0  0  0  0  0
   17.6052   16.8202   21.5751 H   0  0  0  0  0  0  0  0  0  0  0  0
   18.1027   18.5038   21.3494 H   0  0  0  0  0  0  0  0  0  0  0  0
  1  2  1  0  0  0  0
  1  3  2  0  0  0  0
  1  4  1  0  0  0  0
  4  5  1  0  0  0  0
  4  6  1  0  0  0  0
  4  7  1  0  0  0  0
  7  8  1  0  0  0  0
  7  9  1  0  0  0  0
  7 10  1  0  0  0  0
 10 11  1  0  0  0  0
 10 12  1  0  0  0  0
 10 13  1  0  0  0  0
 13 14  1  0  0  0  0
 13 15  1  0  0  0  0
 13 16  1  0  0  0  0
 16 17  1  0  0  0  0
 16 18  1  0  0  0  0
 16 19  1  0  0  0  0
M  END
> <VConfSearch Rank>
736

> <Conf_Id>
73

> <Delta U+W>
3.707

> <U+W>
-51.184

> <U>
12.334

> <W>
-63.519

> <W(PB)>
-65.541

> <W(SA)>
2.022

> <Valence>
9.984

> <Coulomb>
1.768

> <VdW>
0.583

> <VdW6>
-7.767

> <VdW12>
8.350

> <Bond>
0.203

> <Angle>
3.192

> <Pdih>
6.589

> <Idih>
0.001

> <Tether>
0.000

$$$$
VeraChem MOL file


 19 18  0  0  0  0  0  0  0  0999 V2000     
   19.6983   16.7254   21.2115 C   0  0  0  0  0  0  0  0  0  0  0  0
   20.6584   16.8767   20.4820 O   0  5  0  0  0  0  0  0  0  0  0  0
   19.3741   15.6518   21.6800 O   0  0  0  0  0  0  0  0  0  0  0  0
   18.8329   17.9409   21.5322 C   0  0  0  0  0  0  0  0  0  0  0  0
   17.7918   17.6627   21.3309 H   0  0  0  0  0  0  0  0  0  0  0  0
   19.0807   18.7446   20.8294 H   0  0  0  0  0  0  0  0  0  0  0  0
   18.9569   18.4398   22.9978 C   0  0  0  0  0  0  0  0  0  0  0  0
   18.2502   19.2639   23.1603 H   0  0  0  0  0  0  0  0  0  0  0  0
   18.6388   17.6328   23.6721 H   0  0  0  0  0  0  0  0  0  0  0  0
   20.3843   18.8900   23.4026 C   0  0  0  0  0  0  0  0  0  0  0  0
   21.0603   18.0254   23.3523 H   0  0  0  0  0  0  0  0  0  0  0  0
   20.3703   19.2011   24.4559 H   0  0  0  0  0  0  0  0  0  0  0  0
   20.9808   20.0364   22.5498 C   0  0  0  0  0  0  0  0  0  0  0  0
   21.9929   20.2548   22.9170 H   0  0  0  0  0  0  0  0  0  0  0  0
   21.1011   19.7087   21.5084 H   0  0  0  0  0  0  0  0  0  0  0  0
   20.1445   21.3334   22.5969 C   0  0  0  0  0  0  0  0  0  0  0  0
   19.1601   21.1902   22.1340 H   0  0  0  0  0  0  0  0  0  0  0  0
   19.9941   21.6664   23.6321 H   0  0  0  0  0  0  0  0  0  0  0  0
   20.6541   22.1389   22.0526 H   0  0  0  0  0  0  0  0  0  0  0  0
  1  2  1  0  0  0  0
  1  3  2  0  0  0  0
  1  4  1  0  0  0  0
  4  5  1  0  0  0  0
  4  6  1  0  0  0  0
  4  7  1  0  0  0  0
  7  8  1  0  0  0  0
  7  9  1  0  0  0  0
  7 10  1  0  0  0  0
 10 11  1  0  0  0  0
 10 12  1  0  0  0  0
 10 13  1  0  0  0  0
 13 14  1  0  0  0  0
 13 15  1  0  0  0  0
 13 16  1  0  0  0  0
 16 17  1  0  0  0  0
 16 18  1  0  0  0  0
 16 19  1  0  0  0  0
M  END
> <VConfSearch Rank>
737

> <Conf_Id>
56

> <Delta U+W>
1.735

> <U+W>
-53.156

> <U>
10.214

> <W>
-63.370

> <W(PB)>
-65.388

> <W(SA)>
2.018

> <Valence>
7.868

> <Coulomb>
1.968

> <VdW>
0.378

> <VdW6>
-8.067

> <VdW12>
8.445

> <Bond>
0.191

> <Angle>
3.117

> <Pdih>
4.559

> <Idih>
0.001

> <Tether>
0.000

$$$$
VeraChem MOL file


 19 18  0  0  0  0  0  0  0  0999 V2000     
   20.2266   21.5473   20.9661 C   0  0  0  0  0  0  0  0  0  0  0  0
   20.5452   21.6663   19.7996 O   0  5  0  0  0  0  0  0  0  0  0  0
   20.1850   22.4754   21.7493 O   0  0  0  0  0  0  0  0  0  0  0  0
   19.8812   20.1542   21.4801 C   0  0  0  0  0  0  0  0  0  0  0  0
   19.4381   19.5855   20.6538 H   0  0  0  0  0  0  0  0  0  0  0  0
   19.1128   20.2672   22.2529 H   0  0  0  0  0  0  0  0  0  0  0  0
   21.1104   19.4022   22.0499 C   0  0  0  0  0  0  0  0  0  0  0  0
   21.9160   19.4291   21.3032 H   0  0  0  0  0  0  0  0  0  0  0  0
   21.4884   19.9416   22.9293 H   0  0  0  0  0  0  0  0  0  0  0  0
   20.8377   17.9237   22.4243 C   0  0  0  0  0  0  0  0  0  0  0  0
   21.7881   17.4880   22.7618 H   0  0  0  0  0  0  0  0  0  0  0  0
   20.5499   17.3548   21.5296 H   0  0  0  0  0  0  0  0  0  0  0  0
   19.7902   17.7232   23.5474 C   0  0  0  0  0  0  0  0  0  0  0  0
   20.0955   16.8654   24.1625 H   0  0  0  0  0  0  0  0  0  0  0  0
   19.7804   18.5925   24.2194 H   0  0  0  0  0  0  0  0  0  0  0  0
   18.3681   17.4432   23.0124 C   0  0  0  0  0  0  0  0  0  0  0  0
   17.6685   17.2915   23.8444 H   0  0  0  0  0  0  0  0  0  0  0  0
   17.9892   18.2722   22.4043 H   0  0  0  0  0  0  0  0  0  0  0  0
   18.3556   16.5362   22.3941 H   0  0  0  0  0  0  0  0  0  0  0  0
  1  2  1  0  0  0  0
  1  3  2  0  0  0  0
  1  4  1  0  0  0  0
  4  5  1  0  0  0  0
  4  6  1  0  0  0  0
  4  7  1  0  0  0  0
  7  8  1  0  0  0  0
  7  9  1  0  0  0  0
  7 10  1  0  0  0  0
 10 11  1  0  0  0  0
 10 12  1  0  0  0  0
 10 13  1  0  0  0  0
 13 14  1  0  0  0  0
 13 15  1  0  0  0  0
 13 16  1  0  0  0  0
 16 17  1  0  0  0  0
 16 18  1  0  0  0  0
 16 19  1  0  0  0  0
M  END
> <VConfSearch Rank>
738

> <Conf_Id>
53

> <Delta U+W>
2.279

> <U+W>
-52.612

> <U>
10.231

> <W>
-62.843

> <W(PB)>
-64.893

> <W(SA)>
2.050

> <Valence>
9.644

> <Coulomb>
-0.164

> <VdW>
0.751

> <VdW6>
-6.881

> <VdW12>
7.631

> <Bond>
0.163

> <Angle>
2.998

> <Pdih>
6.482

> <Idih>
0.001

> <Tether>
0.000

$$$$
VeraChem MOL file


 19 18  0  0  0  0  0  0  0  0999 V2000     
   18.6335   17.1184   23.0590 C   0  0  0  0  0  0  0  0  0  0  0  0
   19.0638   16.7012   24.1162 O   0  5  0  0  0  0  0  0  0  0  0  0
   18.4797   16.4199   22.0763 O   0  0  0  0  0  0  0  0  0  0  0  0
   18.1982   18.5808   22.9852 C   0  0  0  0  0  0  0  0  0  0  0  0
   18.3517   19.0486   23.9653 H   0  0  0  0  0  0  0  0  0  0  0  0
   17.1164   18.5719   22.8082 H   0  0  0  0  0  0  0  0  0  0  0  0
   18.8851   19.4228   21.8734 C   0  0  0  0  0  0  0  0  0  0  0  0
   18.9105   18.8534   20.9339 H   0  0  0  0  0  0  0  0  0  0  0  0
   18.2564   20.3017   21.6769 H   0  0  0  0  0  0  0  0  0  0  0  0
   20.3057   19.9291   22.2261 C   0  0  0  0  0  0  0  0  0  0  0  0
   20.2719   20.5033   23.1621 H   0  0  0  0  0  0  0  0  0  0  0  0
   20.6221   20.6326   21.4439 H   0  0  0  0  0  0  0  0  0  0  0  0
   21.3629   18.8090   22.3421 C   0  0  0  0  0  0  0  0  0  0  0  0
   21.1389   18.1674   23.2038 H   0  0  0  0  0  0  0  0  0  0  0  0
   21.3289   18.1708   21.4484 H   0  0  0  0  0  0  0  0  0  0  0  0
   22.7829   19.3868   22.5079 C   0  0  0  0  0  0  0  0  0  0  0  0
   22.8503   20.0089   23.4100 H   0  0  0  0  0  0  0  0  0  0  0  0
   23.5206   18.5787   22.5975 H   0  0  0  0  0  0  0  0  0  0  0  0
   23.0601   20.0041   21.6434 H   0  0  0  0  0  0  0  0  0  0  0  0
  1  2  1  0  0  0  0
  1  3  2  0  0  0  0
  1  4  1  0  0  0  0
  4  5  1  0  0  0  0
  4  6  1  0  0  0  0
  4  7  1  0  0  0  0
  7  8  1  0  0  0  0
  7  9  1  0  0  0  0
  7 10  1  0  0  0  0
 10 11  1  0  0  0  0
 10 12  1  0  0  0  0
 10 13  1  0  0  0  0
 13 14  1  0  0  0  0
 13 15  1  0  0  0  0
 13 16  1  0  0  0  0
 16 17  1  0  0  0  0
 16 18  1  0  0  0  0
 16 19  1  0  0  0  0
M  END
> <VConfSearch Rank>
739

> <Conf_Id>
25

> <Delta U+W>
2.065

> <U+W>
-52.826

> <U>
10.967

> <W>
-63.794

> <W(PB)>
-65.830

> <W(SA)>
2.036

> <Valence>
8.609

> <Coulomb>
1.892

> <VdW>
0.467

> <VdW6>
-7.569

> <VdW12>
8.036

> <Bond>
0.170

> <Angle>
3.195

> <Pdih>
5.237

> <Idih>
0.007

> <Tether>
0.000

$$$$
VeraChem MOL file


 19 18  0  0  0  0  0  0  0  0999 V2000     
   20.8234   19.8725   20.4299 C   0  0  0  0  0  0  0  0  0  0  0  0
   20.3284   19.2566   19.5064 O   0  5  0  0  0  0  0  0  0  0  0  0
   22.0220   20.0068   20.5789 O   0  0  0  0  0  0  0  0  0  0  0  0
   19.8918   20.5740   21.4165 C   0  0  0  0  0  0  0  0  0  0  0  0
   19.3383   21.3231   20.8384 H   0  0  0  0  0  0  0  0  0  0  0  0
   20.4958   21.1254   22.1472 H   0  0  0  0  0  0  0  0  0  0  0  0
   18.8778   19.6481   22.1456 C   0  0  0  0  0  0  0  0  0  0  0  0
   18.0561   20.2737   22.5197 H   0  0  0  0  0  0  0  0  0  0  0  0
   18.4238   18.9509   21.4277 H   0  0  0  0  0  0  0  0  0  0  0  0
   19.4607   18.8666   23.3490 C   0  0  0  0  0  0  0  0  0  0  0  0
   18.6291   18.3767   23.8738 H   0  0  0  0  0  0  0  0  0  0  0  0
   19.9062   19.5698   24.0658 H   0  0  0  0  0  0  0  0  0  0  0  0
   20.5012   17.7938   22.9591 C   0  0  0  0  0  0  0  0  0  0  0  0
   20.0934   17.1497   22.1678 H   0  0  0  0  0  0  0  0  0  0  0  0
   21.4011   18.2722   22.5521 H   0  0  0  0  0  0  0  0  0  0  0  0
   20.9025   16.9286   24.1708 C   0  0  0  0  0  0  0  0  0  0  0  0
   21.6480   16.1776   23.8791 H   0  0  0  0  0  0  0  0  0  0  0  0
   21.3374   17.5467   24.9671 H   0  0  0  0  0  0  0  0  0  0  0  0
   20.0326   16.4002   24.5826 H   0  0  0  0  0  0  0  0  0  0  0  0
  1  2  1  0  0  0  0
  1  3  2  0  0  0  0
  1  4  1  0  0  0  0
  4  5  1  0  0  0  0
  4  6  1  0  0  0  0
  4  7  1  0  0  0  0
  7  8  1  0  0  0  0
  7  9  1  0  0  0  0
  7 10  1  0  0  0  0
 10 11  1  0  0  0  0
 10 12  1  0  0  0  0
 10 13  1  0  0  0  0
 13 14  1  0  0  0  0
 13 15  1  0  0  0  0
 13 16  1  0  0  0  0
 16 17  1  0  0  0  0
 16 18  1  0  0  0  0
 16 19  1  0  0  0  0
M  END
> <VConfSearch Rank>
740

> <Conf_Id>
52

> <Delta U+W>
2.070

> <U+W>
-52.822

> <U>
10.967

> <W>
-63.789

> <W(PB)>
-65.837

> <W(SA)>
2.048

> <Valence>
8.609

> <Coulomb>
1.892

> <VdW>
0.467

> <VdW6>
-7.569

> <VdW12>
8.035

> <Bond>
0.170

> <Angle>
3.196

> <Pdih>
5.237

> <Idih>
0.007

> <Tether>
0.000

$$$$
VeraChem MOL file


 19 18  0  0  0  0  0  0  0  0999 V2000     
   21.4088   17.4477   22.3014 C   0  0  0  0  0  0  0  0  0  0  0  0
   21.2314   16.5299   23.0787 O   0  5  0  0  0  0  0  0  0  0  0  0
   21.5679   17.2868   21.1075 O   0  0  0  0  0  0  0  0  0  0  0  0
   21.5666   18.8628   22.8599 C   0  0  0  0  0  0  0  0  0  0  0  0
   21.5657   19.5775   22.0282 H   0  0  0  0  0  0  0  0  0  0  0  0
   22.5676   18.9027   23.3045 H   0  0  0  0  0  0  0  0  0  0  0  0
   20.5234   19.2862   23.9331 C   0  0  0  0  0  0  0  0  0  0  0  0
   20.3328   18.4513   24.6215 H   0  0  0  0  0  0  0  0  0  0  0  0
   20.9728   20.0796   24.5455 H   0  0  0  0  0  0  0  0  0  0  0  0
   19.1818   19.8298   23.3784 C   0  0  0  0  0  0  0  0  0  0  0  0
   19.3630   20.7267   22.7702 H   0  0  0  0  0  0  0  0  0  0  0  0
   18.5845   20.1697   24.2355 H   0  0  0  0  0  0  0  0  0  0  0  0
   18.3381   18.8032   22.5845 C   0  0  0  0  0  0  0  0  0  0  0  0
   18.6157   17.7780   22.8660 H   0  0  0  0  0  0  0  0  0  0  0  0
   17.2821   18.9199   22.8644 H   0  0  0  0  0  0  0  0  0  0  0  0
   18.4529   18.9899   21.0564 C   0  0  0  0  0  0  0  0  0  0  0  0
   18.0831   19.9782   20.7540 H   0  0  0  0  0  0  0  0  0  0  0  0
   19.4913   18.8987   20.7173 H   0  0  0  0  0  0  0  0  0  0  0  0
   17.8593   18.2315   20.5300 H   0  0  0  0  0  0  0  0  0  0  0  0
  1  2  1  0  0  0  0
  1  3  2  0  0  0  0
  1  4  1  0  0  0  0
  4  5  1  0  0  0  0
  4  6  1  0  0  0  0
  4  7  1  0  0  0  0
  7  8  1  0  0  0  0
  7  9  1  0  0  0  0
  7 10  1  0  0  0  0
 10 11  1  0  0  0  0
 10 12  1  0  0  0  0
 10 13  1  0  0  0  0
 13 14  1  0  0  0  0
 13 15  1  0  0  0  0
 13 16  1  0  0  0  0
 16 17  1  0  0  0  0
 16 18  1  0  0  0  0
 16 19  1  0  0  0  0
M  END
> <VConfSearch Rank>
741

> <Conf_Id>
66

> <Delta U+W>
5.819

> <U+W>
-49.072

> <U>
15.324

> <W>
-64.396

> <W(PB)>
-66.382

> <W(SA)>
1.986

> <Valence>
11.748

> <Coulomb>
3.201

> <VdW>
0.375

> <VdW6>
-8.854

> <VdW12>
9.229

> <Bond>
0.216

> <Angle>
3.812

> <Pdih>
7.699

> <Idih>
0.022

> <Tether>
0.000

$$$$
VeraChem MOL file


 19 18  0  0  0  0  0  0  0  0999 V2000     
   20.8889   19.1921   25.4140 C   0  0  0  0  0  0  0  0  0  0  0  0
   20.4405   19.0715   26.5365 O   0  5  0  0  0  0  0  0  0  0  0  0
   22.0380   19.5204   25.1903 O   0  0  0  0  0  0  0  0  0  0  0  0
   19.9388   18.9110   24.2487 C   0  0  0  0  0  0  0  0  0  0  0  0
   19.0788   19.5821   24.3586 H   0  0  0  0  0  0  0  0  0  0  0  0
   19.5648   17.8877   24.3710 H   0  0  0  0  0  0  0  0  0  0  0  0
   20.5563   19.0778   22.8347 C   0  0  0  0  0  0  0  0  0  0  0  0
   20.9342   20.1033   22.7207 H   0  0  0  0  0  0  0  0  0  0  0  0
   21.4207   18.4071   22.7331 H   0  0  0  0  0  0  0  0  0  0  0  0
   19.5304   18.7753   21.7209 C   0  0  0  0  0  0  0  0  0  0  0  0
   18.6670   19.4468   21.8244 H   0  0  0  0  0  0  0  0  0  0  0  0
   19.1538   17.7497   21.8368 H   0  0  0  0  0  0  0  0  0  0  0  0
   20.1463   18.9417   20.3161 C   0  0  0  0  0  0  0  0  0  0  0  0
   20.5225   19.9671   20.1955 H   0  0  0  0  0  0  0  0  0  0  0  0
   21.0092   18.2701   20.2078 H   0  0  0  0  0  0  0  0  0  0  0  0
   19.1193   18.6391   19.2067 C   0  0  0  0  0  0  0  0  0  0  0  0
   18.2590   19.3181   19.2719 H   0  0  0  0  0  0  0  0  0  0  0  0
   19.5737   18.7622   18.2150 H   0  0  0  0  0  0  0  0  0  0  0  0
   18.7494   17.6083   19.2844 H   0  0  0  0  0  0  0  0  0  0  0  0
  1  2  1  0  0  0  0
  1  3  2  0  0  0  0
  1  4  1  0  0  0  0
  4  5  1  0  0  0  0
  4  6  1  0  0  0  0
  4  7  1  0  0  0  0
  7  8  1  0  0  0  0
  7  9  1  0  0  0  0
  7 10  1  0  0  0  0
 10 11  1  0  0  0  0
 10 12  1  0  0  0  0
 10 13  1  0  0  0  0
 13 14  1  0  0  0  0
 13 15  1  0  0  0  0
 13 16  1  0  0  0  0
 16 17  1  0  0  0  0
 16 18  1  0  0  0  0
 16 19  1  0  0  0  0
M  END
> <VConfSearch Rank>
742

> <Conf_Id>
0

> <Delta U+W>
0.000

> <U+W>
-54.891

> <U>
6.966

> <W>
-61.857

> <W(PB)>
-63.965

> <W(SA)>
2.108

> <Valence>
7.175

> <Coulomb>
-1.360

> <VdW>
1.151

> <VdW6>
-5.641

> <VdW12>
6.792

> <Bond>
0.119

> <Angle>
2.715

> <Pdih>
4.340

> <Idih>
0.000

> <Tether>
0.000

$$$$
VeraChem MOL file


 19 18  0  0  0  0  0  0  0  0999 V2000     
   21.5595   21.8692   21.6930 C   0  0  0  0  0  0  0  0  0  0  0  0
   22.0055   22.3678   22.7073 O   0  5  0  0  0  0  0  0  0  0  0  0
   22.0596   22.0157   20.5954 O   0  0  0  0  0  0  0  0  0  0  0  0
   20.3158   20.9948   21.8070 C   0  0  0  0  0  0  0  0  0  0  0  0
   19.7395   21.0993   20.8799 H   0  0  0  0  0  0  0  0  0  0  0  0
   19.6952   21.3892   22.6206 H   0  0  0  0  0  0  0  0  0  0  0  0
   20.6491   19.5044   22.0637 C   0  0  0  0  0  0  0  0  0  0  0  0
   21.2811   19.1281   21.2473 H   0  0  0  0  0  0  0  0  0  0  0  0
   21.2369   19.4181   22.9882 H   0  0  0  0  0  0  0  0  0  0  0  0
   19.3738   18.6413   22.1752 C   0  0  0  0  0  0  0  0  0  0  0  0
   18.7877   18.7308   21.2502 H   0  0  0  0  0  0  0  0  0  0  0  0
   18.7436   19.0208   22.9913 H   0  0  0  0  0  0  0  0  0  0  0  0
   19.7088   17.1571   22.4308 C   0  0  0  0  0  0  0  0  0  0  0  0
   20.3376   16.7733   21.6155 H   0  0  0  0  0  0  0  0  0  0  0  0
   20.2934   17.0632   23.3565 H   0  0  0  0  0  0  0  0  0  0  0  0
   18.4332   16.2983   22.5415 C   0  0  0  0  0  0  0  0  0  0  0  0
   18.6896   15.2465   22.7231 H   0  0  0  0  0  0  0  0  0  0  0  0
   17.7997   16.6408   23.3703 H   0  0  0  0  0  0  0  0  0  0  0  0
   17.8442   16.3488   21.6162 H   0  0  0  0  0  0  0  0  0  0  0  0
  1  2  1  0  0  0  0
  1  3  2  0  0  0  0
  1  4  1  0  0  0  0
  4  5  1  0  0  0  0
  4  6  1  0  0  0  0
  4  7  1  0  0  0  0
  7  8  1  0  0  0  0
  7  9  1  0  0  0  0
  7 10  1  0  0  0  0
 10 11  1  0  0  0  0
 10 12  1  0  0  0  0
 10 13  1  0  0  0  0
 13 14  1  0  0  0  0
 13 15  1  0  0  0  0
 13 16  1  0  0  0  0
 16 17  1  0  0  0  0
 16 18  1  0  0  0  0
 16 19  1  0  0  0  0
M  END
> <VConfSearch Rank>
743

> <Conf_Id>
18

> <Delta U+W>
-1.199

> <U+W>
-56.090

> <U>
5.975

> <W>
-62.066

> <W(PB)>
-64.219

> <W(SA)>
2.153

> <Valence>
6.673

> <Coulomb>
-1.307

> <VdW>
0.610

> <VdW6>
-5.351

> <VdW12>
5.961

> <Bond>
0.086

> <Angle>
2.253

> <Pdih>
4.333

> <Idih>
0.001

> <Tether>
0.000

$$$$
VeraChem MOL file


 19 18  0  0  0  0  0  0  0  0999 V2000     
   19.4262   16.0277   20.9029 C   0  0  0  0  0  0  0  0  0  0  0  0
   18.5229   15.8005   20.1227 O   0  5  0  0  0  0  0  0  0  0  0  0
   20.3922   15.3040   21.0422 O   0  0  0  0  0  0  0  0  0  0  0  0
   19.3539   17.3016   21.7373 C   0  0  0  0  0  0  0  0  0  0  0  0
   19.8303   17.0955   22.7024 H   0  0  0  0  0  0  0  0  0  0  0  0
   18.2975   17.5192   21.9354 H   0  0  0  0  0  0  0  0  0  0  0  0
   20.0281   18.5133   21.0426 C   0  0  0  0  0  0  0  0  0  0  0  0
   21.0953   18.3013   20.8895 H   0  0  0  0  0  0  0  0  0  0  0  0
   19.5895   18.6349   20.0425 H   0  0  0  0  0  0  0  0  0  0  0  0
   19.8648   19.8408   21.8202 C   0  0  0  0  0  0  0  0  0  0  0  0
   18.7968   20.0541   21.9642 H   0  0  0  0  0  0  0  0  0  0  0  0
   20.2644   20.6574   21.2034 H   0  0  0  0  0  0  0  0  0  0  0  0
   20.5857   19.8449   23.1869 C   0  0  0  0  0  0  0  0  0  0  0  0
   20.1492   19.0845   23.8476 H   0  0  0  0  0  0  0  0  0  0  0  0
   21.6434   19.5815   23.0489 H   0  0  0  0  0  0  0  0  0  0  0  0
   20.4865   21.2218   23.8736 C   0  0  0  0  0  0  0  0  0  0  0  0
   21.0002   21.2080   24.8437 H   0  0  0  0  0  0  0  0  0  0  0  0
   20.9490   22.0033   23.2566 H   0  0  0  0  0  0  0  0  0  0  0  0
   19.4386   21.4984   24.0488 H   0  0  0  0  0  0  0  0  0  0  0  0
  1  2  1  0  0  0  0
  1  3  2  0  0  0  0
  1  4  1  0  0  0  0
  4  5  1  0  0  0  0
  4  6  1  0  0  0  0
  4  7  1  0  0  0  0
  7  8  1  0  0  0  0
  7  9  1  0  0  0  0
  7 10  1  0  0  0  0
 10 11  1  0  0  0  0
 10 12  1  0  0  0  0
 10 13  1  0  0  0  0
 13 14  1  0  0  0  0
 13 15  1  0  0  0  0
 13 16  1  0  0  0  0
 16 17  1  0  0  0  0
 16 18  1  0  0  0  0
 16 19  1  0  0  0  0
M  END
> <VConfSearch Rank>
744

> <Conf_Id>
34

> <Delta U+W>
-0.563

> <U+W>
-55.455

> <U>
6.914

> <W>
-62.369

> <W(PB)>
-64.446

> <W(SA)>
2.077

> <Valence>
7.196

> <Coulomb>
-1.020

> <VdW>
0.738

> <VdW6>
-6.010

> <VdW12>
6.748

> <Bond>
0.126

> <Angle>
2.499

> <Pdih>
4.570

> <Idih>
0.001

> <Tether>
0.000

$$$$
VeraChem MOL file


 19 18  0  0  0  0  0  0  0  0999 V2000     
   17.2396   18.2605   20.6333 C   0  0  0  0  0  0  0  0  0  0  0  0
   17.1924   17.6541   19.5815 O   0  5  0  0  0  0  0  0  0  0  0  0
   16.3321   18.9511   21.0525 O   0  0  0  0  0  0  0  0  0  0  0  0
   18.5161   18.1670   21.4618 C   0  0  0  0  0  0  0  0  0  0  0  0
   18.9545   17.1749   21.3006 H   0  0  0  0  0  0  0  0  0  0  0  0
   18.2329   18.2299   22.5185 H   0  0  0  0  0  0  0  0  0  0  0  0
   19.5454   19.2708   21.1049 C   0  0  0  0  0  0  0  0  0  0  0  0
   19.7372   19.2375   20.0235 H   0  0  0  0  0  0  0  0  0  0  0  0
   19.1110   20.2585   21.3125 H   0  0  0  0  0  0  0  0  0  0  0  0
   20.8923   19.1244   21.8519 C   0  0  0  0  0  0  0  0  0  0  0  0
   21.5947   19.8692   21.4533 H   0  0  0  0  0  0  0  0  0  0  0  0
   21.3280   18.1393   21.6356 H   0  0  0  0  0  0  0  0  0  0  0  0
   20.7712   19.3161   23.3803 C   0  0  0  0  0  0  0  0  0  0  0  0
   20.2887   20.2794   23.5961 H   0  0  0  0  0  0  0  0  0  0  0  0
   20.1323   18.5338   23.8107 H   0  0  0  0  0  0  0  0  0  0  0  0
   22.1511   19.2698   24.0665 C   0  0  0  0  0  0  0  0  0  0  0  0
   22.6451   18.3054   23.8898 H   0  0  0  0  0  0  0  0  0  0  0  0
   22.8059   20.0653   23.6871 H   0  0  0  0  0  0  0  0  0  0  0  0
   22.0484   19.4044   25.1511 H   0  0  0  0  0  0  0  0  0  0  0  0
  1  2  1  0  0  0  0
  1  3  2  0  0  0  0
  1  4  1  0  0  0  0
  4  5  1  0  0  0  0
  4  6  1  0  0  0  0
  4  7  1  0  0  0  0
  7  8  1  0  0  0  0
  7  9  1  0  0  0  0
  7 10  1  0  0  0  0
 10 11  1  0  0  0  0
 10 12  1  0  0  0  0
 10 13  1  0  0  0  0
 13 14  1  0  0  0  0
 13 15  1  0  0  0  0
 13 16  1  0  0  0  0
 16 17  1  0  0  0  0
 16 18  1  0  0  0  0
 16 19  1  0  0  0  0
M  END
> <VConfSearch Rank>
745

> <Conf_Id>
33

> <Delta U+W>
-0.526

> <U+W>
-55.418

> <U>
6.914

> <W>
-62.332

> <W(PB)>
-64.421

> <W(SA)>
2.090

> <Valence>
7.196

> <Coulomb>
-1.020

> <VdW>
0.738

> <VdW6>
-6.010

> <VdW12>
6.748

> <Bond>
0.126

> <Angle>
2.499

> <Pdih>
4.570

> <Idih>
0.001

> <Tether>
0.000

$$$$
VeraChem MOL file


 19 18  0  0  0  0  0  0  0  0999 V2000     
   20.0944   17.8512   25.2008 C   0  0  0  0  0  0  0  0  0  0  0  0
   21.2336   17.5009   25.4372 O   0  5  0  0  0  0  0  0  0  0  0  0
   19.3598   18.3530   26.0283 O   0  0  0  0  0  0  0  0  0  0  0  0
   19.5635   17.6670   23.7836 C   0  0  0  0  0  0  0  0  0  0  0  0
   18.4869   17.4679   23.8465 H   0  0  0  0  0  0  0  0  0  0  0  0
   20.0341   16.7733   23.3565 H   0  0  0  0  0  0  0  0  0  0  0  0
   19.8283   18.8944   22.8770 C   0  0  0  0  0  0  0  0  0  0  0  0
   19.3592   19.7824   23.3226 H   0  0  0  0  0  0  0  0  0  0  0  0
   20.9091   19.0854   22.8443 H   0  0  0  0  0  0  0  0  0  0  0  0
   19.2830   18.6788   21.4463 C   0  0  0  0  0  0  0  0  0  0  0  0
   18.2172   18.4188   21.5054 H   0  0  0  0  0  0  0  0  0  0  0  0
   19.7878   17.8201   20.9829 H   0  0  0  0  0  0  0  0  0  0  0  0
   19.4357   19.9203   20.5376 C   0  0  0  0  0  0  0  0  0  0  0  0
   18.9217   19.7262   19.5861 H   0  0  0  0  0  0  0  0  0  0  0  0
   18.9272   20.7802   20.9952 H   0  0  0  0  0  0  0  0  0  0  0  0
   20.9069   20.2839   20.2422 C   0  0  0  0  0  0  0  0  0  0  0  0
   21.4439   19.4292   19.8107 H   0  0  0  0  0  0  0  0  0  0  0  0
   20.9606   21.1135   19.5254 H   0  0  0  0  0  0  0  0  0  0  0  0
   21.4329   20.5975   21.1526 H   0  0  0  0  0  0  0  0  0  0  0  0
  1  2  1  0  0  0  0
  1  3  2  0  0  0  0
  1  4  1  0  0  0  0
  4  5  1  0  0  0  0
  4  6  1  0  0  0  0
  4  7  1  0  0  0  0
  7  8  1  0  0  0  0
  7  9  1  0  0  0  0
  7 10  1  0  0  0  0
 10 11  1  0  0  0  0
 10 12  1  0  0  0  0
 10 13  1  0  0  0  0
 13 14  1  0  0  0  0
 13 15  1  0  0  0  0
 13 16  1  0  0  0  0
 16 17  1  0  0  0  0
 16 18  1  0  0  0  0
 16 19  1  0  0  0  0
M  END
> <VConfSearch Rank>
746

> <Conf_Id>
42

> <Delta U+W>
-0.344

> <U+W>
-55.236

> <U>
7.244

> <W>
-62.479

> <W(PB)>
-64.610

> <W(SA)>
2.130

> <Valence>
7.174

> <Coulomb>
-0.669

> <VdW>
0.739

> <VdW6>
-5.969

> <VdW12>
6.708

> <Bond>
0.116

> <Angle>
2.481

> <Pdih>
4.576

> <Idih>
0.000

> <Tether>
0.000

$$$$
VeraChem MOL file


 19 18  0  0  0  0  0  0  0  0999 V2000     
   19.5327   19.7361   25.2582 C   0  0  0  0  0  0  0  0  0  0  0  0
   18.4704   20.3184   25.3510 O   0  5  0  0  0  0  0  0  0  0  0  0
   20.5035   19.9950   25.9414 O   0  0  0  0  0  0  0  0  0  0  0  0
   19.6602   18.6319   24.2146 C   0  0  0  0  0  0  0  0  0  0  0  0
   18.6815   18.1486   24.1081 H   0  0  0  0  0  0  0  0  0  0  0  0
   20.3545   17.8762   24.6015 H   0  0  0  0  0  0  0  0  0  0  0  0
   20.1494   19.1547   22.8414 C   0  0  0  0  0  0  0  0  0  0  0  0
   19.4501   19.9219   22.4836 H   0  0  0  0  0  0  0  0  0  0  0  0
   21.1254   19.6438   22.9662 H   0  0  0  0  0  0  0  0  0  0  0  0
   20.2660   18.0154   21.8026 C   0  0  0  0  0  0  0  0  0  0  0  0
   19.2799   17.5587   21.6414 H   0  0  0  0  0  0  0  0  0  0  0  0
   20.9124   17.2256   22.2092 H   0  0  0  0  0  0  0  0  0  0  0  0
   20.8492   18.4778   20.4473 C   0  0  0  0  0  0  0  0  0  0  0  0
   21.8382   18.9302   20.6038 H   0  0  0  0  0  0  0  0  0  0  0  0
   21.0087   17.5952   19.8127 H   0  0  0  0  0  0  0  0  0  0  0  0
   19.9364   19.4712   19.6965 C   0  0  0  0  0  0  0  0  0  0  0  0
   19.8403   20.4182   20.2421 H   0  0  0  0  0  0  0  0  0  0  0  0
   20.3507   19.6993   18.7059 H   0  0  0  0  0  0  0  0  0  0  0  0
   18.9320   19.0515   19.5542 H   0  0  0  0  0  0  0  0  0  0  0  0
  1  2  1  0  0  0  0
  1  3  2  0  0  0  0
  1  4  1  0  0  0  0
  4  5  1  0  0  0  0
  4  6  1  0  0  0  0
  4  7  1  0  0  0  0
  7  8  1  0  0  0  0
  7  9  1  0  0  0  0
  7 10  1  0  0  0  0
 10 11  1  0  0  0  0
 10 12  1  0  0  0  0
 10 13  1  0  0  0  0
 13 14  1  0  0  0  0
 13 15  1  0  0  0  0
 13 16  1  0  0  0  0
 16 17  1  0  0  0  0
 16 18  1  0  0  0  0
 16 19  1  0  0  0  0
M  END
> <VConfSearch Rank>
747

> <Conf_Id>
41

> <Delta U+W>
-0.361

> <U+W>
-55.252

> <U>
7.244

> <W>
-62.496

> <W(PB)>
-64.596

> <W(SA)>
2.099

> <Valence>
7.174

> <Coulomb>
-0.669

> <VdW>
0.739

> <VdW6>
-5.969

> <VdW12>
6.708

> <Bond>
0.116

> <Angle>
2.481

> <Pdih>
4.576

> <Idih>
0.000

> <Tether>
0.000

$$$$
VeraChem MOL file


 19 18  0  0  0  0  0  0  0  0999 V2000     
   17.5369   20.1561   23.6002 C   0  0  0  0  0  0  0  0  0  0  0  0
   17.5649   19.5769   24.6680 O   0  5  0  0  0  0  0  0  0  0  0  0
   17.4594   21.3641   23.4930 O   0  0  0  0  0  0  0  0  0  0  0  0
   17.5792   19.3219   22.3228 C   0  0  0  0  0  0  0  0  0  0  0  0
   16.7982   19.7046   21.6552 H   0  0  0  0  0  0  0  0  0  0  0  0
   17.3069   18.2885   22.5700 H   0  0  0  0  0  0  0  0  0  0  0  0
   18.9466   19.3549   21.5920 C   0  0  0  0  0  0  0  0  0  0  0  0
   18.8449   18.8480   20.6228 H   0  0  0  0  0  0  0  0  0  0  0  0
   19.2191   20.3975   21.3767 H   0  0  0  0  0  0  0  0  0  0  0  0
   20.0718   18.6771   22.4056 C   0  0  0  0  0  0  0  0  0  0  0  0
   19.7890   17.6393   22.6294 H   0  0  0  0  0  0  0  0  0  0  0  0
   20.1914   19.1895   23.3702 H   0  0  0  0  0  0  0  0  0  0  0  0
   21.4149   18.6935   21.6465 C   0  0  0  0  0  0  0  0  0  0  0  0
   21.3025   18.1786   20.6823 H   0  0  0  0  0  0  0  0  0  0  0  0
   21.7014   19.7306   21.4234 H   0  0  0  0  0  0  0  0  0  0  0  0
   22.5355   18.0165   22.4608 C   0  0  0  0  0  0  0  0  0  0  0  0
   22.2889   16.9676   22.6714 H   0  0  0  0  0  0  0  0  0  0  0  0
   23.4830   18.0374   21.9068 H   0  0  0  0  0  0  0  0  0  0  0  0
   22.6909   18.5311   23.4181 H   0  0  0  0  0  0  0  0  0  0  0  0
  1  2  1  0  0  0  0
  1  3  2  0  0  0  0
  1  4  1  0  0  0  0
  4  5  1  0  0  0  0
  4  6  1  0  0  0  0
  4  7  1  0  0  0  0
  7  8  1  0  0  0  0
  7  9  1  0  0  0  0
  7 10  1  0  0  0  0
 10 11  1  0  0  0  0
 10 12  1  0  0  0  0
 10 13  1  0  0  0  0
 13 14  1  0  0  0  0
 13 15  1  0  0  0  0
 13 16  1  0  0  0  0
 16 17  1  0  0  0  0
 16 18  1  0  0  0  0
 16 19  1  0  0  0  0
M  END
> <VConfSearch Rank>
748

> <Conf_Id>
36

> <Delta U+W>
-0.079

> <U+W>
-54.971

> <U>
8.266

> <W>
-63.237

> <W(PB)>
-65.340

> <W(SA)>
2.103

> <Valence>
6.935

> <Coulomb>
0.874

> <VdW>
0.457

> <VdW6>
-6.205

> <VdW12>
6.662

> <Bond>
0.107

> <Angle>
2.420

> <Pdih>
4.407

> <Idih>
0.001

> <Tether>
0.000

$$$$
VeraChem MOL file


 19 18  0  0  0  0  0  0  0  0999 V2000     
   18.5220   18.9528   19.9798 C   0  0  0  0  0  0  0  0  0  0  0  0
   18.1374   20.1055   19.9894 O   0  5  0  0  0  0  0  0  0  0  0  0
   17.7789   17.9975   19.8719 O   0  0  0  0  0  0  0  0  0  0  0  0
   20.0215   18.6892   20.0875 C   0  0  0  0  0  0  0  0  0  0  0  0
   20.5584   19.6122   19.8370 H   0  0  0  0  0  0  0  0  0  0  0  0
   20.2810   17.9525   19.3181 H   0  0  0  0  0  0  0  0  0  0  0  0
   20.4728   18.1678   21.4766 C   0  0  0  0  0  0  0  0  0  0  0  0
   19.9063   17.2598   21.7260 H   0  0  0  0  0  0  0  0  0  0  0  0
   21.5302   17.8755   21.4211 H   0  0  0  0  0  0  0  0  0  0  0  0
   20.2932   19.2202   22.5935 C   0  0  0  0  0  0  0  0  0  0  0  0
   19.2346   19.5054   22.6669 H   0  0  0  0  0  0  0  0  0  0  0  0
   20.8507   20.1304   22.3333 H   0  0  0  0  0  0  0  0  0  0  0  0
   20.7775   18.6915   23.9597 C   0  0  0  0  0  0  0  0  0  0  0  0
   20.2198   17.7822   24.2236 H   0  0  0  0  0  0  0  0  0  0  0  0
   21.8372   18.4086   23.8936 H   0  0  0  0  0  0  0  0  0  0  0  0
   20.5970   19.7438   25.0719 C   0  0  0  0  0  0  0  0  0  0  0  0
   19.5406   20.0223   25.1812 H   0  0  0  0  0  0  0  0  0  0  0  0
   20.9457   19.3514   26.0361 H   0  0  0  0  0  0  0  0  0  0  0  0
   21.1700   20.6533   24.8488 H   0  0  0  0  0  0  0  0  0  0  0  0
  1  2  1  0  0  0  0
  1  3  2  0  0  0  0
  1  4  1  0  0  0  0
  4  5  1  0  0  0  0
  4  6  1  0  0  0  0
  4  7  1  0  0  0  0
  7  8  1  0  0  0  0
  7  9  1  0  0  0  0
  7 10  1  0  0  0  0
 10 11  1  0  0  0  0
 10 12  1  0  0  0  0
 10 13  1  0  0  0  0
 13 14  1  0  0  0  0
 13 15  1  0  0  0  0
 13 16  1  0  0  0  0
 16 17  1  0  0  0  0
 16 18  1  0  0  0  0
 16 19  1  0  0  0  0
M  END
> <VConfSearch Rank>
749

> <Conf_Id>
35

> <Delta U+W>
-0.030

> <U+W>
-54.921

> <U>
8.267

> <W>
-63.188

> <W(PB)>
-65.294

> <W(SA)>
2.106

> <Valence>
6.935

> <Coulomb>
0.875

> <VdW>
0.457

> <VdW6>
-6.205

> <VdW12>
6.662

> <Bond>
0.107

> <Angle>
2.420

> <Pdih>
4.407

> <Idih>
0.001

> <Tether>
0.000

$$$$
VeraChem MOL file


 19 18  0  0  0  0  0  0  0  0999 V2000     
   21.9740   17.3977   23.9792 C   0  0  0  0  0  0  0  0  0  0  0  0
   21.6253   17.3125   25.1401 O   0  5  0  0  0  0  0  0  0  0  0  0
   23.0921   17.7277   23.6363 O   0  0  0  0  0  0  0  0  0  0  0  0
   20.9575   17.0499   22.8952 C   0  0  0  0  0  0  0  0  0  0  0  0
   20.4687   16.1148   23.1930 H   0  0  0  0  0  0  0  0  0  0  0  0
   21.4962   16.8431   21.9624 H   0  0  0  0  0  0  0  0  0  0  0  0
   19.8826   18.1432   22.6609 C   0  0  0  0  0  0  0  0  0  0  0  0
   19.1183   17.7407   21.9841 H   0  0  0  0  0  0  0  0  0  0  0  0
   19.3788   18.3678   23.6113 H   0  0  0  0  0  0  0  0  0  0  0  0
   20.4760   19.4409   22.0623 C   0  0  0  0  0  0  0  0  0  0  0  0
   20.9457   19.2211   21.0938 H   0  0  0  0  0  0  0  0  0  0  0  0
   21.2771   19.8078   22.7185 H   0  0  0  0  0  0  0  0  0  0  0  0
   19.4337   20.5696   21.8879 C   0  0  0  0  0  0  0  0  0  0  0  0
   18.9636   20.7933   22.8555 H   0  0  0  0  0  0  0  0  0  0  0  0
   19.9552   21.4854   21.5774 H   0  0  0  0  0  0  0  0  0  0  0  0
   18.3442   20.2409   20.8443 C   0  0  0  0  0  0  0  0  0  0  0  0
   17.7180   19.4008   21.1692 H   0  0  0  0  0  0  0  0  0  0  0  0
   17.6858   21.1059   20.6919 H   0  0  0  0  0  0  0  0  0  0  0  0
   18.7927   19.9829   19.8760 H   0  0  0  0  0  0  0  0  0  0  0  0
  1  2  1  0  0  0  0
  1  3  2  0  0  0  0
  1  4  1  0  0  0  0
  4  5  1  0  0  0  0
  4  6  1  0  0  0  0
  4  7  1  0  0  0  0
  7  8  1  0  0  0  0
  7  9  1  0  0  0  0
  7 10  1  0  0  0  0
 10 11  1  0  0  0  0
 10 12  1  0  0  0  0
 10 13  1  0  0  0  0
 13 14  1  0  0  0  0
 13 15  1  0  0  0  0
 13 16  1  0  0  0  0
 16 17  1  0  0  0  0
 16 18  1  0  0  0  0
 16 19  1  0  0  0  0
M  END
> <VConfSearch Rank>
750

> <Conf_Id>
74

> <Delta U+W>
0.797

> <U+W>
-54.095

> <U>
8.869

> <W>
-62.964

> <W(PB)>
-65.046

> <W(SA)>
2.082

> <Valence>
7.469

> <Coulomb>
0.762

> <VdW>
0.639

> <VdW6>
-6.782

> <VdW12>
7.421

> <Bond>
0.141

> <Angle>
2.667

> <Pdih>
4.660

> <Idih>
0.001

> <Tether>
0.000

$$$$
VeraChem MOL file


 19 18  0  0  0  0  0  0  0  0999 V2000     
   22.1326   18.3117   24.1886 C   0  0  0  0  0  0  0  0  0  0  0  0
   22.3794   18.8163   25.2661 O   0  5  0  0  0  0  0  0  0  0  0  0
   22.4969   17.1975   23.8691 O   0  0  0  0  0  0  0  0  0  0  0  0
   21.3048   19.1137   23.1907 C   0  0  0  0  0  0  0  0  0  0  0  0
   21.6407   18.8416   22.1835 H   0  0  0  0  0  0  0  0  0  0  0  0
   21.5328   20.1765   23.3346 H   0  0  0  0  0  0  0  0  0  0  0  0
   19.7810   18.8684   23.3400 C   0  0  0  0  0  0  0  0  0  0  0  0
   19.5598   17.8086   23.1563 H   0  0  0  0  0  0  0  0  0  0  0  0
   19.4934   19.0623   24.3826 H   0  0  0  0  0  0  0  0  0  0  0  0
   18.9163   19.7623   22.4159 C   0  0  0  0  0  0  0  0  0  0  0  0
   19.0773   20.8147   22.6868 H   0  0  0  0  0  0  0  0  0  0  0  0
   17.8563   19.5562   22.6174 H   0  0  0  0  0  0  0  0  0  0  0  0
   19.1794   19.5927   20.8993 C   0  0  0  0  0  0  0  0  0  0  0  0
   18.5235   20.2832   20.3515 H   0  0  0  0  0  0  0  0  0  0  0  0
   20.2070   19.8941   20.6566 H   0  0  0  0  0  0  0  0  0  0  0  0
   18.9240   18.1575   20.3912 C   0  0  0  0  0  0  0  0  0  0  0  0
   17.9083   17.8263   20.6435 H   0  0  0  0  0  0  0  0  0  0  0  0
   19.0342   18.1109   19.3001 H   0  0  0  0  0  0  0  0  0  0  0  0
   19.6372   17.4470   20.8281 H   0  0  0  0  0  0  0  0  0  0  0  0
  1  2  1  0  0  0  0
  1  3  2  0  0  0  0
  1  4  1  0  0  0  0
  4  5  1  0  0  0  0
  4  6  1  0  0  0  0
  4  7  1  0  0  0  0
  7  8  1  0  0  0  0
  7  9  1  0  0  0  0
  7 10  1  0  0  0  0
 10 11  1  0  0  0  0
 10 12  1  0  0  0  0
 10 13  1  0  0  0  0
 13 14  1  0  0  0  0
 13 15  1  0  0  0  0
 13 16  1  0  0  0  0
 16 17  1  0  0  0  0
 16 18  1  0  0  0  0
 16 19  1  0  0  0  0
M  END
> <VConfSearch Rank>
751

> <Conf_Id>
67

> <Delta U+W>
0.308

> <U+W>
-54.583

> <U>
8.219

> <W>
-62.802

> <W(PB)>
-64.859

> <W(SA)>
2.057

> <Valence>
7.609

> <Coulomb>
-0.089

> <VdW>
0.699

> <VdW6>
-6.924

> <VdW12>
7.623

> <Bond>
0.163

> <Angle>
2.870

> <Pdih>
4.576

> <Idih>
0.001

> <Tether>
0.000

$$$$
VeraChem MOL file


 19 18  0  0  0  0  0  0  0  0999 V2000     
   19.3383   18.3150   19.5078 C   0  0  0  0  0  0  0  0  0  0  0  0
   18.4267   17.6504   19.0565 O   0  5  0  0  0  0  0  0  0  0  0  0
   20.3754   18.5263   18.9111 O   0  0  0  0  0  0  0  0  0  0  0  0
   19.1793   18.8993   20.9069 C   0  0  0  0  0  0  0  0  0  0  0  0
   18.1176   19.1237   21.0643 H   0  0  0  0  0  0  0  0  0  0  0  0
   19.7215   19.8513   20.9346 H   0  0  0  0  0  0  0  0  0  0  0  0
   19.6951   17.9477   22.0174 C   0  0  0  0  0  0  0  0  0  0  0  0
   19.1990   16.9738   21.9054 H   0  0  0  0  0  0  0  0  0  0  0  0
   20.7673   17.7605   21.8717 H   0  0  0  0  0  0  0  0  0  0  0  0
   19.4346   18.4715   23.4521 C   0  0  0  0  0  0  0  0  0  0  0  0
   19.7889   17.7205   24.1713 H   0  0  0  0  0  0  0  0  0  0  0  0
   18.3504   18.5538   23.6093 H   0  0  0  0  0  0  0  0  0  0  0  0
   20.0910   19.8334   23.7867 C   0  0  0  0  0  0  0  0  0  0  0  0
   19.6738   20.6228   23.1477 H   0  0  0  0  0  0  0  0  0  0  0  0
   19.8252   20.1056   24.8174 H   0  0  0  0  0  0  0  0  0  0  0  0
   21.6294   19.8186   23.6584 C   0  0  0  0  0  0  0  0  0  0  0  0
   21.9413   19.6638   22.6177 H   0  0  0  0  0  0  0  0  0  0  0  0
   22.0521   20.7745   23.9936 H   0  0  0  0  0  0  0  0  0  0  0  0
   22.0673   19.0208   24.2723 H   0  0  0  0  0  0  0  0  0  0  0  0
  1  2  1  0  0  0  0
  1  3  2  0  0  0  0
  1  4  1  0  0  0  0
  4  5  1  0  0  0  0
  4  6  1  0  0  0  0
  4  7  1  0  0  0  0
  7  8  1  0  0  0  0
  7  9  1  0  0  0  0
  7 10  1  0  0  0  0
 10 11  1  0  0  0  0
 10 12  1  0  0  0  0
 10 13  1  0  0  0  0
 13 14  1  0  0  0  0
 13 15  1  0  0  0  0
 13 16  1  0  0  0  0
 16 17  1  0  0  0  0
 16 18  1  0  0  0  0
 16 19  1  0  0  0  0
M  END
> <VConfSearch Rank>
752

> <Conf_Id>
21

> <Delta U+W>
0.319

> <U+W>
-54.572

> <U>
8.220

> <W>
-62.792

> <W(PB)>
-64.830

> <W(SA)>
2.038

> <Valence>
7.609

> <Coulomb>
-0.088

> <VdW>
0.699

> <VdW6>
-6.924

> <VdW12>
7.623

> <Bond>
0.163

> <Angle>
2.870

> <Pdih>
4.576

> <Idih>
0.000

> <Tether>
0.000

$$$$
VeraChem MOL file


 19 18  0  0  0  0  0  0  0  0999 V2000     
   20.0563   16.0723   21.8127 C   0  0  0  0  0  0  0  0  0  0  0  0
   19.8327   15.4475   20.7948 O   0  5  0  0  0  0  0  0  0  0  0  0
   20.7311   15.6457   22.7287 O   0  0  0  0  0  0  0  0  0  0  0  0
   19.4734   17.4753   21.9390 C   0  0  0  0  0  0  0  0  0  0  0  0
   19.2601   17.6562   22.9971 H   0  0  0  0  0  0  0  0  0  0  0  0
   18.5117   17.4905   21.4125 H   0  0  0  0  0  0  0  0  0  0  0  0
   20.4112   18.5695   21.3637 C   0  0  0  0  0  0  0  0  0  0  0  0
   21.3954   18.5178   21.8494 H   0  0  0  0  0  0  0  0  0  0  0  0
   20.5820   18.3436   20.3020 H   0  0  0  0  0  0  0  0  0  0  0  0
   19.8308   20.0019   21.4784 C   0  0  0  0  0  0  0  0  0  0  0  0
   18.7332   19.9723   21.4422 H   0  0  0  0  0  0  0  0  0  0  0  0
   20.1435   20.5689   20.5908 H   0  0  0  0  0  0  0  0  0  0  0  0
   20.3010   20.7921   22.7244 C   0  0  0  0  0  0  0  0  0  0  0  0
   21.3949   20.8934   22.7050 H   0  0  0  0  0  0  0  0  0  0  0  0
   19.8971   21.8120   22.6627 H   0  0  0  0  0  0  0  0  0  0  0  0
   19.8688   20.1704   24.0684 C   0  0  0  0  0  0  0  0  0  0  0  0
   20.1177   20.8428   24.8995 H   0  0  0  0  0  0  0  0  0  0  0  0
   18.7860   19.9911   24.0901 H   0  0  0  0  0  0  0  0  0  0  0  0
   20.3849   19.2190   24.2481 H   0  0  0  0  0  0  0  0  0  0  0  0
  1  2  1  0  0  0  0
  1  3  2  0  0  0  0
  1  4  1  0  0  0  0
  4  5  1  0  0  0  0
  4  6  1  0  0  0  0
  4  7  1  0  0  0  0
  7  8  1  0  0  0  0
  7  9  1  0  0  0  0
  7 10  1  0  0  0  0
 10 11  1  0  0  0  0
 10 12  1  0  0  0  0
 10 13  1  0  0  0  0
 13 14  1  0  0  0  0
 13 15  1  0  0  0  0
 13 16  1  0  0  0  0
 16 17  1  0  0  0  0
 16 18  1  0  0  0  0
 16 19  1  0  0  0  0
M  END
> <VConfSearch Rank>
753

> <Conf_Id>
24

> <Delta U+W>
2.477

> <U+W>
-52.414

> <U>
10.422

> <W>
-62.836

> <W(PB)>
-64.906

> <W(SA)>
2.070

> <Valence>
9.628

> <Coulomb>
0.101

> <VdW>
0.693

> <VdW6>
-6.927

> <VdW12>
7.620

> <Bond>
0.173

> <Angle>
2.989

> <Pdih>
6.465

> <Idih>
0.001

> <Tether>
0.000

$$$$
VeraChem MOL file


 19 18  0  0  0  0  0  0  0  0999 V2000     
   22.3722   18.2960   22.3658 C   0  0  0  0  0  0  0  0  0  0  0  0
   22.7124   19.0185   21.4499 O   0  5  0  0  0  0  0  0  0  0  0  0
   23.1149   17.9621   23.2681 O   0  0  0  0  0  0  0  0  0  0  0  0
   20.9453   17.7536   22.3707 C   0  0  0  0  0  0  0  0  0  0  0  0
   21.0102   16.6740   22.5500 H   0  0  0  0  0  0  0  0  0  0  0  0
   20.5245   17.8799   21.3681 H   0  0  0  0  0  0  0  0  0  0  0  0
   20.0284   18.3985   23.4469 C   0  0  0  0  0  0  0  0  0  0  0  0
   19.0947   17.8265   23.5313 H   0  0  0  0  0  0  0  0  0  0  0  0
   20.5292   18.3042   24.4204 H   0  0  0  0  0  0  0  0  0  0  0  0
   19.7055   19.8943   23.1941 C   0  0  0  0  0  0  0  0  0  0  0  0
   20.5329   20.3822   22.6611 H   0  0  0  0  0  0  0  0  0  0  0  0
   19.6411   20.3981   24.1682 H   0  0  0  0  0  0  0  0  0  0  0  0
   18.3723   20.1502   22.4490 C   0  0  0  0  0  0  0  0  0  0  0  0
   17.5380   19.7375   23.0328 H   0  0  0  0  0  0  0  0  0  0  0  0
   18.2049   21.2349   22.3982 H   0  0  0  0  0  0  0  0  0  0  0  0
   18.3292   19.5768   21.0176 C   0  0  0  0  0  0  0  0  0  0  0  0
   18.3228   18.4799   21.0310 H   0  0  0  0  0  0  0  0  0  0  0  0
   17.4196   19.9063   20.4992 H   0  0  0  0  0  0  0  0  0  0  0  0
   19.1947   19.9143   20.4323 H   0  0  0  0  0  0  0  0  0  0  0  0
  1  2  1  0  0  0  0
  1  3  2  0  0  0  0
  1  4  1  0  0  0  0
  4  5  1  0  0  0  0
  4  6  1  0  0  0  0
  4  7  1  0  0  0  0
  7  8  1  0  0  0  0
  7  9  1  0  0  0  0
  7 10  1  0  0  0  0
 10 11  1  0  0  0  0
 10 12  1  0  0  0  0
 10 13  1  0  0  0  0
 13 14  1  0  0  0  0
 13 15  1  0  0  0  0
 13 16  1  0  0  0  0
 16 17  1  0  0  0  0
 16 18  1  0  0  0  0
 16 19  1  0  0  0  0
M  END
> <VConfSearch Rank>
754

> <Conf_Id>
4

> <Delta U+W>
3.753

> <U+W>
-51.138

> <U>
12.334

> <W>
-63.472

> <W(PB)>
-65.500

> <W(SA)>
2.028

> <Valence>
9.984

> <Coulomb>
1.767

> <VdW>
0.583

> <VdW6>
-7.767

> <VdW12>
8.349

> <Bond>
0.203

> <Angle>
3.191

> <Pdih>
6.589

> <Idih>
0.001

> <Tether>
0.000

$$$$
VeraChem MOL file


 19 18  0  0  0  0  0  0  0  0999 V2000     
   18.3068   17.2017   21.2690 C   0  0  0  0  0  0  0  0  0  0  0  0
   18.5364   16.2342   20.5703 O   0  5  0  0  0  0  0  0  0  0  0  0
   17.4620   17.2128   22.1424 O   0  0  0  0  0  0  0  0  0  0  0  0
   19.1036   18.4785   21.0139 C   0  0  0  0  0  0  0  0  0  0  0  0
   18.5774   19.3141   21.4862 H   0  0  0  0  0  0  0  0  0  0  0  0
   19.0809   18.6637   19.9337 H   0  0  0  0  0  0  0  0  0  0  0  0
   20.5807   18.4070   21.4915 C   0  0  0  0  0  0  0  0  0  0  0  0
   21.0398   17.5151   21.0429 H   0  0  0  0  0  0  0  0  0  0  0  0
   21.1411   19.2654   21.0973 H   0  0  0  0  0  0  0  0  0  0  0  0
   20.7487   18.3342   23.0316 C   0  0  0  0  0  0  0  0  0  0  0  0
   21.6170   17.6977   23.2498 H   0  0  0  0  0  0  0  0  0  0  0  0
   19.8873   17.8291   23.4895 H   0  0  0  0  0  0  0  0  0  0  0  0
   20.9883   19.7002   23.7204 C   0  0  0  0  0  0  0  0  0  0  0  0
   21.1750   19.5232   24.7886 H   0  0  0  0  0  0  0  0  0  0  0  0
   21.9028   20.1598   23.3207 H   0  0  0  0  0  0  0  0  0  0  0  0
   19.8142   20.6912   23.5825 C   0  0  0  0  0  0  0  0  0  0  0  0
   18.8711   20.2314   23.9059 H   0  0  0  0  0  0  0  0  0  0  0  0
   19.9879   21.5808   24.2015 H   0  0  0  0  0  0  0  0  0  0  0  0
   19.7009   21.0280   22.5447 H   0  0  0  0  0  0  0  0  0  0  0  0
  1  2  1  0  0  0  0
  1  3  2  0  0  0  0
  1  4  1  0  0  0  0
  4  5  1  0  0  0  0
  4  6  1  0  0  0  0
  4  7  1  0  0  0  0
  7  8  1  0  0  0  0
  7  9  1  0  0  0  0
  7 10  1  0  0  0  0
 10 11  1  0  0  0  0
 10 12  1  0  0  0  0
 10 13  1  0  0  0  0
 13 14  1  0  0  0  0
 13 15  1  0  0  0  0
 13 16  1  0  0  0  0
 16 17  1  0  0  0  0
 16 18  1  0  0  0  0
 16 19  1  0  0  0  0
M  END
> <VConfSearch Rank>
755

> <Conf_Id>
73

> <Delta U+W>
3.707

> <U+W>
-51.184

> <U>
12.334

> <W>
-63.519

> <W(PB)>
-65.541

> <W(SA)>
2.022

> <Valence>
9.984

> <Coulomb>
1.768

> <VdW>
0.583

> <VdW6>
-7.767

> <VdW12>
8.350

> <Bond>
0.203

> <Angle>
3.192

> <Pdih>
6.589

> <Idih>
0.001

> <Tether>
0.000

$$$$
VeraChem MOL file


 19 18  0  0  0  0  0  0  0  0999 V2000     
   21.3947   20.6334   21.0922 C   0  0  0  0  0  0  0  0  0  0  0  0
   20.5893   20.9454   20.2375 O   0  5  0  0  0  0  0  0  0  0  0  0
   22.2374   21.3923   21.5292 O   0  0  0  0  0  0  0  0  0  0  0  0
   21.3697   19.2031   21.6242 C   0  0  0  0  0  0  0  0  0  0  0  0
   22.3931   18.8148   21.5648 H   0  0  0  0  0  0  0  0  0  0  0  0
   20.7645   18.5871   20.9492 H   0  0  0  0  0  0  0  0  0  0  0  0
   20.8568   19.0777   23.0849 C   0  0  0  0  0  0  0  0  0  0  0  0
   20.9419   18.0326   23.4096 H   0  0  0  0  0  0  0  0  0  0  0  0
   21.5234   19.6528   23.7422 H   0  0  0  0  0  0  0  0  0  0  0  0
   19.4029   19.5727   23.2979 C   0  0  0  0  0  0  0  0  0  0  0  0
   19.3565   20.6497   23.0857 H   0  0  0  0  0  0  0  0  0  0  0  0
   19.1455   19.4632   24.3601 H   0  0  0  0  0  0  0  0  0  0  0  0
   18.3296   18.8523   22.4457 C   0  0  0  0  0  0  0  0  0  0  0  0
   17.3500   19.2969   22.6688 H   0  0  0  0  0  0  0  0  0  0  0  0
   18.5093   19.0369   21.3779 H   0  0  0  0  0  0  0  0  0  0  0  0
   18.2571   17.3328   22.7091 C   0  0  0  0  0  0  0  0  0  0  0  0
   19.1789   16.8288   22.3925 H   0  0  0  0  0  0  0  0  0  0  0  0
   18.0994   17.1261   23.7756 H   0  0  0  0  0  0  0  0  0  0  0  0
   17.4247   16.8855   22.1506 H   0  0  0  0  0  0  0  0  0  0  0  0
  1  2  1  0  0  0  0
  1  3  2  0  0  0  0
  1  4  1  0  0  0  0
  4  5  1  0  0  0  0
  4  6  1  0  0  0  0
  4  7  1  0  0  0  0
  7  8  1  0  0  0  0
  7  9  1  0  0  0  0
  7 10  1  0  0  0  0
 10 11  1  0  0  0  0
 10 12  1  0  0  0  0
 10 13  1  0  0  0  0
 13 14  1  0  0  0  0
 13 15  1  0  0  0  0
 13 16  1  0  0  0  0
 16 17  1  0  0  0  0
 16 18  1  0  0  0  0
 16 19  1  0  0  0  0
M  END
> <VConfSearch Rank>
756

> <Conf_Id>
56

> <Delta U+W>
1.735

> <U+W>
-53.156

> <U>
10.214

> <W>
-63.370

> <W(PB)>
-65.388

> <W(SA)>
2.018

> <Valence>
7.868

> <Coulomb>
1.968

> <VdW>
0.378

> <VdW6>
-8.067

> <VdW12>
8.445

> <Bond>
0.191

> <Angle>
3.117

> <Pdih>
4.559

> <Idih>
0.001

> <Tether>
0.000

$$$$
VeraChem MOL file


 19 18  0  0  0  0  0  0  0  0999 V2000     
   17.0793   18.4113   22.0769 C   0  0  0  0  0  0  0  0  0  0  0  0
   16.2342   19.1373   22.5617 O   0  5  0  0  0  0  0  0  0  0  0  0
   16.8416   17.3039   21.6369 O   0  0  0  0  0  0  0  0  0  0  0  0
   18.5199   18.9085   22.0382 C   0  0  0  0  0  0  0  0  0  0  0  0
   18.5019   19.9995   21.9302 H   0  0  0  0  0  0  0  0  0  0  0  0
   18.9891   18.4950   21.1385 H   0  0  0  0  0  0  0  0  0  0  0  0
   19.3278   18.5079   23.2983 C   0  0  0  0  0  0  0  0  0  0  0  0
   18.7616   18.8111   24.1898 H   0  0  0  0  0  0  0  0  0  0  0  0
   19.4084   17.4130   23.3432 H   0  0  0  0  0  0  0  0  0  0  0  0
   20.7414   19.1370   23.3777 C   0  0  0  0  0  0  0  0  0  0  0  0
   21.1888   18.8242   24.3312 H   0  0  0  0  0  0  0  0  0  0  0  0
   20.6650   20.2317   23.4289 H   0  0  0  0  0  0  0  0  0  0  0  0
   21.7007   18.7191   22.2356 C   0  0  0  0  0  0  0  0  0  0  0  0
   22.7168   18.6338   22.6450 H   0  0  0  0  0  0  0  0  0  0  0  0
   21.4370   17.7199   21.8625 H   0  0  0  0  0  0  0  0  0  0  0  0
   21.7403   19.7331   21.0707 C   0  0  0  0  0  0  0  0  0  0  0  0
   22.4454   19.4013   20.2975 H   0  0  0  0  0  0  0  0  0  0  0  0
   20.7588   19.8524   20.5986 H   0  0  0  0  0  0  0  0  0  0  0  0
   22.0689   20.7195   21.4230 H   0  0  0  0  0  0  0  0  0  0  0  0
  1  2  1  0  0  0  0
  1  3  2  0  0  0  0
  1  4  1  0  0  0  0
  4  5  1  0  0  0  0
  4  6  1  0  0  0  0
  4  7  1  0  0  0  0
  7  8  1  0  0  0  0
  7  9  1  0  0  0  0
  7 10  1  0  0  0  0
 10 11  1  0  0  0  0
 10 12  1  0  0  0  0
 10 13  1  0  0  0  0
 13 14  1  0  0  0  0
 13 15  1  0  0  0  0
 13 16  1  0  0  0  0
 16 17  1  0  0  0  0
 16 18  1  0  0  0  0
 16 19  1  0  0  0  0
M  END
> <VConfSearch Rank>
757

> <Conf_Id>
53

> <Delta U+W>
2.279

> <U+W>
-52.612

> <U>
10.231

> <W>
-62.843

> <W(PB)>
-64.893

> <W(SA)>
2.050

> <Valence>
9.644

> <Coulomb>
-0.164

> <VdW>
0.751

> <VdW6>
-6.881

> <VdW12>
7.631

> <Bond>
0.163

> <Angle>
2.998

> <Pdih>
6.482

> <Idih>
0.001

> <Tether>
0.000

$$$$
VeraChem MOL file


 19 18  0  0  0  0  0  0  0  0999 V2000     
   17.9707   18.1365   21.8302 C   0  0  0  0  0  0  0  0  0  0  0  0
   17.2542   18.5094   22.7381 O   0  5  0  0  0  0  0  0  0  0  0  0
   18.0588   16.9759   21.4801 O   0  0  0  0  0  0  0  0  0  0  0  0
   18.7462   19.1923   21.0444 C   0  0  0  0  0  0  0  0  0  0  0  0
   18.5127   20.1834   21.4520 H   0  0  0  0  0  0  0  0  0  0  0  0
   18.3475   19.1714   20.0235 H   0  0  0  0  0  0  0  0  0  0  0  0
   20.2856   18.9819   20.9900 C   0  0  0  0  0  0  0  0  0  0  0  0
   20.5125   17.9270   20.7819 H   0  0  0  0  0  0  0  0  0  0  0  0
   20.6749   19.5490   20.1336 H   0  0  0  0  0  0  0  0  0  0  0  0
   21.0504   19.4508   22.2525 C   0  0  0  0  0  0  0  0  0  0  0  0
   20.8249   20.5075   22.4504 H   0  0  0  0  0  0  0  0  0  0  0  0
   22.1269   19.3998   22.0389 H   0  0  0  0  0  0  0  0  0  0  0  0
   20.7558   18.6117   23.5153 C   0  0  0  0  0  0  0  0  0  0  0  0
   19.7127   18.7526   23.8263 H   0  0  0  0  0  0  0  0  0  0  0  0
   20.8831   17.5436   23.2910 H   0  0  0  0  0  0  0  0  0  0  0  0
   21.6809   19.0055   24.6845 C   0  0  0  0  0  0  0  0  0  0  0  0
   21.5537   20.0643   24.9457 H   0  0  0  0  0  0  0  0  0  0  0  0
   21.4531   18.4066   25.5758 H   0  0  0  0  0  0  0  0  0  0  0  0
   22.7349   18.8399   24.4254 H   0  0  0  0  0  0  0  0  0  0  0  0
  1  2  1  0  0  0  0
  1  3  2  0  0  0  0
  1  4  1  0  0  0  0
  4  5  1  0  0  0  0
  4  6  1  0  0  0  0
  4  7  1  0  0  0  0
  7  8  1  0  0  0  0
  7  9  1  0  0  0  0
  7 10  1  0  0  0  0
 10 11  1  0  0  0  0
 10 12  1  0  0  0  0
 10 13  1  0  0  0  0
 13 14  1  0  0  0  0
 13 15  1  0  0  0  0
 13 16  1  0  0  0  0
 16 17  1  0  0  0  0
 16 18  1  0  0  0  0
 16 19  1  0  0  0  0
M  END
> <VConfSearch Rank>
758

> <Conf_Id>
25

> <Delta U+W>
2.065

> <U+W>
-52.826

> <U>
10.967

> <W>
-63.794

> <W(PB)>
-65.830

> <W(SA)>
2.036

> <Valence>
8.609

> <Coulomb>
1.892

> <VdW>
0.467

> <VdW6>
-7.569

> <VdW12>
8.036

> <Bond>
0.170

> <Angle>
3.195

> <Pdih>
5.237

> <Idih>
0.007

> <Tether>
0.000

$$$$
VeraChem MOL file


 19 18  0  0  0  0  0  0  0  0999 V2000     
   21.3722   19.9030   20.7267 C   0  0  0  0  0  0  0  0  0  0  0  0
   22.2450   20.5866   21.2250 O   0  5  0  0  0  0  0  0  0  0  0  0
   20.5080   20.3478   19.9972 O   0  0  0  0  0  0  0  0  0  0  0  0
   21.4023   18.3956   20.9720 C   0  0  0  0  0  0  0  0  0  0  0  0
   22.3371   18.0301   20.5313 H   0  0  0  0  0  0  0  0  0  0  0  0
   20.5861   17.9262   20.4096 H   0  0  0  0  0  0  0  0  0  0  0  0
   21.3450   17.9644   22.4646 C   0  0  0  0  0  0  0  0  0  0  0  0
   21.7350   16.9401   22.5365 H   0  0  0  0  0  0  0  0  0  0  0  0
   22.0244   18.5888   23.0613 H   0  0  0  0  0  0  0  0  0  0  0  0
   19.9280   17.9741   23.0896 C   0  0  0  0  0  0  0  0  0  0  0  0
   19.9888   17.5075   24.0823 H   0  0  0  0  0  0  0  0  0  0  0  0
   19.2561   17.3425   22.4926 H   0  0  0  0  0  0  0  0  0  0  0  0
   19.3161   19.3841   23.2417 C   0  0  0  0  0  0  0  0  0  0  0  0
   20.0297   20.0468   23.7506 H   0  0  0  0  0  0  0  0  0  0  0  0
   19.1223   19.8193   22.2530 H   0  0  0  0  0  0  0  0  0  0  0  0
   17.9947   19.3445   24.0355 C   0  0  0  0  0  0  0  0  0  0  0  0
   17.5690   20.3522   24.1271 H   0  0  0  0  0  0  0  0  0  0  0  0
   17.2545   18.7080   23.5332 H   0  0  0  0  0  0  0  0  0  0  0  0
   18.1553   18.9513   25.0479 H   0  0  0  0  0  0  0  0  0  0  0  0
  1  2  1  0  0  0  0
  1  3  2  0  0  0  0
  1  4  1  0  0  0  0
  4  5  1  0  0  0  0
  4  6  1  0  0  0  0
  4  7  1  0  0  0  0
  7  8  1  0  0  0  0
  7  9  1  0  0  0  0
  7 10  1  0  0  0  0
 10 11  1  0  0  0  0
 10 12  1  0  0  0  0
 10 13  1  0  0  0  0
 13 14  1  0  0  0  0
 13 15  1  0  0  0  0
 13 16  1  0  0  0  0
 16 17  1  0  0  0  0
 16 18  1  0  0  0  0
 16 19  1  0  0  0  0
M  END
> <VConfSearch Rank>
759

> <Conf_Id>
52

> <Delta U+W>
2.070

> <U+W>
-52.822

> <U>
10.967

> <W>
-63.789

> <W(PB)>
-65.837

> <W(SA)>
2.048

> <Valence>
8.609

> <Coulomb>
1.892

> <VdW>
0.467

> <VdW6>
-7.569

> <VdW12>
8.035

> <Bond>
0.170

> <Angle>
3.196

> <Pdih>
5.237

> <Idih>
0.007

> <Tether>
0.000

$$$$
VeraChem MOL file


 19 18  0  0  0  0  0  0  0  0999 V2000     
   19.4986   18.6488   20.5015 C   0  0  0  0  0  0  0  0  0  0  0  0
   19.6913   19.7256   19.9710 O   0  5  0  0  0  0  0  0  0  0  0  0
   20.0258   17.6195   20.1280 O   0  0  0  0  0  0  0  0  0  0  0  0
   18.4492   18.5537   21.6101 C   0  0  0  0  0  0  0  0  0  0  0  0
   18.5105   17.5630   22.0763 H   0  0  0  0  0  0  0  0  0  0  0  0
   17.4753   18.6036   21.1099 H   0  0  0  0  0  0  0  0  0  0  0  0
   18.5124   19.6639   22.6977 C   0  0  0  0  0  0  0  0  0  0  0  0
   18.7183   20.6366   22.2300 H   0  0  0  0  0  0  0  0  0  0  0  0
   17.5134   19.7549   23.1450 H   0  0  0  0  0  0  0  0  0  0  0  0
   19.5172   19.4092   23.8504 C   0  0  0  0  0  0  0  0  0  0  0  0
   19.2508   18.4861   24.3833 H   0  0  0  0  0  0  0  0  0  0  0  0
   19.3917   20.2194   24.5817 H   0  0  0  0  0  0  0  0  0  0  0  0
   21.0052   19.3746   23.4255 C   0  0  0  0  0  0  0  0  0  0  0  0
   21.1472   19.9141   22.4789 H   0  0  0  0  0  0  0  0  0  0  0  0
   21.6007   19.9139   24.1750 H   0  0  0  0  0  0  0  0  0  0  0  0
   21.5612   17.9388   23.3135 C   0  0  0  0  0  0  0  0  0  0  0  0
   21.5150   17.4245   24.2822 H   0  0  0  0  0  0  0  0  0  0  0  0
   20.9950   17.3442   22.5872 H   0  0  0  0  0  0  0  0  0  0  0  0
   22.6098   17.9559   22.9898 H   0  0  0  0  0  0  0  0  0  0  0  0
  1  2  1  0  0  0  0
  1  3  2  0  0  0  0
  1  4  1  0  0  0  0
  4  5  1  0  0  0  0
  4  6  1  0  0  0  0
  4  7  1  0  0  0  0
  7  8  1  0  0  0  0
  7  9  1  0  0  0  0
  7 10  1  0  0  0  0
 10 11  1  0  0  0  0
 10 12  1  0  0  0  0
 10 13  1  0  0  0  0
 13 14  1  0  0  0  0
 13 15  1  0  0  0  0
 13 16  1  0  0  0  0
 16 17  1  0  0  0  0
 16 18  1  0  0  0  0
 16 19  1  0  0  0  0
M  END
> <VConfSearch Rank>
760

> <Conf_Id>
66

> <Delta U+W>
5.819

> <U+W>
-49.072

> <U>
15.324

> <W>
-64.396

> <W(PB)>
-66.382

> <W(SA)>
1.986

> <Valence>
11.748

> <Coulomb>
3.201

> <VdW>
0.375

> <VdW6>
-8.854

> <VdW12>
9.229

> <Bond>
0.216

> <Angle>
3.812

> <Pdih>
7.699

> <Idih>
0.022

> <Tether>
0.000

$$$$
VeraChem MOL file


 19 18  0  0  0  0  0  0  0  0999 V2000     
   18.3385   16.1403   23.2905 C   0  0  0  0  0  0  0  0  0  0  0  0
   17.6625   15.2074   22.9052 O   0  5  0  0  0  0  0  0  0  0  0  0
   18.6338   16.3080   24.4579 O   0  0  0  0  0  0  0  0  0  0  0  0
   18.8254   17.1331   22.2337 C   0  0  0  0  0  0  0  0  0  0  0  0
   17.9394   17.5274   21.7224 H   0  0  0  0  0  0  0  0  0  0  0  0
   19.3984   16.5655   21.4910 H   0  0  0  0  0  0  0  0  0  0  0  0
   19.6850   18.3072   22.7732 C   0  0  0  0  0  0  0  0  0  0  0  0
   19.1074   18.8682   23.5209 H   0  0  0  0  0  0  0  0  0  0  0  0
   20.5680   17.9053   23.2893 H   0  0  0  0  0  0  0  0  0  0  0  0
   20.1326   19.2582   21.6420 C   0  0  0  0  0  0  0  0  0  0  0  0
   19.2484   19.6586   21.1272 H   0  0  0  0  0  0  0  0  0  0  0  0
   20.7098   18.6952   20.8955 H   0  0  0  0  0  0  0  0  0  0  0  0
   20.9869   20.4246   22.1804 C   0  0  0  0  0  0  0  0  0  0  0  0
   20.4124   20.9914   22.9261 H   0  0  0  0  0  0  0  0  0  0  0  0
   21.8736   20.0282   22.6943 H   0  0  0  0  0  0  0  0  0  0  0  0
   21.4319   21.3720   21.0484 C   0  0  0  0  0  0  0  0  0  0  0  0
   20.5637   21.8080   20.5370 H   0  0  0  0  0  0  0  0  0  0  0  0
   22.0380   22.1951   21.4487 H   0  0  0  0  0  0  0  0  0  0  0  0
   22.0359   20.8375   20.3035 H   0  0  0  0  0  0  0  0  0  0  0  0
  1  2  1  0  0  0  0
  1  3  2  0  0  0  0
  1  4  1  0  0  0  0
  4  5  1  0  0  0  0
  4  6  1  0  0  0  0
  4  7  1  0  0  0  0
  7  8  1  0  0  0  0
  7  9  1  0  0  0  0
  7 10  1  0  0  0  0
 10 11  1  0  0  0  0
 10 12  1  0  0  0  0
 10 13  1  0  0  0  0
 13 14  1  0  0  0  0
 13 15  1  0  0  0  0
 13 16  1  0  0  0  0
 16 17  1  0  0  0  0
 16 18  1  0  0  0  0
 16 19  1  0  0  0  0
M  END
> <VConfSearch Rank>
761

> <Conf_Id>
0

> <Delta U+W>
0.000

> <U+W>
-54.891

> <U>
6.966

> <W>
-61.857

> <W(PB)>
-63.965

> <W(SA)>
2.108

> <Valence>
7.175

> <Coulomb>
-1.360

> <VdW>
1.151

> <VdW6>
-5.641

> <VdW12>
6.792

> <Bond>
0.119

> <Angle>
2.715

> <Pdih>
4.340

> <Idih>
0.000

> <Tether>
0.000

$$$$
VeraChem MOL file


 19 18  0  0  0  0  0  0  0  0999 V2000     
   19.9591   20.2512   25.2650 C   0  0  0  0  0  0  0  0  0  0  0  0
   20.7426   21.1655   25.4270 O   0  5  0  0  0  0  0  0  0  0  0  0
   18.9169   20.1416   25.8798 O   0  0  0  0  0  0  0  0  0  0  0  0
   20.2923   19.1942   24.2181 C   0  0  0  0  0  0  0  0  0  0  0  0
   19.8779   18.2368   24.5563 H   0  0  0  0  0  0  0  0  0  0  0  0
   21.3826   19.0810   24.1829 H   0  0  0  0  0  0  0  0  0  0  0  0
   19.7461   19.5458   22.8123 C   0  0  0  0  0  0  0  0  0  0  0  0
   18.6554   19.6681   22.8670 H   0  0  0  0  0  0  0  0  0  0  0  0
   20.1601   20.5125   22.4936 H   0  0  0  0  0  0  0  0  0  0  0  0
   20.0968   18.4607   21.7716 C   0  0  0  0  0  0  0  0  0  0  0  0
   19.6828   17.4953   22.0937 H   0  0  0  0  0  0  0  0  0  0  0  0
   21.1876   18.3399   21.7201 H   0  0  0  0  0  0  0  0  0  0  0  0
   19.5513   18.8136   20.3722 C   0  0  0  0  0  0  0  0  0  0  0  0
   18.4600   18.9334   20.4191 H   0  0  0  0  0  0  0  0  0  0  0  0
   19.9648   19.7779   20.0455 H   0  0  0  0  0  0  0  0  0  0  0  0
   19.9032   17.7280   19.3355 C   0  0  0  0  0  0  0  0  0  0  0  0
   19.5080   17.9948   18.3467 H   0  0  0  0  0  0  0  0  0  0  0  0
   20.9909   17.6091   19.2450 H   0  0  0  0  0  0  0  0  0  0  0  0
   19.4749   16.7583   19.6214 H   0  0  0  0  0  0  0  0  0  0  0  0
  1  2  1  0  0  0  0
  1  3  2  0  0  0  0
  1  4  1  0  0  0  0
  4  5  1  0  0  0  0
  4  6  1  0  0  0  0
  4  7  1  0  0  0  0
  7  8  1  0  0  0  0
  7  9  1  0  0  0  0
  7 10  1  0  0  0  0
 10 11  1  0  0  0  0
 10 12  1  0  0  0  0
 10 13  1  0  0  0  0
 13 14  1  0  0  0  0
 13 15  1  0  0  0  0
 13 16  1  0  0  0  0
 16 17  1  0  0  0  0
 16 18  1  0  0  0  0
 16 19  1  0  0  0  0
M  END
> <VConfSearch Rank>
762

> <Conf_Id>
18

> <Delta U+W>
-1.199

> <U+W>
-56.090

> <U>
5.975

> <W>
-62.066

> <W(PB)>
-64.219

> <W(SA)>
2.153

> <Valence>
6.673

> <Coulomb>
-1.307

> <VdW>
0.610

> <VdW6>
-5.351

> <VdW12>
5.961

> <Bond>
0.086

> <Angle>
2.253

> <Pdih>
4.333

> <Idih>
0.001

> <Tether>
0.000

$$$$
VeraChem MOL file


 19 18  0  0  0  0  0  0  0  0999 V2000     
   18.6702   16.4891   23.8229 C   0  0  0  0  0  0  0  0  0  0  0  0
   17.4961   16.1851   23.7493 O   0  5  0  0  0  0  0  0  0  0  0  0
   19.5313   15.7467   24.2516 O   0  0  0  0  0  0  0  0  0  0  0  0
   19.0890   17.8699   23.3306 C   0  0  0  0  0  0  0  0  0  0  0  0
   19.9324   18.2018   23.9465 H   0  0  0  0  0  0  0  0  0  0  0  0
   18.2591   18.5627   23.5142 H   0  0  0  0  0  0  0  0  0  0  0  0
   19.4720   17.8806   21.8278 C   0  0  0  0  0  0  0  0  0  0  0  0
   20.3324   17.2172   21.6636 H   0  0  0  0  0  0  0  0  0  0  0  0
   18.6393   17.4575   21.2489 H   0  0  0  0  0  0  0  0  0  0  0  0
   19.7887   19.2927   21.2809 C   0  0  0  0  0  0  0  0  0  0  0  0
   18.9235   19.9512   21.4389 H   0  0  0  0  0  0  0  0  0  0  0  0
   19.9308   19.2218   20.1938 H   0  0  0  0  0  0  0  0  0  0  0  0
   21.0484   19.9276   21.9116 C   0  0  0  0  0  0  0  0  0  0  0  0
   20.8980   20.0777   22.9887 H   0  0  0  0  0  0  0  0  0  0  0  0
   21.9030   19.2463   21.7985 H   0  0  0  0  0  0  0  0  0  0  0  0
   21.3848   21.2833   21.2588 C   0  0  0  0  0  0  0  0  0  0  0  0
   22.2794   21.7227   21.7190 H   0  0  0  0  0  0  0  0  0  0  0  0
   21.5797   21.1651   20.1848 H   0  0  0  0  0  0  0  0  0  0  0  0
   20.5568   21.9939   21.3810 H   0  0  0  0  0  0  0  0  0  0  0  0
  1  2  1  0  0  0  0
  1  3  2  0  0  0  0
  1  4  1  0  0  0  0
  4  5  1  0  0  0  0
  4  6  1  0  0  0  0
  4  7  1  0  0  0  0
  7  8  1  0  0  0  0
  7  9  1  0  0  0  0
  7 10  1  0  0  0  0
 10 11  1  0  0  0  0
 10 12  1  0  0  0  0
 10 13  1  0  0  0  0
 13 14  1  0  0  0  0
 13 15  1  0  0  0  0
 13 16  1  0  0  0  0
 16 17  1  0  0  0  0
 16 18  1  0  0  0  0
 16 19  1  0  0  0  0
M  END
> <VConfSearch Rank>
763

> <Conf_Id>
34

> <Delta U+W>
-0.563

> <U+W>
-55.455

> <U>
6.914

> <W>
-62.369

> <W(PB)>
-64.446

> <W(SA)>
2.077

> <Valence>
7.196

> <Coulomb>
-1.020

> <VdW>
0.738

> <VdW6>
-6.010

> <VdW12>
6.748

> <Bond>
0.126

> <Angle>
2.499

> <Pdih>
4.570

> <Idih>
0.001

> <Tether>
0.000

$$$$
VeraChem MOL file


 19 18  0  0  0  0  0  0  0  0999 V2000     
   21.2550   17.0257   24.4411 C   0  0  0  0  0  0  0  0  0  0  0  0
   20.7820   16.8875   25.5517 O   0  5  0  0  0  0  0  0  0  0  0  0
   22.4007   16.7368   24.1576 O   0  0  0  0  0  0  0  0  0  0  0  0
   20.3690   17.6143   23.3490 C   0  0  0  0  0  0  0  0  0  0  0  0
   19.3354   17.3054   23.5460 H   0  0  0  0  0  0  0  0  0  0  0  0
   20.6681   17.1616   22.3969 H   0  0  0  0  0  0  0  0  0  0  0  0
   20.4592   19.1606   23.2713 C   0  0  0  0  0  0  0  0  0  0  0  0
   20.2422   19.5766   24.2649 H   0  0  0  0  0  0  0  0  0  0  0  0
   21.4895   19.4564   23.0296 H   0  0  0  0  0  0  0  0  0  0  0  0
   19.4818   19.7859   22.2480 C   0  0  0  0  0  0  0  0  0  0  0  0
   19.5283   20.8793   22.3448 H   0  0  0  0  0  0  0  0  0  0  0  0
   18.4521   19.4954   22.4974 H   0  0  0  0  0  0  0  0  0  0  0  0
   19.7927   19.3978   20.7850 C   0  0  0  0  0  0  0  0  0  0  0  0
   20.8382   19.6418   20.5510 H   0  0  0  0  0  0  0  0  0  0  0  0
   19.6776   18.3146   20.6479 H   0  0  0  0  0  0  0  0  0  0  0  0
   18.8628   20.1297   19.7966 C   0  0  0  0  0  0  0  0  0  0  0  0
   17.8110   19.8820   19.9907 H   0  0  0  0  0  0  0  0  0  0  0  0
   18.9798   21.2182   19.8791 H   0  0  0  0  0  0  0  0  0  0  0  0
   19.0938   19.8416   18.7628 H   0  0  0  0  0  0  0  0  0  0  0  0
  1  2  1  0  0  0  0
  1  3  2  0  0  0  0
  1  4  1  0  0  0  0
  4  5  1  0  0  0  0
  4  6  1  0  0  0  0
  4  7  1  0  0  0  0
  7  8  1  0  0  0  0
  7  9  1  0  0  0  0
  7 10  1  0  0  0  0
 10 11  1  0  0  0  0
 10 12  1  0  0  0  0
 10 13  1  0  0  0  0
 13 14  1  0  0  0  0
 13 15  1  0  0  0  0
 13 16  1  0  0  0  0
 16 17  1  0  0  0  0
 16 18  1  0  0  0  0
 16 19  1  0  0  0  0
M  END
> <VConfSearch Rank>
764

> <Conf_Id>
33

> <Delta U+W>
-0.526

> <U+W>
-55.418

> <U>
6.914

> <W>
-62.332

> <W(PB)>
-64.421

> <W(SA)>
2.090

> <Valence>
7.196

> <Coulomb>
-1.020

> <VdW>
0.738

> <VdW6>
-6.010

> <VdW12>
6.748

> <Bond>
0.126

> <Angle>
2.499

> <Pdih>
4.570

> <Idih>
0.001

> <Tether>
0.000

$$$$
VeraChem MOL file


 19 18  0  0  0  0  0  0  0  0999 V2000     
   20.9416   21.0563   20.1018 C   0  0  0  0  0  0  0  0  0  0  0  0
   20.0043   21.4879   19.4604 O   0  5  0  0  0  0  0  0  0  0  0  0
   21.9129   21.7210   20.4036 O   0  0  0  0  0  0  0  0  0  0  0  0
   20.8881   19.6060   20.5688 C   0  0  0  0  0  0  0  0  0  0  0  0
   21.9132   19.2167   20.5891 H   0  0  0  0  0  0  0  0  0  0  0  0
   20.3361   19.0264   19.8190 H   0  0  0  0  0  0  0  0  0  0  0  0
   20.2273   19.4452   21.9601 C   0  0  0  0  0  0  0  0  0  0  0  0
   20.7854   20.0384   22.6975 H   0  0  0  0  0  0  0  0  0  0  0  0
   19.2105   19.8579   21.9204 H   0  0  0  0  0  0  0  0  0  0  0  0
   20.1834   17.9655   22.4065 C   0  0  0  0  0  0  0  0  0  0  0  0
   21.2002   17.5510   22.3709 H   0  0  0  0  0  0  0  0  0  0  0  0
   19.5839   17.3814   21.6948 H   0  0  0  0  0  0  0  0  0  0  0  0
   19.6241   17.7715   23.8348 C   0  0  0  0  0  0  0  0  0  0  0  0
   19.7368   16.7157   24.1172 H   0  0  0  0  0  0  0  0  0  0  0  0
   20.2247   18.3500   24.5504 H   0  0  0  0  0  0  0  0  0  0  0  0
   18.1370   18.1651   23.9672 C   0  0  0  0  0  0  0  0  0  0  0  0
   17.5202   17.6203   23.2407 H   0  0  0  0  0  0  0  0  0  0  0  0
   17.7651   17.9269   24.9722 H   0  0  0  0  0  0  0  0  0  0  0  0
   17.9911   19.2404   23.8057 H   0  0  0  0  0  0  0  0  0  0  0  0
  1  2  1  0  0  0  0
  1  3  2  0  0  0  0
  1  4  1  0  0  0  0
  4  5  1  0  0  0  0
  4  6  1  0  0  0  0
  4  7  1  0  0  0  0
  7  8  1  0  0  0  0
  7  9  1  0  0  0  0
  7 10  1  0  0  0  0
 10 11  1  0  0  0  0
 10 12  1  0  0  0  0
 10 13  1  0  0  0  0
 13 14  1  0  0  0  0
 13 15  1  0  0  0  0
 13 16  1  0  0  0  0
 16 17  1  0  0  0  0
 16 18  1  0  0  0  0
 16 19  1  0  0  0  0
M  END
> <VConfSearch Rank>
765

> <Conf_Id>
42

> <Delta U+W>
-0.344

> <U+W>
-55.236

> <U>
7.244

> <W>
-62.479

> <W(PB)>
-64.610

> <W(SA)>
2.130

> <Valence>
7.174

> <Coulomb>
-0.669

> <VdW>
0.739

> <VdW6>
-5.969

> <VdW12>
6.708

> <Bond>
0.116

> <Angle>
2.481

> <Pdih>
4.576

> <Idih>
0.000

> <Tether>
0.000

$$$$
VeraChem MOL file


 19 18  0  0  0  0  0  0  0  0999 V2000     
   18.1720   21.4771   22.0208 C   0  0  0  0  0  0  0  0  0  0  0  0
   17.4641   21.5478   23.0058 O   0  5  0  0  0  0  0  0  0  0  0  0
   17.8119   21.8082   20.9086 O   0  0  0  0  0  0  0  0  0  0  0  0
   19.5838   20.9258   22.1864 C   0  0  0  0  0  0  0  0  0  0  0  0
   19.9433   21.2030   23.1847 H   0  0  0  0  0  0  0  0  0  0  0  0
   20.2326   21.4265   21.4576 H   0  0  0  0  0  0  0  0  0  0  0  0
   19.6562   19.3900   22.0006 C   0  0  0  0  0  0  0  0  0  0  0  0
   18.9857   18.9122   22.7271 H   0  0  0  0  0  0  0  0  0  0  0  0
   19.2844   19.1277   21.0005 H   0  0  0  0  0  0  0  0  0  0  0  0
   21.0973   18.8583   22.1774 C   0  0  0  0  0  0  0  0  0  0  0  0
   21.4509   19.0775   23.1942 H   0  0  0  0  0  0  0  0  0  0  0  0
   21.7644   19.3992   21.4923 H   0  0  0  0  0  0  0  0  0  0  0  0
   21.2311   17.3434   21.8989 C   0  0  0  0  0  0  0  0  0  0  0  0
   20.8835   17.1209   20.8805 H   0  0  0  0  0  0  0  0  0  0  0  0
   22.2954   17.0719   21.9296 H   0  0  0  0  0  0  0  0  0  0  0  0
   20.4652   16.4659   22.9124 C   0  0  0  0  0  0  0  0  0  0  0  0
   19.3815   16.6200   22.8375 H   0  0  0  0  0  0  0  0  0  0  0  0
   20.6630   15.4024   22.7256 H   0  0  0  0  0  0  0  0  0  0  0  0
   20.7754   16.6918   23.9410 H   0  0  0  0  0  0  0  0  0  0  0  0
  1  2  1  0  0  0  0
  1  3  2  0  0  0  0
  1  4  1  0  0  0  0
  4  5  1  0  0  0  0
  4  6  1  0  0  0  0
  4  7  1  0  0  0  0
  7  8  1  0  0  0  0
  7  9  1  0  0  0  0
  7 10  1  0  0  0  0
 10 11  1  0  0  0  0
 10 12  1  0  0  0  0
 10 13  1  0  0  0  0
 13 14  1  0  0  0  0
 13 15  1  0  0  0  0
 13 16  1  0  0  0  0
 16 17  1  0  0  0  0
 16 18  1  0  0  0  0
 16 19  1  0  0  0  0
M  END
> <VConfSearch Rank>
766

> <Conf_Id>
41

> <Delta U+W>
-0.361

> <U+W>
-55.252

> <U>
7.244

> <W>
-62.496

> <W(PB)>
-64.596

> <W(SA)>
2.099

> <Valence>
7.174

> <Coulomb>
-0.669

> <VdW>
0.739

> <VdW6>
-5.969

> <VdW12>
6.708

> <Bond>
0.116

> <Angle>
2.481

> <Pdih>
4.576

> <Idih>
0.000

> <Tether>
0.000

$$$$
VeraChem MOL file


 19 18  0  0  0  0  0  0  0  0999 V2000     
   18.0898   21.1091   23.1572 C   0  0  0  0  0  0  0  0  0  0  0  0
   18.6850   21.5003   24.1417 O   0  5  0  0  0  0  0  0  0  0  0  0
   17.7237   21.8408   22.2587 O   0  0  0  0  0  0  0  0  0  0  0  0
   17.7637   19.6219   23.0518 C   0  0  0  0  0  0  0  0  0  0  0  0
   16.7133   19.5372   22.7492 H   0  0  0  0  0  0  0  0  0  0  0  0
   17.8434   19.1741   24.0499 H   0  0  0  0  0  0  0  0  0  0  0  0
   18.6561   18.8495   22.0458 C   0  0  0  0  0  0  0  0  0  0  0  0
   18.2643   17.8297   21.9321 H   0  0  0  0  0  0  0  0  0  0  0  0
   18.5881   19.3266   21.0582 H   0  0  0  0  0  0  0  0  0  0  0  0
   20.1334   18.7805   22.4932 C   0  0  0  0  0  0  0  0  0  0  0  0
   20.1949   18.3148   23.4863 H   0  0  0  0  0  0  0  0  0  0  0  0
   20.5380   19.7973   22.5929 H   0  0  0  0  0  0  0  0  0  0  0  0
   20.9960   17.9813   21.4943 C   0  0  0  0  0  0  0  0  0  0  0  0
   20.5984   16.9619   21.3937 H   0  0  0  0  0  0  0  0  0  0  0  0
   20.9382   18.4464   20.5004 H   0  0  0  0  0  0  0  0  0  0  0  0
   22.4693   17.9142   21.9434 C   0  0  0  0  0  0  0  0  0  0  0  0
   22.5596   17.4247   22.9220 H   0  0  0  0  0  0  0  0  0  0  0  0
   23.0681   17.3432   21.2221 H   0  0  0  0  0  0  0  0  0  0  0  0
   22.9020   18.9203   22.0222 H   0  0  0  0  0  0  0  0  0  0  0  0
  1  2  1  0  0  0  0
  1  3  2  0  0  0  0
  1  4  1  0  0  0  0
  4  5  1  0  0  0  0
  4  6  1  0  0  0  0
  4  7  1  0  0  0  0
  7  8  1  0  0  0  0
  7  9  1  0  0  0  0
  7 10  1  0  0  0  0
 10 11  1  0  0  0  0
 10 12  1  0  0  0  0
 10 13  1  0  0  0  0
 13 14  1  0  0  0  0
 13 15  1  0  0  0  0
 13 16  1  0  0  0  0
 16 17  1  0  0  0  0
 16 18  1  0  0  0  0
 16 19  1  0  0  0  0
M  END
> <VConfSearch Rank>
767

> <Conf_Id>
36

> <Delta U+W>
-0.079

> <U+W>
-54.971

> <U>
8.266

> <W>
-63.237

> <W(PB)>
-65.340

> <W(SA)>
2.103

> <Valence>
6.935

> <Coulomb>
0.874

> <VdW>
0.457

> <VdW6>
-6.205

> <VdW12>
6.662

> <Bond>
0.107

> <Angle>
2.420

> <Pdih>
4.407

> <Idih>
0.001

> <Tether>
0.000

$$$$
VeraChem MOL file


 19 18  0  0  0  0  0  0  0  0999 V2000     
   21.7872   21.2742   22.6737 C   0  0  0  0  0  0  0  0  0  0  0  0
   22.0325   21.1891   23.8607 O   0  5  0  0  0  0  0  0  0  0  0  0
   21.3588   22.2820   22.1468 O   0  0  0  0  0  0  0  0  0  0  0  0
   22.0508   20.0575   21.7909 C   0  0  0  0  0  0  0  0  0  0  0  0
   22.7303   19.3798   22.3220 H   0  0  0  0  0  0  0  0  0  0  0  0
   22.5850   20.4083   20.9000 H   0  0  0  0  0  0  0  0  0  0  0  0
   20.7680   19.2998   21.3603 C   0  0  0  0  0  0  0  0  0  0  0  0
   20.0854   19.9976   20.8554 H   0  0  0  0  0  0  0  0  0  0  0  0
   21.0383   18.5322   20.6226 H   0  0  0  0  0  0  0  0  0  0  0  0
   20.0456   18.6301   22.5507 C   0  0  0  0  0  0  0  0  0  0  0  0
   19.7566   19.3940   23.2858 H   0  0  0  0  0  0  0  0  0  0  0  0
   20.7358   17.9436   23.0599 H   0  0  0  0  0  0  0  0  0  0  0  0
   18.7907   17.8564   22.0953 C   0  0  0  0  0  0  0  0  0  0  0  0
   18.0974   18.5413   21.5877 H   0  0  0  0  0  0  0  0  0  0  0  0
   19.0743   17.0879   21.3629 H   0  0  0  0  0  0  0  0  0  0  0  0
   18.0722   17.1894   23.2852 C   0  0  0  0  0  0  0  0  0  0  0  0
   17.7495   17.9393   24.0193 H   0  0  0  0  0  0  0  0  0  0  0  0
   17.1826   16.6443   22.9438 H   0  0  0  0  0  0  0  0  0  0  0  0
   18.7336   16.4750   23.7929 H   0  0  0  0  0  0  0  0  0  0  0  0
  1  2  1  0  0  0  0
  1  3  2  0  0  0  0
  1  4  1  0  0  0  0
  4  5  1  0  0  0  0
  4  6  1  0  0  0  0
  4  7  1  0  0  0  0
  7  8  1  0  0  0  0
  7  9  1  0  0  0  0
  7 10  1  0  0  0  0
 10 11  1  0  0  0  0
 10 12  1  0  0  0  0
 10 13  1  0  0  0  0
 13 14  1  0  0  0  0
 13 15  1  0  0  0  0
 13 16  1  0  0  0  0
 16 17  1  0  0  0  0
 16 18  1  0  0  0  0
 16 19  1  0  0  0  0
M  END
> <VConfSearch Rank>
768

> <Conf_Id>
35

> <Delta U+W>
-0.030

> <U+W>
-54.921

> <U>
8.267

> <W>
-63.188

> <W(PB)>
-65.294

> <W(SA)>
2.106

> <Valence>
6.935

> <Coulomb>
0.875

> <VdW>
0.457

> <VdW6>
-6.205

> <VdW12>
6.662

> <Bond>
0.107

> <Angle>
2.420

> <Pdih>
4.407

> <Idih>
0.001

> <Tether>
0.000

$$$$
VeraChem MOL file


 19 18  0  0  0  0  0  0  0  0999 V2000     
   21.2933   21.5172   22.7066 C   0  0  0  0  0  0  0  0  0  0  0  0
   20.4976   22.3620   23.0670 O   0  5  0  0  0  0  0  0  0  0  0  0
   22.0904   21.6865   21.8052 O   0  0  0  0  0  0  0  0  0  0  0  0
   21.3049   20.1796   23.4415 C   0  0  0  0  0  0  0  0  0  0  0  0
   21.2727   20.3964   24.5158 H   0  0  0  0  0  0  0  0  0  0  0  0
   22.2622   19.6808   23.2471 H   0  0  0  0  0  0  0  0  0  0  0  0
   20.1275   19.2417   23.0679 C   0  0  0  0  0  0  0  0  0  0  0  0
   20.1356   18.3835   23.7518 H   0  0  0  0  0  0  0  0  0  0  0  0
   19.1770   19.7684   23.2304 H   0  0  0  0  0  0  0  0  0  0  0  0
   20.2072   18.7421   21.6055 C   0  0  0  0  0  0  0  0  0  0  0  0
   21.1407   18.1827   21.4555 H   0  0  0  0  0  0  0  0  0  0  0  0
   20.2531   19.6076   20.9303 H   0  0  0  0  0  0  0  0  0  0  0  0
   19.0045   17.8634   21.1902 C   0  0  0  0  0  0  0  0  0  0  0  0
   18.0693   18.4211   21.3371 H   0  0  0  0  0  0  0  0  0  0  0  0
   19.0758   17.6554   20.1137 H   0  0  0  0  0  0  0  0  0  0  0  0
   18.9349   16.5217   21.9513 C   0  0  0  0  0  0  0  0  0  0  0  0
   18.7452   16.6766   23.0207 H   0  0  0  0  0  0  0  0  0  0  0  0
   18.1215   15.8990   21.5569 H   0  0  0  0  0  0  0  0  0  0  0  0
   19.8723   15.9604   21.8447 H   0  0  0  0  0  0  0  0  0  0  0  0
  1  2  1  0  0  0  0
  1  3  2  0  0  0  0
  1  4  1  0  0  0  0
  4  5  1  0  0  0  0
  4  6  1  0  0  0  0
  4  7  1  0  0  0  0
  7  8  1  0  0  0  0
  7  9  1  0  0  0  0
  7 10  1  0  0  0  0
 10 11  1  0  0  0  0
 10 12  1  0  0  0  0
 10 13  1  0  0  0  0
 13 14  1  0  0  0  0
 13 15  1  0  0  0  0
 13 16  1  0  0  0  0
 16 17  1  0  0  0  0
 16 18  1  0  0  0  0
 16 19  1  0  0  0  0
M  END
> <VConfSearch Rank>
769

> <Conf_Id>
74

> <Delta U+W>
0.797

> <U+W>
-54.095

> <U>
8.869

> <W>
-62.964

> <W(PB)>
-65.046

> <W(SA)>
2.082

> <Valence>
7.469

> <Coulomb>
0.762

> <VdW>
0.639

> <VdW6>
-6.782

> <VdW12>
7.421

> <Bond>
0.141

> <Angle>
2.667

> <Pdih>
4.660

> <Idih>
0.001

> <Tether>
0.000

$$$$
VeraChem MOL file


 19 18  0  0  0  0  0  0  0  0999 V2000     
   22.0467   17.7742   20.5747 C   0  0  0  0  0  0  0  0  0  0  0  0
   22.0017   16.7782   19.8800 O   0  5  0  0  0  0  0  0  0  0  0  0
   22.8202   18.6918   20.3846 O   0  0  0  0  0  0  0  0  0  0  0  0
   21.0662   17.8863   21.7367 C   0  0  0  0  0  0  0  0  0  0  0  0
   21.5596   18.4506   22.5363 H   0  0  0  0  0  0  0  0  0  0  0  0
   20.8746   16.8770   22.1200 H   0  0  0  0  0  0  0  0  0  0  0  0
   19.7328   18.5677   21.3339 C   0  0  0  0  0  0  0  0  0  0  0  0
   19.9329   19.5905   20.9879 H   0  0  0  0  0  0  0  0  0  0  0  0
   19.3101   18.0330   20.4722 H   0  0  0  0  0  0  0  0  0  0  0  0
   18.6784   18.5847   22.4690 C   0  0  0  0  0  0  0  0  0  0  0  0
   18.4182   17.5494   22.7283 H   0  0  0  0  0  0  0  0  0  0  0  0
   17.7559   19.0423   22.0864 H   0  0  0  0  0  0  0  0  0  0  0  0
   19.1081   19.3279   23.7578 C   0  0  0  0  0  0  0  0  0  0  0  0
   18.2912   19.2599   24.4893 H   0  0  0  0  0  0  0  0  0  0  0  0
   19.9688   18.8240   24.2171 H   0  0  0  0  0  0  0  0  0  0  0  0
   19.4411   20.8169   23.5228 C   0  0  0  0  0  0  0  0  0  0  0  0
   18.6016   21.3362   23.0426 H   0  0  0  0  0  0  0  0  0  0  0  0
   19.6493   21.3192   24.4763 H   0  0  0  0  0  0  0  0  0  0  0  0
   20.3275   20.9316   22.8861 H   0  0  0  0  0  0  0  0  0  0  0  0
  1  2  1  0  0  0  0
  1  3  2  0  0  0  0
  1  4  1  0  0  0  0
  4  5  1  0  0  0  0
  4  6  1  0  0  0  0
  4  7  1  0  0  0  0
  7  8  1  0  0  0  0
  7  9  1  0  0  0  0
  7 10  1  0  0  0  0
 10 11  1  0  0  0  0
 10 12  1  0  0  0  0
 10 13  1  0  0  0  0
 13 14  1  0  0  0  0
 13 15  1  0  0  0  0
 13 16  1  0  0  0  0
 16 17  1  0  0  0  0
 16 18  1  0  0  0  0
 16 19  1  0  0  0  0
M  END
> <VConfSearch Rank>
770

> <Conf_Id>
67

> <Delta U+W>
0.308

> <U+W>
-54.583

> <U>
8.219

> <W>
-62.802

> <W(PB)>
-64.859

> <W(SA)>
2.057

> <Valence>
7.609

> <Coulomb>
-0.089

> <VdW>
0.699

> <VdW6>
-6.924

> <VdW12>
7.623

> <Bond>
0.163

> <Angle>
2.870

> <Pdih>
4.576

> <Idih>
0.001

> <Tether>
0.000

$$$$
VeraChem MOL file


 19 18  0  0  0  0  0  0  0  0999 V2000     
   19.8122   17.8321   19.5875 C   0  0  0  0  0  0  0  0  0  0  0  0
   19.3263   16.7844   19.2100 O   0  5  0  0  0  0  0  0  0  0  0  0
   20.6627   18.4402   18.9683 O   0  0  0  0  0  0  0  0  0  0  0  0
   19.3430   18.4045   20.9203 C   0  0  0  0  0  0  0  0  0  0  0  0
   18.2905   18.1295   21.0580 H   0  0  0  0  0  0  0  0  0  0  0  0
   19.3878   19.4972   20.8485 H   0  0  0  0  0  0  0  0  0  0  0  0
   20.1881   17.9037   22.1201 C   0  0  0  0  0  0  0  0  0  0  0  0
   20.1979   16.8051   22.1101 H   0  0  0  0  0  0  0  0  0  0  0  0
   21.2323   18.2176   21.9902 H   0  0  0  0  0  0  0  0  0  0  0  0
   19.6547   18.3793   23.4948 C   0  0  0  0  0  0  0  0  0  0  0  0
   20.2817   17.9453   24.2855 H   0  0  0  0  0  0  0  0  0  0  0  0
   18.6473   17.9684   23.6470 H   0  0  0  0  0  0  0  0  0  0  0  0
   19.6001   19.9150   23.6861 C   0  0  0  0  0  0  0  0  0  0  0  0
   18.8962   20.3615   22.9714 H   0  0  0  0  0  0  0  0  0  0  0  0
   19.1947   20.1286   24.6846 H   0  0  0  0  0  0  0  0  0  0  0  0
   20.9788   20.5970   23.5540 C   0  0  0  0  0  0  0  0  0  0  0  0
   21.3718   20.5073   22.5333 H   0  0  0  0  0  0  0  0  0  0  0  0
   20.9023   21.6666   23.7881 H   0  0  0  0  0  0  0  0  0  0  0  0
   21.7059   20.1502   24.2444 H   0  0  0  0  0  0  0  0  0  0  0  0
  1  2  1  0  0  0  0
  1  3  2  0  0  0  0
  1  4  1  0  0  0  0
  4  5  1  0  0  0  0
  4  6  1  0  0  0  0
  4  7  1  0  0  0  0
  7  8  1  0  0  0  0
  7  9  1  0  0  0  0
  7 10  1  0  0  0  0
 10 11  1  0  0  0  0
 10 12  1  0  0  0  0
 10 13  1  0  0  0  0
 13 14  1  0  0  0  0
 13 15  1  0  0  0  0
 13 16  1  0  0  0  0
 16 17  1  0  0  0  0
 16 18  1  0  0  0  0
 16 19  1  0  0  0  0
M  END
> <VConfSearch Rank>
771

> <Conf_Id>
21

> <Delta U+W>
0.319

> <U+W>
-54.572

> <U>
8.220

> <W>
-62.792

> <W(PB)>
-64.830

> <W(SA)>
2.038

> <Valence>
7.609

> <Coulomb>
-0.088

> <VdW>
0.699

> <VdW6>
-6.924

> <VdW12>
7.623

> <Bond>
0.163

> <Angle>
2.870

> <Pdih>
4.576

> <Idih>
0.000

> <Tether>
0.000

$$$$
VeraChem MOL file


 19 18  0  0  0  0  0  0  0  0999 V2000     
   22.7187   19.3128   23.1852 C   0  0  0  0  0  0  0  0  0  0  0  0
   23.2838   18.9560   24.2000 O   0  5  0  0  0  0  0  0  0  0  0  0
   23.2985   19.5798   22.1514 O   0  0  0  0  0  0  0  0  0  0  0  0
   21.1977   19.4132   23.2055 C   0  0  0  0  0  0  0  0  0  0  0  0
   20.9053   20.2200   22.5263 H   0  0  0  0  0  0  0  0  0  0  0  0
   20.8923   19.7183   24.2135 H   0  0  0  0  0  0  0  0  0  0  0  0
   20.5025   18.0804   22.8207 C   0  0  0  0  0  0  0  0  0  0  0  0
   20.8515   17.7424   21.8352 H   0  0  0  0  0  0  0  0  0  0  0  0
   20.8234   17.3128   23.5385 H   0  0  0  0  0  0  0  0  0  0  0  0
   18.9550   18.1631   22.8425 C   0  0  0  0  0  0  0  0  0  0  0  0
   18.6235   18.9031   23.5838 H   0  0  0  0  0  0  0  0  0  0  0  0
   18.5665   17.1965   23.1913 H   0  0  0  0  0  0  0  0  0  0  0  0
   18.3040   18.4577   21.4687 C   0  0  0  0  0  0  0  0  0  0  0  0
   18.5694   17.6633   20.7575 H   0  0  0  0  0  0  0  0  0  0  0  0
   17.2122   18.4140   21.5843 H   0  0  0  0  0  0  0  0  0  0  0  0
   18.6826   19.8278   20.8696 C   0  0  0  0  0  0  0  0  0  0  0  0
   18.0900   20.0290   19.9678 H   0  0  0  0  0  0  0  0  0  0  0  0
   18.4942   20.6375   21.5864 H   0  0  0  0  0  0  0  0  0  0  0  0
   19.7409   19.8545   20.5813 H   0  0  0  0  0  0  0  0  0  0  0  0
  1  2  1  0  0  0  0
  1  3  2  0  0  0  0
  1  4  1  0  0  0  0
  4  5  1  0  0  0  0
  4  6  1  0  0  0  0
  4  7  1  0  0  0  0
  7  8  1  0  0  0  0
  7  9  1  0  0  0  0
  7 10  1  0  0  0  0
 10 11  1  0  0  0  0
 10 12  1  0  0  0  0
 10 13  1  0  0  0  0
 13 14  1  0  0  0  0
 13 15  1  0  0  0  0
 13 16  1  0  0  0  0
 16 17  1  0  0  0  0
 16 18  1  0  0  0  0
 16 19  1  0  0  0  0
M  END
> <VConfSearch Rank>
772

> <Conf_Id>
24

> <Delta U+W>
2.477

> <U+W>
-52.414

> <U>
10.422

> <W>
-62.836

> <W(PB)>
-64.906

> <W(SA)>
2.070

> <Valence>
9.628

> <Coulomb>
0.101

> <VdW>
0.693

> <VdW6>
-6.927

> <VdW12>
7.620

> <Bond>
0.173

> <Angle>
2.989

> <Pdih>
6.465

> <Idih>
0.001

> <Tether>
0.000

$$$$
VeraChem MOL file


 19 18  0  0  0  0  0  0  0  0999 V2000     
   22.3589   18.2560   22.4847 C   0  0  0  0  0  0  0  0  0  0  0  0
   22.1213   17.0907   22.7342 O   0  5  0  0  0  0  0  0  0  0  0  0
   23.3287   18.6218   21.8500 O   0  0  0  0  0  0  0  0  0  0  0  0
   21.4061   19.3216   23.0203 C   0  0  0  0  0  0  0  0  0  0  0  0
   22.0197   20.0912   23.5029 H   0  0  0  0  0  0  0  0  0  0  0  0
   20.7919   18.8717   23.8069 H   0  0  0  0  0  0  0  0  0  0  0  0
   20.5193   19.9821   21.9283 C   0  0  0  0  0  0  0  0  0  0  0  0
   20.0169   20.8667   22.3420 H   0  0  0  0  0  0  0  0  0  0  0  0
   21.1805   20.3546   21.1335 H   0  0  0  0  0  0  0  0  0  0  0  0
   19.4695   19.0295   21.2991 C   0  0  0  0  0  0  0  0  0  0  0  0
   19.8355   17.9937   21.3074 H   0  0  0  0  0  0  0  0  0  0  0  0
   19.3587   19.2971   20.2394 H   0  0  0  0  0  0  0  0  0  0  0  0
   18.0644   19.0993   21.9461 C   0  0  0  0  0  0  0  0  0  0  0  0
   17.6659   20.1191   21.8542 H   0  0  0  0  0  0  0  0  0  0  0  0
   17.3856   18.4516   21.3743 H   0  0  0  0  0  0  0  0  0  0  0  0
   18.0289   18.6666   23.4263 C   0  0  0  0  0  0  0  0  0  0  0  0
   18.5581   19.3873   24.0618 H   0  0  0  0  0  0  0  0  0  0  0  0
   16.9930   18.6082   23.7846 H   0  0  0  0  0  0  0  0  0  0  0  0
   18.4901   17.6790   23.5587 H   0  0  0  0  0  0  0  0  0  0  0  0
  1  2  1  0  0  0  0
  1  3  2  0  0  0  0
  1  4  1  0  0  0  0
  4  5  1  0  0  0  0
  4  6  1  0  0  0  0
  4  7  1  0  0  0  0
  7  8  1  0  0  0  0
  7  9  1  0  0  0  0
  7 10  1  0  0  0  0
 10 11  1  0  0  0  0
 10 12  1  0  0  0  0
 10 13  1  0  0  0  0
 13 14  1  0  0  0  0
 13 15  1  0  0  0  0
 13 16  1  0  0  0  0
 16 17  1  0  0  0  0
 16 18  1  0  0  0  0
 16 19  1  0  0  0  0
M  END
> <VConfSearch Rank>
773

> <Conf_Id>
4

> <Delta U+W>
3.753

> <U+W>
-51.138

> <U>
12.334

> <W>
-63.472

> <W(PB)>
-65.500

> <W(SA)>
2.028

> <Valence>
9.984

> <Coulomb>
1.767

> <VdW>
0.583

> <VdW6>
-7.767

> <VdW12>
8.349

> <Bond>
0.203

> <Angle>
3.191

> <Pdih>
6.589

> <Idih>
0.001

> <Tether>
0.000

$$$$
VeraChem MOL file


 19 18  0  0  0  0  0  0  0  0999 V2000     
   17.6057   19.8813   21.7303 C   0  0  0  0  0  0  0  0  0  0  0  0
   17.0821   19.9948   20.6394 O   0  5  0  0  0  0  0  0  0  0  0  0
   17.0097   19.5211   22.7261 O   0  0  0  0  0  0  0  0  0  0  0  0
   19.0841   20.2392   21.8592 C   0  0  0  0  0  0  0  0  0  0  0  0
   19.3123   20.3874   22.9195 H   0  0  0  0  0  0  0  0  0  0  0  0
   19.2261   21.2094   21.3691 H   0  0  0  0  0  0  0  0  0  0  0  0
   20.0440   19.1965   21.2216 C   0  0  0  0  0  0  0  0  0  0  0  0
   19.7281   19.0358   20.1815 H   0  0  0  0  0  0  0  0  0  0  0  0
   21.0599   19.6103   21.1679 H   0  0  0  0  0  0  0  0  0  0  0  0
   20.0733   17.8285   21.9518 C   0  0  0  0  0  0  0  0  0  0  0  0
   20.2101   17.0424   21.1968 H   0  0  0  0  0  0  0  0  0  0  0  0
   19.1025   17.6226   22.4229 H   0  0  0  0  0  0  0  0  0  0  0  0
   21.2094   17.6765   22.9930 C   0  0  0  0  0  0  0  0  0  0  0  0
   21.1871   16.6503   23.3848 H   0  0  0  0  0  0  0  0  0  0  0  0
   22.1828   17.7949   22.4972 H   0  0  0  0  0  0  0  0  0  0  0  0
   21.1151   18.6593   24.1782 C   0  0  0  0  0  0  0  0  0  0  0  0
   20.1234   18.6158   24.6475 H   0  0  0  0  0  0  0  0  0  0  0  0
   21.8634   18.4123   24.9423 H   0  0  0  0  0  0  0  0  0  0  0  0
   21.3028   19.6900   23.8531 H   0  0  0  0  0  0  0  0  0  0  0  0
  1  2  1  0  0  0  0
  1  3  2  0  0  0  0
  1  4  1  0  0  0  0
  4  5  1  0  0  0  0
  4  6  1  0  0  0  0
  4  7  1  0  0  0  0
  7  8  1  0  0  0  0
  7  9  1  0  0  0  0
  7 10  1  0  0  0  0
 10 11  1  0  0  0  0
 10 12  1  0  0  0  0
 10 13  1  0  0  0  0
 13 14  1  0  0  0  0
 13 15  1  0  0  0  0
 13 16  1  0  0  0  0
 16 17  1  0  0  0  0
 16 18  1  0  0  0  0
 16 19  1  0  0  0  0
M  END
> <VConfSearch Rank>
774

> <Conf_Id>
73

> <Delta U+W>
3.707

> <U+W>
-51.184

> <U>
12.334

> <W>
-63.519

> <W(PB)>
-65.541

> <W(SA)>
2.022

> <Valence>
9.984

> <Coulomb>
1.768

> <VdW>
0.583

> <VdW6>
-7.767

> <VdW12>
8.350

> <Bond>
0.203

> <Angle>
3.192

> <Pdih>
6.589

> <Idih>
0.001

> <Tether>
0.000

$$$$
VeraChem MOL file


 19 18  0  0  0  0  0  0  0  0999 V2000     
   21.2284   18.0196   24.3398 C   0  0  0  0  0  0  0  0  0  0  0  0
   22.0977   17.5168   23.6556 O   0  5  0  0  0  0  0  0  0  0  0  0
   21.4292   18.4862   25.4440 O   0  0  0  0  0  0  0  0  0  0  0  0
   19.8010   18.0386   23.7999 C   0  0  0  0  0  0  0  0  0  0  0  0
   19.1507   17.6296   24.5818 H   0  0  0  0  0  0  0  0  0  0  0  0
   19.7368   17.3487   22.9506 H   0  0  0  0  0  0  0  0  0  0  0  0
   19.2935   19.4499   23.3962 C   0  0  0  0  0  0  0  0  0  0  0  0
   18.2411   19.3823   23.0914 H   0  0  0  0  0  0  0  0  0  0  0  0
   19.3090   20.0965   24.2843 H   0  0  0  0  0  0  0  0  0  0  0  0
   20.1184   20.1303   22.2734 C   0  0  0  0  0  0  0  0  0  0  0  0
   21.1414   20.3032   22.6351 H   0  0  0  0  0  0  0  0  0  0  0  0
   19.6952   21.1251   22.0786 H   0  0  0  0  0  0  0  0  0  0  0  0
   20.1894   19.3466   20.9400 C   0  0  0  0  0  0  0  0  0  0  0  0
   20.8095   19.9149   20.2333 H   0  0  0  0  0  0  0  0  0  0  0  0
   20.7051   18.3888   21.0924 H   0  0  0  0  0  0  0  0  0  0  0  0
   18.8061   19.1001   20.3004 C   0  0  0  0  0  0  0  0  0  0  0  0
   18.1906   18.4391   20.9235 H   0  0  0  0  0  0  0  0  0  0  0  0
   18.2646   20.0446   20.1594 H   0  0  0  0  0  0  0  0  0  0  0  0
   18.9167   18.6232   19.3180 H   0  0  0  0  0  0  0  0  0  0  0  0
  1  2  1  0  0  0  0
  1  3  2  0  0  0  0
  1  4  1  0  0  0  0
  4  5  1  0  0  0  0
  4  6  1  0  0  0  0
  4  7  1  0  0  0  0
  7  8  1  0  0  0  0
  7  9  1  0  0  0  0
  7 10  1  0  0  0  0
 10 11  1  0  0  0  0
 10 12  1  0  0  0  0
 10 13  1  0  0  0  0
 13 14  1  0  0  0  0
 13 15  1  0  0  0  0
 13 16  1  0  0  0  0
 16 17  1  0  0  0  0
 16 18  1  0  0  0  0
 16 19  1  0  0  0  0
M  END
> <VConfSearch Rank>
775

> <Conf_Id>
56

> <Delta U+W>
1.735

> <U+W>
-53.156

> <U>
10.214

> <W>
-63.370

> <W(PB)>
-65.388

> <W(SA)>
2.018

> <Valence>
7.868

> <Coulomb>
1.968

> <VdW>
0.378

> <VdW6>
-8.067

> <VdW12>
8.445

> <Bond>
0.191

> <Angle>
3.117

> <Pdih>
4.559

> <Idih>
0.001

> <Tether>
0.000

$$$$
VeraChem MOL file


 19 18  0  0  0  0  0  0  0  0999 V2000     
   18.4148   18.2766   19.8849 C   0  0  0  0  0  0  0  0  0  0  0  0
   17.2054   18.1602   19.8851 O   0  5  0  0  0  0  0  0  0  0  0  0
   19.1224   17.9375   18.9572 O   0  0  0  0  0  0  0  0  0  0  0  0
   19.0825   18.8600   21.1251 C   0  0  0  0  0  0  0  0  0  0  0  0
   18.3893   19.5771   21.5808 H   0  0  0  0  0  0  0  0  0  0  0  0
   19.9654   19.4183   20.7944 H   0  0  0  0  0  0  0  0  0  0  0  0
   19.4868   17.7761   22.1559 C   0  0  0  0  0  0  0  0  0  0  0  0
   18.6128   17.1424   22.3606 H   0  0  0  0  0  0  0  0  0  0  0  0
   20.2456   17.1183   21.7101 H   0  0  0  0  0  0  0  0  0  0  0  0
   20.0112   18.3377   23.5013 C   0  0  0  0  0  0  0  0  0  0  0  0
   20.2117   17.4820   24.1605 H   0  0  0  0  0  0  0  0  0  0  0  0
   19.2241   18.9201   23.9996 H   0  0  0  0  0  0  0  0  0  0  0  0
   21.3095   19.1752   23.3908 C   0  0  0  0  0  0  0  0  0  0  0  0
   21.9249   18.9870   24.2814 H   0  0  0  0  0  0  0  0  0  0  0  0
   21.9066   18.8413   22.5310 H   0  0  0  0  0  0  0  0  0  0  0  0
   21.0492   20.6956   23.3045 C   0  0  0  0  0  0  0  0  0  0  0  0
   21.9980   21.2443   23.2457 H   0  0  0  0  0  0  0  0  0  0  0  0
   20.4554   20.9596   22.4223 H   0  0  0  0  0  0  0  0  0  0  0  0
   20.5114   21.0503   24.1934 H   0  0  0  0  0  0  0  0  0  0  0  0
  1  2  1  0  0  0  0
  1  3  2  0  0  0  0
  1  4  1  0  0  0  0
  4  5  1  0  0  0  0
  4  6  1  0  0  0  0
  4  7  1  0  0  0  0
  7  8  1  0  0  0  0
  7  9  1  0  0  0  0
  7 10  1  0  0  0  0
 10 11  1  0  0  0  0
 10 12  1  0  0  0  0
 10 13  1  0  0  0  0
 13 14  1  0  0  0  0
 13 15  1  0  0  0  0
 13 16  1  0  0  0  0
 16 17  1  0  0  0  0
 16 18  1  0  0  0  0
 16 19  1  0  0  0  0
M  END
> <VConfSearch Rank>
776

> <Conf_Id>
53

> <Delta U+W>
2.279

> <U+W>
-52.612

> <U>
10.231

> <W>
-62.843

> <W(PB)>
-64.893

> <W(SA)>
2.050

> <Valence>
9.644

> <Coulomb>
-0.164

> <VdW>
0.751

> <VdW6>
-6.881

> <VdW12>
7.631

> <Bond>
0.163

> <Angle>
2.998

> <Pdih>
6.482

> <Idih>
0.001

> <Tether>
0.000

$$$$
VeraChem MOL file


 19 18  0  0  0  0  0  0  0  0999 V2000     
   21.5634   20.8800   22.4492 C   0  0  0  0  0  0  0  0  0  0  0  0
   20.7779   21.7736   22.2014 O   0  5  0  0  0  0  0  0  0  0  0  0
   22.5429   20.6421   21.7701 O   0  0  0  0  0  0  0  0  0  0  0  0
   21.3443   20.0600   23.7192 C   0  0  0  0  0  0  0  0  0  0  0  0
   20.4555   20.4378   24.2390 H   0  0  0  0  0  0  0  0  0  0  0  0
   22.2006   20.2672   24.3715 H   0  0  0  0  0  0  0  0  0  0  0  0
   21.2310   18.5240   23.5067 C   0  0  0  0  0  0  0  0  0  0  0  0
   22.0111   18.1834   22.8116 H   0  0  0  0  0  0  0  0  0  0  0  0
   21.4455   18.0327   24.4654 H   0  0  0  0  0  0  0  0  0  0  0  0
   19.8419   18.0352   23.0271 C   0  0  0  0  0  0  0  0  0  0  0  0
   19.0680   18.3728   23.7299 H   0  0  0  0  0  0  0  0  0  0  0  0
   19.8342   16.9372   23.0639 H   0  0  0  0  0  0  0  0  0  0  0  0
   19.4753   18.4855   21.5958 C   0  0  0  0  0  0  0  0  0  0  0  0
   19.3467   19.5749   21.5649 H   0  0  0  0  0  0  0  0  0  0  0  0
   20.2945   18.2386   20.9064 H   0  0  0  0  0  0  0  0  0  0  0  0
   18.1739   17.8170   21.1086 C   0  0  0  0  0  0  0  0  0  0  0  0
   17.3329   18.0696   21.7675 H   0  0  0  0  0  0  0  0  0  0  0  0
   17.9231   18.1537   20.0944 H   0  0  0  0  0  0  0  0  0  0  0  0
   18.2770   16.7241   21.0869 H   0  0  0  0  0  0  0  0  0  0  0  0
  1  2  1  0  0  0  0
  1  3  2  0  0  0  0
  1  4  1  0  0  0  0
  4  5  1  0  0  0  0
  4  6  1  0  0  0  0
  4  7  1  0  0  0  0
  7  8  1  0  0  0  0
  7  9  1  0  0  0  0
  7 10  1  0  0  0  0
 10 11  1  0  0  0  0
 10 12  1  0  0  0  0
 10 13  1  0  0  0  0
 13 14  1  0  0  0  0
 13 15  1  0  0  0  0
 13 16  1  0  0  0  0
 16 17  1  0  0  0  0
 16 18  1  0  0  0  0
 16 19  1  0  0  0  0
M  END
> <VConfSearch Rank>
777

> <Conf_Id>
25

> <Delta U+W>
2.065

> <U+W>
-52.826

> <U>
10.967

> <W>
-63.794

> <W(PB)>
-65.830

> <W(SA)>
2.036

> <Valence>
8.609

> <Coulomb>
1.892

> <VdW>
0.467

> <VdW6>
-7.569

> <VdW12>
8.036

> <Bond>
0.170

> <Angle>
3.195

> <Pdih>
5.237

> <Idih>
0.007

> <Tether>
0.000

$$$$
VeraChem MOL file


 19 18  0  0  0  0  0  0  0  0999 V2000     
   18.7651   16.9730   21.7837 C   0  0  0  0  0  0  0  0  0  0  0  0
   19.0506   16.7125   20.6314 O   0  5  0  0  0  0  0  0  0  0  0  0
   17.6452   17.2787   22.1433 O   0  0  0  0  0  0  0  0  0  0  0  0
   19.8528   16.8419   22.8482 C   0  0  0  0  0  0  0  0  0  0  0  0
   20.1477   15.7862   22.8593 H   0  0  0  0  0  0  0  0  0  0  0  0
   19.4172   17.0561   23.8317 H   0  0  0  0  0  0  0  0  0  0  0  0
   21.1169   17.7171   22.6173 C   0  0  0  0  0  0  0  0  0  0  0  0
   21.9403   17.2833   23.2005 H   0  0  0  0  0  0  0  0  0  0  0  0
   21.4274   17.6564   21.5649 H   0  0  0  0  0  0  0  0  0  0  0  0
   20.9676   19.1988   23.0425 C   0  0  0  0  0  0  0  0  0  0  0  0
   21.9566   19.6734   22.9817 H   0  0  0  0  0  0  0  0  0  0  0  0
   20.6642   19.2523   24.0970 H   0  0  0  0  0  0  0  0  0  0  0  0
   19.9766   20.0063   22.1756 C   0  0  0  0  0  0  0  0  0  0  0  0
   20.2175   19.8724   21.1119 H   0  0  0  0  0  0  0  0  0  0  0  0
   18.9555   19.6322   22.3233 H   0  0  0  0  0  0  0  0  0  0  0  0
   20.0119   21.5075   22.5260 C   0  0  0  0  0  0  0  0  0  0  0  0
   19.2966   22.0653   21.9077 H   0  0  0  0  0  0  0  0  0  0  0  0
   19.7491   21.6707   23.5794 H   0  0  0  0  0  0  0  0  0  0  0  0
   21.0107   21.9289   22.3520 H   0  0  0  0  0  0  0  0  0  0  0  0
  1  2  1  0  0  0  0
  1  3  2  0  0  0  0
  1  4  1  0  0  0  0
  4  5  1  0  0  0  0
  4  6  1  0  0  0  0
  4  7  1  0  0  0  0
  7  8  1  0  0  0  0
  7  9  1  0  0  0  0
  7 10  1  0  0  0  0
 10 11  1  0  0  0  0
 10 12  1  0  0  0  0
 10 13  1  0  0  0  0
 13 14  1  0  0  0  0
 13 15  1  0  0  0  0
 13 16  1  0  0  0  0
 16 17  1  0  0  0  0
 16 18  1  0  0  0  0
 16 19  1  0  0  0  0
M  END
> <VConfSearch Rank>
778

> <Conf_Id>
52

> <Delta U+W>
2.070

> <U+W>
-52.822

> <U>
10.967

> <W>
-63.789

> <W(PB)>
-65.837

> <W(SA)>
2.048

> <Valence>
8.609

> <Coulomb>
1.892

> <VdW>
0.467

> <VdW6>
-7.569

> <VdW12>
8.035

> <Bond>
0.170

> <Angle>
3.196

> <Pdih>
5.237

> <Idih>
0.007

> <Tether>
0.000

$$$$
VeraChem MOL file


 19 18  0  0  0  0  0  0  0  0999 V2000     
   21.7418   19.8460   22.8611 C   0  0  0  0  0  0  0  0  0  0  0  0
   21.5553   21.0473   22.8463 O   0  5  0  0  0  0  0  0  0  0  0  0
   22.3566   19.2792   23.7429 O   0  0  0  0  0  0  0  0  0  0  0  0
   21.2954   19.0187   21.6546 C   0  0  0  0  0  0  0  0  0  0  0  0
   21.3979   17.9535   21.8940 H   0  0  0  0  0  0  0  0  0  0  0  0
   22.0181   19.2306   20.8583 H   0  0  0  0  0  0  0  0  0  0  0  0
   19.8634   19.3149   21.1245 C   0  0  0  0  0  0  0  0  0  0  0  0
   19.6744   20.3972   21.1378 H   0  0  0  0  0  0  0  0  0  0  0  0
   19.8277   19.0201   20.0670 H   0  0  0  0  0  0  0  0  0  0  0  0
   18.7167   18.5696   21.8545 C   0  0  0  0  0  0  0  0  0  0  0  0
   18.8517   17.4838   21.7549 H   0  0  0  0  0  0  0  0  0  0  0  0
   17.7831   18.8013   21.3238 H   0  0  0  0  0  0  0  0  0  0  0  0
   18.5294   18.9541   23.3421 C   0  0  0  0  0  0  0  0  0  0  0  0
   18.9563   19.9472   23.5390 H   0  0  0  0  0  0  0  0  0  0  0  0
   17.4546   19.0377   23.5542 H   0  0  0  0  0  0  0  0  0  0  0  0
   19.1295   17.9108   24.3089 C   0  0  0  0  0  0  0  0  0  0  0  0
   18.6379   16.9368   24.1877 H   0  0  0  0  0  0  0  0  0  0  0  0
   20.2029   17.7722   24.1348 H   0  0  0  0  0  0  0  0  0  0  0  0
   18.9960   18.2294   25.3506 H   0  0  0  0  0  0  0  0  0  0  0  0
  1  2  1  0  0  0  0
  1  3  2  0  0  0  0
  1  4  1  0  0  0  0
  4  5  1  0  0  0  0
  4  6  1  0  0  0  0
  4  7  1  0  0  0  0
  7  8  1  0  0  0  0
  7  9  1  0  0  0  0
  7 10  1  0  0  0  0
 10 11  1  0  0  0  0
 10 12  1  0  0  0  0
 10 13  1  0  0  0  0
 13 14  1  0  0  0  0
 13 15  1  0  0  0  0
 13 16  1  0  0  0  0
 16 17  1  0  0  0  0
 16 18  1  0  0  0  0
 16 19  1  0  0  0  0
M  END
> <VConfSearch Rank>
779

> <Conf_Id>
66

> <Delta U+W>
5.819

> <U+W>
-49.072

> <U>
15.324

> <W>
-64.396

> <W(PB)>
-66.382

> <W(SA)>
1.986

> <Valence>
11.748

> <Coulomb>
3.201

> <VdW>
0.375

> <VdW6>
-8.854

> <VdW12>
9.229

> <Bond>
0.216

> <Angle>
3.812

> <Pdih>
7.699

> <Idih>
0.022

> <Tether>
0.000

$$$$
VeraChem MOL file


 19 18  0  0  0  0  0  0  0  0999 V2000     
   21.6899   21.3754   20.4980 C   0  0  0  0  0  0  0  0  0  0  0  0
   21.6021   22.5479   20.1926 O   0  5  0  0  0  0  0  0  0  0  0  0
   22.6460   20.6836   20.2060 O   0  0  0  0  0  0  0  0  0  0  0  0
   20.5270   20.7703   21.2862 C   0  0  0  0  0  0  0  0  0  0  0  0
   19.6184   20.9119   20.6892 H   0  0  0  0  0  0  0  0  0  0  0  0
   20.4066   21.3646   22.1997 H   0  0  0  0  0  0  0  0  0  0  0  0
   20.6843   19.2707   21.6536 C   0  0  0  0  0  0  0  0  0  0  0  0
   20.8103   18.6817   20.7346 H   0  0  0  0  0  0  0  0  0  0  0  0
   21.5994   19.1348   22.2465 H   0  0  0  0  0  0  0  0  0  0  0  0
   19.4686   18.7432   22.4461 C   0  0  0  0  0  0  0  0  0  0  0  0
   18.5549   18.8803   21.8516 H   0  0  0  0  0  0  0  0  0  0  0  0
   19.3444   19.3336   23.3644 H   0  0  0  0  0  0  0  0  0  0  0  0
   19.6269   17.2523   22.8103 C   0  0  0  0  0  0  0  0  0  0  0  0
   19.7496   16.6581   21.8941 H   0  0  0  0  0  0  0  0  0  0  0  0
   20.5389   17.1114   23.4068 H   0  0  0  0  0  0  0  0  0  0  0  0
   18.4114   16.7291   23.6013 C   0  0  0  0  0  0  0  0  0  0  0  0
   17.4886   16.8290   23.0150 H   0  0  0  0  0  0  0  0  0  0  0  0
   18.5406   15.6681   23.8519 H   0  0  0  0  0  0  0  0  0  0  0  0
   18.2839   17.2857   24.5391 H   0  0  0  0  0  0  0  0  0  0  0  0
  1  2  1  0  0  0  0
  1  3  2  0  0  0  0
  1  4  1  0  0  0  0
  4  5  1  0  0  0  0
  4  6  1  0  0  0  0
  4  7  1  0  0  0  0
  7  8  1  0  0  0  0
  7  9  1  0  0  0  0
  7 10  1  0  0  0  0
 10 11  1  0  0  0  0
 10 12  1  0  0  0  0
 10 13  1  0  0  0  0
 13 14  1  0  0  0  0
 13 15  1  0  0  0  0
 13 16  1  0  0  0  0
 16 17  1  0  0  0  0
 16 18  1  0  0  0  0
 16 19  1  0  0  0  0
M  END
> <VConfSearch Rank>
780

> <Conf_Id>
0

> <Delta U+W>
0.000

> <U+W>
-54.891

> <U>
6.966

> <W>
-61.857

> <W(PB)>
-63.965

> <W(SA)>
2.108

> <Valence>
7.175

> <Coulomb>
-1.360

> <VdW>
1.151

> <VdW6>
-5.641

> <VdW12>
6.792

> <Bond>
0.119

> <Angle>
2.715

> <Pdih>
4.340

> <Idih>
0.000

> <Tether>
0.000

$$$$
VeraChem MOL file


 19 18  0  0  0  0  0  0  0  0999 V2000     
   16.8788   19.3413   20.7044 C   0  0  0  0  0  0  0  0  0  0  0  0
   16.6533   20.4609   20.2900 O   0  5  0  0  0  0  0  0  0  0  0  0
   16.4018   18.3353   20.2179 O   0  0  0  0  0  0  0  0  0  0  0  0
   17.8287   19.1888   21.8871 C   0  0  0  0  0  0  0  0  0  0  0  0
   17.5085   18.3177   22.4714 H   0  0  0  0  0  0  0  0  0  0  0  0
   17.7161   20.0698   22.5305 H   0  0  0  0  0  0  0  0  0  0  0  0
   19.3071   19.0282   21.4552 C   0  0  0  0  0  0  0  0  0  0  0  0
   19.4008   18.1497   20.8017 H   0  0  0  0  0  0  0  0  0  0  0  0
   19.6084   19.9018   20.8607 H   0  0  0  0  0  0  0  0  0  0  0  0
   20.2475   18.8758   22.6702 C   0  0  0  0  0  0  0  0  0  0  0  0
   19.9429   18.0025   23.2632 H   0  0  0  0  0  0  0  0  0  0  0  0
   20.1506   19.7549   23.3222 H   0  0  0  0  0  0  0  0  0  0  0  0
   21.7196   18.7159   22.2370 C   0  0  0  0  0  0  0  0  0  0  0  0
   21.8209   17.8364   21.5861 H   0  0  0  0  0  0  0  0  0  0  0  0
   22.0287   19.5886   21.6451 H   0  0  0  0  0  0  0  0  0  0  0  0
   22.6556   18.5640   23.4526 C   0  0  0  0  0  0  0  0  0  0  0  0
   23.6978   18.4514   23.1266 H   0  0  0  0  0  0  0  0  0  0  0  0
   22.5979   19.4450   24.1053 H   0  0  0  0  0  0  0  0  0  0  0  0
   22.3886   17.6796   24.0458 H   0  0  0  0  0  0  0  0  0  0  0  0
  1  2  1  0  0  0  0
  1  3  2  0  0  0  0
  1  4  1  0  0  0  0
  4  5  1  0  0  0  0
  4  6  1  0  0  0  0
  4  7  1  0  0  0  0
  7  8  1  0  0  0  0
  7  9  1  0  0  0  0
  7 10  1  0  0  0  0
 10 11  1  0  0  0  0
 10 12  1  0  0  0  0
 10 13  1  0  0  0  0
 13 14  1  0  0  0  0
 13 15  1  0  0  0  0
 13 16  1  0  0  0  0
 16 17  1  0  0  0  0
 16 18  1  0  0  0  0
 16 19  1  0  0  0  0
M  END
> <VConfSearch Rank>
781

> <Conf_Id>
18

> <Delta U+W>
-1.199

> <U+W>
-56.090

> <U>
5.975

> <W>
-62.066

> <W(PB)>
-64.219

> <W(SA)>
2.153

> <Valence>
6.673

> <Coulomb>
-1.307

> <VdW>
0.610

> <VdW6>
-5.351

> <VdW12>
5.961

> <Bond>
0.086

> <Angle>
2.253

> <Pdih>
4.333

> <Idih>
0.001

> <Tether>
0.000

$$$$
VeraChem MOL file


 19 18  0  0  0  0  0  0  0  0999 V2000     
   22.6622   20.5219   21.4145 C   0  0  0  0  0  0  0  0  0  0  0  0
   23.5059   20.8512   22.2244 O   0  5  0  0  0  0  0  0  0  0  0  0
   22.8644   20.4669   20.2176 O   0  0  0  0  0  0  0  0  0  0  0  0
   21.2804   20.1359   21.9303 C   0  0  0  0  0  0  0  0  0  0  0  0
   20.5470   20.4307   21.1714 H   0  0  0  0  0  0  0  0  0  0  0  0
   21.0750   20.7291   22.8295 H   0  0  0  0  0  0  0  0  0  0  0  0
   21.1596   18.6229   22.2487 C   0  0  0  0  0  0  0  0  0  0  0  0
   21.3235   18.0407   21.3314 H   0  0  0  0  0  0  0  0  0  0  0  0
   21.9652   18.3432   22.9416 H   0  0  0  0  0  0  0  0  0  0  0  0
   19.8033   18.2311   22.8816 C   0  0  0  0  0  0  0  0  0  0  0  0
   19.6464   18.8087   23.8028 H   0  0  0  0  0  0  0  0  0  0  0  0
   19.8505   17.1751   23.1811 H   0  0  0  0  0  0  0  0  0  0  0  0
   18.6015   18.4300   21.9310 C   0  0  0  0  0  0  0  0  0  0  0  0
   18.4898   19.4927   21.6789 H   0  0  0  0  0  0  0  0  0  0  0  0
   18.7811   17.8937   20.9890 H   0  0  0  0  0  0  0  0  0  0  0  0
   17.2900   17.9251   22.5653 C   0  0  0  0  0  0  0  0  0  0  0  0
   16.4458   18.0758   21.8799 H   0  0  0  0  0  0  0  0  0  0  0  0
   17.3518   16.8535   22.7961 H   0  0  0  0  0  0  0  0  0  0  0  0
   17.0713   18.4645   23.4963 H   0  0  0  0  0  0  0  0  0  0  0  0
  1  2  1  0  0  0  0
  1  3  2  0  0  0  0
  1  4  1  0  0  0  0
  4  5  1  0  0  0  0
  4  6  1  0  0  0  0
  4  7  1  0  0  0  0
  7  8  1  0  0  0  0
  7  9  1  0  0  0  0
  7 10  1  0  0  0  0
 10 11  1  0  0  0  0
 10 12  1  0  0  0  0
 10 13  1  0  0  0  0
 13 14  1  0  0  0  0
 13 15  1  0  0  0  0
 13 16  1  0  0  0  0
 16 17  1  0  0  0  0
 16 18  1  0  0  0  0
 16 19  1  0  0  0  0
M  END
> <VConfSearch Rank>
782

> <Conf_Id>
34

> <Delta U+W>
-0.563

> <U+W>
-55.455

> <U>
6.914

> <W>
-62.369

> <W(PB)>
-64.446

> <W(SA)>
2.077

> <Valence>
7.196

> <Coulomb>
-1.020

> <VdW>
0.738

> <VdW6>
-6.010

> <VdW12>
6.748

> <Bond>
0.126

> <Angle>
2.499

> <Pdih>
4.570

> <Idih>
0.001

> <Tether>
0.000

$$$$
VeraChem MOL file


 19 18  0  0  0  0  0  0  0  0999 V2000     
   21.6076   16.2717   22.9825 C   0  0  0  0  0  0  0  0  0  0  0  0
   21.8390   15.3651   22.2074 O   0  5  0  0  0  0  0  0  0  0  0  0
   21.6732   16.1569   24.1903 O   0  0  0  0  0  0  0  0  0  0  0  0
   21.1906   17.6212   22.4085 C   0  0  0  0  0  0  0  0  0  0  0  0
   21.6904   17.7484   21.4408 H   0  0  0  0  0  0  0  0  0  0  0  0
   21.5732   18.4004   23.0773 H   0  0  0  0  0  0  0  0  0  0  0  0
   19.6547   17.7524   22.2384 C   0  0  0  0  0  0  0  0  0  0  0  0
   19.2929   16.9055   21.6390 H   0  0  0  0  0  0  0  0  0  0  0  0
   19.1683   17.6678   23.2200 H   0  0  0  0  0  0  0  0  0  0  0  0
   19.2194   19.0681   21.5507 C   0  0  0  0  0  0  0  0  0  0  0  0
   18.1375   19.0230   21.3650 H   0  0  0  0  0  0  0  0  0  0  0  0
   19.7007   19.1456   20.5662 H   0  0  0  0  0  0  0  0  0  0  0  0
   19.5334   20.3304   22.3848 C   0  0  0  0  0  0  0  0  0  0  0  0
   19.0950   20.2308   23.3874 H   0  0  0  0  0  0  0  0  0  0  0  0
   20.6181   20.4362   22.5179 H   0  0  0  0  0  0  0  0  0  0  0  0
   18.9848   21.6038   21.7106 C   0  0  0  0  0  0  0  0  0  0  0  0
   19.4278   21.7431   20.7157 H   0  0  0  0  0  0  0  0  0  0  0  0
   17.8942   21.5494   21.5959 H   0  0  0  0  0  0  0  0  0  0  0  0
   19.2180   22.4914   22.3129 H   0  0  0  0  0  0  0  0  0  0  0  0
  1  2  1  0  0  0  0
  1  3  2  0  0  0  0
  1  4  1  0  0  0  0
  4  5  1  0  0  0  0
  4  6  1  0  0  0  0
  4  7  1  0  0  0  0
  7  8  1  0  0  0  0
  7  9  1  0  0  0  0
  7 10  1  0  0  0  0
 10 11  1  0  0  0  0
 10 12  1  0  0  0  0
 10 13  1  0  0  0  0
 13 14  1  0  0  0  0
 13 15  1  0  0  0  0
 13 16  1  0  0  0  0
 16 17  1  0  0  0  0
 16 18  1  0  0  0  0
 16 19  1  0  0  0  0
M  END
> <VConfSearch Rank>
783

> <Conf_Id>
33

> <Delta U+W>
-0.526

> <U+W>
-55.418

> <U>
6.914

> <W>
-62.332

> <W(PB)>
-64.421

> <W(SA)>
2.090

> <Valence>
7.196

> <Coulomb>
-1.020

> <VdW>
0.738

> <VdW6>
-6.010

> <VdW12>
6.748

> <Bond>
0.126

> <Angle>
2.499

> <Pdih>
4.570

> <Idih>
0.001

> <Tether>
0.000

$$$$
VeraChem MOL file


 19 18  0  0  0  0  0  0  0  0999 V2000     
   18.7526   21.8461   22.8356 C   0  0  0  0  0  0  0  0  0  0  0  0
   17.6350   21.7547   23.3032 O   0  5  0  0  0  0  0  0  0  0  0  0
   19.5488   22.7050   23.1592 O   0  0  0  0  0  0  0  0  0  0  0  0
   19.1862   20.8160   21.7987 C   0  0  0  0  0  0  0  0  0  0  0  0
   19.8755   21.3053   21.1000 H   0  0  0  0  0  0  0  0  0  0  0  0
   18.3010   20.5165   21.2246 H   0  0  0  0  0  0  0  0  0  0  0  0
   19.8585   19.5719   22.4302 C   0  0  0  0  0  0  0  0  0  0  0  0
   20.7369   19.8889   23.0090 H   0  0  0  0  0  0  0  0  0  0  0  0
   19.1577   19.1104   23.1384 H   0  0  0  0  0  0  0  0  0  0  0  0
   20.2844   18.5435   21.3570 C   0  0  0  0  0  0  0  0  0  0  0  0
   20.9270   19.0425   20.6188 H   0  0  0  0  0  0  0  0  0  0  0  0
   19.3991   18.1898   20.8108 H   0  0  0  0  0  0  0  0  0  0  0  0
   21.0516   17.3330   21.9371 C   0  0  0  0  0  0  0  0  0  0  0  0
   21.4181   16.7162   21.1049 H   0  0  0  0  0  0  0  0  0  0  0  0
   21.9410   17.6824   22.4796 H   0  0  0  0  0  0  0  0  0  0  0  0
   20.1894   16.4516   22.8664 C   0  0  0  0  0  0  0  0  0  0  0  0
   19.2789   16.1141   22.3544 H   0  0  0  0  0  0  0  0  0  0  0  0
   20.7502   15.5616   23.1801 H   0  0  0  0  0  0  0  0  0  0  0  0
   19.8940   16.9943   23.7730 H   0  0  0  0  0  0  0  0  0  0  0  0
  1  2  1  0  0  0  0
  1  3  2  0  0  0  0
  1  4  1  0  0  0  0
  4  5  1  0  0  0  0
  4  6  1  0  0  0  0
  4  7  1  0  0  0  0
  7  8  1  0  0  0  0
  7  9  1  0  0  0  0
  7 10  1  0  0  0  0
 10 11  1  0  0  0  0
 10 12  1  0  0  0  0
 10 13  1  0  0  0  0
 13 14  1  0  0  0  0
 13 15  1  0  0  0  0
 13 16  1  0  0  0  0
 16 17  1  0  0  0  0
 16 18  1  0  0  0  0
 16 19  1  0  0  0  0
M  END
> <VConfSearch Rank>
784

> <Conf_Id>
42

> <Delta U+W>
-0.344

> <U+W>
-55.236

> <U>
7.244

> <W>
-62.479

> <W(PB)>
-64.610

> <W(SA)>
2.130

> <Valence>
7.174

> <Coulomb>
-0.669

> <VdW>
0.739

> <VdW6>
-5.969

> <VdW12>
6.708

> <Bond>
0.116

> <Angle>
2.481

> <Pdih>
4.576

> <Idih>
0.000

> <Tether>
0.000

$$$$
VeraChem MOL file


 19 18  0  0  0  0  0  0  0  0999 V2000     
   21.0829   18.4111   19.2831 C   0  0  0  0  0  0  0  0  0  0  0  0
   21.5257   19.4392   18.8105 O   0  5  0  0  0  0  0  0  0  0  0  0
   20.4915   17.5722   18.6330 O   0  0  0  0  0  0  0  0  0  0  0  0
   21.2635   18.1688   20.7775 C   0  0  0  0  0  0  0  0  0  0  0  0
   22.2085   18.6318   21.0863 H   0  0  0  0  0  0  0  0  0  0  0  0
   21.3641   17.0886   20.9376 H   0  0  0  0  0  0  0  0  0  0  0  0
   20.0936   18.7284   21.6240 C   0  0  0  0  0  0  0  0  0  0  0  0
   20.0005   19.8057   21.4332 H   0  0  0  0  0  0  0  0  0  0  0  0
   19.1538   18.2626   21.2967 H   0  0  0  0  0  0  0  0  0  0  0  0
   20.3046   18.4722   23.1341 C   0  0  0  0  0  0  0  0  0  0  0  0
   21.2188   18.9793   23.4717 H   0  0  0  0  0  0  0  0  0  0  0  0
   20.4671   17.3976   23.2951 H   0  0  0  0  0  0  0  0  0  0  0  0
   19.1106   18.9242   24.0062 C   0  0  0  0  0  0  0  0  0  0  0  0
   18.1951   18.4147   23.6750 H   0  0  0  0  0  0  0  0  0  0  0  0
   19.2881   18.6016   25.0414 H   0  0  0  0  0  0  0  0  0  0  0  0
   18.8884   20.4520   23.9932 C   0  0  0  0  0  0  0  0  0  0  0  0
   18.5944   20.8058   22.9971 H   0  0  0  0  0  0  0  0  0  0  0  0
   18.0897   20.7295   24.6932 H   0  0  0  0  0  0  0  0  0  0  0  0
   19.8005   20.9843   24.2929 H   0  0  0  0  0  0  0  0  0  0  0  0
  1  2  1  0  0  0  0
  1  3  2  0  0  0  0
  1  4  1  0  0  0  0
  4  5  1  0  0  0  0
  4  6  1  0  0  0  0
  4  7  1  0  0  0  0
  7  8  1  0  0  0  0
  7  9  1  0  0  0  0
  7 10  1  0  0  0  0
 10 11  1  0  0  0  0
 10 12  1  0  0  0  0
 10 13  1  0  0  0  0
 13 14  1  0  0  0  0
 13 15  1  0  0  0  0
 13 16  1  0  0  0  0
 16 17  1  0  0  0  0
 16 18  1  0  0  0  0
 16 19  1  0  0  0  0
M  END
> <VConfSearch Rank>
785

> <Conf_Id>
41

> <Delta U+W>
-0.361

> <U+W>
-55.252

> <U>
7.244

> <W>
-62.496

> <W(PB)>
-64.596

> <W(SA)>
2.099

> <Valence>
7.174

> <Coulomb>
-0.669

> <VdW>
0.739

> <VdW6>
-5.969

> <VdW12>
6.708

> <Bond>
0.116

> <Angle>
2.481

> <Pdih>
4.576

> <Idih>
0.000

> <Tether>
0.000

$$$$
VeraChem MOL file


 19 18  0  0  0  0  0  0  0  0999 V2000     
   17.4357   17.9902   23.5669 C   0  0  0  0  0  0  0  0  0  0  0  0
   16.9646   17.3711   22.6335 O   0  5  0  0  0  0  0  0  0  0  0  0
   17.5886   17.5193   24.6767 O   0  0  0  0  0  0  0  0  0  0  0  0
   17.8376   19.4452   23.3413 C   0  0  0  0  0  0  0  0  0  0  0  0
   17.4394   20.0291   24.1795 H   0  0  0  0  0  0  0  0  0  0  0  0
   17.3387   19.8101   22.4352 H   0  0  0  0  0  0  0  0  0  0  0  0
   19.3686   19.6684   23.2361 C   0  0  0  0  0  0  0  0  0  0  0  0
   19.5707   20.7479   23.2153 H   0  0  0  0  0  0  0  0  0  0  0  0
   19.8569   19.2725   24.1374 H   0  0  0  0  0  0  0  0  0  0  0  0
   19.9799   19.0116   21.9782 C   0  0  0  0  0  0  0  0  0  0  0  0
   19.4797   19.4009   21.0809 H   0  0  0  0  0  0  0  0  0  0  0  0
   19.7967   17.9284   22.0000 H   0  0  0  0  0  0  0  0  0  0  0  0
   21.4972   19.2729   21.8775 C   0  0  0  0  0  0  0  0  0  0  0  0
   21.6863   20.3550   21.8511 H   0  0  0  0  0  0  0  0  0  0  0  0
   22.0004   18.8823   22.7729 H   0  0  0  0  0  0  0  0  0  0  0  0
   22.1041   18.6164   20.6215 C   0  0  0  0  0  0  0  0  0  0  0  0
   21.6403   19.0122   19.7084 H   0  0  0  0  0  0  0  0  0  0  0  0
   23.1829   18.8116   20.5658 H   0  0  0  0  0  0  0  0  0  0  0  0
   21.9567   17.5285   20.6370 H   0  0  0  0  0  0  0  0  0  0  0  0
  1  2  1  0  0  0  0
  1  3  2  0  0  0  0
  1  4  1  0  0  0  0
  4  5  1  0  0  0  0
  4  6  1  0  0  0  0
  4  7  1  0  0  0  0
  7  8  1  0  0  0  0
  7  9  1  0  0  0  0
  7 10  1  0  0  0  0
 10 11  1  0  0  0  0
 10 12  1  0  0  0  0
 10 13  1  0  0  0  0
 13 14  1  0  0  0  0
 13 15  1  0  0  0  0
 13 16  1  0  0  0  0
 16 17  1  0  0  0  0
 16 18  1  0  0  0  0
 16 19  1  0  0  0  0
M  END
> <VConfSearch Rank>
786

> <Conf_Id>
36

> <Delta U+W>
-0.079

> <U+W>
-54.971

> <U>
8.266

> <W>
-63.237

> <W(PB)>
-65.340

> <W(SA)>
2.103

> <Valence>
6.935

> <Coulomb>
0.874

> <VdW>
0.457

> <VdW6>
-6.205

> <VdW12>
6.662

> <Bond>
0.107

> <Angle>
2.420

> <Pdih>
4.407

> <Idih>
0.001

> <Tether>
0.000

$$$$
VeraChem MOL file


 19 18  0  0  0  0  0  0  0  0999 V2000     
   21.8065   21.2725   22.1122 C   0  0  0  0  0  0  0  0  0  0  0  0
   22.1421   21.4052   23.2725 O   0  5  0  0  0  0  0  0  0  0  0  0
   21.3385   22.1712   21.4413 O   0  0  0  0  0  0  0  0  0  0  0  0
   22.0024   19.9099   21.4533 C   0  0  0  0  0  0  0  0  0  0  0  0
   22.7209   19.3330   22.0482 H   0  0  0  0  0  0  0  0  0  0  0  0
   22.4665   20.0824   20.4751 H   0  0  0  0  0  0  0  0  0  0  0  0
   20.6907   19.1033   21.2688 C   0  0  0  0  0  0  0  0  0  0  0  0
   19.9711   19.7049   20.6960 H   0  0  0  0  0  0  0  0  0  0  0  0
   20.9040   18.2088   20.6680 H   0  0  0  0  0  0  0  0  0  0  0  0
   20.0619   18.6755   22.6137 C   0  0  0  0  0  0  0  0  0  0  0  0
   19.8297   19.5662   23.2139 H   0  0  0  0  0  0  0  0  0  0  0  0
   20.7895   18.0856   23.1880 H   0  0  0  0  0  0  0  0  0  0  0  0
   18.7763   17.8482   22.4058 C   0  0  0  0  0  0  0  0  0  0  0  0
   18.0458   18.4368   21.8336 H   0  0  0  0  0  0  0  0  0  0  0  0
   19.0033   16.9535   21.8095 H   0  0  0  0  0  0  0  0  0  0  0  0
   18.1514   17.4228   23.7495 C   0  0  0  0  0  0  0  0  0  0  0  0
   17.8855   18.3000   24.3539 H   0  0  0  0  0  0  0  0  0  0  0  0
   17.2385   16.8363   23.5832 H   0  0  0  0  0  0  0  0  0  0  0  0
   18.8500   16.8058   24.3296 H   0  0  0  0  0  0  0  0  0  0  0  0
  1  2  1  0  0  0  0
  1  3  2  0  0  0  0
  1  4  1  0  0  0  0
  4  5  1  0  0  0  0
  4  6  1  0  0  0  0
  4  7  1  0  0  0  0
  7  8  1  0  0  0  0
  7  9  1  0  0  0  0
  7 10  1  0  0  0  0
 10 11  1  0  0  0  0
 10 12  1  0  0  0  0
 10 13  1  0  0  0  0
 13 14  1  0  0  0  0
 13 15  1  0  0  0  0
 13 16  1  0  0  0  0
 16 17  1  0  0  0  0
 16 18  1  0  0  0  0
 16 19  1  0  0  0  0
M  END
> <VConfSearch Rank>
787

> <Conf_Id>
35

> <Delta U+W>
-0.030

> <U+W>
-54.921

> <U>
8.267

> <W>
-63.188

> <W(PB)>
-65.294

> <W(SA)>
2.106

> <Valence>
6.935

> <Coulomb>
0.875

> <VdW>
0.457

> <VdW6>
-6.205

> <VdW12>
6.662

> <Bond>
0.107

> <Angle>
2.420

> <Pdih>
4.407

> <Idih>
0.001

> <Tether>
0.000

$$$$
VeraChem MOL file


 19 18  0  0  0  0  0  0  0  0999 V2000     
   21.5580   21.0554   23.5996 C   0  0  0  0  0  0  0  0  0  0  0  0
   21.2646   21.2069   24.7691 O   0  5  0  0  0  0  0  0  0  0  0  0
   21.6252   21.9683   22.8003 O   0  0  0  0  0  0  0  0  0  0  0  0
   21.8803   19.6443   23.1155 C   0  0  0  0  0  0  0  0  0  0  0  0
   22.5538   19.1915   23.8526 H   0  0  0  0  0  0  0  0  0  0  0  0
   22.4406   19.7153   22.1753 H   0  0  0  0  0  0  0  0  0  0  0  0
   20.6347   18.7391   22.9287 C   0  0  0  0  0  0  0  0  0  0  0  0
   20.9753   17.7146   22.7322 H   0  0  0  0  0  0  0  0  0  0  0  0
   20.0626   18.7093   23.8663 H   0  0  0  0  0  0  0  0  0  0  0  0
   19.7228   19.2149   21.7726 C   0  0  0  0  0  0  0  0  0  0  0  0
   20.2860   19.2072   20.8294 H   0  0  0  0  0  0  0  0  0  0  0  0
   19.4301   20.2589   21.9498 H   0  0  0  0  0  0  0  0  0  0  0  0
   18.4382   18.3687   21.6155 C   0  0  0  0  0  0  0  0  0  0  0  0
   17.8715   18.3763   22.5568 H   0  0  0  0  0  0  0  0  0  0  0  0
   17.7943   18.8430   20.8620 H   0  0  0  0  0  0  0  0  0  0  0  0
   18.7138   16.9114   21.1861 C   0  0  0  0  0  0  0  0  0  0  0  0
   19.2561   16.3598   21.9641 H   0  0  0  0  0  0  0  0  0  0  0  0
   17.7705   16.3816   21.0002 H   0  0  0  0  0  0  0  0  0  0  0  0
   19.3070   16.8792   20.2630 H   0  0  0  0  0  0  0  0  0  0  0  0
  1  2  1  0  0  0  0
  1  3  2  0  0  0  0
  1  4  1  0  0  0  0
  4  5  1  0  0  0  0
  4  6  1  0  0  0  0
  4  7  1  0  0  0  0
  7  8  1  0  0  0  0
  7  9  1  0  0  0  0
  7 10  1  0  0  0  0
 10 11  1  0  0  0  0
 10 12  1  0  0  0  0
 10 13  1  0  0  0  0
 13 14  1  0  0  0  0
 13 15  1  0  0  0  0
 13 16  1  0  0  0  0
 16 17  1  0  0  0  0
 16 18  1  0  0  0  0
 16 19  1  0  0  0  0
M  END
> <VConfSearch Rank>
788

> <Conf_Id>
74

> <Delta U+W>
0.797

> <U+W>
-54.095

> <U>
8.869

> <W>
-62.964

> <W(PB)>
-65.046

> <W(SA)>
2.082

> <Valence>
7.469

> <Coulomb>
0.762

> <VdW>
0.639

> <VdW6>
-6.782

> <VdW12>
7.421

> <Bond>
0.141

> <Angle>
2.667

> <Pdih>
4.660

> <Idih>
0.001

> <Tether>
0.000

$$$$
VeraChem MOL file


 19 18  0  0  0  0  0  0  0  0999 V2000     
   22.0557   17.9830   24.1382 C   0  0  0  0  0  0  0  0  0  0  0  0
   22.7033   16.9555   24.1045 O   0  5  0  0  0  0  0  0  0  0  0  0
   22.4188   18.9877   24.7171 O   0  0  0  0  0  0  0  0  0  0  0  0
   20.7235   18.0190   23.3977 C   0  0  0  0  0  0  0  0  0  0  0  0
   20.0528   18.6872   23.9497 H   0  0  0  0  0  0  0  0  0  0  0  0
   20.2858   17.0143   23.4340 H   0  0  0  0  0  0  0  0  0  0  0  0
   20.8667   18.4872   21.9263 C   0  0  0  0  0  0  0  0  0  0  0  0
   21.2699   19.5083   21.9034 H   0  0  0  0  0  0  0  0  0  0  0  0
   21.6131   17.8548   21.4263 H   0  0  0  0  0  0  0  0  0  0  0  0
   19.5438   18.4174   21.1227 C   0  0  0  0  0  0  0  0  0  0  0  0
   19.2130   17.3710   21.0722 H   0  0  0  0  0  0  0  0  0  0  0  0
   19.7443   18.7222   20.0865 H   0  0  0  0  0  0  0  0  0  0  0  0
   18.3854   19.2793   21.6824 C   0  0  0  0  0  0  0  0  0  0  0  0
   17.5035   19.1372   21.0429 H   0  0  0  0  0  0  0  0  0  0  0  0
   18.0963   18.9242   22.6804 H   0  0  0  0  0  0  0  0  0  0  0  0
   18.7177   20.7857   21.7419 C   0  0  0  0  0  0  0  0  0  0  0  0
   19.0318   21.1579   20.7582 H   0  0  0  0  0  0  0  0  0  0  0  0
   17.8375   21.3611   22.0566 H   0  0  0  0  0  0  0  0  0  0  0  0
   19.5218   20.9886   22.4606 H   0  0  0  0  0  0  0  0  0  0  0  0
  1  2  1  0  0  0  0
  1  3  2  0  0  0  0
  1  4  1  0  0  0  0
  4  5  1  0  0  0  0
  4  6  1  0  0  0  0
  4  7  1  0  0  0  0
  7  8  1  0  0  0  0
  7  9  1  0  0  0  0
  7 10  1  0  0  0  0
 10 11  1  0  0  0  0
 10 12  1  0  0  0  0
 10 13  1  0  0  0  0
 13 14  1  0  0  0  0
 13 15  1  0  0  0  0
 13 16  1  0  0  0  0
 16 17  1  0  0  0  0
 16 18  1  0  0  0  0
 16 19  1  0  0  0  0
M  END
> <VConfSearch Rank>
789

> <Conf_Id>
67

> <Delta U+W>
0.308

> <U+W>
-54.583

> <U>
8.219

> <W>
-62.802

> <W(PB)>
-64.859

> <W(SA)>
2.057

> <Valence>
7.609

> <Coulomb>
-0.089

> <VdW>
0.699

> <VdW6>
-6.924

> <VdW12>
7.623

> <Bond>
0.163

> <Angle>
2.870

> <Pdih>
4.576

> <Idih>
0.001

> <Tether>
0.000

$$$$
VeraChem MOL file


 19 18  0  0  0  0  0  0  0  0999 V2000     
   20.7195   18.5343   25.1092 C   0  0  0  0  0  0  0  0  0  0  0  0
   20.0392   18.6601   26.1080 O   0  5  0  0  0  0  0  0  0  0  0  0
   21.9327   18.6016   25.1095 O   0  0  0  0  0  0  0  0  0  0  0  0
   20.0106   18.2987   23.7802 C   0  0  0  0  0  0  0  0  0  0  0  0
   19.0964   17.7265   23.9780 H   0  0  0  0  0  0  0  0  0  0  0  0
   20.6614   17.6701   23.1617 H   0  0  0  0  0  0  0  0  0  0  0  0
   19.6668   19.6176   23.0407 C   0  0  0  0  0  0  0  0  0  0  0  0
   19.0921   20.2627   23.7196 H   0  0  0  0  0  0  0  0  0  0  0  0
   20.5922   20.1636   22.8141 H   0  0  0  0  0  0  0  0  0  0  0  0
   18.8417   19.4051   21.7466 C   0  0  0  0  0  0  0  0  0  0  0  0
   18.6058   20.3868   21.3138 H   0  0  0  0  0  0  0  0  0  0  0  0
   17.8771   18.9504   22.0104 H   0  0  0  0  0  0  0  0  0  0  0  0
   19.5242   18.5323   20.6648 C   0  0  0  0  0  0  0  0  0  0  0  0
   19.6758   17.5119   21.0407 H   0  0  0  0  0  0  0  0  0  0  0  0
   18.8427   18.4416   19.8078 H   0  0  0  0  0  0  0  0  0  0  0  0
   20.8680   19.1103   20.1711 C   0  0  0  0  0  0  0  0  0  0  0  0
   21.6191   19.1120   20.9711 H   0  0  0  0  0  0  0  0  0  0  0  0
   21.2646   18.5077   19.3438 H   0  0  0  0  0  0  0  0  0  0  0  0
   20.7443   20.1400   19.8113 H   0  0  0  0  0  0  0  0  0  0  0  0
  1  2  1  0  0  0  0
  1  3  2  0  0  0  0
  1  4  1  0  0  0  0
  4  5  1  0  0  0  0
  4  6  1  0  0  0  0
  4  7  1  0  0  0  0
  7  8  1  0  0  0  0
  7  9  1  0  0  0  0
  7 10  1  0  0  0  0
 10 11  1  0  0  0  0
 10 12  1  0  0  0  0
 10 13  1  0  0  0  0
 13 14  1  0  0  0  0
 13 15  1  0  0  0  0
 13 16  1  0  0  0  0
 16 17  1  0  0  0  0
 16 18  1  0  0  0  0
 16 19  1  0  0  0  0
M  END
> <VConfSearch Rank>
790

> <Conf_Id>
21

> <Delta U+W>
0.319

> <U+W>
-54.572

> <U>
8.220

> <W>
-62.792

> <W(PB)>
-64.830

> <W(SA)>
2.038

> <Valence>
7.609

> <Coulomb>
-0.088

> <VdW>
0.699

> <VdW6>
-6.924

> <VdW12>
7.623

> <Bond>
0.163

> <Angle>
2.870

> <Pdih>
4.576

> <Idih>
0.000

> <Tether>
0.000

$$$$
VeraChem MOL file


 19 18  0  0  0  0  0  0  0  0999 V2000     
   18.3798   19.4130   19.9647 C   0  0  0  0  0  0  0  0  0  0  0  0
   17.8957   18.6375   19.1643 O   0  5  0  0  0  0  0  0  0  0  0  0
   17.9617   20.5392   20.1467 O   0  0  0  0  0  0  0  0  0  0  0  0
   19.5650   18.9402   20.7988 C   0  0  0  0  0  0  0  0  0  0  0  0
   20.2008   19.8078   21.0008 H   0  0  0  0  0  0  0  0  0  0  0  0
   20.1550   18.2481   20.1862 H   0  0  0  0  0  0  0  0  0  0  0  0
   19.1327   18.2460   22.1174 C   0  0  0  0  0  0  0  0  0  0  0  0
   18.4927   18.9174   22.7063 H   0  0  0  0  0  0  0  0  0  0  0  0
   18.5082   17.3810   21.8545 H   0  0  0  0  0  0  0  0  0  0  0  0
   20.3259   17.7532   22.9750 C   0  0  0  0  0  0  0  0  0  0  0  0
   21.1784   17.4981   22.3308 H   0  0  0  0  0  0  0  0  0  0  0  0
   20.0301   16.8151   23.4642 H   0  0  0  0  0  0  0  0  0  0  0  0
   20.7733   18.7356   24.0853 C   0  0  0  0  0  0  0  0  0  0  0  0
   19.9382   18.9151   24.7765 H   0  0  0  0  0  0  0  0  0  0  0  0
   21.5642   18.2550   24.6775 H   0  0  0  0  0  0  0  0  0  0  0  0
   21.3016   20.0864   23.5600 C   0  0  0  0  0  0  0  0  0  0  0  0
   21.7216   20.6798   24.3824 H   0  0  0  0  0  0  0  0  0  0  0  0
   22.0912   19.9373   22.8121 H   0  0  0  0  0  0  0  0  0  0  0  0
   20.4959   20.6765   23.1058 H   0  0  0  0  0  0  0  0  0  0  0  0
  1  2  1  0  0  0  0
  1  3  2  0  0  0  0
  1  4  1  0  0  0  0
  4  5  1  0  0  0  0
  4  6  1  0  0  0  0
  4  7  1  0  0  0  0
  7  8  1  0  0  0  0
  7  9  1  0  0  0  0
  7 10  1  0  0  0  0
 10 11  1  0  0  0  0
 10 12  1  0  0  0  0
 10 13  1  0  0  0  0
 13 14  1  0  0  0  0
 13 15  1  0  0  0  0
 13 16  1  0  0  0  0
 16 17  1  0  0  0  0
 16 18  1  0  0  0  0
 16 19  1  0  0  0  0
M  END
> <VConfSearch Rank>
791

> <Conf_Id>
24

> <Delta U+W>
2.477

> <U+W>
-52.414

> <U>
10.422

> <W>
-62.836

> <W(PB)>
-64.906

> <W(SA)>
2.070

> <Valence>
9.628

> <Coulomb>
0.101

> <VdW>
0.693

> <VdW6>
-6.927

> <VdW12>
7.620

> <Bond>
0.173

> <Angle>
2.989

> <Pdih>
6.465

> <Idih>
0.001

> <Tether>
0.000

$$$$
VeraChem MOL file


 19 18  0  0  0  0  0  0  0  0999 V2000     
   22.4274   19.5277   22.6083 C   0  0  0  0  0  0  0  0  0  0  0  0
   22.4805   20.3398   21.7059 O   0  5  0  0  0  0  0  0  0  0  0  0
   23.1542   19.5583   23.5819 O   0  0  0  0  0  0  0  0  0  0  0  0
   21.4145   18.3905   22.5023 C   0  0  0  0  0  0  0  0  0  0  0  0
   21.9505   17.4587   22.7173 H   0  0  0  0  0  0  0  0  0  0  0  0
   21.0764   18.3249   21.4633 H   0  0  0  0  0  0  0  0  0  0  0  0
   20.2096   18.5256   23.4744 C   0  0  0  0  0  0  0  0  0  0  0  0
   19.6389   17.5873   23.4921 H   0  0  0  0  0  0  0  0  0  0  0  0
   20.6063   18.6568   24.4907 H   0  0  0  0  0  0  0  0  0  0  0  0
   19.2612   19.7096   23.1516 C   0  0  0  0  0  0  0  0  0  0  0  0
   19.8177   20.5312   22.6803 H   0  0  0  0  0  0  0  0  0  0  0  0
   18.8840   20.1125   24.1014 H   0  0  0  0  0  0  0  0  0  0  0  0
   18.0339   19.3361   22.2844 C   0  0  0  0  0  0  0  0  0  0  0  0
   17.4322   18.5774   22.8036 H   0  0  0  0  0  0  0  0  0  0  0  0
   17.3930   20.2233   22.1882 H   0  0  0  0  0  0  0  0  0  0  0  0
   18.3900   18.8292   20.8717 C   0  0  0  0  0  0  0  0  0  0  0  0
   18.8862   17.8518   20.9157 H   0  0  0  0  0  0  0  0  0  0  0  0
   17.4824   18.7120   20.2657 H   0  0  0  0  0  0  0  0  0  0  0  0
   19.0538   19.5354   20.3559 H   0  0  0  0  0  0  0  0  0  0  0  0
  1  2  1  0  0  0  0
  1  3  2  0  0  0  0
  1  4  1  0  0  0  0
  4  5  1  0  0  0  0
  4  6  1  0  0  0  0
  4  7  1  0  0  0  0
  7  8  1  0  0  0  0
  7  9  1  0  0  0  0
  7 10  1  0  0  0  0
 10 11  1  0  0  0  0
 10 12  1  0  0  0  0
 10 13  1  0  0  0  0
 13 14  1  0  0  0  0
 13 15  1  0  0  0  0
 13 16  1  0  0  0  0
 16 17  1  0  0  0  0
 16 18  1  0  0  0  0
 16 19  1  0  0  0  0
M  END
> <VConfSearch Rank>
792

> <Conf_Id>
4

> <Delta U+W>
3.753

> <U+W>
-51.138

> <U>
12.334

> <W>
-63.472

> <W(PB)>
-65.500

> <W(SA)>
2.028

> <Valence>
9.984

> <Coulomb>
1.767

> <VdW>
0.583

> <VdW6>
-7.767

> <VdW12>
8.349

> <Bond>
0.203

> <Angle>
3.191

> <Pdih>
6.589

> <Idih>
0.001

> <Tether>
0.000

$$$$
VeraChem MOL file


 19 18  0  0  0  0  0  0  0  0999 V2000     
   21.9919   18.5639   20.8639 C   0  0  0  0  0  0  0  0  0  0  0  0
   23.0711   19.1227   20.8481 O   0  5  0  0  0  0  0  0  0  0  0  0
   21.8551   17.3653   20.7174 O   0  0  0  0  0  0  0  0  0  0  0  0
   20.7415   19.4197   21.0489 C   0  0  0  0  0  0  0  0  0  0  0  0
   19.8727   18.8349   20.7304 H   0  0  0  0  0  0  0  0  0  0  0  0
   20.8223   20.2648   20.3552 H   0  0  0  0  0  0  0  0  0  0  0  0
   20.5530   19.9582   22.4943 C   0  0  0  0  0  0  0  0  0  0  0  0
   21.4771   20.4757   22.7870 H   0  0  0  0  0  0  0  0  0  0  0  0
   19.7631   20.7211   22.5071 H   0  0  0  0  0  0  0  0  0  0  0  0
   20.2399   18.8621   23.5460 C   0  0  0  0  0  0  0  0  0  0  0  0
   20.7185   19.1508   24.4917 H   0  0  0  0  0  0  0  0  0  0  0  0
   20.7026   17.9084   23.2576 H   0  0  0  0  0  0  0  0  0  0  0  0
   18.7324   18.6534   23.8321 C   0  0  0  0  0  0  0  0  0  0  0  0
   18.6306   17.9206   24.6443 H   0  0  0  0  0  0  0  0  0  0  0  0
   18.2946   19.5893   24.2060 H   0  0  0  0  0  0  0  0  0  0  0  0
   17.9219   18.1583   22.6165 C   0  0  0  0  0  0  0  0  0  0  0  0
   18.3809   17.2637   22.1755 H   0  0  0  0  0  0  0  0  0  0  0  0
   16.8978   17.9016   22.9167 H   0  0  0  0  0  0  0  0  0  0  0  0
   17.8549   18.9338   21.8435 H   0  0  0  0  0  0  0  0  0  0  0  0
  1  2  1  0  0  0  0
  1  3  2  0  0  0  0
  1  4  1  0  0  0  0
  4  5  1  0  0  0  0
  4  6  1  0  0  0  0
  4  7  1  0  0  0  0
  7  8  1  0  0  0  0
  7  9  1  0  0  0  0
  7 10  1  0  0  0  0
 10 11  1  0  0  0  0
 10 12  1  0  0  0  0
 10 13  1  0  0  0  0
 13 14  1  0  0  0  0
 13 15  1  0  0  0  0
 13 16  1  0  0  0  0
 16 17  1  0  0  0  0
 16 18  1  0  0  0  0
 16 19  1  0  0  0  0
M  END
> <VConfSearch Rank>
793

> <Conf_Id>
73

> <Delta U+W>
3.707

> <U+W>
-51.184

> <U>
12.334

> <W>
-63.519

> <W(PB)>
-65.541

> <W(SA)>
2.022

> <Valence>
9.984

> <Coulomb>
1.768

> <VdW>
0.583

> <VdW6>
-7.767

> <VdW12>
8.350

> <Bond>
0.203

> <Angle>
3.192

> <Pdih>
6.589

> <Idih>
0.001

> <Tether>
0.000

$$$$
VeraChem MOL file


 19 18  0  0  0  0  0  0  0  0999 V2000     
   22.0741   19.2764   23.6871 C   0  0  0  0  0  0  0  0  0  0  0  0
   22.7093   18.4662   23.0414 O   0  5  0  0  0  0  0  0  0  0  0  0
   22.5600   20.2822   24.1660 O   0  0  0  0  0  0  0  0  0  0  0  0
   20.5939   19.0026   23.9389 C   0  0  0  0  0  0  0  0  0  0  0  0
   20.4202   19.1126   25.0157 H   0  0  0  0  0  0  0  0  0  0  0  0
   20.3837   17.9547   23.6961 H   0  0  0  0  0  0  0  0  0  0  0  0
   19.6329   19.9457   23.1647 C   0  0  0  0  0  0  0  0  0  0  0  0
   18.5981   19.7290   23.4597 H   0  0  0  0  0  0  0  0  0  0  0  0
   19.8259   20.9803   23.4801 H   0  0  0  0  0  0  0  0  0  0  0  0
   19.7624   19.8657   21.6216 C   0  0  0  0  0  0  0  0  0  0  0  0
   20.7666   20.2017   21.3285 H   0  0  0  0  0  0  0  0  0  0  0  0
   19.0615   20.5818   21.1716 H   0  0  0  0  0  0  0  0  0  0  0  0
   19.5095   18.4659   21.0104 C   0  0  0  0  0  0  0  0  0  0  0  0
   19.6453   18.5301   19.9221 H   0  0  0  0  0  0  0  0  0  0  0  0
   20.2669   17.7555   21.3683 H   0  0  0  0  0  0  0  0  0  0  0  0
   18.0968   17.9162   21.3032 C   0  0  0  0  0  0  0  0  0  0  0  0
   17.9563   17.7282   22.3750 H   0  0  0  0  0  0  0  0  0  0  0  0
   17.3242   18.6223   20.9722 H   0  0  0  0  0  0  0  0  0  0  0  0
   17.9370   16.9672   20.7752 H   0  0  0  0  0  0  0  0  0  0  0  0
  1  2  1  0  0  0  0
  1  3  2  0  0  0  0
  1  4  1  0  0  0  0
  4  5  1  0  0  0  0
  4  6  1  0  0  0  0
  4  7  1  0  0  0  0
  7  8  1  0  0  0  0
  7  9  1  0  0  0  0
  7 10  1  0  0  0  0
 10 11  1  0  0  0  0
 10 12  1  0  0  0  0
 10 13  1  0  0  0  0
 13 14  1  0  0  0  0
 13 15  1  0  0  0  0
 13 16  1  0  0  0  0
 16 17  1  0  0  0  0
 16 18  1  0  0  0  0
 16 19  1  0  0  0  0
M  END
> <VConfSearch Rank>
794

> <Conf_Id>
56

> <Delta U+W>
1.735

> <U+W>
-53.156

> <U>
10.214

> <W>
-63.370

> <W(PB)>
-65.388

> <W(SA)>
2.018

> <Valence>
7.868

> <Coulomb>
1.968

> <VdW>
0.378

> <VdW6>
-8.067

> <VdW12>
8.445

> <Bond>
0.191

> <Angle>
3.117

> <Pdih>
4.559

> <Idih>
0.001

> <Tether>
0.000

$$$$
VeraChem MOL file


 19 18  0  0  0  0  0  0  0  0999 V2000     
   20.5800   19.5986   19.5002 C   0  0  0  0  0  0  0  0  0  0  0  0
   21.6805   19.4322   19.0129 O   0  5  0  0  0  0  0  0  0  0  0  0
   19.6933   20.2282   18.9582 O   0  0  0  0  0  0  0  0  0  0  0  0
   20.3040   19.0032   20.8763 C   0  0  0  0  0  0  0  0  0  0  0  0
   20.8954   18.0852   20.9760 H   0  0  0  0  0  0  0  0  0  0  0  0
   19.2461   18.7199   20.9086 H   0  0  0  0  0  0  0  0  0  0  0  0
   20.6341   19.9817   22.0315 C   0  0  0  0  0  0  0  0  0  0  0  0
   21.6566   20.3587   21.8914 H   0  0  0  0  0  0  0  0  0  0  0  0
   19.9723   20.8563   21.9647 H   0  0  0  0  0  0  0  0  0  0  0  0
   20.5307   19.3583   23.4461 C   0  0  0  0  0  0  0  0  0  0  0  0
   20.8372   20.1270   24.1687 H   0  0  0  0  0  0  0  0  0  0  0  0
   21.2579   18.5418   23.5527 H   0  0  0  0  0  0  0  0  0  0  0  0
   19.1137   18.8688   23.8355 C   0  0  0  0  0  0  0  0  0  0  0  0
   18.9604   19.0561   24.9073 H   0  0  0  0  0  0  0  0  0  0  0  0
   18.3491   19.4577   23.3103 H   0  0  0  0  0  0  0  0  0  0  0  0
   18.8978   17.3605   23.5802 C   0  0  0  0  0  0  0  0  0  0  0  0
   17.8877   17.0604   23.8877 H   0  0  0  0  0  0  0  0  0  0  0  0
   19.0146   17.1040   22.5213 H   0  0  0  0  0  0  0  0  0  0  0  0
   19.6154   16.7609   24.1551 H   0  0  0  0  0  0  0  0  0  0  0  0
  1  2  1  0  0  0  0
  1  3  2  0  0  0  0
  1  4  1  0  0  0  0
  4  5  1  0  0  0  0
  4  6  1  0  0  0  0
  4  7  1  0  0  0  0
  7  8  1  0  0  0  0
  7  9  1  0  0  0  0
  7 10  1  0  0  0  0
 10 11  1  0  0  0  0
 10 12  1  0  0  0  0
 10 13  1  0  0  0  0
 13 14  1  0  0  0  0
 13 15  1  0  0  0  0
 13 16  1  0  0  0  0
 16 17  1  0  0  0  0
 16 18  1  0  0  0  0
 16 19  1  0  0  0  0
M  END
> <VConfSearch Rank>
795

> <Conf_Id>
53

> <Delta U+W>
2.279

> <U+W>
-52.612

> <U>
10.231

> <W>
-62.843

> <W(PB)>
-64.893

> <W(SA)>
2.050

> <Valence>
9.644

> <Coulomb>
-0.164

> <VdW>
0.751

> <VdW6>
-6.881

> <VdW12>
7.631

> <Bond>
0.163

> <Angle>
2.998

> <Pdih>
6.482

> <Idih>
0.001

> <Tether>
0.000

$$$$
VeraChem MOL file


 19 18  0  0  0  0  0  0  0  0999 V2000     
   21.0802   18.0998   20.4089 C   0  0  0  0  0  0  0  0  0  0  0  0
   20.1636   17.4626   19.9287 O   0  5  0  0  0  0  0  0  0  0  0  0
   22.1807   17.6312   20.6247 O   0  0  0  0  0  0  0  0  0  0  0  0
   20.8560   19.5846   20.6896 C   0  0  0  0  0  0  0  0  0  0  0  0
   19.8363   19.8545   20.3892 H   0  0  0  0  0  0  0  0  0  0  0  0
   21.5339   20.1301   20.0230 H   0  0  0  0  0  0  0  0  0  0  0  0
   21.1210   20.0307   22.1552 C   0  0  0  0  0  0  0  0  0  0  0  0
   22.0547   19.5810   22.5207 H   0  0  0  0  0  0  0  0  0  0  0  0
   21.2891   21.1162   22.1537 H   0  0  0  0  0  0  0  0  0  0  0  0
   19.9661   19.7341   23.1435 C   0  0  0  0  0  0  0  0  0  0  0  0
   19.0378   20.1924   22.7759 H   0  0  0  0  0  0  0  0  0  0  0  0
   20.1970   20.2277   24.0975 H   0  0  0  0  0  0  0  0  0  0  0  0
   19.7334   18.2302   23.4074 C   0  0  0  0  0  0  0  0  0  0  0  0
   19.3723   17.7390   22.4949 H   0  0  0  0  0  0  0  0  0  0  0  0
   20.6831   17.7482   23.6779 H   0  0  0  0  0  0  0  0  0  0  0  0
   18.7041   18.0063   24.5336 C   0  0  0  0  0  0  0  0  0  0  0  0
   17.7368   18.4571   24.2760 H   0  0  0  0  0  0  0  0  0  0  0  0
   18.5439   16.9336   24.7027 H   0  0  0  0  0  0  0  0  0  0  0  0
   19.0495   18.4500   25.4765 H   0  0  0  0  0  0  0  0  0  0  0  0
  1  2  1  0  0  0  0
  1  3  2  0  0  0  0
  1  4  1  0  0  0  0
  4  5  1  0  0  0  0
  4  6  1  0  0  0  0
  4  7  1  0  0  0  0
  7  8  1  0  0  0  0
  7  9  1  0  0  0  0
  7 10  1  0  0  0  0
 10 11  1  0  0  0  0
 10 12  1  0  0  0  0
 10 13  1  0  0  0  0
 13 14  1  0  0  0  0
 13 15  1  0  0  0  0
 13 16  1  0  0  0  0
 16 17  1  0  0  0  0
 16 18  1  0  0  0  0
 16 19  1  0  0  0  0
M  END
> <VConfSearch Rank>
796

> <Conf_Id>
25

> <Delta U+W>
2.065

> <U+W>
-52.826

> <U>
10.967

> <W>
-63.794

> <W(PB)>
-65.830

> <W(SA)>
2.036

> <Valence>
8.609

> <Coulomb>
1.892

> <VdW>
0.467

> <VdW6>
-7.569

> <VdW12>
8.036

> <Bond>
0.170

> <Angle>
3.195

> <Pdih>
5.237

> <Idih>
0.007

> <Tether>
0.000

$$$$
VeraChem MOL file


 19 18  0  0  0  0  0  0  0  0999 V2000     
   18.8666   20.4481   23.8225 C   0  0  0  0  0  0  0  0  0  0  0  0
   18.3941   19.8719   24.7827 O   0  5  0  0  0  0  0  0  0  0  0  0
   18.1948   21.0308   22.9942 O   0  0  0  0  0  0  0  0  0  0  0  0
   20.3870   20.5038   23.6854 C   0  0  0  0  0  0  0  0  0  0  0  0
   20.7552   21.0553   24.5583 H   0  0  0  0  0  0  0  0  0  0  0  0
   20.6441   21.1038   22.8041 H   0  0  0  0  0  0  0  0  0  0  0  0
   21.0991   19.1231   23.6228 C   0  0  0  0  0  0  0  0  0  0  0  0
   22.1529   19.2730   23.8938 H   0  0  0  0  0  0  0  0  0  0  0  0
   20.6832   18.4521   24.3872 H   0  0  0  0  0  0  0  0  0  0  0  0
   21.0624   18.4356   22.2355 C   0  0  0  0  0  0  0  0  0  0  0  0
   21.7218   17.5576   22.2714 H   0  0  0  0  0  0  0  0  0  0  0  0
   21.4861   19.1088   21.4778 H   0  0  0  0  0  0  0  0  0  0  0  0
   19.6539   17.9796   21.7955 C   0  0  0  0  0  0  0  0  0  0  0  0
   19.1868   17.3888   22.5956 H   0  0  0  0  0  0  0  0  0  0  0  0
   19.0116   18.8528   21.6241 H   0  0  0  0  0  0  0  0  0  0  0  0
   19.7091   17.1413   20.5024 C   0  0  0  0  0  0  0  0  0  0  0  0
   18.7004   16.8327   20.1988 H   0  0  0  0  0  0  0  0  0  0  0  0
   20.1492   17.7191   19.6790 H   0  0  0  0  0  0  0  0  0  0  0  0
   20.3117   16.2349   20.6464 H   0  0  0  0  0  0  0  0  0  0  0  0
  1  2  1  0  0  0  0
  1  3  2  0  0  0  0
  1  4  1  0  0  0  0
  4  5  1  0  0  0  0
  4  6  1  0  0  0  0
  4  7  1  0  0  0  0
  7  8  1  0  0  0  0
  7  9  1  0  0  0  0
  7 10  1  0  0  0  0
 10 11  1  0  0  0  0
 10 12  1  0  0  0  0
 10 13  1  0  0  0  0
 13 14  1  0  0  0  0
 13 15  1  0  0  0  0
 13 16  1  0  0  0  0
 16 17  1  0  0  0  0
 16 18  1  0  0  0  0
 16 19  1  0  0  0  0
M  END
> <VConfSearch Rank>
797

> <Conf_Id>
52

> <Delta U+W>
2.070

> <U+W>
-52.822

> <U>
10.967

> <W>
-63.789

> <W(PB)>
-65.837

> <W(SA)>
2.048

> <Valence>
8.609

> <Coulomb>
1.892

> <VdW>
0.467

> <VdW6>
-7.569

> <VdW12>
8.035

> <Bond>
0.170

> <Angle>
3.196

> <Pdih>
5.237

> <Idih>
0.007

> <Tether>
0.000

$$$$
VeraChem MOL file


 19 18  0  0  0  0  0  0  0  0999 V2000     
   18.5293   20.5793   22.5682 C   0  0  0  0  0  0  0  0  0  0  0  0
   17.4720   20.2450   23.0666 O   0  5  0  0  0  0  0  0  0  0  0  0
   19.1485   21.5640   22.9199 O   0  0  0  0  0  0  0  0  0  0  0  0
   19.0483   19.8025   21.3571 C   0  0  0  0  0  0  0  0  0  0  0  0
   20.0697   20.1322   21.1320 H   0  0  0  0  0  0  0  0  0  0  0  0
   18.4264   20.1126   20.5096 H   0  0  0  0  0  0  0  0  0  0  0  0
   18.9980   18.2525   21.4760 C   0  0  0  0  0  0  0  0  0  0  0  0
   18.0590   17.9428   21.9551 H   0  0  0  0  0  0  0  0  0  0  0  0
   18.9641   17.8373   20.4598 H   0  0  0  0  0  0  0  0  0  0  0  0
   20.2019   17.6021   22.2047 C   0  0  0  0  0  0  0  0  0  0  0  0
   21.1329   17.8287   21.6672 H   0  0  0  0  0  0  0  0  0  0  0  0
   20.0788   16.5125   22.1361 H   0  0  0  0  0  0  0  0  0  0  0  0
   20.3403   17.9747   23.7007 C   0  0  0  0  0  0  0  0  0  0  0  0
   19.3745   18.3089   24.1043 H   0  0  0  0  0  0  0  0  0  0  0  0
   20.6108   17.0730   24.2671 H   0  0  0  0  0  0  0  0  0  0  0  0
   21.4258   19.0431   23.9523 C   0  0  0  0  0  0  0  0  0  0  0  0
   22.4135   18.6779   23.6427 H   0  0  0  0  0  0  0  0  0  0  0  0
   21.2173   19.9659   23.3986 H   0  0  0  0  0  0  0  0  0  0  0  0
   21.4780   19.2954   25.0192 H   0  0  0  0  0  0  0  0  0  0  0  0
  1  2  1  0  0  0  0
  1  3  2  0  0  0  0
  1  4  1  0  0  0  0
  4  5  1  0  0  0  0
  4  6  1  0  0  0  0
  4  7  1  0  0  0  0
  7  8  1  0  0  0  0
  7  9  1  0  0  0  0
  7 10  1  0  0  0  0
 10 11  1  0  0  0  0
 10 12  1  0  0  0  0
 10 13  1  0  0  0  0
 13 14  1  0  0  0  0
 13 15  1  0  0  0  0
 13 16  1  0  0  0  0
 16 17  1  0  0  0  0
 16 18  1  0  0  0  0
 16 19  1  0  0  0  0
M  END
> <VConfSearch Rank>
798

> <Conf_Id>
66

> <Delta U+W>
5.819

> <U+W>
-49.072

> <U>
15.324

> <W>
-64.396

> <W(PB)>
-66.382

> <W(SA)>
1.986

> <Valence>
11.748

> <Coulomb>
3.201

> <VdW>
0.375

> <VdW6>
-8.854

> <VdW12>
9.229

> <Bond>
0.216

> <Angle>
3.812

> <Pdih>
7.699

> <Idih>
0.022

> <Tether>
0.000

$$$$
VeraChem MOL file


 19 18  0  0  0  0  0  0  0  0999 V2000     
   20.9416   20.2310   25.1322 C   0  0  0  0  0  0  0  0  0  0  0  0
   21.0292   21.2926   25.7162 O   0  5  0  0  0  0  0  0  0  0  0  0
   21.2615   19.1702   25.6326 O   0  0  0  0  0  0  0  0  0  0  0  0
   20.4004   20.2635   23.7019 C   0  0  0  0  0  0  0  0  0  0  0  0
   21.0476   20.9323   23.1223 H   0  0  0  0  0  0  0  0  0  0  0  0
   19.4084   20.7290   23.7381 H   0  0  0  0  0  0  0  0  0  0  0  0
   20.3066   18.8842   22.9970 C   0  0  0  0  0  0  0  0  0  0  0  0
   21.3025   18.4206   22.9692 H   0  0  0  0  0  0  0  0  0  0  0  0
   19.6616   18.2171   23.5856 H   0  0  0  0  0  0  0  0  0  0  0  0
   19.7518   19.0096   21.5615 C   0  0  0  0  0  0  0  0  0  0  0  0
   20.3980   19.6769   20.9748 H   0  0  0  0  0  0  0  0  0  0  0  0
   18.7562   19.4733   21.5915 H   0  0  0  0  0  0  0  0  0  0  0  0
   19.6595   17.6372   20.8624 C   0  0  0  0  0  0  0  0  0  0  0  0
   20.6539   17.1709   20.8287 H   0  0  0  0  0  0  0  0  0  0  0  0
   19.0122   16.9673   21.4453 H   0  0  0  0  0  0  0  0  0  0  0  0
   19.1053   17.7662   19.4295 C   0  0  0  0  0  0  0  0  0  0  0  0
   19.7514   18.4065   18.8147 H   0  0  0  0  0  0  0  0  0  0  0  0
   19.0464   16.7817   18.9475 H   0  0  0  0  0  0  0  0  0  0  0  0
   18.0974   18.2014   19.4359 H   0  0  0  0  0  0  0  0  0  0  0  0
  1  2  1  0  0  0  0
  1  3  2  0  0  0  0
  1  4  1  0  0  0  0
  4  5  1  0  0  0  0
  4  6  1  0  0  0  0
  4  7  1  0  0  0  0
  7  8  1  0  0  0  0
  7  9  1  0  0  0  0
  7 10  1  0  0  0  0
 10 11  1  0  0  0  0
 10 12  1  0  0  0  0
 10 13  1  0  0  0  0
 13 14  1  0  0  0  0
 13 15  1  0  0  0  0
 13 16  1  0  0  0  0
 16 17  1  0  0  0  0
 16 18  1  0  0  0  0
 16 19  1  0  0  0  0
M  END
> <VConfSearch Rank>
799

> <Conf_Id>
0

> <Delta U+W>
0.000

> <U+W>
-54.891

> <U>
6.966

> <W>
-61.857

> <W(PB)>
-63.965

> <W(SA)>
2.108

> <Valence>
7.175

> <Coulomb>
-1.360

> <VdW>
1.151

> <VdW6>
-5.641

> <VdW12>
6.792

> <Bond>
0.119

> <Angle>
2.715

> <Pdih>
4.340

> <Idih>
0.000

> <Tether>
0.000

$$$$
VeraChem MOL file


 19 18  0  0  0  0  0  0  0  0999 V2000     
   22.7035   20.6611   21.2537 C   0  0  0  0  0  0  0  0  0  0  0  0
   22.5158   21.8306   20.9834 O   0  5  0  0  0  0  0  0  0  0  0  0
   23.7420   20.2370   21.7204 O   0  0  0  0  0  0  0  0  0  0  0  0
   21.5662   19.6747   21.0132 C   0  0  0  0  0  0  0  0  0  0  0  0
   22.0058   18.7051   20.7497 H   0  0  0  0  0  0  0  0  0  0  0  0
   20.9949   20.0188   20.1426 H   0  0  0  0  0  0  0  0  0  0  0  0
   20.6320   19.5222   22.2388 C   0  0  0  0  0  0  0  0  0  0  0  0
   21.2210   19.1895   23.1048 H   0  0  0  0  0  0  0  0  0  0  0  0
   20.2102   20.5033   22.4978 H   0  0  0  0  0  0  0  0  0  0  0  0
   19.4898   18.5190   21.9696 C   0  0  0  0  0  0  0  0  0  0  0  0
   19.9147   17.5397   21.7097 H   0  0  0  0  0  0  0  0  0  0  0  0
   18.9037   18.8537   21.1026 H   0  0  0  0  0  0  0  0  0  0  0  0
   18.5609   18.3690   23.1922 C   0  0  0  0  0  0  0  0  0  0  0  0
   19.1433   18.0324   24.0612 H   0  0  0  0  0  0  0  0  0  0  0  0
   18.1322   19.3464   23.4541 H   0  0  0  0  0  0  0  0  0  0  0  0
   17.4216   17.3666   22.9199 C   0  0  0  0  0  0  0  0  0  0  0  0
   16.7711   17.2721   23.7991 H   0  0  0  0  0  0  0  0  0  0  0  0
   16.8031   17.6951   22.0743 H   0  0  0  0  0  0  0  0  0  0  0  0
   17.8218   16.3713   22.6858 H   0  0  0  0  0  0  0  0  0  0  0  0
  1  2  1  0  0  0  0
  1  3  2  0  0  0  0
  1  4  1  0  0  0  0
  4  5  1  0  0  0  0
  4  6  1  0  0  0  0
  4  7  1  0  0  0  0
  7  8  1  0  0  0  0
  7  9  1  0  0  0  0
  7 10  1  0  0  0  0
 10 11  1  0  0  0  0
 10 12  1  0  0  0  0
 10 13  1  0  0  0  0
 13 14  1  0  0  0  0
 13 15  1  0  0  0  0
 13 16  1  0  0  0  0
 16 17  1  0  0  0  0
 16 18  1  0  0  0  0
 16 19  1  0  0  0  0
M  END
> <VConfSearch Rank>
800

> <Conf_Id>
18

> <Delta U+W>
-1.199

> <U+W>
-56.090

> <U>
5.975

> <W>
-62.066

> <W(PB)>
-64.219

> <W(SA)>
2.153

> <Valence>
6.673

> <Coulomb>
-1.307

> <VdW>
0.610

> <VdW6>
-5.351

> <VdW12>
5.961

> <Bond>
0.086

> <Angle>
2.253

> <Pdih>
4.333

> <Idih>
0.001

> <Tether>
0.000

$$$$
VeraChem MOL file


 19 18  0  0  0  0  0  0  0  0999 V2000     
   23.1890   18.6788   22.1709 C   0  0  0  0  0  0  0  0  0  0  0  0
   23.9334   19.6125   21.9462 O   0  5  0  0  0  0  0  0  0  0  0  0
   23.5432   17.6531   22.7176 O   0  0  0  0  0  0  0  0  0  0  0  0
   21.7257   18.8101   21.7637 C   0  0  0  0  0  0  0  0  0  0  0  0
   21.3662   17.8128   21.4862 H   0  0  0  0  0  0  0  0  0  0  0  0
   21.6776   19.4355   20.8642 H   0  0  0  0  0  0  0  0  0  0  0  0
   20.8428   19.4171   22.8849 C   0  0  0  0  0  0  0  0  0  0  0  0
   20.8635   18.7594   23.7648 H   0  0  0  0  0  0  0  0  0  0  0  0
   21.2831   20.3728   23.2016 H   0  0  0  0  0  0  0  0  0  0  0  0
   19.3784   19.6655   22.4519 C   0  0  0  0  0  0  0  0  0  0  0  0
   19.3609   20.3301   21.5773 H   0  0  0  0  0  0  0  0  0  0  0  0
   18.8621   20.2016   23.2600 H   0  0  0  0  0  0  0  0  0  0  0  0
   18.6028   18.3672   22.1352 C   0  0  0  0  0  0  0  0  0  0  0  0
   19.0587   17.8530   21.2790 H   0  0  0  0  0  0  0  0  0  0  0  0
   18.6633   17.6810   22.9912 H   0  0  0  0  0  0  0  0  0  0  0  0
   17.1226   18.6573   21.8154 C   0  0  0  0  0  0  0  0  0  0  0  0
   16.5862   17.7265   21.5898 H   0  0  0  0  0  0  0  0  0  0  0  0
   16.6233   19.1382   22.6666 H   0  0  0  0  0  0  0  0  0  0  0  0
   17.0319   19.3203   20.9450 H   0  0  0  0  0  0  0  0  0  0  0  0
  1  2  1  0  0  0  0
  1  3  2  0  0  0  0
  1  4  1  0  0  0  0
  4  5  1  0  0  0  0
  4  6  1  0  0  0  0
  4  7  1  0  0  0  0
  7  8  1  0  0  0  0
  7  9  1  0  0  0  0
  7 10  1  0  0  0  0
 10 11  1  0  0  0  0
 10 12  1  0  0  0  0
 10 13  1  0  0  0  0
 13 14  1  0  0  0  0
 13 15  1  0  0  0  0
 13 16  1  0  0  0  0
 16 17  1  0  0  0  0
 16 18  1  0  0  0  0
 16 19  1  0  0  0  0
M  END
> <VConfSearch Rank>
801

> <Conf_Id>
34

> <Delta U+W>
-0.563

> <U+W>
-55.455

> <U>
6.914

> <W>
-62.369

> <W(PB)>
-64.446

> <W(SA)>
2.077

> <Valence>
7.196

> <Coulomb>
-1.020

> <VdW>
0.738

> <VdW6>
-6.010

> <VdW12>
6.748

> <Bond>
0.126

> <Angle>
2.499

> <Pdih>
4.570

> <Idih>
0.001

> <Tether>
0.000

$$$$
VeraChem MOL file


 19 18  0  0  0  0  0  0  0  0999 V2000     
   20.3665   15.7330   22.1250 C   0  0  0  0  0  0  0  0  0  0  0  0
   19.5442   14.9459   22.5500 O   0  5  0  0  0  0  0  0  0  0  0  0
   21.5317   15.4486   21.9310 O   0  0  0  0  0  0  0  0  0  0  0  0
   19.9164   17.1615   21.8406 C   0  0  0  0  0  0  0  0  0  0  0  0
   18.8680   17.1307   21.5205 H   0  0  0  0  0  0  0  0  0  0  0  0
   20.5043   17.5340   20.9942 H   0  0  0  0  0  0  0  0  0  0  0  0
   20.0731   18.0959   23.0685 C   0  0  0  0  0  0  0  0  0  0  0  0
   19.5475   17.6467   23.9225 H   0  0  0  0  0  0  0  0  0  0  0  0
   21.1330   18.1541   23.3524 H   0  0  0  0  0  0  0  0  0  0  0  0
   19.5150   19.5201   22.8364 C   0  0  0  0  0  0  0  0  0  0  0  0
   19.5586   20.0706   23.7861 H   0  0  0  0  0  0  0  0  0  0  0  0
   18.4532   19.4590   22.5610 H   0  0  0  0  0  0  0  0  0  0  0  0
   20.2874   20.3147   21.7596 C   0  0  0  0  0  0  0  0  0  0  0  0
   21.3575   20.3324   22.0084 H   0  0  0  0  0  0  0  0  0  0  0  0
   20.1930   19.8206   20.7838 H   0  0  0  0  0  0  0  0  0  0  0  0
   19.7654   21.7607   21.6417 C   0  0  0  0  0  0  0  0  0  0  0  0
   18.7026   21.7730   21.3665 H   0  0  0  0  0  0  0  0  0  0  0  0
   19.8800   22.2989   22.5918 H   0  0  0  0  0  0  0  0  0  0  0  0
   20.3215   22.3110   20.8716 H   0  0  0  0  0  0  0  0  0  0  0  0
  1  2  1  0  0  0  0
  1  3  2  0  0  0  0
  1  4  1  0  0  0  0
  4  5  1  0  0  0  0
  4  6  1  0  0  0  0
  4  7  1  0  0  0  0
  7  8  1  0  0  0  0
  7  9  1  0  0  0  0
  7 10  1  0  0  0  0
 10 11  1  0  0  0  0
 10 12  1  0  0  0  0
 10 13  1  0  0  0  0
 13 14  1  0  0  0  0
 13 15  1  0  0  0  0
 13 16  1  0  0  0  0
 16 17  1  0  0  0  0
 16 18  1  0  0  0  0
 16 19  1  0  0  0  0
M  END
> <VConfSearch Rank>
802

> <Conf_Id>
33

> <Delta U+W>
-0.526

> <U+W>
-55.418

> <U>
6.914

> <W>
-62.332

> <W(PB)>
-64.421

> <W(SA)>
2.090

> <Valence>
7.196

> <Coulomb>
-1.020

> <VdW>
0.738

> <VdW6>
-6.010

> <VdW12>
6.748

> <Bond>
0.126

> <Angle>
2.499

> <Pdih>
4.570

> <Idih>
0.001

> <Tether>
0.000

$$$$
VeraChem MOL file


 19 18  0  0  0  0  0  0  0  0999 V2000     
   20.8431   20.6993   19.7616 C   0  0  0  0  0  0  0  0  0  0  0  0
   21.8717   21.2844   20.0374 O   0  5  0  0  0  0  0  0  0  0  0  0
   20.5888   20.2725   18.6529 O   0  0  0  0  0  0  0  0  0  0  0  0
   19.8232   20.4728   20.8720 C   0  0  0  0  0  0  0  0  0  0  0  0
   18.8224   20.4918   20.4242 H   0  0  0  0  0  0  0  0  0  0  0  0
   19.8832   21.3183   21.5679 H   0  0  0  0  0  0  0  0  0  0  0  0
   20.0446   19.1409   21.6306 C   0  0  0  0  0  0  0  0  0  0  0  0
   19.9911   18.3051   20.9193 H   0  0  0  0  0  0  0  0  0  0  0  0
   21.0578   19.1371   22.0536 H   0  0  0  0  0  0  0  0  0  0  0  0
   18.9994   18.9391   22.7520 C   0  0  0  0  0  0  0  0  0  0  0  0
   17.9922   19.0176   22.3203 H   0  0  0  0  0  0  0  0  0  0  0  0
   19.0861   19.7489   23.4893 H   0  0  0  0  0  0  0  0  0  0  0  0
   19.1220   17.5737   23.4669 C   0  0  0  0  0  0  0  0  0  0  0  0
   18.2775   17.4621   24.1610 H   0  0  0  0  0  0  0  0  0  0  0  0
   19.0301   16.7609   22.7333 H   0  0  0  0  0  0  0  0  0  0  0  0
   20.4388   17.4139   24.2571 C   0  0  0  0  0  0  0  0  0  0  0  0
   20.5667   18.2324   24.9773 H   0  0  0  0  0  0  0  0  0  0  0  0
   20.4386   16.4690   24.8159 H   0  0  0  0  0  0  0  0  0  0  0  0
   21.3087   17.4038   23.5885 H   0  0  0  0  0  0  0  0  0  0  0  0
  1  2  1  0  0  0  0
  1  3  2  0  0  0  0
  1  4  1  0  0  0  0
  4  5  1  0  0  0  0
  4  6  1  0  0  0  0
  4  7  1  0  0  0  0
  7  8  1  0  0  0  0
  7  9  1  0  0  0  0
  7 10  1  0  0  0  0
 10 11  1  0  0  0  0
 10 12  1  0  0  0  0
 10 13  1  0  0  0  0
 13 14  1  0  0  0  0
 13 15  1  0  0  0  0
 13 16  1  0  0  0  0
 16 17  1  0  0  0  0
 16 18  1  0  0  0  0
 16 19  1  0  0  0  0
M  END
> <VConfSearch Rank>
803

> <Conf_Id>
42

> <Delta U+W>
-0.344

> <U+W>
-55.236

> <U>
7.244

> <W>
-62.479

> <W(PB)>
-64.610

> <W(SA)>
2.130

> <Valence>
7.174

> <Coulomb>
-0.669

> <VdW>
0.739

> <VdW6>
-5.969

> <VdW12>
6.708

> <Bond>
0.116

> <Angle>
2.481

> <Pdih>
4.576

> <Idih>
0.000

> <Tether>
0.000

$$$$
VeraChem MOL file


 19 18  0  0  0  0  0  0  0  0999 V2000     
   19.0873   17.9176   19.3981 C   0  0  0  0  0  0  0  0  0  0  0  0
   18.2768   18.6958   18.9359 O   0  5  0  0  0  0  0  0  0  0  0  0
   19.0377   16.7155   19.2287 O   0  0  0  0  0  0  0  0  0  0  0  0
   20.2183   18.4784   20.2529 C   0  0  0  0  0  0  0  0  0  0  0  0
   20.4694   19.4765   19.8741 H   0  0  0  0  0  0  0  0  0  0  0  0
   21.1015   17.8447   20.1074 H   0  0  0  0  0  0  0  0  0  0  0  0
   19.8561   18.5540   21.7568 C   0  0  0  0  0  0  0  0  0  0  0  0
   18.9598   19.1771   21.8755 H   0  0  0  0  0  0  0  0  0  0  0  0
   19.5982   17.5492   22.1187 H   0  0  0  0  0  0  0  0  0  0  0  0
   21.0187   19.1291   22.5983 C   0  0  0  0  0  0  0  0  0  0  0  0
   21.2438   20.1527   22.2687 H   0  0  0  0  0  0  0  0  0  0  0  0
   21.9238   18.5354   22.4106 H   0  0  0  0  0  0  0  0  0  0  0  0
   20.7362   19.1261   24.1185 C   0  0  0  0  0  0  0  0  0  0  0  0
   20.5161   18.1029   24.4531 H   0  0  0  0  0  0  0  0  0  0  0  0
   21.6482   19.4360   24.6471 H   0  0  0  0  0  0  0  0  0  0  0  0
   19.5814   20.0659   24.5271 C   0  0  0  0  0  0  0  0  0  0  0  0
   18.6234   19.7274   24.1131 H   0  0  0  0  0  0  0  0  0  0  0  0
   19.4791   20.0954   25.6196 H   0  0  0  0  0  0  0  0  0  0  0  0
   19.7657   21.0900   24.1772 H   0  0  0  0  0  0  0  0  0  0  0  0
  1  2  1  0  0  0  0
  1  3  2  0  0  0  0
  1  4  1  0  0  0  0
  4  5  1  0  0  0  0
  4  6  1  0  0  0  0
  4  7  1  0  0  0  0
  7  8  1  0  0  0  0
  7  9  1  0  0  0  0
  7 10  1  0  0  0  0
 10 11  1  0  0  0  0
 10 12  1  0  0  0  0
 10 13  1  0  0  0  0
 13 14  1  0  0  0  0
 13 15  1  0  0  0  0
 13 16  1  0  0  0  0
 16 17  1  0  0  0  0
 16 18  1  0  0  0  0
 16 19  1  0  0  0  0
M  END
> <VConfSearch Rank>
804

> <Conf_Id>
41

> <Delta U+W>
-0.361

> <U+W>
-55.252

> <U>
7.244

> <W>
-62.496

> <W(PB)>
-64.596

> <W(SA)>
2.099

> <Valence>
7.174

> <Coulomb>
-0.669

> <VdW>
0.739

> <VdW6>
-5.969

> <VdW12>
6.708

> <Bond>
0.116

> <Angle>
2.481

> <Pdih>
4.576

> <Idih>
0.000

> <Tether>
0.000

$$$$
VeraChem MOL file


 19 18  0  0  0  0  0  0  0  0999 V2000     
   20.2014   19.5421   19.5586 C   0  0  0  0  0  0  0  0  0  0  0  0
   19.4760   20.5098   19.4406 O   0  5  0  0  0  0  0  0  0  0  0  0
   21.3574   19.5193   19.1848 O   0  0  0  0  0  0  0  0  0  0  0  0
   19.6247   18.2781   20.1904 C   0  0  0  0  0  0  0  0  0  0  0  0
   19.9176   17.4321   19.5574 H   0  0  0  0  0  0  0  0  0  0  0  0
   18.5300   18.3367   20.1551 H   0  0  0  0  0  0  0  0  0  0  0  0
   20.1005   18.0254   21.6447 C   0  0  0  0  0  0  0  0  0  0  0  0
   19.7521   17.0347   21.9665 H   0  0  0  0  0  0  0  0  0  0  0  0
   21.1988   17.9978   21.6686 H   0  0  0  0  0  0  0  0  0  0  0  0
   19.5821   19.0935   22.6336 C   0  0  0  0  0  0  0  0  0  0  0  0
   18.4846   19.1263   22.5964 H   0  0  0  0  0  0  0  0  0  0  0  0
   19.9408   20.0862   22.3280 H   0  0  0  0  0  0  0  0  0  0  0  0
   20.0411   18.8051   24.0781 C   0  0  0  0  0  0  0  0  0  0  0  0
   19.6816   17.8149   24.3908 H   0  0  0  0  0  0  0  0  0  0  0  0
   21.1387   18.7740   24.1186 H   0  0  0  0  0  0  0  0  0  0  0  0
   19.5222   19.8723   25.0623 C   0  0  0  0  0  0  0  0  0  0  0  0
   18.4248   19.9034   25.0653 H   0  0  0  0  0  0  0  0  0  0  0  0
   19.8580   19.6523   26.0841 H   0  0  0  0  0  0  0  0  0  0  0  0
   19.8927   20.8697   24.7911 H   0  0  0  0  0  0  0  0  0  0  0  0
  1  2  1  0  0  0  0
  1  3  2  0  0  0  0
  1  4  1  0  0  0  0
  4  5  1  0  0  0  0
  4  6  1  0  0  0  0
  4  7  1  0  0  0  0
  7  8  1  0  0  0  0
  7  9  1  0  0  0  0
  7 10  1  0  0  0  0
 10 11  1  0  0  0  0
 10 12  1  0  0  0  0
 10 13  1  0  0  0  0
 13 14  1  0  0  0  0
 13 15  1  0  0  0  0
 13 16  1  0  0  0  0
 16 17  1  0  0  0  0
 16 18  1  0  0  0  0
 16 19  1  0  0  0  0
M  END
> <VConfSearch Rank>
805

> <Conf_Id>
36

> <Delta U+W>
-0.079

> <U+W>
-54.971

> <U>
8.266

> <W>
-63.237

> <W(PB)>
-65.340

> <W(SA)>
2.103

> <Valence>
6.935

> <Coulomb>
0.874

> <VdW>
0.457

> <VdW6>
-6.205

> <VdW12>
6.662

> <Bond>
0.107

> <Angle>
2.420

> <Pdih>
4.407

> <Idih>
0.001

> <Tether>
0.000

$$$$
VeraChem MOL file


 19 18  0  0  0  0  0  0  0  0999 V2000     
   21.3427   21.3265   23.4059 C   0  0  0  0  0  0  0  0  0  0  0  0
   20.4098   22.0981   23.3020 O   0  5  0  0  0  0  0  0  0  0  0  0
   22.4594   21.5626   22.9889 O   0  0  0  0  0  0  0  0  0  0  0  0
   21.1068   19.9972   24.1176 C   0  0  0  0  0  0  0  0  0  0  0  0
   20.1900   20.0770   24.7144 H   0  0  0  0  0  0  0  0  0  0  0  0
   21.9331   19.8519   24.8234 H   0  0  0  0  0  0  0  0  0  0  0  0
   21.0201   18.7771   23.1641 C   0  0  0  0  0  0  0  0  0  0  0  0
   21.9323   18.7270   22.5534 H   0  0  0  0  0  0  0  0  0  0  0  0
   20.9902   17.8575   23.7640 H   0  0  0  0  0  0  0  0  0  0  0  0
   19.7779   18.8271   22.2465 C   0  0  0  0  0  0  0  0  0  0  0  0
   19.8091   19.7364   21.6304 H   0  0  0  0  0  0  0  0  0  0  0  0
   18.8696   18.8903   22.8613 H   0  0  0  0  0  0  0  0  0  0  0  0
   19.6951   17.5892   21.3294 C   0  0  0  0  0  0  0  0  0  0  0  0
   20.6014   17.5249   20.7115 H   0  0  0  0  0  0  0  0  0  0  0  0
   19.6594   16.6766   21.9404 H   0  0  0  0  0  0  0  0  0  0  0  0
   18.4547   17.6420   20.4152 C   0  0  0  0  0  0  0  0  0  0  0  0
   18.4802   18.5300   19.7699 H   0  0  0  0  0  0  0  0  0  0  0  0
   18.4116   16.7550   19.7698 H   0  0  0  0  0  0  0  0  0  0  0  0
   17.5312   17.6753   21.0079 H   0  0  0  0  0  0  0  0  0  0  0  0
  1  2  1  0  0  0  0
  1  3  2  0  0  0  0
  1  4  1  0  0  0  0
  4  5  1  0  0  0  0
  4  6  1  0  0  0  0
  4  7  1  0  0  0  0
  7  8  1  0  0  0  0
  7  9  1  0  0  0  0
  7 10  1  0  0  0  0
 10 11  1  0  0  0  0
 10 12  1  0  0  0  0
 10 13  1  0  0  0  0
 13 14  1  0  0  0  0
 13 15  1  0  0  0  0
 13 16  1  0  0  0  0
 16 17  1  0  0  0  0
 16 18  1  0  0  0  0
 16 19  1  0  0  0  0
M  END
> <VConfSearch Rank>
806

> <Conf_Id>
35

> <Delta U+W>
-0.030

> <U+W>
-54.921

> <U>
8.267

> <W>
-63.188

> <W(PB)>
-65.294

> <W(SA)>
2.106

> <Valence>
6.935

> <Coulomb>
0.875

> <VdW>
0.457

> <VdW6>
-6.205

> <VdW12>
6.662

> <Bond>
0.107

> <Angle>
2.420

> <Pdih>
4.407

> <Idih>
0.001

> <Tether>
0.000

$$$$
VeraChem MOL file


 19 18  0  0  0  0  0  0  0  0999 V2000     
   22.0575   19.6114   24.3422 C   0  0  0  0  0  0  0  0  0  0  0  0
   21.5749   20.1935   25.2935 O   0  5  0  0  0  0  0  0  0  0  0  0
   23.0528   19.9905   23.7571 O   0  0  0  0  0  0  0  0  0  0  0  0
   21.3883   18.3226   23.8723 C   0  0  0  0  0  0  0  0  0  0  0  0
   21.1804   17.7183   24.7631 H   0  0  0  0  0  0  0  0  0  0  0  0
   22.1050   17.7565   23.2650 H   0  0  0  0  0  0  0  0  0  0  0  0
   20.0736   18.5445   23.0798 C   0  0  0  0  0  0  0  0  0  0  0  0
   19.5933   17.5704   22.9225 H   0  0  0  0  0  0  0  0  0  0  0  0
   19.3812   19.1461   23.6848 H   0  0  0  0  0  0  0  0  0  0  0  0
   20.3120   19.2334   21.7147 C   0  0  0  0  0  0  0  0  0  0  0  0
   20.9739   18.6115   21.0967 H   0  0  0  0  0  0  0  0  0  0  0  0
   20.8412   20.1824   21.8768 H   0  0  0  0  0  0  0  0  0  0  0  0
   19.0071   19.5293   20.9399 C   0  0  0  0  0  0  0  0  0  0  0  0
   18.3437   20.1530   21.5549 H   0  0  0  0  0  0  0  0  0  0  0  0
   19.2537   20.1235   20.0492 H   0  0  0  0  0  0  0  0  0  0  0  0
   18.2573   18.2552   20.4944 C   0  0  0  0  0  0  0  0  0  0  0  0
   17.8865   17.6861   21.3559 H   0  0  0  0  0  0  0  0  0  0  0  0
   17.3915   18.5174   19.8726 H   0  0  0  0  0  0  0  0  0  0  0  0
   18.9114   17.6005   19.9039 H   0  0  0  0  0  0  0  0  0  0  0  0
  1  2  1  0  0  0  0
  1  3  2  0  0  0  0
  1  4  1  0  0  0  0
  4  5  1  0  0  0  0
  4  6  1  0  0  0  0
  4  7  1  0  0  0  0
  7  8  1  0  0  0  0
  7  9  1  0  0  0  0
  7 10  1  0  0  0  0
 10 11  1  0  0  0  0
 10 12  1  0  0  0  0
 10 13  1  0  0  0  0
 13 14  1  0  0  0  0
 13 15  1  0  0  0  0
 13 16  1  0  0  0  0
 16 17  1  0  0  0  0
 16 18  1  0  0  0  0
 16 19  1  0  0  0  0
M  END
> <VConfSearch Rank>
807

> <Conf_Id>
74

> <Delta U+W>
0.797

> <U+W>
-54.095

> <U>
8.869

> <W>
-62.964

> <W(PB)>
-65.046

> <W(SA)>
2.082

> <Valence>
7.469

> <Coulomb>
0.762

> <VdW>
0.639

> <VdW6>
-6.782

> <VdW12>
7.421

> <Bond>
0.141

> <Angle>
2.667

> <Pdih>
4.660

> <Idih>
0.001

> <Tether>
0.000

$$$$
VeraChem MOL file


 19 18  0  0  0  0  0  0  0  0999 V2000     
   20.4932   16.2966   23.4817 C   0  0  0  0  0  0  0  0  0  0  0  0
   19.7037   15.4368   23.8194 O   0  5  0  0  0  0  0  0  0  0  0  0
   21.6558   16.0718   23.2096 O   0  0  0  0  0  0  0  0  0  0  0  0
   19.9922   17.7325   23.3757 C   0  0  0  0  0  0  0  0  0  0  0  0
   20.8243   18.3964   23.6365 H   0  0  0  0  0  0  0  0  0  0  0  0
   19.2101   17.8776   24.1305 H   0  0  0  0  0  0  0  0  0  0  0  0
   19.4451   18.0753   21.9658 C   0  0  0  0  0  0  0  0  0  0  0  0
   20.2466   17.9634   21.2236 H   0  0  0  0  0  0  0  0  0  0  0  0
   18.6771   17.3370   21.6968 H   0  0  0  0  0  0  0  0  0  0  0  0
   18.8227   19.4910   21.8704 C   0  0  0  0  0  0  0  0  0  0  0  0
   17.9593   19.5464   22.5473 H   0  0  0  0  0  0  0  0  0  0  0  0
   18.4229   19.6327   20.8570 H   0  0  0  0  0  0  0  0  0  0  0  0
   19.7862   20.6587   22.1958 C   0  0  0  0  0  0  0  0  0  0  0  0
   19.2320   21.6034   22.1098 H   0  0  0  0  0  0  0  0  0  0  0  0
   20.1185   20.5964   23.2405 H   0  0  0  0  0  0  0  0  0  0  0  0
   21.0139   20.7169   21.2616 C   0  0  0  0  0  0  0  0  0  0  0  0
   20.7051   20.7566   20.2090 H   0  0  0  0  0  0  0  0  0  0  0  0
   21.6150   21.6108   21.4723 H   0  0  0  0  0  0  0  0  0  0  0  0
   21.6610   19.8412   21.3986 H   0  0  0  0  0  0  0  0  0  0  0  0
  1  2  1  0  0  0  0
  1  3  2  0  0  0  0
  1  4  1  0  0  0  0
  4  5  1  0  0  0  0
  4  6  1  0  0  0  0
  4  7  1  0  0  0  0
  7  8  1  0  0  0  0
  7  9  1  0  0  0  0
  7 10  1  0  0  0  0
 10 11  1  0  0  0  0
 10 12  1  0  0  0  0
 10 13  1  0  0  0  0
 13 14  1  0  0  0  0
 13 15  1  0  0  0  0
 13 16  1  0  0  0  0
 16 17  1  0  0  0  0
 16 18  1  0  0  0  0
 16 19  1  0  0  0  0
M  END
> <VConfSearch Rank>
808

> <Conf_Id>
67

> <Delta U+W>
0.308

> <U+W>
-54.583

> <U>
8.219

> <W>
-62.802

> <W(PB)>
-64.859

> <W(SA)>
2.057

> <Valence>
7.609

> <Coulomb>
-0.089

> <VdW>
0.699

> <VdW6>
-6.924

> <VdW12>
7.623

> <Bond>
0.163

> <Angle>
2.870

> <Pdih>
4.576

> <Idih>
0.001

> <Tether>
0.000

$$$$
VeraChem MOL file


 19 18  0  0  0  0  0  0  0  0999 V2000     
   19.4681   17.6413   24.8823 C   0  0  0  0  0  0  0  0  0  0  0  0
   19.8229   17.9785   25.9945 O   0  5  0  0  0  0  0  0  0  0  0  0
   19.1658   16.5013   24.5902 O   0  0  0  0  0  0  0  0  0  0  0  0
   19.4185   18.7032   23.7895 C   0  0  0  0  0  0  0  0  0  0  0  0
   19.1552   19.6602   24.2556 H   0  0  0  0  0  0  0  0  0  0  0  0
   18.6047   18.4393   23.1045 H   0  0  0  0  0  0  0  0  0  0  0  0
   20.7572   18.8342   23.0181 C   0  0  0  0  0  0  0  0  0  0  0  0
   21.5655   19.0077   23.7418 H   0  0  0  0  0  0  0  0  0  0  0  0
   20.9913   17.8817   22.5243 H   0  0  0  0  0  0  0  0  0  0  0  0
   20.7657   19.9879   21.9839 C   0  0  0  0  0  0  0  0  0  0  0  0
   21.7596   20.0369   21.5185 H   0  0  0  0  0  0  0  0  0  0  0  0
   20.6316   20.9412   22.5133 H   0  0  0  0  0  0  0  0  0  0  0  0
   19.6960   19.8828   20.8691 C   0  0  0  0  0  0  0  0  0  0  0  0
   18.6890   19.9373   21.3034 H   0  0  0  0  0  0  0  0  0  0  0  0
   19.7901   20.7573   20.2109 H   0  0  0  0  0  0  0  0  0  0  0  0
   19.8263   18.6030   20.0156 C   0  0  0  0  0  0  0  0  0  0  0  0
   19.6247   17.7039   20.6117 H   0  0  0  0  0  0  0  0  0  0  0  0
   19.1079   18.6198   19.1859 H   0  0  0  0  0  0  0  0  0  0  0  0
   20.8341   18.5158   19.5894 H   0  0  0  0  0  0  0  0  0  0  0  0
  1  2  1  0  0  0  0
  1  3  2  0  0  0  0
  1  4  1  0  0  0  0
  4  5  1  0  0  0  0
  4  6  1  0  0  0  0
  4  7  1  0  0  0  0
  7  8  1  0  0  0  0
  7  9  1  0  0  0  0
  7 10  1  0  0  0  0
 10 11  1  0  0  0  0
 10 12  1  0  0  0  0
 10 13  1  0  0  0  0
 13 14  1  0  0  0  0
 13 15  1  0  0  0  0
 13 16  1  0  0  0  0
 16 17  1  0  0  0  0
 16 18  1  0  0  0  0
 16 19  1  0  0  0  0
M  END
> <VConfSearch Rank>
809

> <Conf_Id>
21

> <Delta U+W>
0.319

> <U+W>
-54.572

> <U>
8.220

> <W>
-62.792

> <W(PB)>
-64.830

> <W(SA)>
2.038

> <Valence>
7.609

> <Coulomb>
-0.088

> <VdW>
0.699

> <VdW6>
-6.924

> <VdW12>
7.623

> <Bond>
0.163

> <Angle>
2.870

> <Pdih>
4.576

> <Idih>
0.000

> <Tether>
0.000

$$$$
VeraChem MOL file


 19 18  0  0  0  0  0  0  0  0999 V2000     
   22.3486   17.2953   21.9386 C   0  0  0  0  0  0  0  0  0  0  0  0
   23.5259   17.5865   22.0132 O   0  5  0  0  0  0  0  0  0  0  0  0
   21.9272   16.1625   22.0628 O   0  0  0  0  0  0  0  0  0  0  0  0
   21.3440   18.4156   21.6942 C   0  0  0  0  0  0  0  0  0  0  0  0
   20.5129   18.0009   21.1152 H   0  0  0  0  0  0  0  0  0  0  0  0
   21.8269   19.1711   21.0630 H   0  0  0  0  0  0  0  0  0  0  0  0
   20.8383   19.0665   23.0088 C   0  0  0  0  0  0  0  0  0  0  0  0
   20.4064   18.3010   23.6682 H   0  0  0  0  0  0  0  0  0  0  0  0
   21.7095   19.4724   23.5414 H   0  0  0  0  0  0  0  0  0  0  0  0
   19.8205   20.2122   22.7782 C   0  0  0  0  0  0  0  0  0  0  0  0
   20.0147   20.7064   21.8164 H   0  0  0  0  0  0  0  0  0  0  0  0
   19.9893   20.9786   23.5470 H   0  0  0  0  0  0  0  0  0  0  0  0
   18.3348   19.7845   22.8662 C   0  0  0  0  0  0  0  0  0  0  0  0
   18.1287   19.3728   23.8639 H   0  0  0  0  0  0  0  0  0  0  0  0
   17.7079   20.6815   22.7687 H   0  0  0  0  0  0  0  0  0  0  0  0
   17.9055   18.7631   21.7929 C   0  0  0  0  0  0  0  0  0  0  0  0
   16.8200   18.6036   21.8277 H   0  0  0  0  0  0  0  0  0  0  0  0
   18.1638   19.1166   20.7862 H   0  0  0  0  0  0  0  0  0  0  0  0
   18.3869   17.7910   21.9570 H   0  0  0  0  0  0  0  0  0  0  0  0
  1  2  1  0  0  0  0
  1  3  2  0  0  0  0
  1  4  1  0  0  0  0
  4  5  1  0  0  0  0
  4  6  1  0  0  0  0
  4  7  1  0  0  0  0
  7  8  1  0  0  0  0
  7  9  1  0  0  0  0
  7 10  1  0  0  0  0
 10 11  1  0  0  0  0
 10 12  1  0  0  0  0
 10 13  1  0  0  0  0
 13 14  1  0  0  0  0
 13 15  1  0  0  0  0
 13 16  1  0  0  0  0
 16 17  1  0  0  0  0
 16 18  1  0  0  0  0
 16 19  1  0  0  0  0
M  END
> <VConfSearch Rank>
810

> <Conf_Id>
24

> <Delta U+W>
2.477

> <U+W>
-52.414

> <U>
10.422

> <W>
-62.836

> <W(PB)>
-64.906

> <W(SA)>
2.070

> <Valence>
9.628

> <Coulomb>
0.101

> <VdW>
0.693

> <VdW6>
-6.927

> <VdW12>
7.620

> <Bond>
0.173

> <Angle>
2.989

> <Pdih>
6.465

> <Idih>
0.001

> <Tether>
0.000

$$$$
VeraChem MOL file


 19 18  0  0  0  0  0  0  0  0999 V2000     
   21.7228   20.3979   23.6442 C   0  0  0  0  0  0  0  0  0  0  0  0
   21.5345   19.9068   24.7397 O   0  5  0  0  0  0  0  0  0  0  0  0
   22.8072   20.7941   23.2643 O   0  0  0  0  0  0  0  0  0  0  0  0
   20.5303   20.5536   22.7041 C   0  0  0  0  0  0  0  0  0  0  0  0
   20.5481   21.5827   22.3266 H   0  0  0  0  0  0  0  0  0  0  0  0
   19.6121   20.4510   23.2911 H   0  0  0  0  0  0  0  0  0  0  0  0
   20.5394   19.5664   21.5039 C   0  0  0  0  0  0  0  0  0  0  0  0
   19.7795   19.8662   20.7698 H   0  0  0  0  0  0  0  0  0  0  0  0
   21.5074   19.6623   20.9927 H   0  0  0  0  0  0  0  0  0  0  0  0
   20.3285   18.0817   21.8997 C   0  0  0  0  0  0  0  0  0  0  0  0
   20.7239   17.8918   22.9069 H   0  0  0  0  0  0  0  0  0  0  0  0
   20.9297   17.4600   21.2223 H   0  0  0  0  0  0  0  0  0  0  0  0
   18.8632   17.5900   21.8052 C   0  0  0  0  0  0  0  0  0  0  0  0
   18.5028   17.6997   20.7730 H   0  0  0  0  0  0  0  0  0  0  0  0
   18.8425   16.5137   22.0251 H   0  0  0  0  0  0  0  0  0  0  0  0
   17.8932   18.3084   22.7657 C   0  0  0  0  0  0  0  0  0  0  0  0
   17.7528   19.3568   22.4748 H   0  0  0  0  0  0  0  0  0  0  0  0
   16.9076   17.8257   22.7481 H   0  0  0  0  0  0  0  0  0  0  0  0
   18.2673   18.2790   23.7975 H   0  0  0  0  0  0  0  0  0  0  0  0
  1  2  1  0  0  0  0
  1  3  2  0  0  0  0
  1  4  1  0  0  0  0
  4  5  1  0  0  0  0
  4  6  1  0  0  0  0
  4  7  1  0  0  0  0
  7  8  1  0  0  0  0
  7  9  1  0  0  0  0
  7 10  1  0  0  0  0
 10 11  1  0  0  0  0
 10 12  1  0  0  0  0
 10 13  1  0  0  0  0
 13 14  1  0  0  0  0
 13 15  1  0  0  0  0
 13 16  1  0  0  0  0
 16 17  1  0  0  0  0
 16 18  1  0  0  0  0
 16 19  1  0  0  0  0
M  END
> <VConfSearch Rank>
811

> <Conf_Id>
4

> <Delta U+W>
3.753

> <U+W>
-51.138

> <U>
12.334

> <W>
-63.472

> <W(PB)>
-65.500

> <W(SA)>
2.028

> <Valence>
9.984

> <Coulomb>
1.767

> <VdW>
0.583

> <VdW6>
-7.767

> <VdW12>
8.349

> <Bond>
0.203

> <Angle>
3.191

> <Pdih>
6.589

> <Idih>
0.001

> <Tether>
0.000

$$$$
VeraChem MOL file


 19 18  0  0  0  0  0  0  0  0999 V2000     
   17.7394   19.2744   23.7915 C   0  0  0  0  0  0  0  0  0  0  0  0
   17.2855   18.6680   24.7419 O   0  5  0  0  0  0  0  0  0  0  0  0
   17.7361   20.4865   23.7056 O   0  0  0  0  0  0  0  0  0  0  0  0
   18.3175   18.4664   22.6324 C   0  0  0  0  0  0  0  0  0  0  0  0
   18.3855   19.1193   21.7565 H   0  0  0  0  0  0  0  0  0  0  0  0
   17.5879   17.6861   22.3863 H   0  0  0  0  0  0  0  0  0  0  0  0
   19.6892   17.8065   22.9451 C   0  0  0  0  0  0  0  0  0  0  0  0
   19.5814   17.2201   23.8682 H   0  0  0  0  0  0  0  0  0  0  0  0
   19.9429   17.0846   22.1571 H   0  0  0  0  0  0  0  0  0  0  0  0
   20.8538   18.8146   23.1268 C   0  0  0  0  0  0  0  0  0  0  0  0
   21.5317   18.4170   23.8943 H   0  0  0  0  0  0  0  0  0  0  0  0
   20.4795   19.7674   23.5255 H   0  0  0  0  0  0  0  0  0  0  0  0
   21.6933   19.0684   21.8507 C   0  0  0  0  0  0  0  0  0  0  0  0
   22.5329   19.7271   22.1120 H   0  0  0  0  0  0  0  0  0  0  0  0
   22.1387   18.1242   21.5080 H   0  0  0  0  0  0  0  0  0  0  0  0
   20.9030   19.7122   20.6929 C   0  0  0  0  0  0  0  0  0  0  0  0
   20.3848   20.6205   21.0274 H   0  0  0  0  0  0  0  0  0  0  0  0
   21.5792   19.9892   19.8738 H   0  0  0  0  0  0  0  0  0  0  0  0
   20.1596   19.0156   20.2862 H   0  0  0  0  0  0  0  0  0  0  0  0
  1  2  1  0  0  0  0
  1  3  2  0  0  0  0
  1  4  1  0  0  0  0
  4  5  1  0  0  0  0
  4  6  1  0  0  0  0
  4  7  1  0  0  0  0
  7  8  1  0  0  0  0
  7  9  1  0  0  0  0
  7 10  1  0  0  0  0
 10 11  1  0  0  0  0
 10 12  1  0  0  0  0
 10 13  1  0  0  0  0
 13 14  1  0  0  0  0
 13 15  1  0  0  0  0
 13 16  1  0  0  0  0
 16 17  1  0  0  0  0
 16 18  1  0  0  0  0
 16 19  1  0  0  0  0
M  END
> <VConfSearch Rank>
812

> <Conf_Id>
73

> <Delta U+W>
3.707

> <U+W>
-51.184

> <U>
12.334

> <W>
-63.519

> <W(PB)>
-65.541

> <W(SA)>
2.022

> <Valence>
9.984

> <Coulomb>
1.768

> <VdW>
0.583

> <VdW6>
-7.767

> <VdW12>
8.350

> <Bond>
0.203

> <Angle>
3.192

> <Pdih>
6.589

> <Idih>
0.001

> <Tether>
0.000

$$$$
VeraChem MOL file


 19 18  0  0  0  0  0  0  0  0999 V2000     
   20.0012   16.4750   21.9620 C   0  0  0  0  0  0  0  0  0  0  0  0
   21.0565   16.4946   21.3597 O   0  5  0  0  0  0  0  0  0  0  0  0
   19.6597   15.5619   22.6878 O   0  0  0  0  0  0  0  0  0  0  0  0
   19.0371   17.6431   21.7738 C   0  0  0  0  0  0  0  0  0  0  0  0
   18.0563   17.2203   21.5269 H   0  0  0  0  0  0  0  0  0  0  0  0
   19.3539   18.2232   20.8994 H   0  0  0  0  0  0  0  0  0  0  0  0
   18.9019   18.5618   23.0187 C   0  0  0  0  0  0  0  0  0  0  0  0
   18.1388   19.3262   22.8228 H   0  0  0  0  0  0  0  0  0  0  0  0
   18.5207   17.9634   23.8575 H   0  0  0  0  0  0  0  0  0  0  0  0
   20.2229   19.2448   23.4573 C   0  0  0  0  0  0  0  0  0  0  0  0
   20.9400   18.4722   23.7671 H   0  0  0  0  0  0  0  0  0  0  0  0
   20.0263   19.8502   24.3525 H   0  0  0  0  0  0  0  0  0  0  0  0
   20.8904   20.1396   22.3844 C   0  0  0  0  0  0  0  0  0  0  0  0
   21.8193   20.5517   22.8019 H   0  0  0  0  0  0  0  0  0  0  0  0
   21.1907   19.5321   21.5201 H   0  0  0  0  0  0  0  0  0  0  0  0
   19.9947   21.3072   21.9174 C   0  0  0  0  0  0  0  0  0  0  0  0
   19.1046   20.9409   21.3905 H   0  0  0  0  0  0  0  0  0  0  0  0
   19.6654   21.9150   22.7701 H   0  0  0  0  0  0  0  0  0  0  0  0
   20.5442   21.9607   21.2277 H   0  0  0  0  0  0  0  0  0  0  0  0
  1  2  1  0  0  0  0
  1  3  2  0  0  0  0
  1  4  1  0  0  0  0
  4  5  1  0  0  0  0
  4  6  1  0  0  0  0
  4  7  1  0  0  0  0
  7  8  1  0  0  0  0
  7  9  1  0  0  0  0
  7 10  1  0  0  0  0
 10 11  1  0  0  0  0
 10 12  1  0  0  0  0
 10 13  1  0  0  0  0
 13 14  1  0  0  0  0
 13 15  1  0  0  0  0
 13 16  1  0  0  0  0
 16 17  1  0  0  0  0
 16 18  1  0  0  0  0
 16 19  1  0  0  0  0
M  END
> <VConfSearch Rank>
813

> <Conf_Id>
56

> <Delta U+W>
1.735

> <U+W>
-53.156

> <U>
10.214

> <W>
-63.370

> <W(PB)>
-65.388

> <W(SA)>
2.018

> <Valence>
7.868

> <Coulomb>
1.968

> <VdW>
0.378

> <VdW6>
-8.067

> <VdW12>
8.445

> <Bond>
0.191

> <Angle>
3.117

> <Pdih>
4.559

> <Idih>
0.001

> <Tether>
0.000

$$$$
VeraChem MOL file


 19 18  0  0  0  0  0  0  0  0999 V2000     
   19.3785   17.8897   24.9624 C   0  0  0  0  0  0  0  0  0  0  0  0
   19.5430   18.5359   25.9781 O   0  5  0  0  0  0  0  0  0  0  0  0
   19.1563   16.6951   24.9545 O   0  0  0  0  0  0  0  0  0  0  0  0
   19.4778   18.6134   23.6242 C   0  0  0  0  0  0  0  0  0  0  0  0
   19.1334   19.6445   23.7673 H   0  0  0  0  0  0  0  0  0  0  0  0
   18.7827   18.1259   22.9316 H   0  0  0  0  0  0  0  0  0  0  0  0
   20.9133   18.6036   23.0410 C   0  0  0  0  0  0  0  0  0  0  0  0
   21.6080   18.9661   23.8113 H   0  0  0  0  0  0  0  0  0  0  0  0
   21.2084   17.5678   22.8240 H   0  0  0  0  0  0  0  0  0  0  0  0
   21.0928   19.4724   21.7707 C   0  0  0  0  0  0  0  0  0  0  0  0
   22.1532   19.4273   21.4871 H   0  0  0  0  0  0  0  0  0  0  0  0
   20.8907   20.5270   22.0031 H   0  0  0  0  0  0  0  0  0  0  0  0
   20.2489   19.0202   20.5531 C   0  0  0  0  0  0  0  0  0  0  0  0
   20.8335   19.1913   19.6386 H   0  0  0  0  0  0  0  0  0  0  0  0
   20.0630   17.9382   20.5986 H   0  0  0  0  0  0  0  0  0  0  0  0
   18.9153   19.7880   20.4163 C   0  0  0  0  0  0  0  0  0  0  0  0
   18.3641   19.4443   19.5314 H   0  0  0  0  0  0  0  0  0  0  0  0
   18.2688   19.6439   21.2892 H   0  0  0  0  0  0  0  0  0  0  0  0
   19.0950   20.8649   20.3019 H   0  0  0  0  0  0  0  0  0  0  0  0
  1  2  1  0  0  0  0
  1  3  2  0  0  0  0
  1  4  1  0  0  0  0
  4  5  1  0  0  0  0
  4  6  1  0  0  0  0
  4  7  1  0  0  0  0
  7  8  1  0  0  0  0
  7  9  1  0  0  0  0
  7 10  1  0  0  0  0
 10 11  1  0  0  0  0
 10 12  1  0  0  0  0
 10 13  1  0  0  0  0
 13 14  1  0  0  0  0
 13 15  1  0  0  0  0
 13 16  1  0  0  0  0
 16 17  1  0  0  0  0
 16 18  1  0  0  0  0
 16 19  1  0  0  0  0
M  END
> <VConfSearch Rank>
814

> <Conf_Id>
53

> <Delta U+W>
2.279

> <U+W>
-52.612

> <U>
10.231

> <W>
-62.843

> <W(PB)>
-64.893

> <W(SA)>
2.050

> <Valence>
9.644

> <Coulomb>
-0.164

> <VdW>
0.751

> <VdW6>
-6.881

> <VdW12>
7.631

> <Bond>
0.163

> <Angle>
2.998

> <Pdih>
6.482

> <Idih>
0.001

> <Tether>
0.000

$$$$
VeraChem MOL file


 19 18  0  0  0  0  0  0  0  0999 V2000     
   21.9997   19.8529   23.7609 C   0  0  0  0  0  0  0  0  0  0  0  0
   22.2808   20.8568   23.1364 O   0  5  0  0  0  0  0  0  0  0  0  0
   22.7983   18.9692   24.0029 O   0  0  0  0  0  0  0  0  0  0  0  0
   20.5874   19.7305   24.3301 C   0  0  0  0  0  0  0  0  0  0  0  0
   20.0179   20.6306   24.0683 H   0  0  0  0  0  0  0  0  0  0  0  0
   20.6934   19.7331   25.4211 H   0  0  0  0  0  0  0  0  0  0  0  0
   19.8068   18.4562   23.9013 C   0  0  0  0  0  0  0  0  0  0  0  0
   20.4599   17.5752   23.9718 H   0  0  0  0  0  0  0  0  0  0  0  0
   18.9998   18.2927   24.6283 H   0  0  0  0  0  0  0  0  0  0  0  0
   19.1651   18.5303   22.4937 C   0  0  0  0  0  0  0  0  0  0  0  0
   18.5082   19.4087   22.4324 H   0  0  0  0  0  0  0  0  0  0  0  0
   18.5180   17.6517   22.3661 H   0  0  0  0  0  0  0  0  0  0  0  0
   20.1873   18.5649   21.3364 C   0  0  0  0  0  0  0  0  0  0  0  0
   20.7586   19.5015   21.3662 H   0  0  0  0  0  0  0  0  0  0  0  0
   20.9088   17.7442   21.4520 H   0  0  0  0  0  0  0  0  0  0  0  0
   19.4926   18.4494   19.9646 C   0  0  0  0  0  0  0  0  0  0  0  0
   18.7839   19.2741   19.8133 H   0  0  0  0  0  0  0  0  0  0  0  0
   20.2314   18.4842   19.1534 H   0  0  0  0  0  0  0  0  0  0  0  0
   18.9418   17.5034   19.8807 H   0  0  0  0  0  0  0  0  0  0  0  0
  1  2  1  0  0  0  0
  1  3  2  0  0  0  0
  1  4  1  0  0  0  0
  4  5  1  0  0  0  0
  4  6  1  0  0  0  0
  4  7  1  0  0  0  0
  7  8  1  0  0  0  0
  7  9  1  0  0  0  0
  7 10  1  0  0  0  0
 10 11  1  0  0  0  0
 10 12  1  0  0  0  0
 10 13  1  0  0  0  0
 13 14  1  0  0  0  0
 13 15  1  0  0  0  0
 13 16  1  0  0  0  0
 16 17  1  0  0  0  0
 16 18  1  0  0  0  0
 16 19  1  0  0  0  0
M  END
> <VConfSearch Rank>
815

> <Conf_Id>
25

> <Delta U+W>
2.065

> <U+W>
-52.826

> <U>
10.967

> <W>
-63.794

> <W(PB)>
-65.830

> <W(SA)>
2.036

> <Valence>
8.609

> <Coulomb>
1.892

> <VdW>
0.467

> <VdW6>
-7.569

> <VdW12>
8.036

> <Bond>
0.170

> <Angle>
3.195

> <Pdih>
5.237

> <Idih>
0.007

> <Tether>
0.000

$$$$
VeraChem MOL file


 19 18  0  0  0  0  0  0  0  0999 V2000     
   18.7624   17.1827   21.3843 C   0  0  0  0  0  0  0  0  0  0  0  0
   18.3648   17.6503   20.3352 O   0  5  0  0  0  0  0  0  0  0  0  0
   18.0229   16.7847   22.2628 O   0  0  0  0  0  0  0  0  0  0  0  0
   20.2684   17.0211   21.5822 C   0  0  0  0  0  0  0  0  0  0  0  0
   20.6072   16.3197   20.8109 H   0  0  0  0  0  0  0  0  0  0  0  0
   20.4513   16.5364   22.5489 H   0  0  0  0  0  0  0  0  0  0  0  0
   21.0971   18.3320   21.4721 C   0  0  0  0  0  0  0  0  0  0  0  0
   22.1398   18.0570   21.2633 H   0  0  0  0  0  0  0  0  0  0  0  0
   20.7595   18.9169   20.6053 H   0  0  0  0  0  0  0  0  0  0  0  0
   21.0883   19.2148   22.7446 C   0  0  0  0  0  0  0  0  0  0  0  0
   21.8228   20.0202   22.6072 H   0  0  0  0  0  0  0  0  0  0  0  0
   21.4336   18.6261   23.6056 H   0  0  0  0  0  0  0  0  0  0  0  0
   19.7153   19.8457   23.0643 C   0  0  0  0  0  0  0  0  0  0  0  0
   19.3205   20.3506   22.1717 H   0  0  0  0  0  0  0  0  0  0  0  0
   18.9951   19.0633   23.3356 H   0  0  0  0  0  0  0  0  0  0  0  0
   19.8135   20.8557   24.2253 C   0  0  0  0  0  0  0  0  0  0  0  0
   18.8288   21.2882   24.4453 H   0  0  0  0  0  0  0  0  0  0  0  0
   20.1819   20.3694   25.1380 H   0  0  0  0  0  0  0  0  0  0  0  0
   20.4963   21.6782   23.9748 H   0  0  0  0  0  0  0  0  0  0  0  0
  1  2  1  0  0  0  0
  1  3  2  0  0  0  0
  1  4  1  0  0  0  0
  4  5  1  0  0  0  0
  4  6  1  0  0  0  0
  4  7  1  0  0  0  0
  7  8  1  0  0  0  0
  7  9  1  0  0  0  0
  7 10  1  0  0  0  0
 10 11  1  0  0  0  0
 10 12  1  0  0  0  0
 10 13  1  0  0  0  0
 13 14  1  0  0  0  0
 13 15  1  0  0  0  0
 13 16  1  0  0  0  0
 16 17  1  0  0  0  0
 16 18  1  0  0  0  0
 16 19  1  0  0  0  0
M  END
> <VConfSearch Rank>
816

> <Conf_Id>
52

> <Delta U+W>
2.070

> <U+W>
-52.822

> <U>
10.967

> <W>
-63.789

> <W(PB)>
-65.837

> <W(SA)>
2.048

> <Valence>
8.609

> <Coulomb>
1.892

> <VdW>
0.467

> <VdW6>
-7.569

> <VdW12>
8.035

> <Bond>
0.170

> <Angle>
3.196

> <Pdih>
5.237

> <Idih>
0.007

> <Tether>
0.000

$$$$
VeraChem MOL file


 19 18  0  0  0  0  0  0  0  0999 V2000     
   20.1781   17.3362   24.0578 C   0  0  0  0  0  0  0  0  0  0  0  0
   21.3143   16.9289   23.9120 O   0  5  0  0  0  0  0  0  0  0  0  0
   19.7337   17.6981   25.1293 O   0  0  0  0  0  0  0  0  0  0  0  0
   19.2178   17.2746   22.8689 C   0  0  0  0  0  0  0  0  0  0  0  0
   18.2975   17.8135   23.1245 H   0  0  0  0  0  0  0  0  0  0  0  0
   18.9411   16.2199   22.7577 H   0  0  0  0  0  0  0  0  0  0  0  0
   19.7840   17.7903   21.5151 C   0  0  0  0  0  0  0  0  0  0  0  0
   20.8223   17.4535   21.3896 H   0  0  0  0  0  0  0  0  0  0  0  0
   19.2160   17.3098   20.7072 H   0  0  0  0  0  0  0  0  0  0  0  0
   19.6963   19.3228   21.2983 C   0  0  0  0  0  0  0  0  0  0  0  0
   18.6465   19.6459   21.3236 H   0  0  0  0  0  0  0  0  0  0  0  0
   20.0452   19.5315   20.2776 H   0  0  0  0  0  0  0  0  0  0  0  0
   20.5439   20.1716   22.2765 C   0  0  0  0  0  0  0  0  0  0  0  0
   21.3599   19.5696   22.6998 H   0  0  0  0  0  0  0  0  0  0  0  0
   21.0254   20.9843   21.7153 H   0  0  0  0  0  0  0  0  0  0  0  0
   19.7007   20.8020   23.4055 C   0  0  0  0  0  0  0  0  0  0  0  0
   18.9451   21.4845   22.9952 H   0  0  0  0  0  0  0  0  0  0  0  0
   19.1815   20.0369   23.9944 H   0  0  0  0  0  0  0  0  0  0  0  0
   20.3394   21.3764   24.0886 H   0  0  0  0  0  0  0  0  0  0  0  0
  1  2  1  0  0  0  0
  1  3  2  0  0  0  0
  1  4  1  0  0  0  0
  4  5  1  0  0  0  0
  4  6  1  0  0  0  0
  4  7  1  0  0  0  0
  7  8  1  0  0  0  0
  7  9  1  0  0  0  0
  7 10  1  0  0  0  0
 10 11  1  0  0  0  0
 10 12  1  0  0  0  0
 10 13  1  0  0  0  0
 13 14  1  0  0  0  0
 13 15  1  0  0  0  0
 13 16  1  0  0  0  0
 16 17  1  0  0  0  0
 16 18  1  0  0  0  0
 16 19  1  0  0  0  0
M  END
> <VConfSearch Rank>
817

> <Conf_Id>
66

> <Delta U+W>
5.819

> <U+W>
-49.072

> <U>
15.324

> <W>
-64.396

> <W(PB)>
-66.382

> <W(SA)>
1.986

> <Valence>
11.748

> <Coulomb>
3.201

> <VdW>
0.375

> <VdW6>
-8.854

> <VdW12>
9.229

> <Bond>
0.216

> <Angle>
3.812

> <Pdih>
7.699

> <Idih>
0.022

> <Tether>
0.000

$$$$
VeraChem MOL file


 19 18  0  0  0  0  0  0  0  0999 V2000     
   18.9688   19.3891   25.3615 C   0  0  0  0  0  0  0  0  0  0  0  0
   19.4006   19.6981   26.4541 O   0  5  0  0  0  0  0  0  0  0  0  0
   17.7989   19.1263   25.1605 O   0  0  0  0  0  0  0  0  0  0  0  0
   19.9685   19.3368   24.2049 C   0  0  0  0  0  0  0  0  0  0  0  0
   20.7568   18.6284   24.4856 H   0  0  0  0  0  0  0  0  0  0  0  0
   20.4367   20.3255   24.1323 H   0  0  0  0  0  0  0  0  0  0  0  0
   19.3708   18.9378   22.8295 C   0  0  0  0  0  0  0  0  0  0  0  0
   18.8982   17.9491   22.9105 H   0  0  0  0  0  0  0  0  0  0  0  0
   18.5778   19.6480   22.5568 H   0  0  0  0  0  0  0  0  0  0  0  0
   20.4466   18.9102   21.7222 C   0  0  0  0  0  0  0  0  0  0  0  0
   21.2384   18.1997   21.9968 H   0  0  0  0  0  0  0  0  0  0  0  0
   20.9178   19.8995   21.6429 H   0  0  0  0  0  0  0  0  0  0  0  0
   19.8503   18.5132   20.3557 C   0  0  0  0  0  0  0  0  0  0  0  0
   19.3796   17.5231   20.4303 H   0  0  0  0  0  0  0  0  0  0  0  0
   19.0591   19.2228   20.0764 H   0  0  0  0  0  0  0  0  0  0  0  0
   20.9272   18.4866   19.2526 C   0  0  0  0  0  0  0  0  0  0  0  0
   21.7161   17.7612   19.4913 H   0  0  0  0  0  0  0  0  0  0  0  0
   20.4861   18.2026   18.2883 H   0  0  0  0  0  0  0  0  0  0  0  0
   21.3932   19.4737   19.1347 H   0  0  0  0  0  0  0  0  0  0  0  0
  1  2  1  0  0  0  0
  1  3  2  0  0  0  0
  1  4  1  0  0  0  0
  4  5  1  0  0  0  0
  4  6  1  0  0  0  0
  4  7  1  0  0  0  0
  7  8  1  0  0  0  0
  7  9  1  0  0  0  0
  7 10  1  0  0  0  0
 10 11  1  0  0  0  0
 10 12  1  0  0  0  0
 10 13  1  0  0  0  0
 13 14  1  0  0  0  0
 13 15  1  0  0  0  0
 13 16  1  0  0  0  0
 16 17  1  0  0  0  0
 16 18  1  0  0  0  0
 16 19  1  0  0  0  0
M  END
> <VConfSearch Rank>
818

> <Conf_Id>
0

> <Delta U+W>
0.000

> <U+W>
-54.891

> <U>
6.966

> <W>
-61.857

> <W(PB)>
-63.965

> <W(SA)>
2.108

> <Valence>
7.175

> <Coulomb>
-1.360

> <VdW>
1.151

> <VdW6>
-5.641

> <VdW12>
6.792

> <Bond>
0.119

> <Angle>
2.715

> <Pdih>
4.340

> <Idih>
0.000

> <Tether>
0.000

$$$$
VeraChem MOL file


 19 18  0  0  0  0  0  0  0  0999 V2000     
   18.8623   21.2494   24.3779 C   0  0  0  0  0  0  0  0  0  0  0  0
   17.6559   21.3690   24.4594 O   0  5  0  0  0  0  0  0  0  0  0  0
   19.6225   21.4552   25.3030 O   0  0  0  0  0  0  0  0  0  0  0  0
   19.4529   20.7964   23.0474 C   0  0  0  0  0  0  0  0  0  0  0  0
   20.4408   21.2598   22.9375 H   0  0  0  0  0  0  0  0  0  0  0  0
   18.8197   21.1884   22.2423 H   0  0  0  0  0  0  0  0  0  0  0  0
   19.5696   19.2564   22.9336 C   0  0  0  0  0  0  0  0  0  0  0  0
   20.1958   18.8784   23.7536 H   0  0  0  0  0  0  0  0  0  0  0  0
   18.5746   18.8069   23.0585 H   0  0  0  0  0  0  0  0  0  0  0  0
   20.1697   18.8242   21.5784 C   0  0  0  0  0  0  0  0  0  0  0  0
   21.1636   19.2762   21.4559 H   0  0  0  0  0  0  0  0  0  0  0  0
   19.5422   19.2046   20.7606 H   0  0  0  0  0  0  0  0  0  0  0  0
   20.2849   17.2896   21.4678 C   0  0  0  0  0  0  0  0  0  0  0  0
   20.9135   16.9054   22.2831 H   0  0  0  0  0  0  0  0  0  0  0  0
   19.2922   16.8338   21.5878 H   0  0  0  0  0  0  0  0  0  0  0  0
   20.8845   16.8616   20.1135 C   0  0  0  0  0  0  0  0  0  0  0  0
   20.9592   15.7681   20.0518 H   0  0  0  0  0  0  0  0  0  0  0  0
   20.2582   17.2060   19.2801 H   0  0  0  0  0  0  0  0  0  0  0  0
   21.8916   17.2782   19.9806 H   0  0  0  0  0  0  0  0  0  0  0  0
  1  2  1  0  0  0  0
  1  3  2  0  0  0  0
  1  4  1  0  0  0  0
  4  5  1  0  0  0  0
  4  6  1  0  0  0  0
  4  7  1  0  0  0  0
  7  8  1  0  0  0  0
  7  9  1  0  0  0  0
  7 10  1  0  0  0  0
 10 11  1  0  0  0  0
 10 12  1  0  0  0  0
 10 13  1  0  0  0  0
 13 14  1  0  0  0  0
 13 15  1  0  0  0  0
 13 16  1  0  0  0  0
 16 17  1  0  0  0  0
 16 18  1  0  0  0  0
 16 19  1  0  0  0  0
M  END
> <VConfSearch Rank>
819

> <Conf_Id>
18

> <Delta U+W>
-1.199

> <U+W>
-56.090

> <U>
5.975

> <W>
-62.066

> <W(PB)>
-64.219

> <W(SA)>
2.153

> <Valence>
6.673

> <Coulomb>
-1.307

> <VdW>
0.610

> <VdW6>
-5.351

> <VdW12>
5.961

> <Bond>
0.086

> <Angle>
2.253

> <Pdih>
4.333

> <Idih>
0.001

> <Tether>
0.000

$$$$
VeraChem MOL file


 19 18  0  0  0  0  0  0  0  0999 V2000     
   19.6237   19.9113   25.2201 C   0  0  0  0  0  0  0  0  0  0  0  0
   19.2730   21.0341   25.5242 O   0  5  0  0  0  0  0  0  0  0  0  0
   19.5697   18.9620   25.9766 O   0  0  0  0  0  0  0  0  0  0  0  0
   20.1399   19.6765   23.8049 C   0  0  0  0  0  0  0  0  0  0  0  0
   20.8999   18.8885   23.8537 H   0  0  0  0  0  0  0  0  0  0  0  0
   20.6412   20.5922   23.4692 H   0  0  0  0  0  0  0  0  0  0  0  0
   19.0135   19.2888   22.8118 C   0  0  0  0  0  0  0  0  0  0  0  0
   18.5483   18.3469   23.1341 H   0  0  0  0  0  0  0  0  0  0  0  0
   18.2263   20.0542   22.8555 H   0  0  0  0  0  0  0  0  0  0  0  0
   19.4978   19.1589   21.3482 C   0  0  0  0  0  0  0  0  0  0  0  0
   19.9546   20.1048   21.0264 H   0  0  0  0  0  0  0  0  0  0  0  0
   18.6220   19.0018   20.7038 H   0  0  0  0  0  0  0  0  0  0  0  0
   20.4950   17.9987   21.1317 C   0  0  0  0  0  0  0  0  0  0  0  0
   21.4118   18.1745   21.7096 H   0  0  0  0  0  0  0  0  0  0  0  0
   20.0579   17.0605   21.5005 H   0  0  0  0  0  0  0  0  0  0  0  0
   20.8637   17.8411   19.6429 C   0  0  0  0  0  0  0  0  0  0  0  0
   21.5743   17.0157   19.5058 H   0  0  0  0  0  0  0  0  0  0  0  0
   19.9732   17.6254   19.0379 H   0  0  0  0  0  0  0  0  0  0  0  0
   21.3286   18.7568   19.2547 H   0  0  0  0  0  0  0  0  0  0  0  0
  1  2  1  0  0  0  0
  1  3  2  0  0  0  0
  1  4  1  0  0  0  0
  4  5  1  0  0  0  0
  4  6  1  0  0  0  0
  4  7  1  0  0  0  0
  7  8  1  0  0  0  0
  7  9  1  0  0  0  0
  7 10  1  0  0  0  0
 10 11  1  0  0  0  0
 10 12  1  0  0  0  0
 10 13  1  0  0  0  0
 13 14  1  0  0  0  0
 13 15  1  0  0  0  0
 13 16  1  0  0  0  0
 16 17  1  0  0  0  0
 16 18  1  0  0  0  0
 16 19  1  0  0  0  0
M  END
> <VConfSearch Rank>
820

> <Conf_Id>
34

> <Delta U+W>
-0.563

> <U+W>
-55.455

> <U>
6.914

> <W>
-62.369

> <W(PB)>
-64.446

> <W(SA)>
2.077

> <Valence>
7.196

> <Coulomb>
-1.020

> <VdW>
0.738

> <VdW6>
-6.010

> <VdW12>
6.748

> <Bond>
0.126

> <Angle>
2.499

> <Pdih>
4.570

> <Idih>
0.001

> <Tether>
0.000

$$$$
VeraChem MOL file


 19 18  0  0  0  0  0  0  0  0999 V2000     
   20.6449   21.5145   23.9604 C   0  0  0  0  0  0  0  0  0  0  0  0
   21.4521   21.5178   24.8685 O   0  5  0  0  0  0  0  0  0  0  0  0
   19.7851   22.3617   23.8221 O   0  0  0  0  0  0  0  0  0  0  0  0
   20.7002   20.3725   22.9518 C   0  0  0  0  0  0  0  0  0  0  0  0
   21.7461   20.0592   22.8496 H   0  0  0  0  0  0  0  0  0  0  0  0
   20.3831   20.7697   21.9810 H   0  0  0  0  0  0  0  0  0  0  0  0
   19.8181   19.1652   23.3632 C   0  0  0  0  0  0  0  0  0  0  0  0
   20.1017   18.8508   24.3771 H   0  0  0  0  0  0  0  0  0  0  0  0
   18.7671   19.4808   23.4190 H   0  0  0  0  0  0  0  0  0  0  0  0
   19.9499   17.9515   22.4129 C   0  0  0  0  0  0  0  0  0  0  0  0
   19.3891   17.1100   22.8423 H   0  0  0  0  0  0  0  0  0  0  0  0
   21.0004   17.6331   22.3659 H   0  0  0  0  0  0  0  0  0  0  0  0
   19.4253   18.2284   20.9862 C   0  0  0  0  0  0  0  0  0  0  0  0
   18.3909   18.5956   21.0363 H   0  0  0  0  0  0  0  0  0  0  0  0
   20.0228   19.0164   20.5093 H   0  0  0  0  0  0  0  0  0  0  0  0
   19.4765   16.9610   20.1096 C   0  0  0  0  0  0  0  0  0  0  0  0
   20.5049   16.5873   20.0197 H   0  0  0  0  0  0  0  0  0  0  0  0
   18.8572   16.1617   20.5373 H   0  0  0  0  0  0  0  0  0  0  0  0
   19.1038   17.1743   19.0993 H   0  0  0  0  0  0  0  0  0  0  0  0
  1  2  1  0  0  0  0
  1  3  2  0  0  0  0
  1  4  1  0  0  0  0
  4  5  1  0  0  0  0
  4  6  1  0  0  0  0
  4  7  1  0  0  0  0
  7  8  1  0  0  0  0
  7  9  1  0  0  0  0
  7 10  1  0  0  0  0
 10 11  1  0  0  0  0
 10 12  1  0  0  0  0
 10 13  1  0  0  0  0
 13 14  1  0  0  0  0
 13 15  1  0  0  0  0
 13 16  1  0  0  0  0
 16 17  1  0  0  0  0
 16 18  1  0  0  0  0
 16 19  1  0  0  0  0
M  END
> <VConfSearch Rank>
821

> <Conf_Id>
33

> <Delta U+W>
-0.526

> <U+W>
-55.418

> <U>
6.914

> <W>
-62.332

> <W(PB)>
-64.421

> <W(SA)>
2.090

> <Valence>
7.196

> <Coulomb>
-1.020

> <VdW>
0.738

> <VdW6>
-6.010

> <VdW12>
6.748

> <Bond>
0.126

> <Angle>
2.499

> <Pdih>
4.570

> <Idih>
0.001

> <Tether>
0.000

$$$$
VeraChem MOL file


 19 18  0  0  0  0  0  0  0  0999 V2000     
   19.3442   15.8362   22.3071 C   0  0  0  0  0  0  0  0  0  0  0  0
   20.3654   15.2289   22.0530 O   0  5  0  0  0  0  0  0  0  0  0  0
   18.5038   15.4408   23.0904 O   0  0  0  0  0  0  0  0  0  0  0  0
   19.1128   17.1766   21.6184 C   0  0  0  0  0  0  0  0  0  0  0  0
   18.0332   17.3025   21.4722 H   0  0  0  0  0  0  0  0  0  0  0  0
   19.5717   17.1325   20.6233 H   0  0  0  0  0  0  0  0  0  0  0  0
   19.6873   18.3718   22.4183 C   0  0  0  0  0  0  0  0  0  0  0  0
   19.2254   18.3968   23.4149 H   0  0  0  0  0  0  0  0  0  0  0  0
   20.7637   18.2147   22.5680 H   0  0  0  0  0  0  0  0  0  0  0  0
   19.4417   19.7165   21.6957 C   0  0  0  0  0  0  0  0  0  0  0  0
   18.3674   19.8216   21.4915 H   0  0  0  0  0  0  0  0  0  0  0  0
   19.9451   19.7097   20.7192 H   0  0  0  0  0  0  0  0  0  0  0  0
   19.9091   20.9451   22.5097 C   0  0  0  0  0  0  0  0  0  0  0  0
   19.5936   21.8570   21.9841 H   0  0  0  0  0  0  0  0  0  0  0  0
   19.4034   20.9585   23.4851 H   0  0  0  0  0  0  0  0  0  0  0  0
   21.4383   20.9950   22.7167 C   0  0  0  0  0  0  0  0  0  0  0  0
   21.9665   20.9532   21.7552 H   0  0  0  0  0  0  0  0  0  0  0  0
   21.7271   21.9265   23.2206 H   0  0  0  0  0  0  0  0  0  0  0  0
   21.7862   20.1601   23.3377 H   0  0  0  0  0  0  0  0  0  0  0  0
  1  2  1  0  0  0  0
  1  3  2  0  0  0  0
  1  4  1  0  0  0  0
  4  5  1  0  0  0  0
  4  6  1  0  0  0  0
  4  7  1  0  0  0  0
  7  8  1  0  0  0  0
  7  9  1  0  0  0  0
  7 10  1  0  0  0  0
 10 11  1  0  0  0  0
 10 12  1  0  0  0  0
 10 13  1  0  0  0  0
 13 14  1  0  0  0  0
 13 15  1  0  0  0  0
 13 16  1  0  0  0  0
 16 17  1  0  0  0  0
 16 18  1  0  0  0  0
 16 19  1  0  0  0  0
M  END
> <VConfSearch Rank>
822

> <Conf_Id>
42

> <Delta U+W>
-0.344

> <U+W>
-55.236

> <U>
7.244

> <W>
-62.479

> <W(PB)>
-64.610

> <W(SA)>
2.130

> <Valence>
7.174

> <Coulomb>
-0.669

> <VdW>
0.739

> <VdW6>
-5.969

> <VdW12>
6.708

> <Bond>
0.116

> <Angle>
2.481

> <Pdih>
4.576

> <Idih>
0.000

> <Tether>
0.000

$$$$
VeraChem MOL file


 19 18  0  0  0  0  0  0  0  0999 V2000     
   23.0097   20.0777   22.4638 C   0  0  0  0  0  0  0  0  0  0  0  0
   22.9742   21.2671   22.7095 O   0  5  0  0  0  0  0  0  0  0  0  0
   23.8594   19.5602   21.7665 O   0  0  0  0  0  0  0  0  0  0  0  0
   21.9175   19.1886   23.0478 C   0  0  0  0  0  0  0  0  0  0  0  0
   21.6161   19.6090   24.0148 H   0  0  0  0  0  0  0  0  0  0  0  0
   22.3515   18.2009   23.2448 H   0  0  0  0  0  0  0  0  0  0  0  0
   20.6870   19.0561   22.1168 C   0  0  0  0  0  0  0  0  0  0  0  0
   20.2816   20.0572   21.9190 H   0  0  0  0  0  0  0  0  0  0  0  0
   21.0063   18.6428   21.1501 H   0  0  0  0  0  0  0  0  0  0  0  0
   19.5949   18.1529   22.7350 C   0  0  0  0  0  0  0  0  0  0  0  0
   19.2407   18.5921   23.6777 H   0  0  0  0  0  0  0  0  0  0  0  0
   20.0379   17.1808   22.9915 H   0  0  0  0  0  0  0  0  0  0  0  0
   18.3926   17.9113   21.7934 C   0  0  0  0  0  0  0  0  0  0  0  0
   18.7423   17.4667   20.8513 H   0  0  0  0  0  0  0  0  0  0  0  0
   17.7251   17.1716   22.2566 H   0  0  0  0  0  0  0  0  0  0  0  0
   17.5837   19.1920   21.4945 C   0  0  0  0  0  0  0  0  0  0  0  0
   18.1789   19.9189   20.9279 H   0  0  0  0  0  0  0  0  0  0  0  0
   16.6943   18.9533   20.8970 H   0  0  0  0  0  0  0  0  0  0  0  0
   17.2480   19.6705   22.4238 H   0  0  0  0  0  0  0  0  0  0  0  0
  1  2  1  0  0  0  0
  1  3  2  0  0  0  0
  1  4  1  0  0  0  0
  4  5  1  0  0  0  0
  4  6  1  0  0  0  0
  4  7  1  0  0  0  0
  7  8  1  0  0  0  0
  7  9  1  0  0  0  0
  7 10  1  0  0  0  0
 10 11  1  0  0  0  0
 10 12  1  0  0  0  0
 10 13  1  0  0  0  0
 13 14  1  0  0  0  0
 13 15  1  0  0  0  0
 13 16  1  0  0  0  0
 16 17  1  0  0  0  0
 16 18  1  0  0  0  0
 16 19  1  0  0  0  0
M  END
> <VConfSearch Rank>
823

> <Conf_Id>
41

> <Delta U+W>
-0.361

> <U+W>
-55.252

> <U>
7.244

> <W>
-62.496

> <W(PB)>
-64.596

> <W(SA)>
2.099

> <Valence>
7.174

> <Coulomb>
-0.669

> <VdW>
0.739

> <VdW6>
-5.969

> <VdW12>
6.708

> <Bond>
0.116

> <Angle>
2.481

> <Pdih>
4.576

> <Idih>
0.000

> <Tether>
0.000

$$$$
VeraChem MOL file


 19 18  0  0  0  0  0  0  0  0999 V2000     
   22.5946   19.6337   21.9899 C   0  0  0  0  0  0  0  0  0  0  0  0
   23.0847   18.9431   22.8613 O   0  5  0  0  0  0  0  0  0  0  0  0
   22.9759   19.6304   20.8360 O   0  0  0  0  0  0  0  0  0  0  0  0
   21.4527   20.5733   22.3674 C   0  0  0  0  0  0  0  0  0  0  0  0
   21.6714   21.5508   21.9216 H   0  0  0  0  0  0  0  0  0  0  0  0
   21.4583   20.7123   23.4553 H   0  0  0  0  0  0  0  0  0  0  0  0
   20.0561   20.0907   21.8967 C   0  0  0  0  0  0  0  0  0  0  0  0
   19.3221   20.8857   22.0857 H   0  0  0  0  0  0  0  0  0  0  0  0
   20.0742   19.9286   20.8100 H   0  0  0  0  0  0  0  0  0  0  0  0
   19.6021   18.7981   22.6112 C   0  0  0  0  0  0  0  0  0  0  0  0
   19.5981   18.9612   23.6977 H   0  0  0  0  0  0  0  0  0  0  0  0
   20.3228   17.9927   22.4129 H   0  0  0  0  0  0  0  0  0  0  0  0
   18.1979   18.3541   22.1510 C   0  0  0  0  0  0  0  0  0  0  0  0
   17.4718   19.1543   22.3508 H   0  0  0  0  0  0  0  0  0  0  0  0
   18.1996   18.1879   21.0648 H   0  0  0  0  0  0  0  0  0  0  0  0
   17.7478   17.0643   22.8657 C   0  0  0  0  0  0  0  0  0  0  0  0
   17.7069   17.2116   23.9529 H   0  0  0  0  0  0  0  0  0  0  0  0
   16.7482   16.7628   22.5266 H   0  0  0  0  0  0  0  0  0  0  0  0
   18.4401   16.2380   22.6575 H   0  0  0  0  0  0  0  0  0  0  0  0
  1  2  1  0  0  0  0
  1  3  2  0  0  0  0
  1  4  1  0  0  0  0
  4  5  1  0  0  0  0
  4  6  1  0  0  0  0
  4  7  1  0  0  0  0
  7  8  1  0  0  0  0
  7  9  1  0  0  0  0
  7 10  1  0  0  0  0
 10 11  1  0  0  0  0
 10 12  1  0  0  0  0
 10 13  1  0  0  0  0
 13 14  1  0  0  0  0
 13 15  1  0  0  0  0
 13 16  1  0  0  0  0
 16 17  1  0  0  0  0
 16 18  1  0  0  0  0
 16 19  1  0  0  0  0
M  END
> <VConfSearch Rank>
824

> <Conf_Id>
36

> <Delta U+W>
-0.079

> <U+W>
-54.971

> <U>
8.266

> <W>
-63.237

> <W(PB)>
-65.340

> <W(SA)>
2.103

> <Valence>
6.935

> <Coulomb>
0.874

> <VdW>
0.457

> <VdW6>
-6.205

> <VdW12>
6.662

> <Bond>
0.107

> <Angle>
2.420

> <Pdih>
4.407

> <Idih>
0.001

> <Tether>
0.000

$$$$
VeraChem MOL file


 19 18  0  0  0  0  0  0  0  0999 V2000     
   20.8804   20.8876   24.3223 C   0  0  0  0  0  0  0  0  0  0  0  0
   22.0844   20.7240   24.3348 O   0  5  0  0  0  0  0  0  0  0  0  0
   20.1912   20.8814   25.3230 O   0  0  0  0  0  0  0  0  0  0  0  0
   20.1976   21.1360   22.9801 C   0  0  0  0  0  0  0  0  0  0  0  0
   20.9573   21.4463   22.2525 H   0  0  0  0  0  0  0  0  0  0  0  0
   19.5174   21.9859   23.1106 H   0  0  0  0  0  0  0  0  0  0  0  0
   19.4052   19.9173   22.4397 C   0  0  0  0  0  0  0  0  0  0  0  0
   18.6682   19.6004   23.1906 H   0  0  0  0  0  0  0  0  0  0  0  0
   18.8385   20.2265   21.5510 H   0  0  0  0  0  0  0  0  0  0  0  0
   20.3213   18.7288   22.0713 C   0  0  0  0  0  0  0  0  0  0  0  0
   20.8796   18.4024   22.9597 H   0  0  0  0  0  0  0  0  0  0  0  0
   21.0644   19.0539   21.3303 H   0  0  0  0  0  0  0  0  0  0  0  0
   19.5157   17.5401   21.5068 C   0  0  0  0  0  0  0  0  0  0  0  0
   18.7732   17.2113   22.2471 H   0  0  0  0  0  0  0  0  0  0  0  0
   18.9585   17.8597   20.6153 H   0  0  0  0  0  0  0  0  0  0  0  0
   20.4326   16.3560   21.1403 C   0  0  0  0  0  0  0  0  0  0  0  0
   20.9794   15.9956   22.0215 H   0  0  0  0  0  0  0  0  0  0  0  0
   19.8438   15.5199   20.7413 H   0  0  0  0  0  0  0  0  0  0  0  0
   21.1661   16.6487   20.3776 H   0  0  0  0  0  0  0  0  0  0  0  0
  1  2  1  0  0  0  0
  1  3  2  0  0  0  0
  1  4  1  0  0  0  0
  4  5  1  0  0  0  0
  4  6  1  0  0  0  0
  4  7  1  0  0  0  0
  7  8  1  0  0  0  0
  7  9  1  0  0  0  0
  7 10  1  0  0  0  0
 10 11  1  0  0  0  0
 10 12  1  0  0  0  0
 10 13  1  0  0  0  0
 13 14  1  0  0  0  0
 13 15  1  0  0  0  0
 13 16  1  0  0  0  0
 16 17  1  0  0  0  0
 16 18  1  0  0  0  0
 16 19  1  0  0  0  0
M  END
> <VConfSearch Rank>
825

> <Conf_Id>
35

> <Delta U+W>
-0.030

> <U+W>
-54.921

> <U>
8.267

> <W>
-63.188

> <W(PB)>
-65.294

> <W(SA)>
2.106

> <Valence>
6.935

> <Coulomb>
0.875

> <VdW>
0.457

> <VdW6>
-6.205

> <VdW12>
6.662

> <Bond>
0.107

> <Angle>
2.420

> <Pdih>
4.407

> <Idih>
0.001

> <Tether>
0.000

$$$$
VeraChem MOL file


 19 18  0  0  0  0  0  0  0  0999 V2000     
   22.5327   19.0575   20.7133 C   0  0  0  0  0  0  0  0  0  0  0  0
   23.2707   19.9573   21.0633 O   0  5  0  0  0  0  0  0  0  0  0  0
   22.2230   18.8546   19.5559 O   0  0  0  0  0  0  0  0  0  0  0  0
   21.9835   18.1194   21.7847 C   0  0  0  0  0  0  0  0  0  0  0  0
   22.8202   17.8419   22.4366 H   0  0  0  0  0  0  0  0  0  0  0  0
   21.6391   17.1974   21.3006 H   0  0  0  0  0  0  0  0  0  0  0  0
   20.8437   18.7327   22.6393 C   0  0  0  0  0  0  0  0  0  0  0  0
   20.6253   18.0497   23.4701 H   0  0  0  0  0  0  0  0  0  0  0  0
   21.1902   19.6751   23.0856 H   0  0  0  0  0  0  0  0  0  0  0  0
   19.5553   18.9830   21.8194 C   0  0  0  0  0  0  0  0  0  0  0  0
   19.1892   18.0334   21.4059 H   0  0  0  0  0  0  0  0  0  0  0  0
   19.7936   19.6237   20.9593 H   0  0  0  0  0  0  0  0  0  0  0  0
   18.4301   19.6607   22.6351 C   0  0  0  0  0  0  0  0  0  0  0  0
   18.7928   20.6120   23.0482 H   0  0  0  0  0  0  0  0  0  0  0  0
   17.6050   19.9126   21.9546 H   0  0  0  0  0  0  0  0  0  0  0  0
   17.8810   18.7748   23.7742 C   0  0  0  0  0  0  0  0  0  0  0  0
   18.6419   18.5930   24.5433 H   0  0  0  0  0  0  0  0  0  0  0  0
   17.0268   19.2625   24.2614 H   0  0  0  0  0  0  0  0  0  0  0  0
   17.5413   17.8047   23.3886 H   0  0  0  0  0  0  0  0  0  0  0  0
  1  2  1  0  0  0  0
  1  3  2  0  0  0  0
  1  4  1  0  0  0  0
  4  5  1  0  0  0  0
  4  6  1  0  0  0  0
  4  7  1  0  0  0  0
  7  8  1  0  0  0  0
  7  9  1  0  0  0  0
  7 10  1  0  0  0  0
 10 11  1  0  0  0  0
 10 12  1  0  0  0  0
 10 13  1  0  0  0  0
 13 14  1  0  0  0  0
 13 15  1  0  0  0  0
 13 16  1  0  0  0  0
 16 17  1  0  0  0  0
 16 18  1  0  0  0  0
 16 19  1  0  0  0  0
M  END
> <VConfSearch Rank>
826

> <Conf_Id>
74

> <Delta U+W>
0.797

> <U+W>
-54.095

> <U>
8.869

> <W>
-62.964

> <W(PB)>
-65.046

> <W(SA)>
2.082

> <Valence>
7.469

> <Coulomb>
0.762

> <VdW>
0.639

> <VdW6>
-6.782

> <VdW12>
7.421

> <Bond>
0.141

> <Angle>
2.667

> <Pdih>
4.660

> <Idih>
0.001

> <Tether>
0.000

$$$$
VeraChem MOL file


 19 18  0  0  0  0  0  0  0  0999 V2000     
   22.2203   18.8690   20.4139 C   0  0  0  0  0  0  0  0  0  0  0  0
   23.3952   19.1112   20.6073 O   0  5  0  0  0  0  0  0  0  0  0  0
   21.8180   18.1809   19.4968 O   0  0  0  0  0  0  0  0  0  0  0  0
   21.1970   19.4449   21.3862 C   0  0  0  0  0  0  0  0  0  0  0  0
   20.2782   19.6459   20.8235 H   0  0  0  0  0  0  0  0  0  0  0  0
   21.5751   20.4083   21.7485 H   0  0  0  0  0  0  0  0  0  0  0  0
   20.9065   18.5007   22.5815 C   0  0  0  0  0  0  0  0  0  0  0  0
   20.4927   17.5540   22.2095 H   0  0  0  0  0  0  0  0  0  0  0  0
   21.8578   18.2457   23.0685 H   0  0  0  0  0  0  0  0  0  0  0  0
   19.9597   19.1172   23.6418 C   0  0  0  0  0  0  0  0  0  0  0  0
   20.4397   20.0061   24.0734 H   0  0  0  0  0  0  0  0  0  0  0  0
   19.8443   18.4034   24.4689 H   0  0  0  0  0  0  0  0  0  0  0  0
   18.5554   19.5123   23.1225 C   0  0  0  0  0  0  0  0  0  0  0  0
   17.9851   19.9482   23.9542 H   0  0  0  0  0  0  0  0  0  0  0  0
   18.6396   20.3032   22.3655 H   0  0  0  0  0  0  0  0  0  0  0  0
   17.7597   18.3219   22.5453 C   0  0  0  0  0  0  0  0  0  0  0  0
   17.6825   17.5085   23.2784 H   0  0  0  0  0  0  0  0  0  0  0  0
   16.7421   18.6339   22.2771 H   0  0  0  0  0  0  0  0  0  0  0  0
   18.2357   17.9259   21.6393 H   0  0  0  0  0  0  0  0  0  0  0  0
  1  2  1  0  0  0  0
  1  3  2  0  0  0  0
  1  4  1  0  0  0  0
  4  5  1  0  0  0  0
  4  6  1  0  0  0  0
  4  7  1  0  0  0  0
  7  8  1  0  0  0  0
  7  9  1  0  0  0  0
  7 10  1  0  0  0  0
 10 11  1  0  0  0  0
 10 12  1  0  0  0  0
 10 13  1  0  0  0  0
 13 14  1  0  0  0  0
 13 15  1  0  0  0  0
 13 16  1  0  0  0  0
 16 17  1  0  0  0  0
 16 18  1  0  0  0  0
 16 19  1  0  0  0  0
M  END
> <VConfSearch Rank>
827

> <Conf_Id>
67

> <Delta U+W>
0.308

> <U+W>
-54.583

> <U>
8.219

> <W>
-62.802

> <W(PB)>
-64.859

> <W(SA)>
2.057

> <Valence>
7.609

> <Coulomb>
-0.089

> <VdW>
0.699

> <VdW6>
-6.924

> <VdW12>
7.623

> <Bond>
0.163

> <Angle>
2.870

> <Pdih>
4.576

> <Idih>
0.001

> <Tether>
0.000

$$$$
VeraChem MOL file


 19 18  0  0  0  0  0  0  0  0999 V2000     
   22.6955   19.4561   21.3249 C   0  0  0  0  0  0  0  0  0  0  0  0
   23.3169   20.5001   21.3061 O   0  5  0  0  0  0  0  0  0  0  0  0
   22.9332   18.5193   20.5886 O   0  0  0  0  0  0  0  0  0  0  0  0
   21.5423   19.3223   22.3130 C   0  0  0  0  0  0  0  0  0  0  0  0
   21.7894   19.9074   23.2068 H   0  0  0  0  0  0  0  0  0  0  0  0
   21.4838   18.2710   22.6173 H   0  0  0  0  0  0  0  0  0  0  0  0
   20.1879   19.7933   21.7228 C   0  0  0  0  0  0  0  0  0  0  0  0
   20.3056   20.8181   21.3445 H   0  0  0  0  0  0  0  0  0  0  0  0
   19.9323   19.1757   20.8516 H   0  0  0  0  0  0  0  0  0  0  0  0
   19.0264   19.7769   22.7482 C   0  0  0  0  0  0  0  0  0  0  0  0
   18.1211   20.1648   22.2616 H   0  0  0  0  0  0  0  0  0  0  0  0
   19.2587   20.4795   23.5601 H   0  0  0  0  0  0  0  0  0  0  0  0
   18.7090   18.3919   23.3637 C   0  0  0  0  0  0  0  0  0  0  0  0
   19.5671   18.0296   23.9451 H   0  0  0  0  0  0  0  0  0  0  0  0
   17.8847   18.5087   24.0806 H   0  0  0  0  0  0  0  0  0  0  0  0
   18.3074   17.3337   22.3138 C   0  0  0  0  0  0  0  0  0  0  0  0
   19.1440   17.0998   21.6433 H   0  0  0  0  0  0  0  0  0  0  0  0
   18.0044   16.4003   22.8056 H   0  0  0  0  0  0  0  0  0  0  0  0
   17.4644   17.6848   21.7047 H   0  0  0  0  0  0  0  0  0  0  0  0
  1  2  1  0  0  0  0
  1  3  2  0  0  0  0
  1  4  1  0  0  0  0
  4  5  1  0  0  0  0
  4  6  1  0  0  0  0
  4  7  1  0  0  0  0
  7  8  1  0  0  0  0
  7  9  1  0  0  0  0
  7 10  1  0  0  0  0
 10 11  1  0  0  0  0
 10 12  1  0  0  0  0
 10 13  1  0  0  0  0
 13 14  1  0  0  0  0
 13 15  1  0  0  0  0
 13 16  1  0  0  0  0
 16 17  1  0  0  0  0
 16 18  1  0  0  0  0
 16 19  1  0  0  0  0
M  END
> <VConfSearch Rank>
828

> <Conf_Id>
21

> <Delta U+W>
0.319

> <U+W>
-54.572

> <U>
8.220

> <W>
-62.792

> <W(PB)>
-64.830

> <W(SA)>
2.038

> <Valence>
7.609

> <Coulomb>
-0.088

> <VdW>
0.699

> <VdW6>
-6.924

> <VdW12>
7.623

> <Bond>
0.163

> <Angle>
2.870

> <Pdih>
4.576

> <Idih>
0.000

> <Tether>
0.000

$$$$
VeraChem MOL file


 19 18  0  0  0  0  0  0  0  0999 V2000     
   17.3589   20.0095   21.7814 C   0  0  0  0  0  0  0  0  0  0  0  0
   16.3119   19.4505   21.5208 O   0  5  0  0  0  0  0  0  0  0  0  0
   17.4251   21.1306   22.2451 O   0  0  0  0  0  0  0  0  0  0  0  0
   18.6596   19.2553   21.5297 C   0  0  0  0  0  0  0  0  0  0  0  0
   19.4262   19.9886   21.2607 H   0  0  0  0  0  0  0  0  0  0  0  0
   18.5132   18.6111   20.6545 H   0  0  0  0  0  0  0  0  0  0  0  0
   19.1053   18.4033   22.7476 C   0  0  0  0  0  0  0  0  0  0  0  0
   19.1961   19.0375   23.6402 H   0  0  0  0  0  0  0  0  0  0  0  0
   18.3058   17.6817   22.9654 H   0  0  0  0  0  0  0  0  0  0  0  0
   20.4234   17.6246   22.5064 C   0  0  0  0  0  0  0  0  0  0  0  0
   20.5318   17.3800   21.4408 H   0  0  0  0  0  0  0  0  0  0  0  0
   20.3505   16.6604   23.0280 H   0  0  0  0  0  0  0  0  0  0  0  0
   21.6984   18.3366   23.0213 C   0  0  0  0  0  0  0  0  0  0  0  0
   21.6182   18.4969   24.1054 H   0  0  0  0  0  0  0  0  0  0  0  0
   22.5559   17.6659   22.8727 H   0  0  0  0  0  0  0  0  0  0  0  0
   21.9971   19.6810   22.3263 C   0  0  0  0  0  0  0  0  0  0  0  0
   22.9756   20.0662   22.6408 H   0  0  0  0  0  0  0  0  0  0  0  0
   22.0131   19.5658   21.2348 H   0  0  0  0  0  0  0  0  0  0  0  0
   21.2458   20.4367   22.5877 H   0  0  0  0  0  0  0  0  0  0  0  0
  1  2  1  0  0  0  0
  1  3  2  0  0  0  0
  1  4  1  0  0  0  0
  4  5  1  0  0  0  0
  4  6  1  0  0  0  0
  4  7  1  0  0  0  0
  7  8  1  0  0  0  0
  7  9  1  0  0  0  0
  7 10  1  0  0  0  0
 10 11  1  0  0  0  0
 10 12  1  0  0  0  0
 10 13  1  0  0  0  0
 13 14  1  0  0  0  0
 13 15  1  0  0  0  0
 13 16  1  0  0  0  0
 16 17  1  0  0  0  0
 16 18  1  0  0  0  0
 16 19  1  0  0  0  0
M  END
> <VConfSearch Rank>
829

> <Conf_Id>
24

> <Delta U+W>
2.477

> <U+W>
-52.414

> <U>
10.422

> <W>
-62.836

> <W(PB)>
-64.906

> <W(SA)>
2.070

> <Valence>
9.628

> <Coulomb>
0.101

> <VdW>
0.693

> <VdW6>
-6.927

> <VdW12>
7.620

> <Bond>
0.173

> <Angle>
2.989

> <Pdih>
6.465

> <Idih>
0.001

> <Tether>
0.000

$$$$
VeraChem MOL file


 19 18  0  0  0  0  0  0  0  0999 V2000     
   19.9408   21.2683   23.7587 C   0  0  0  0  0  0  0  0  0  0  0  0
   19.8395   20.7578   24.8568 O   0  5  0  0  0  0  0  0  0  0  0  0
   20.5411   22.3050   23.5538 O   0  0  0  0  0  0  0  0  0  0  0  0
   19.2540   20.5891   22.5767 C   0  0  0  0  0  0  0  0  0  0  0  0
   18.6876   21.3618   22.0439 H   0  0  0  0  0  0  0  0  0  0  0  0
   18.5207   19.8760   22.9666 H   0  0  0  0  0  0  0  0  0  0  0  0
   20.2344   19.8982   21.5886 C   0  0  0  0  0  0  0  0  0  0  0  0
   19.7004   19.6150   20.6717 H   0  0  0  0  0  0  0  0  0  0  0  0
   20.9867   20.6387   21.2833 H   0  0  0  0  0  0  0  0  0  0  0  0
   20.9616   18.6601   22.1751 C   0  0  0  0  0  0  0  0  0  0  0  0
   21.0941   18.7696   23.2601 H   0  0  0  0  0  0  0  0  0  0  0  0
   21.9754   18.6291   21.7534 H   0  0  0  0  0  0  0  0  0  0  0  0
   20.2845   17.3038   21.8592 C   0  0  0  0  0  0  0  0  0  0  0  0
   20.2361   17.1600   20.7709 H   0  0  0  0  0  0  0  0  0  0  0  0
   20.9222   16.4978   22.2475 H   0  0  0  0  0  0  0  0  0  0  0  0
   18.8722   17.1482   22.4599 C   0  0  0  0  0  0  0  0  0  0  0  0
   18.1590   17.8255   21.9740 H   0  0  0  0  0  0  0  0  0  0  0  0
   18.5050   16.1238   22.3172 H   0  0  0  0  0  0  0  0  0  0  0  0
   18.8773   17.3601   23.5372 H   0  0  0  0  0  0  0  0  0  0  0  0
  1  2  1  0  0  0  0
  1  3  2  0  0  0  0
  1  4  1  0  0  0  0
  4  5  1  0  0  0  0
  4  6  1  0  0  0  0
  4  7  1  0  0  0  0
  7  8  1  0  0  0  0
  7  9  1  0  0  0  0
  7 10  1  0  0  0  0
 10 11  1  0  0  0  0
 10 12  1  0  0  0  0
 10 13  1  0  0  0  0
 13 14  1  0  0  0  0
 13 15  1  0  0  0  0
 13 16  1  0  0  0  0
 16 17  1  0  0  0  0
 16 18  1  0  0  0  0
 16 19  1  0  0  0  0
M  END
> <VConfSearch Rank>
830

> <Conf_Id>
4

> <Delta U+W>
3.753

> <U+W>
-51.138

> <U>
12.334

> <W>
-63.472

> <W(PB)>
-65.500

> <W(SA)>
2.028

> <Valence>
9.984

> <Coulomb>
1.767

> <VdW>
0.583

> <VdW6>
-7.767

> <VdW12>
8.349

> <Bond>
0.203

> <Angle>
3.191

> <Pdih>
6.589

> <Idih>
0.001

> <Tether>
0.000

$$$$
VeraChem MOL file


 19 18  0  0  0  0  0  0  0  0999 V2000     
   17.7357   20.0548   21.5886 C   0  0  0  0  0  0  0  0  0  0  0  0
   16.6461   20.1626   22.1160 O   0  5  0  0  0  0  0  0  0  0  0  0
   18.2829   20.9591   20.9889 O   0  0  0  0  0  0  0  0  0  0  0  0
   18.4388   18.7018   21.6600 C   0  0  0  0  0  0  0  0  0  0  0  0
   19.2226   18.6791   20.8962 H   0  0  0  0  0  0  0  0  0  0  0  0
   17.7032   17.9396   21.3775 H   0  0  0  0  0  0  0  0  0  0  0  0
   19.0158   18.3633   23.0627 C   0  0  0  0  0  0  0  0  0  0  0  0
   18.2053   18.4677   23.7974 H   0  0  0  0  0  0  0  0  0  0  0  0
   19.3187   17.3081   23.0956 H   0  0  0  0  0  0  0  0  0  0  0  0
   20.2023   19.2629   23.4967 C   0  0  0  0  0  0  0  0  0  0  0  0
   20.1346   19.4154   24.5825 H   0  0  0  0  0  0  0  0  0  0  0  0
   20.1113   20.2623   23.0498 H   0  0  0  0  0  0  0  0  0  0  0  0
   21.6027   18.6744   23.1959 C   0  0  0  0  0  0  0  0  0  0  0  0
   22.3612   19.3491   23.6160 H   0  0  0  0  0  0  0  0  0  0  0  0
   21.7205   17.7157   23.7195 H   0  0  0  0  0  0  0  0  0  0  0  0
   21.8952   18.4774   21.6942 C   0  0  0  0  0  0  0  0  0  0  0  0
   21.7130   19.4033   21.1330 H   0  0  0  0  0  0  0  0  0  0  0  0
   22.9432   18.1888   21.5418 H   0  0  0  0  0  0  0  0  0  0  0  0
   21.2689   17.6828   21.2701 H   0  0  0  0  0  0  0  0  0  0  0  0
  1  2  1  0  0  0  0
  1  3  2  0  0  0  0
  1  4  1  0  0  0  0
  4  5  1  0  0  0  0
  4  6  1  0  0  0  0
  4  7  1  0  0  0  0
  7  8  1  0  0  0  0
  7  9  1  0  0  0  0
  7 10  1  0  0  0  0
 10 11  1  0  0  0  0
 10 12  1  0  0  0  0
 10 13  1  0  0  0  0
 13 14  1  0  0  0  0
 13 15  1  0  0  0  0
 13 16  1  0  0  0  0
 16 17  1  0  0  0  0
 16 18  1  0  0  0  0
 16 19  1  0  0  0  0
M  END
> <VConfSearch Rank>
831

> <Conf_Id>
73

> <Delta U+W>
3.707

> <U+W>
-51.184

> <U>
12.334

> <W>
-63.519

> <W(PB)>
-65.541

> <W(SA)>
2.022

> <Valence>
9.984

> <Coulomb>
1.768

> <VdW>
0.583

> <VdW6>
-7.767

> <VdW12>
8.350

> <Bond>
0.203

> <Angle>
3.192

> <Pdih>
6.589

> <Idih>
0.001

> <Tether>
0.000

$$$$
VeraChem MOL file


 19 18  0  0  0  0  0  0  0  0999 V2000     
   21.7160   18.3756   20.7254 C   0  0  0  0  0  0  0  0  0  0  0  0
   22.2629   17.5525   21.4326 O   0  5  0  0  0  0  0  0  0  0  0  0
   21.6510   18.2835   19.5153 O   0  0  0  0  0  0  0  0  0  0  0  0
   21.1052   19.6081   21.3866 C   0  0  0  0  0  0  0  0  0  0  0  0
   21.4836   20.4869   20.8517 H   0  0  0  0  0  0  0  0  0  0  0  0
   21.4850   19.6818   22.4121 H   0  0  0  0  0  0  0  0  0  0  0  0
   19.5522   19.6302   21.3768 C   0  0  0  0  0  0  0  0  0  0  0  0
   19.2014   20.5793   21.8022 H   0  0  0  0  0  0  0  0  0  0  0  0
   19.2071   19.6216   20.3337 H   0  0  0  0  0  0  0  0  0  0  0  0
   18.8900   18.4462   22.1276 C   0  0  0  0  0  0  0  0  0  0  0  0
   19.1511   17.5082   21.6185 H   0  0  0  0  0  0  0  0  0  0  0  0
   17.7990   18.5415   22.0433 H   0  0  0  0  0  0  0  0  0  0  0  0
   19.2675   18.3204   23.6239 C   0  0  0  0  0  0  0  0  0  0  0  0
   18.7549   17.4428   24.0409 H   0  0  0  0  0  0  0  0  0  0  0  0
   20.3426   18.1196   23.7261 H   0  0  0  0  0  0  0  0  0  0  0  0
   18.8855   19.5621   24.4581 C   0  0  0  0  0  0  0  0  0  0  0  0
   19.4615   20.4431   24.1486 H   0  0  0  0  0  0  0  0  0  0  0  0
   17.8176   19.7930   24.3522 H   0  0  0  0  0  0  0  0  0  0  0  0
   19.0905   19.3876   25.5222 H   0  0  0  0  0  0  0  0  0  0  0  0
  1  2  1  0  0  0  0
  1  3  2  0  0  0  0
  1  4  1  0  0  0  0
  4  5  1  0  0  0  0
  4  6  1  0  0  0  0
  4  7  1  0  0  0  0
  7  8  1  0  0  0  0
  7  9  1  0  0  0  0
  7 10  1  0  0  0  0
 10 11  1  0  0  0  0
 10 12  1  0  0  0  0
 10 13  1  0  0  0  0
 13 14  1  0  0  0  0
 13 15  1  0  0  0  0
 13 16  1  0  0  0  0
 16 17  1  0  0  0  0
 16 18  1  0  0  0  0
 16 19  1  0  0  0  0
M  END
> <VConfSearch Rank>
832

> <Conf_Id>
56

> <Delta U+W>
1.735

> <U+W>
-53.156

> <U>
10.214

> <W>
-63.370

> <W(PB)>
-65.388

> <W(SA)>
2.018

> <Valence>
7.868

> <Coulomb>
1.968

> <VdW>
0.378

> <VdW6>
-8.067

> <VdW12>
8.445

> <Bond>
0.191

> <Angle>
3.117

> <Pdih>
4.559

> <Idih>
0.001

> <Tether>
0.000

$$$$
VeraChem MOL file


 19 18  0  0  0  0  0  0  0  0999 V2000     
   17.5290   19.0695   23.9312 C   0  0  0  0  0  0  0  0  0  0  0  0
   17.5055   18.7440   25.1016 O   0  5  0  0  0  0  0  0  0  0  0  0
   16.5303   19.2840   23.2732 O   0  0  0  0  0  0  0  0  0  0  0  0
   18.8848   19.1945   23.2454 C   0  0  0  0  0  0  0  0  0  0  0  0
   19.6182   19.5159   23.9946 H   0  0  0  0  0  0  0  0  0  0  0  0
   18.8056   19.9912   22.4975 H   0  0  0  0  0  0  0  0  0  0  0  0
   19.3444   17.8739   22.5776 C   0  0  0  0  0  0  0  0  0  0  0  0
   19.2773   17.0642   23.3174 H   0  0  0  0  0  0  0  0  0  0  0  0
   18.6439   17.6132   21.7723 H   0  0  0  0  0  0  0  0  0  0  0  0
   20.7890   17.9094   22.0189 C   0  0  0  0  0  0  0  0  0  0  0  0
   21.0147   16.9096   21.6234 H   0  0  0  0  0  0  0  0  0  0  0  0
   21.5053   18.0760   22.8352 H   0  0  0  0  0  0  0  0  0  0  0  0
   21.0191   18.9392   20.8850 C   0  0  0  0  0  0  0  0  0  0  0  0
   21.7303   18.5133   20.1638 H   0  0  0  0  0  0  0  0  0  0  0  0
   20.0865   19.1096   20.3297 H   0  0  0  0  0  0  0  0  0  0  0  0
   21.5967   20.2811   21.3875 C   0  0  0  0  0  0  0  0  0  0  0  0
   21.7576   20.9681   20.5466 H   0  0  0  0  0  0  0  0  0  0  0  0
   20.9251   20.7749   22.0986 H   0  0  0  0  0  0  0  0  0  0  0  0
   22.5633   20.1279   21.8849 H   0  0  0  0  0  0  0  0  0  0  0  0
  1  2  1  0  0  0  0
  1  3  2  0  0  0  0
  1  4  1  0  0  0  0
  4  5  1  0  0  0  0
  4  6  1  0  0  0  0
  4  7  1  0  0  0  0
  7  8  1  0  0  0  0
  7  9  1  0  0  0  0
  7 10  1  0  0  0  0
 10 11  1  0  0  0  0
 10 12  1  0  0  0  0
 10 13  1  0  0  0  0
 13 14  1  0  0  0  0
 13 15  1  0  0  0  0
 13 16  1  0  0  0  0
 16 17  1  0  0  0  0
 16 18  1  0  0  0  0
 16 19  1  0  0  0  0
M  END
> <VConfSearch Rank>
833

> <Conf_Id>
53

> <Delta U+W>
2.279

> <U+W>
-52.612

> <U>
10.231

> <W>
-62.843

> <W(PB)>
-64.893

> <W(SA)>
2.050

> <Valence>
9.644

> <Coulomb>
-0.164

> <VdW>
0.751

> <VdW6>
-6.881

> <VdW12>
7.631

> <Bond>
0.163

> <Angle>
2.998

> <Pdih>
6.482

> <Idih>
0.001

> <Tether>
0.000

$$$$
VeraChem MOL file


 19 18  0  0  0  0  0  0  0  0999 V2000     
   21.0452   16.7207   21.9459 C   0  0  0  0  0  0  0  0  0  0  0  0
   20.6299   16.0156   22.8444 O   0  5  0  0  0  0  0  0  0  0  0  0
   22.2247   16.8366   21.6764 O   0  0  0  0  0  0  0  0  0  0  0  0
   20.0256   17.4425   21.0669 C   0  0  0  0  0  0  0  0  0  0  0  0
   19.0153   17.1880   21.4096 H   0  0  0  0  0  0  0  0  0  0  0  0
   20.1312   17.0193   20.0612 H   0  0  0  0  0  0  0  0  0  0  0  0
   20.1934   18.9860   20.9856 C   0  0  0  0  0  0  0  0  0  0  0  0
   21.2533   19.2408   20.8465 H   0  0  0  0  0  0  0  0  0  0  0  0
   19.6776   19.3357   20.0812 H   0  0  0  0  0  0  0  0  0  0  0  0
   19.6131   19.7669   22.1907 C   0  0  0  0  0  0  0  0  0  0  0  0
   18.5521   19.5130   22.3196 H   0  0  0  0  0  0  0  0  0  0  0  0
   19.6471   20.8387   21.9521 H   0  0  0  0  0  0  0  0  0  0  0  0
   20.3683   19.5304   23.5172 C   0  0  0  0  0  0  0  0  0  0  0  0
   20.2367   18.4916   23.8456 H   0  0  0  0  0  0  0  0  0  0  0  0
   21.4454   19.6859   23.3654 H   0  0  0  0  0  0  0  0  0  0  0  0
   19.8647   20.4716   24.6300 C   0  0  0  0  0  0  0  0  0  0  0  0
   18.7942   20.3175   24.8192 H   0  0  0  0  0  0  0  0  0  0  0  0
   20.4049   20.2851   25.5673 H   0  0  0  0  0  0  0  0  0  0  0  0
   20.0169   21.5234   24.3548 H   0  0  0  0  0  0  0  0  0  0  0  0
  1  2  1  0  0  0  0
  1  3  2  0  0  0  0
  1  4  1  0  0  0  0
  4  5  1  0  0  0  0
  4  6  1  0  0  0  0
  4  7  1  0  0  0  0
  7  8  1  0  0  0  0
  7  9  1  0  0  0  0
  7 10  1  0  0  0  0
 10 11  1  0  0  0  0
 10 12  1  0  0  0  0
 10 13  1  0  0  0  0
 13 14  1  0  0  0  0
 13 15  1  0  0  0  0
 13 16  1  0  0  0  0
 16 17  1  0  0  0  0
 16 18  1  0  0  0  0
 16 19  1  0  0  0  0
M  END
> <VConfSearch Rank>
834

> <Conf_Id>
25

> <Delta U+W>
2.065

> <U+W>
-52.826

> <U>
10.967

> <W>
-63.794

> <W(PB)>
-65.830

> <W(SA)>
2.036

> <Valence>
8.609

> <Coulomb>
1.892

> <VdW>
0.467

> <VdW6>
-7.569

> <VdW12>
8.036

> <Bond>
0.170

> <Angle>
3.195

> <Pdih>
5.237

> <Idih>
0.007

> <Tether>
0.000

$$$$
VeraChem MOL file


 19 18  0  0  0  0  0  0  0  0999 V2000     
   18.9702   16.7252   22.7035 C   0  0  0  0  0  0  0  0  0  0  0  0
   17.8079   16.8819   22.3845 O   0  5  0  0  0  0  0  0  0  0  0  0
   19.3160   16.3219   23.7964 O   0  0  0  0  0  0  0  0  0  0  0  0
   20.0512   16.9809   21.6549 C   0  0  0  0  0  0  0  0  0  0  0  0
   19.8767   16.2579   20.8496 H   0  0  0  0  0  0  0  0  0  0  0  0
   21.0306   16.7398   22.0859 H   0  0  0  0  0  0  0  0  0  0  0  0
   20.0665   18.4141   21.0526 C   0  0  0  0  0  0  0  0  0  0  0  0
   20.6026   18.3734   20.0948 H   0  0  0  0  0  0  0  0  0  0  0  0
   19.0419   18.7303   20.8120 H   0  0  0  0  0  0  0  0  0  0  0  0
   20.7586   19.4823   21.9351 C   0  0  0  0  0  0  0  0  0  0  0  0
   20.8476   20.4062   21.3472 H   0  0  0  0  0  0  0  0  0  0  0  0
   21.7843   19.1634   22.1657 H   0  0  0  0  0  0  0  0  0  0  0  0
   20.0066   19.7998   23.2462 C   0  0  0  0  0  0  0  0  0  0  0  0
   18.9528   20.0210   23.0270 H   0  0  0  0  0  0  0  0  0  0  0  0
   20.0201   18.9256   23.9095 H   0  0  0  0  0  0  0  0  0  0  0  0
   20.6399   20.9954   23.9860 C   0  0  0  0  0  0  0  0  0  0  0  0
   20.0996   21.2025   24.9189 H   0  0  0  0  0  0  0  0  0  0  0  0
   21.6879   20.7890   24.2398 H   0  0  0  0  0  0  0  0  0  0  0  0
   20.6084   21.9023   23.3679 H   0  0  0  0  0  0  0  0  0  0  0  0
  1  2  1  0  0  0  0
  1  3  2  0  0  0  0
  1  4  1  0  0  0  0
  4  5  1  0  0  0  0
  4  6  1  0  0  0  0
  4  7  1  0  0  0  0
  7  8  1  0  0  0  0
  7  9  1  0  0  0  0
  7 10  1  0  0  0  0
 10 11  1  0  0  0  0
 10 12  1  0  0  0  0
 10 13  1  0  0  0  0
 13 14  1  0  0  0  0
 13 15  1  0  0  0  0
 13 16  1  0  0  0  0
 16 17  1  0  0  0  0
 16 18  1  0  0  0  0
 16 19  1  0  0  0  0
M  END
> <VConfSearch Rank>
835

> <Conf_Id>
52

> <Delta U+W>
2.070

> <U+W>
-52.822

> <U>
10.967

> <W>
-63.789

> <W(PB)>
-65.837

> <W(SA)>
2.048

> <Valence>
8.609

> <Coulomb>
1.892

> <VdW>
0.467

> <VdW6>
-7.569

> <VdW12>
8.035

> <Bond>
0.170

> <Angle>
3.196

> <Pdih>
5.237

> <Idih>
0.007

> <Tether>
0.000

$$$$
VeraChem MOL file


 19 18  0  0  0  0  0  0  0  0999 V2000     
   20.2991   20.7340   21.6250 C   0  0  0  0  0  0  0  0  0  0  0  0
   19.6904   21.6187   22.1950 O   0  5  0  0  0  0  0  0  0  0  0  0
   21.4942   20.7811   21.4097 O   0  0  0  0  0  0  0  0  0  0  0  0
   19.5117   19.5624   21.0363 C   0  0  0  0  0  0  0  0  0  0  0  0
   20.2157   18.7926   20.6982 H   0  0  0  0  0  0  0  0  0  0  0  0
   19.0183   19.9504   20.1378 H   0  0  0  0  0  0  0  0  0  0  0  0
   18.4360   18.9347   21.9681 C   0  0  0  0  0  0  0  0  0  0  0  0
   17.9021   19.7263   22.5118 H   0  0  0  0  0  0  0  0  0  0  0  0
   17.6820   18.4496   21.3336 H   0  0  0  0  0  0  0  0  0  0  0  0
   18.9599   17.8700   22.9657 C   0  0  0  0  0  0  0  0  0  0  0  0
   19.4051   17.0287   22.4171 H   0  0  0  0  0  0  0  0  0  0  0  0
   18.0890   17.4532   23.4900 H   0  0  0  0  0  0  0  0  0  0  0  0
   19.9497   18.4019   24.0303 C   0  0  0  0  0  0  0  0  0  0  0  0
   19.8248   19.4854   24.1637 H   0  0  0  0  0  0  0  0  0  0  0  0
   19.7062   17.9462   24.9999 H   0  0  0  0  0  0  0  0  0  0  0  0
   21.4199   18.0678   23.6988 C   0  0  0  0  0  0  0  0  0  0  0  0
   21.5758   16.9819   23.6619 H   0  0  0  0  0  0  0  0  0  0  0  0
   21.7184   18.4857   22.7303 H   0  0  0  0  0  0  0  0  0  0  0  0
   22.0905   18.4797   24.4639 H   0  0  0  0  0  0  0  0  0  0  0  0
  1  2  1  0  0  0  0
  1  3  2  0  0  0  0
  1  4  1  0  0  0  0
  4  5  1  0  0  0  0
  4  6  1  0  0  0  0
  4  7  1  0  0  0  0
  7  8  1  0  0  0  0
  7  9  1  0  0  0  0
  7 10  1  0  0  0  0
 10 11  1  0  0  0  0
 10 12  1  0  0  0  0
 10 13  1  0  0  0  0
 13 14  1  0  0  0  0
 13 15  1  0  0  0  0
 13 16  1  0  0  0  0
 16 17  1  0  0  0  0
 16 18  1  0  0  0  0
 16 19  1  0  0  0  0
M  END
> <VConfSearch Rank>
836

> <Conf_Id>
66

> <Delta U+W>
5.819

> <U+W>
-49.072

> <U>
15.324

> <W>
-64.396

> <W(PB)>
-66.382

> <W(SA)>
1.986

> <Valence>
11.748

> <Coulomb>
3.201

> <VdW>
0.375

> <VdW6>
-8.854

> <VdW12>
9.229

> <Bond>
0.216

> <Angle>
3.812

> <Pdih>
7.699

> <Idih>
0.022

> <Tether>
0.000

$$$$
VeraChem MOL file


 19 18  0  0  0  0  0  0  0  0999 V2000     
   19.1723   21.8055   20.5070 C   0  0  0  0  0  0  0  0  0  0  0  0
   18.8972   22.2287   19.4021 O   0  5  0  0  0  0  0  0  0  0  0  0
   19.2266   22.5134   21.4940 O   0  0  0  0  0  0  0  0  0  0  0  0
   19.4590   20.3080   20.6297 C   0  0  0  0  0  0  0  0  0  0  0  0
   20.2855   20.0762   19.9476 H   0  0  0  0  0  0  0  0  0  0  0  0
   18.5765   19.7744   20.2574 H   0  0  0  0  0  0  0  0  0  0  0  0
   19.8054   19.8142   22.0596 C   0  0  0  0  0  0  0  0  0  0  0  0
   20.6867   20.3568   22.4290 H   0  0  0  0  0  0  0  0  0  0  0  0
   18.9759   20.0547   22.7391 H   0  0  0  0  0  0  0  0  0  0  0  0
   20.0794   18.2950   22.0917 C   0  0  0  0  0  0  0  0  0  0  0  0
   20.9088   18.0568   21.4116 H   0  0  0  0  0  0  0  0  0  0  0  0
   19.1971   17.7546   21.7220 H   0  0  0  0  0  0  0  0  0  0  0  0
   20.4236   17.8062   23.5141 C   0  0  0  0  0  0  0  0  0  0  0  0
   21.3069   18.3431   23.8868 H   0  0  0  0  0  0  0  0  0  0  0  0
   19.5954   18.0409   24.1971 H   0  0  0  0  0  0  0  0  0  0  0  0
   20.6966   16.2891   23.5424 C   0  0  0  0  0  0  0  0  0  0  0  0
   21.5418   16.0299   22.8912 H   0  0  0  0  0  0  0  0  0  0  0  0
   20.9396   15.9587   24.5607 H   0  0  0  0  0  0  0  0  0  0  0  0
   19.8174   15.7253   23.2038 H   0  0  0  0  0  0  0  0  0  0  0  0
  1  2  1  0  0  0  0
  1  3  2  0  0  0  0
  1  4  1  0  0  0  0
  4  5  1  0  0  0  0
  4  6  1  0  0  0  0
  4  7  1  0  0  0  0
  7  8  1  0  0  0  0
  7  9  1  0  0  0  0
  7 10  1  0  0  0  0
 10 11  1  0  0  0  0
 10 12  1  0  0  0  0
 10 13  1  0  0  0  0
 13 14  1  0  0  0  0
 13 15  1  0  0  0  0
 13 16  1  0  0  0  0
 16 17  1  0  0  0  0
 16 18  1  0  0  0  0
 16 19  1  0  0  0  0
M  END
> <VConfSearch Rank>
837

> <Conf_Id>
0

> <Delta U+W>
0.000

> <U+W>
-54.891

> <U>
6.966

> <W>
-61.857

> <W(PB)>
-63.965

> <W(SA)>
2.108

> <Valence>
7.175

> <Coulomb>
-1.360

> <VdW>
1.151

> <VdW6>
-5.641

> <VdW12>
6.792

> <Bond>
0.119

> <Angle>
2.715

> <Pdih>
4.340

> <Idih>
0.000

> <Tether>
0.000

$$$$
VeraChem MOL file


 19 18  0  0  0  0  0  0  0  0999 V2000     
   20.3117   22.0525   23.4114 C   0  0  0  0  0  0  0  0  0  0  0  0
   21.4459   22.4862   23.3697 O   0  5  0  0  0  0  0  0  0  0  0  0
   19.3211   22.7541   23.3598 O   0  0  0  0  0  0  0  0  0  0  0  0
   20.1210   20.5434   23.5135 C   0  0  0  0  0  0  0  0  0  0  0  0
   19.2048   20.3535   24.0857 H   0  0  0  0  0  0  0  0  0  0  0  0
   20.9562   20.1326   24.0935 H   0  0  0  0  0  0  0  0  0  0  0  0
   20.0399   19.8517   22.1303 C   0  0  0  0  0  0  0  0  0  0  0  0
   19.2070   20.2827   21.5575 H   0  0  0  0  0  0  0  0  0  0  0  0
   20.9585   20.0620   21.5651 H   0  0  0  0  0  0  0  0  0  0  0  0
   19.8470   18.3255   22.2614 C   0  0  0  0  0  0  0  0  0  0  0  0
   18.9286   18.1187   22.8280 H   0  0  0  0  0  0  0  0  0  0  0  0
   20.6804   17.8979   22.8356 H   0  0  0  0  0  0  0  0  0  0  0  0
   19.7664   17.6392   20.8820 C   0  0  0  0  0  0  0  0  0  0  0  0
   18.9326   18.0630   20.3052 H   0  0  0  0  0  0  0  0  0  0  0  0
   20.6842   17.8421   20.3128 H   0  0  0  0  0  0  0  0  0  0  0  0
   19.5737   16.1155   21.0166 C   0  0  0  0  0  0  0  0  0  0  0  0
   19.5185   15.6436   20.0269 H   0  0  0  0  0  0  0  0  0  0  0  0
   20.4104   15.6605   21.5628 H   0  0  0  0  0  0  0  0  0  0  0  0
   18.6457   15.8830   21.5552 H   0  0  0  0  0  0  0  0  0  0  0  0
  1  2  1  0  0  0  0
  1  3  2  0  0  0  0
  1  4  1  0  0  0  0
  4  5  1  0  0  0  0
  4  6  1  0  0  0  0
  4  7  1  0  0  0  0
  7  8  1  0  0  0  0
  7  9  1  0  0  0  0
  7 10  1  0  0  0  0
 10 11  1  0  0  0  0
 10 12  1  0  0  0  0
 10 13  1  0  0  0  0
 13 14  1  0  0  0  0
 13 15  1  0  0  0  0
 13 16  1  0  0  0  0
 16 17  1  0  0  0  0
 16 18  1  0  0  0  0
 16 19  1  0  0  0  0
M  END
> <VConfSearch Rank>
838

> <Conf_Id>
18

> <Delta U+W>
-1.199

> <U+W>
-56.090

> <U>
5.975

> <W>
-62.066

> <W(PB)>
-64.219

> <W(SA)>
2.153

> <Valence>
6.673

> <Coulomb>
-1.307

> <VdW>
0.610

> <VdW6>
-5.351

> <VdW12>
5.961

> <Bond>
0.086

> <Angle>
2.253

> <Pdih>
4.333

> <Idih>
0.001

> <Tether>
0.000

$$$$
VeraChem MOL file


 19 18  0  0  0  0  0  0  0  0999 V2000     
   17.2971   18.6131   23.9184 C   0  0  0  0  0  0  0  0  0  0  0  0
   17.2668   18.1301   25.0329 O   0  5  0  0  0  0  0  0  0  0  0  0
   16.4124   19.3110   23.4639 O   0  0  0  0  0  0  0  0  0  0  0  0
   18.5222   18.3465   23.0510 C   0  0  0  0  0  0  0  0  0  0  0  0
   18.1903   18.3118   22.0072 H   0  0  0  0  0  0  0  0  0  0  0  0
   18.9078   17.3514   23.3034 H   0  0  0  0  0  0  0  0  0  0  0  0
   19.6326   19.4131   23.2364 C   0  0  0  0  0  0  0  0  0  0  0  0
   19.2484   20.3984   22.9384 H   0  0  0  0  0  0  0  0  0  0  0  0
   19.8765   19.4857   24.3053 H   0  0  0  0  0  0  0  0  0  0  0  0
   20.9288   19.0983   22.4526 C   0  0  0  0  0  0  0  0  0  0  0  0
   21.3149   18.1164   22.7589 H   0  0  0  0  0  0  0  0  0  0  0  0
   21.6939   19.8347   22.7340 H   0  0  0  0  0  0  0  0  0  0  0  0
   20.7423   19.1293   20.9190 C   0  0  0  0  0  0  0  0  0  0  0  0
   20.0366   18.3481   20.6075 H   0  0  0  0  0  0  0  0  0  0  0  0
   20.3083   20.0927   20.6177 H   0  0  0  0  0  0  0  0  0  0  0  0
   22.0805   18.9182   20.1829 C   0  0  0  0  0  0  0  0  0  0  0  0
   21.9312   18.9398   19.0955 H   0  0  0  0  0  0  0  0  0  0  0  0
   22.8002   19.7058   20.4417 H   0  0  0  0  0  0  0  0  0  0  0  0
   22.5239   17.9486   20.4450 H   0  0  0  0  0  0  0  0  0  0  0  0
  1  2  1  0  0  0  0
  1  3  2  0  0  0  0
  1  4  1  0  0  0  0
  4  5  1  0  0  0  0
  4  6  1  0  0  0  0
  4  7  1  0  0  0  0
  7  8  1  0  0  0  0
  7  9  1  0  0  0  0
  7 10  1  0  0  0  0
 10 11  1  0  0  0  0
 10 12  1  0  0  0  0
 10 13  1  0  0  0  0
 13 14  1  0  0  0  0
 13 15  1  0  0  0  0
 13 16  1  0  0  0  0
 16 17  1  0  0  0  0
 16 18  1  0  0  0  0
 16 19  1  0  0  0  0
M  END
> <VConfSearch Rank>
839

> <Conf_Id>
34

> <Delta U+W>
-0.563

> <U+W>
-55.455

> <U>
6.914

> <W>
-62.369

> <W(PB)>
-64.446

> <W(SA)>
2.077

> <Valence>
7.196

> <Coulomb>
-1.020

> <VdW>
0.738

> <VdW6>
-6.010

> <VdW12>
6.748

> <Bond>
0.126

> <Angle>
2.499

> <Pdih>
4.570

> <Idih>
0.001

> <Tether>
0.000

$$$$
VeraChem MOL file


 19 18  0  0  0  0  0  0  0  0999 V2000     
   17.6143   18.2188   24.2486 C   0  0  0  0  0  0  0  0  0  0  0  0
   16.7108   17.4455   23.9996 O   0  5  0  0  0  0  0  0  0  0  0  0
   17.5687   19.0404   25.1426 O   0  0  0  0  0  0  0  0  0  0  0  0
   18.8646   18.1701   23.3776 C   0  0  0  0  0  0  0  0  0  0  0  0
   19.0113   17.1338   23.0504 H   0  0  0  0  0  0  0  0  0  0  0  0
   19.7205   18.4366   24.0079 H   0  0  0  0  0  0  0  0  0  0  0  0
   18.7768   19.1116   22.1484 C   0  0  0  0  0  0  0  0  0  0  0  0
   17.8602   18.8771   21.5896 H   0  0  0  0  0  0  0  0  0  0  0  0
   18.6748   20.1513   22.4890 H   0  0  0  0  0  0  0  0  0  0  0  0
   19.9856   18.9913   21.1904 C   0  0  0  0  0  0  0  0  0  0  0  0
   19.7845   19.5988   20.2973 H   0  0  0  0  0  0  0  0  0  0  0  0
   20.0797   17.9527   20.8450 H   0  0  0  0  0  0  0  0  0  0  0  0
   21.3182   19.4530   21.8217 C   0  0  0  0  0  0  0  0  0  0  0  0
   21.2090   20.4739   22.2131 H   0  0  0  0  0  0  0  0  0  0  0  0
   21.5773   18.8092   22.6725 H   0  0  0  0  0  0  0  0  0  0  0  0
   22.4704   19.4180   20.7978 C   0  0  0  0  0  0  0  0  0  0  0  0
   22.6200   18.4018   20.4099 H   0  0  0  0  0  0  0  0  0  0  0  0
   22.2624   20.0822   19.9487 H   0  0  0  0  0  0  0  0  0  0  0  0
   23.4100   19.7455   21.2616 H   0  0  0  0  0  0  0  0  0  0  0  0
  1  2  1  0  0  0  0
  1  3  2  0  0  0  0
  1  4  1  0  0  0  0
  4  5  1  0  0  0  0
  4  6  1  0  0  0  0
  4  7  1  0  0  0  0
  7  8  1  0  0  0  0
  7  9  1  0  0  0  0
  7 10  1  0  0  0  0
 10 11  1  0  0  0  0
 10 12  1  0  0  0  0
 10 13  1  0  0  0  0
 13 14  1  0  0  0  0
 13 15  1  0  0  0  0
 13 16  1  0  0  0  0
 16 17  1  0  0  0  0
 16 18  1  0  0  0  0
 16 19  1  0  0  0  0
M  END
> <VConfSearch Rank>
840

> <Conf_Id>
33

> <Delta U+W>
-0.526

> <U+W>
-55.418

> <U>
6.914

> <W>
-62.332

> <W(PB)>
-64.421

> <W(SA)>
2.090

> <Valence>
7.196

> <Coulomb>
-1.020

> <VdW>
0.738

> <VdW6>
-6.010

> <VdW12>
6.748

> <Bond>
0.126

> <Angle>
2.499

> <Pdih>
4.570

> <Idih>
0.001

> <Tether>
0.000

$$$$
VeraChem MOL file


 19 18  0  0  0  0  0  0  0  0999 V2000     
   22.9799   18.7880   22.9840 C   0  0  0  0  0  0  0  0  0  0  0  0
   23.4855   17.8297   22.4343 O   0  5  0  0  0  0  0  0  0  0  0  0
   23.5620   19.8368   23.1776 O   0  0  0  0  0  0  0  0  0  0  0  0
   21.5296   18.6744   23.4404 C   0  0  0  0  0  0  0  0  0  0  0  0
   21.4083   19.2833   24.3444 H   0  0  0  0  0  0  0  0  0  0  0  0
   21.3420   17.6318   23.7241 H   0  0  0  0  0  0  0  0  0  0  0  0
   20.5198   19.1217   22.3547 C   0  0  0  0  0  0  0  0  0  0  0  0
   20.7264   20.1639   22.0745 H   0  0  0  0  0  0  0  0  0  0  0  0
   20.6724   18.5117   21.4546 H   0  0  0  0  0  0  0  0  0  0  0  0
   19.0584   18.9928   22.8429 C   0  0  0  0  0  0  0  0  0  0  0  0
   18.9447   19.5513   23.7822 H   0  0  0  0  0  0  0  0  0  0  0  0
   18.8371   17.9423   23.0765 H   0  0  0  0  0  0  0  0  0  0  0  0
   18.0224   19.5256   21.8265 C   0  0  0  0  0  0  0  0  0  0  0  0
   17.0282   19.5076   22.2941 H   0  0  0  0  0  0  0  0  0  0  0  0
   18.2371   20.5780   21.5945 H   0  0  0  0  0  0  0  0  0  0  0  0
   17.9714   18.7056   20.5193 C   0  0  0  0  0  0  0  0  0  0  0  0
   17.7868   17.6438   20.7285 H   0  0  0  0  0  0  0  0  0  0  0  0
   17.1634   19.0676   19.8705 H   0  0  0  0  0  0  0  0  0  0  0  0
   18.9102   18.7881   19.9575 H   0  0  0  0  0  0  0  0  0  0  0  0
  1  2  1  0  0  0  0
  1  3  2  0  0  0  0
  1  4  1  0  0  0  0
  4  5  1  0  0  0  0
  4  6  1  0  0  0  0
  4  7  1  0  0  0  0
  7  8  1  0  0  0  0
  7  9  1  0  0  0  0
  7 10  1  0  0  0  0
 10 11  1  0  0  0  0
 10 12  1  0  0  0  0
 10 13  1  0  0  0  0
 13 14  1  0  0  0  0
 13 15  1  0  0  0  0
 13 16  1  0  0  0  0
 16 17  1  0  0  0  0
 16 18  1  0  0  0  0
 16 19  1  0  0  0  0
M  END
> <VConfSearch Rank>
841

> <Conf_Id>
42

> <Delta U+W>
-0.344

> <U+W>
-55.236

> <U>
7.244

> <W>
-62.479

> <W(PB)>
-64.610

> <W(SA)>
2.130

> <Valence>
7.174

> <Coulomb>
-0.669

> <VdW>
0.739

> <VdW6>
-5.969

> <VdW12>
6.708

> <Bond>
0.116

> <Angle>
2.481

> <Pdih>
4.576

> <Idih>
0.000

> <Tether>
0.000

$$$$
VeraChem MOL file


 19 18  0  0  0  0  0  0  0  0999 V2000     
   22.8123   20.2412   23.1185 C   0  0  0  0  0  0  0  0  0  0  0  0
   22.6455   21.4142   23.3874 O   0  5  0  0  0  0  0  0  0  0  0  0
   23.8224   19.8068   22.6016 O   0  0  0  0  0  0  0  0  0  0  0  0
   21.6849   19.2632   23.4302 C   0  0  0  0  0  0  0  0  0  0  0  0
   21.1598   19.6217   24.3238 H   0  0  0  0  0  0  0  0  0  0  0  0
   22.1341   18.2956   23.6844 H   0  0  0  0  0  0  0  0  0  0  0  0
   20.6887   19.0986   22.2560 C   0  0  0  0  0  0  0  0  0  0  0  0
   20.2668   20.0814   22.0075 H   0  0  0  0  0  0  0  0  0  0  0  0
   21.2308   18.7484   21.3667 H   0  0  0  0  0  0  0  0  0  0  0  0
   19.5552   18.1051   22.6007 C   0  0  0  0  0  0  0  0  0  0  0  0
   18.9824   18.4802   23.4599 H   0  0  0  0  0  0  0  0  0  0  0  0
   19.9996   17.1509   22.9154 H   0  0  0  0  0  0  0  0  0  0  0  0
   18.5961   17.8338   21.4187 C   0  0  0  0  0  0  0  0  0  0  0  0
   19.1648   17.4531   20.5590 H   0  0  0  0  0  0  0  0  0  0  0  0
   17.8982   17.0357   21.7070 H   0  0  0  0  0  0  0  0  0  0  0  0
   17.7827   19.0757   20.9945 C   0  0  0  0  0  0  0  0  0  0  0  0
   18.4327   19.8614   20.5895 H   0  0  0  0  0  0  0  0  0  0  0  0
   17.0566   18.8109   20.2151 H   0  0  0  0  0  0  0  0  0  0  0  0
   17.2281   19.4917   21.8457 H   0  0  0  0  0  0  0  0  0  0  0  0
  1  2  1  0  0  0  0
  1  3  2  0  0  0  0
  1  4  1  0  0  0  0
  4  5  1  0  0  0  0
  4  6  1  0  0  0  0
  4  7  1  0  0  0  0
  7  8  1  0  0  0  0
  7  9  1  0  0  0  0
  7 10  1  0  0  0  0
 10 11  1  0  0  0  0
 10 12  1  0  0  0  0
 10 13  1  0  0  0  0
 13 14  1  0  0  0  0
 13 15  1  0  0  0  0
 13 16  1  0  0  0  0
 16 17  1  0  0  0  0
 16 18  1  0  0  0  0
 16 19  1  0  0  0  0
M  END
> <VConfSearch Rank>
842

> <Conf_Id>
41

> <Delta U+W>
-0.361

> <U+W>
-55.252

> <U>
7.244

> <W>
-62.496

> <W(PB)>
-64.596

> <W(SA)>
2.099

> <Valence>
7.174

> <Coulomb>
-0.669

> <VdW>
0.739

> <VdW6>
-5.969

> <VdW12>
6.708

> <Bond>
0.116

> <Angle>
2.481

> <Pdih>
4.576

> <Idih>
0.000

> <Tether>
0.000

$$$$
VeraChem MOL file


 19 18  0  0  0  0  0  0  0  0999 V2000     
   17.9812   17.2431   23.6728 C   0  0  0  0  0  0  0  0  0  0  0  0
   17.0834   18.0286   23.9042 O   0  5  0  0  0  0  0  0  0  0  0  0
   17.8111   16.1693   23.1298 O   0  0  0  0  0  0  0  0  0  0  0  0
   19.3968   17.6135   24.1065 C   0  0  0  0  0  0  0  0  0  0  0  0
   19.8256   16.7381   24.6084 H   0  0  0  0  0  0  0  0  0  0  0  0
   19.3361   18.4113   24.8567 H   0  0  0  0  0  0  0  0  0  0  0  0
   20.3221   18.0457   22.9394 C   0  0  0  0  0  0  0  0  0  0  0  0
   21.3466   18.1573   23.3195 H   0  0  0  0  0  0  0  0  0  0  0  0
   20.3503   17.2489   22.1831 H   0  0  0  0  0  0  0  0  0  0  0  0
   19.8742   19.3722   22.2858 C   0  0  0  0  0  0  0  0  0  0  0  0
   19.8350   20.1622   23.0482 H   0  0  0  0  0  0  0  0  0  0  0  0
   18.8558   19.2634   21.8876 H   0  0  0  0  0  0  0  0  0  0  0  0
   20.8261   19.7989   21.1490 C   0  0  0  0  0  0  0  0  0  0  0  0
   21.8457   19.9133   21.5424 H   0  0  0  0  0  0  0  0  0  0  0  0
   20.8653   19.0113   20.3838 H   0  0  0  0  0  0  0  0  0  0  0  0
   20.3766   21.1227   20.4991 C   0  0  0  0  0  0  0  0  0  0  0  0
   20.3585   21.9359   21.2364 H   0  0  0  0  0  0  0  0  0  0  0  0
   21.0638   21.4109   19.6930 H   0  0  0  0  0  0  0  0  0  0  0  0
   19.3708   21.0273   20.0692 H   0  0  0  0  0  0  0  0  0  0  0  0
  1  2  1  0  0  0  0
  1  3  2  0  0  0  0
  1  4  1  0  0  0  0
  4  5  1  0  0  0  0
  4  6  1  0  0  0  0
  4  7  1  0  0  0  0
  7  8  1  0  0  0  0
  7  9  1  0  0  0  0
  7 10  1  0  0  0  0
 10 11  1  0  0  0  0
 10 12  1  0  0  0  0
 10 13  1  0  0  0  0
 13 14  1  0  0  0  0
 13 15  1  0  0  0  0
 13 16  1  0  0  0  0
 16 17  1  0  0  0  0
 16 18  1  0  0  0  0
 16 19  1  0  0  0  0
M  END
> <VConfSearch Rank>
843

> <Conf_Id>
36

> <Delta U+W>
-0.079

> <U+W>
-54.971

> <U>
8.266

> <W>
-63.237

> <W(PB)>
-65.340

> <W(SA)>
2.103

> <Valence>
6.935

> <Coulomb>
0.874

> <VdW>
0.457

> <VdW6>
-6.205

> <VdW12>
6.662

> <Bond>
0.107

> <Angle>
2.420

> <Pdih>
4.407

> <Idih>
0.001

> <Tether>
0.000

$$$$
VeraChem MOL file


 19 18  0  0  0  0  0  0  0  0999 V2000     
   18.5698   21.1998   21.5110 C   0  0  0  0  0  0  0  0  0  0  0  0
   17.4639   20.8117   21.8317 O   0  5  0  0  0  0  0  0  0  0  0  0
   18.8374   21.6270   20.4053 O   0  0  0  0  0  0  0  0  0  0  0  0
   19.6794   21.1700   22.5585 C   0  0  0  0  0  0  0  0  0  0  0  0
   19.2213   21.0939   23.5521 H   0  0  0  0  0  0  0  0  0  0  0  0
   20.1933   22.1378   22.5194 H   0  0  0  0  0  0  0  0  0  0  0  0
   20.7094   20.0286   22.3552 C   0  0  0  0  0  0  0  0  0  0  0  0
   21.1384   20.1010   21.3461 H   0  0  0  0  0  0  0  0  0  0  0  0
   21.5387   20.1669   23.0621 H   0  0  0  0  0  0  0  0  0  0  0  0
   20.0921   18.6273   22.5622 C   0  0  0  0  0  0  0  0  0  0  0  0
   19.2722   18.4745   21.8468 H   0  0  0  0  0  0  0  0  0  0  0  0
   19.6532   18.5643   23.5674 H   0  0  0  0  0  0  0  0  0  0  0  0
   21.1409   17.5095   22.3862 C   0  0  0  0  0  0  0  0  0  0  0  0
   21.5799   17.5687   21.3805 H   0  0  0  0  0  0  0  0  0  0  0  0
   21.9616   17.6547   23.1022 H   0  0  0  0  0  0  0  0  0  0  0  0
   20.5219   16.1127   22.5933 C   0  0  0  0  0  0  0  0  0  0  0  0
   19.7179   15.9282   21.8688 H   0  0  0  0  0  0  0  0  0  0  0  0
   21.2809   15.3301   22.4641 H   0  0  0  0  0  0  0  0  0  0  0  0
   20.1025   16.0149   23.6032 H   0  0  0  0  0  0  0  0  0  0  0  0
  1  2  1  0  0  0  0
  1  3  2  0  0  0  0
  1  4  1  0  0  0  0
  4  5  1  0  0  0  0
  4  6  1  0  0  0  0
  4  7  1  0  0  0  0
  7  8  1  0  0  0  0
  7  9  1  0  0  0  0
  7 10  1  0  0  0  0
 10 11  1  0  0  0  0
 10 12  1  0  0  0  0
 10 13  1  0  0  0  0
 13 14  1  0  0  0  0
 13 15  1  0  0  0  0
 13 16  1  0  0  0  0
 16 17  1  0  0  0  0
 16 18  1  0  0  0  0
 16 19  1  0  0  0  0
M  END
> <VConfSearch Rank>
844

> <Conf_Id>
35

> <Delta U+W>
-0.030

> <U+W>
-54.921

> <U>
8.267

> <W>
-63.188

> <W(PB)>
-65.294

> <W(SA)>
2.106

> <Valence>
6.935

> <Coulomb>
0.875

> <VdW>
0.457

> <VdW6>
-6.205

> <VdW12>
6.662

> <Bond>
0.107

> <Angle>
2.420

> <Pdih>
4.407

> <Idih>
0.001

> <Tether>
0.000

$$$$
VeraChem MOL file


 19 18  0  0  0  0  0  0  0  0999 V2000     
   17.9416   20.3906   21.0013 C   0  0  0  0  0  0  0  0  0  0  0  0
   16.8301   19.9815   21.2733 O   0  5  0  0  0  0  0  0  0  0  0  0
   18.3105   20.6302   19.8686 O   0  0  0  0  0  0  0  0  0  0  0  0
   18.9183   20.6367   22.1481 C   0  0  0  0  0  0  0  0  0  0  0  0
   18.3742   21.1786   22.9306 H   0  0  0  0  0  0  0  0  0  0  0  0
   19.7136   21.3040   21.7944 H   0  0  0  0  0  0  0  0  0  0  0  0
   19.5317   19.3435   22.7458 C   0  0  0  0  0  0  0  0  0  0  0  0
   20.0915   19.6100   23.6513 H   0  0  0  0  0  0  0  0  0  0  0  0
   18.7233   18.6685   23.0592 H   0  0  0  0  0  0  0  0  0  0  0  0
   20.4674   18.6153   21.7513 C   0  0  0  0  0  0  0  0  0  0  0  0
   21.2961   19.2788   21.4689 H   0  0  0  0  0  0  0  0  0  0  0  0
   19.9143   18.4001   20.8268 H   0  0  0  0  0  0  0  0  0  0  0  0
   21.0330   17.2856   22.3015 C   0  0  0  0  0  0  0  0  0  0  0  0
   20.2061   16.6189   22.5829 H   0  0  0  0  0  0  0  0  0  0  0  0
   21.5815   16.7768   21.4968 H   0  0  0  0  0  0  0  0  0  0  0  0
   21.9809   17.4750   23.5054 C   0  0  0  0  0  0  0  0  0  0  0  0
   21.4473   17.8735   24.3773 H   0  0  0  0  0  0  0  0  0  0  0  0
   22.4249   16.5149   23.7987 H   0  0  0  0  0  0  0  0  0  0  0  0
   22.7989   18.1637   23.2569 H   0  0  0  0  0  0  0  0  0  0  0  0
  1  2  1  0  0  0  0
  1  3  2  0  0  0  0
  1  4  1  0  0  0  0
  4  5  1  0  0  0  0
  4  6  1  0  0  0  0
  4  7  1  0  0  0  0
  7  8  1  0  0  0  0
  7  9  1  0  0  0  0
  7 10  1  0  0  0  0
 10 11  1  0  0  0  0
 10 12  1  0  0  0  0
 10 13  1  0  0  0  0
 13 14  1  0  0  0  0
 13 15  1  0  0  0  0
 13 16  1  0  0  0  0
 16 17  1  0  0  0  0
 16 18  1  0  0  0  0
 16 19  1  0  0  0  0
M  END
> <VConfSearch Rank>
845

> <Conf_Id>
74

> <Delta U+W>
0.797

> <U+W>
-54.095

> <U>
8.869

> <W>
-62.964

> <W(PB)>
-65.046

> <W(SA)>
2.082

> <Valence>
7.469

> <Coulomb>
0.762

> <VdW>
0.639

> <VdW6>
-6.782

> <VdW12>
7.421

> <Bond>
0.141

> <Angle>
2.667

> <Pdih>
4.660

> <Idih>
0.001

> <Tether>
0.000

$$$$
VeraChem MOL file


 19 18  0  0  0  0  0  0  0  0999 V2000     
   17.4111   18.5992   23.6750 C   0  0  0  0  0  0  0  0  0  0  0  0
   16.5685   19.4330   23.9419 O   0  5  0  0  0  0  0  0  0  0  0  0
   17.1745   17.4111   23.5806 O   0  0  0  0  0  0  0  0  0  0  0  0
   18.8389   19.0722   23.4266 C   0  0  0  0  0  0  0  0  0  0  0  0
   19.5166   18.2812   23.7675 H   0  0  0  0  0  0  0  0  0  0  0  0
   19.0212   19.9516   24.0557 H   0  0  0  0  0  0  0  0  0  0  0  0
   19.1080   19.4142   21.9382 C   0  0  0  0  0  0  0  0  0  0  0  0
   18.9596   18.5171   21.3226 H   0  0  0  0  0  0  0  0  0  0  0  0
   18.3558   20.1410   21.6020 H   0  0  0  0  0  0  0  0  0  0  0  0
   20.5160   20.0091   21.6843 C   0  0  0  0  0  0  0  0  0  0  0  0
   20.6047   20.9586   22.2295 H   0  0  0  0  0  0  0  0  0  0  0  0
   20.6049   20.2619   20.6189 H   0  0  0  0  0  0  0  0  0  0  0  0
   21.7004   19.0942   22.0818 C   0  0  0  0  0  0  0  0  0  0  0  0
   22.6386   19.6255   21.8708 H   0  0  0  0  0  0  0  0  0  0  0  0
   21.6923   18.9121   23.1646 H   0  0  0  0  0  0  0  0  0  0  0  0
   21.7126   17.7472   21.3275 C   0  0  0  0  0  0  0  0  0  0  0  0
   21.6978   17.9051   20.2413 H   0  0  0  0  0  0  0  0  0  0  0  0
   22.6171   17.1766   21.5746 H   0  0  0  0  0  0  0  0  0  0  0  0
   20.8461   17.1307   21.5985 H   0  0  0  0  0  0  0  0  0  0  0  0
  1  2  1  0  0  0  0
  1  3  2  0  0  0  0
  1  4  1  0  0  0  0
  4  5  1  0  0  0  0
  4  6  1  0  0  0  0
  4  7  1  0  0  0  0
  7  8  1  0  0  0  0
  7  9  1  0  0  0  0
  7 10  1  0  0  0  0
 10 11  1  0  0  0  0
 10 12  1  0  0  0  0
 10 13  1  0  0  0  0
 13 14  1  0  0  0  0
 13 15  1  0  0  0  0
 13 16  1  0  0  0  0
 16 17  1  0  0  0  0
 16 18  1  0  0  0  0
 16 19  1  0  0  0  0
M  END
> <VConfSearch Rank>
846

> <Conf_Id>
67

> <Delta U+W>
0.308

> <U+W>
-54.583

> <U>
8.219

> <W>
-62.802

> <W(PB)>
-64.859

> <W(SA)>
2.057

> <Valence>
7.609

> <Coulomb>
-0.089

> <VdW>
0.699

> <VdW6>
-6.924

> <VdW12>
7.623

> <Bond>
0.163

> <Angle>
2.870

> <Pdih>
4.576

> <Idih>
0.001

> <Tether>
0.000

$$$$
VeraChem MOL file


 19 18  0  0  0  0  0  0  0  0999 V2000     
   20.9057   20.0658   19.7619 C   0  0  0  0  0  0  0  0  0  0  0  0
   20.2921   20.2375   18.7273 O   0  5  0  0  0  0  0  0  0  0  0  0
   22.1158   19.9723   19.8180 O   0  0  0  0  0  0  0  0  0  0  0  0
   20.1120   19.9414   21.0576 C   0  0  0  0  0  0  0  0  0  0  0  0
   19.2161   20.5676   20.9702 H   0  0  0  0  0  0  0  0  0  0  0  0
   20.7240   20.3587   21.8653 H   0  0  0  0  0  0  0  0  0  0  0  0
   19.7124   18.4780   21.3791 C   0  0  0  0  0  0  0  0  0  0  0  0
   19.1802   18.0597   20.5137 H   0  0  0  0  0  0  0  0  0  0  0  0
   20.6177   17.8687   21.5021 H   0  0  0  0  0  0  0  0  0  0  0  0
   18.8049   18.3439   22.6278 C   0  0  0  0  0  0  0  0  0  0  0  0
   18.5353   17.2867   22.7557 H   0  0  0  0  0  0  0  0  0  0  0  0
   17.8624   18.8766   22.4414 H   0  0  0  0  0  0  0  0  0  0  0  0
   19.4195   18.8668   23.9494 C   0  0  0  0  0  0  0  0  0  0  0  0
   19.6014   19.9475   23.8817 H   0  0  0  0  0  0  0  0  0  0  0  0
   18.6834   18.7332   24.7541 H   0  0  0  0  0  0  0  0  0  0  0  0
   20.7244   18.1431   24.3454 C   0  0  0  0  0  0  0  0  0  0  0  0
   21.5267   18.3447   23.6244 H   0  0  0  0  0  0  0  0  0  0  0  0
   21.0690   18.4837   25.3303 H   0  0  0  0  0  0  0  0  0  0  0  0
   20.5713   17.0573   24.3969 H   0  0  0  0  0  0  0  0  0  0  0  0
  1  2  1  0  0  0  0
  1  3  2  0  0  0  0
  1  4  1  0  0  0  0
  4  5  1  0  0  0  0
  4  6  1  0  0  0  0
  4  7  1  0  0  0  0
  7  8  1  0  0  0  0
  7  9  1  0  0  0  0
  7 10  1  0  0  0  0
 10 11  1  0  0  0  0
 10 12  1  0  0  0  0
 10 13  1  0  0  0  0
 13 14  1  0  0  0  0
 13 15  1  0  0  0  0
 13 16  1  0  0  0  0
 16 17  1  0  0  0  0
 16 18  1  0  0  0  0
 16 19  1  0  0  0  0
M  END
> <VConfSearch Rank>
847

> <Conf_Id>
21

> <Delta U+W>
0.319

> <U+W>
-54.572

> <U>
8.220

> <W>
-62.792

> <W(PB)>
-64.830

> <W(SA)>
2.038

> <Valence>
7.609

> <Coulomb>
-0.088

> <VdW>
0.699

> <VdW6>
-6.924

> <VdW12>
7.623

> <Bond>
0.163

> <Angle>
2.870

> <Pdih>
4.576

> <Idih>
0.000

> <Tether>
0.000

$$$$
VeraChem MOL file


 19 18  0  0  0  0  0  0  0  0999 V2000     
   17.2124   18.5276   23.0521 C   0  0  0  0  0  0  0  0  0  0  0  0
   16.7109   18.2540   24.1245 O   0  5  0  0  0  0  0  0  0  0  0  0
   16.6097   19.0694   22.1469 O   0  0  0  0  0  0  0  0  0  0  0  0
   18.6833   18.1888   22.8378 C   0  0  0  0  0  0  0  0  0  0  0  0
   18.8228   17.9541   21.7780 H   0  0  0  0  0  0  0  0  0  0  0  0
   18.9046   17.2732   23.3991 H   0  0  0  0  0  0  0  0  0  0  0  0
   19.6341   19.3299   23.2866 C   0  0  0  0  0  0  0  0  0  0  0  0
   19.3760   20.2635   22.7679 H   0  0  0  0  0  0  0  0  0  0  0  0
   19.4582   19.5152   24.3553 H   0  0  0  0  0  0  0  0  0  0  0  0
   21.1343   18.9993   23.0814 C   0  0  0  0  0  0  0  0  0  0  0  0
   21.3004   17.9164   23.1634 H   0  0  0  0  0  0  0  0  0  0  0  0
   21.6995   19.4513   23.9080 H   0  0  0  0  0  0  0  0  0  0  0  0
   21.7386   19.5318   21.7589 C   0  0  0  0  0  0  0  0  0  0  0  0
   21.6475   20.6263   21.7268 H   0  0  0  0  0  0  0  0  0  0  0  0
   22.8154   19.3131   21.7552 H   0  0  0  0  0  0  0  0  0  0  0  0
   21.1080   18.9286   20.4868 C   0  0  0  0  0  0  0  0  0  0  0  0
   21.6652   19.2451   19.5956 H   0  0  0  0  0  0  0  0  0  0  0  0
   21.1205   17.8315   20.5224 H   0  0  0  0  0  0  0  0  0  0  0  0
   20.0705   19.2632   20.3630 H   0  0  0  0  0  0  0  0  0  0  0  0
  1  2  1  0  0  0  0
  1  3  2  0  0  0  0
  1  4  1  0  0  0  0
  4  5  1  0  0  0  0
  4  6  1  0  0  0  0
  4  7  1  0  0  0  0
  7  8  1  0  0  0  0
  7  9  1  0  0  0  0
  7 10  1  0  0  0  0
 10 11  1  0  0  0  0
 10 12  1  0  0  0  0
 10 13  1  0  0  0  0
 13 14  1  0  0  0  0
 13 15  1  0  0  0  0
 13 16  1  0  0  0  0
 16 17  1  0  0  0  0
 16 18  1  0  0  0  0
 16 19  1  0  0  0  0
M  END
> <VConfSearch Rank>
848

> <Conf_Id>
24

> <Delta U+W>
2.477

> <U+W>
-52.414

> <U>
10.422

> <W>
-62.836

> <W(PB)>
-64.906

> <W(SA)>
2.070

> <Valence>
9.628

> <Coulomb>
0.101

> <VdW>
0.693

> <VdW6>
-6.927

> <VdW12>
7.620

> <Bond>
0.173

> <Angle>
2.989

> <Pdih>
6.465

> <Idih>
0.001

> <Tether>
0.000

$$$$
VeraChem MOL file


 19 18  0  0  0  0  0  0  0  0999 V2000     
   18.6355   19.3391   20.1267 C   0  0  0  0  0  0  0  0  0  0  0  0
   17.9591   20.2895   20.4671 O   0  5  0  0  0  0  0  0  0  0  0  0
   19.0164   19.1611   18.9864 O   0  0  0  0  0  0  0  0  0  0  0  0
   19.0037   18.2964   21.1791 C   0  0  0  0  0  0  0  0  0  0  0  0
   18.7714   17.3126   20.7549 H   0  0  0  0  0  0  0  0  0  0  0  0
   18.3439   18.4292   22.0423 H   0  0  0  0  0  0  0  0  0  0  0  0
   20.4973   18.3313   21.6069 C   0  0  0  0  0  0  0  0  0  0  0  0
   20.7354   17.4379   22.1997 H   0  0  0  0  0  0  0  0  0  0  0  0
   21.1123   18.2636   20.6987 H   0  0  0  0  0  0  0  0  0  0  0  0
   20.9047   19.6051   22.3922 C   0  0  0  0  0  0  0  0  0  0  0  0
   20.2928   20.4623   22.0797 H   0  0  0  0  0  0  0  0  0  0  0  0
   21.9369   19.8601   22.1158 H   0  0  0  0  0  0  0  0  0  0  0  0
   20.8589   19.4562   23.9329 C   0  0  0  0  0  0  0  0  0  0  0  0
   21.5423   18.6553   24.2468 H   0  0  0  0  0  0  0  0  0  0  0  0
   21.2428   20.3818   24.3834 H   0  0  0  0  0  0  0  0  0  0  0  0
   19.4507   19.1794   24.4986 C   0  0  0  0  0  0  0  0  0  0  0  0
   19.0970   18.1824   24.2086 H   0  0  0  0  0  0  0  0  0  0  0  0
   19.4629   19.2197   25.5954 H   0  0  0  0  0  0  0  0  0  0  0  0
   18.7289   19.9247   24.1395 H   0  0  0  0  0  0  0  0  0  0  0  0
  1  2  1  0  0  0  0
  1  3  2  0  0  0  0
  1  4  1  0  0  0  0
  4  5  1  0  0  0  0
  4  6  1  0  0  0  0
  4  7  1  0  0  0  0
  7  8  1  0  0  0  0
  7  9  1  0  0  0  0
  7 10  1  0  0  0  0
 10 11  1  0  0  0  0
 10 12  1  0  0  0  0
 10 13  1  0  0  0  0
 13 14  1  0  0  0  0
 13 15  1  0  0  0  0
 13 16  1  0  0  0  0
 16 17  1  0  0  0  0
 16 18  1  0  0  0  0
 16 19  1  0  0  0  0
M  END
> <VConfSearch Rank>
849

> <Conf_Id>
4

> <Delta U+W>
3.753

> <U+W>
-51.138

> <U>
12.334

> <W>
-63.472

> <W(PB)>
-65.500

> <W(SA)>
2.028

> <Valence>
9.984

> <Coulomb>
1.767

> <VdW>
0.583

> <VdW6>
-7.767

> <VdW12>
8.349

> <Bond>
0.203

> <Angle>
3.191

> <Pdih>
6.589

> <Idih>
0.001

> <Tether>
0.000

$$$$
VeraChem MOL file


 19 18  0  0  0  0  0  0  0  0999 V2000     
   19.7608   16.8056   23.9625 C   0  0  0  0  0  0  0  0  0  0  0  0
   19.2644   15.7128   23.7714 O   0  5  0  0  0  0  0  0  0  0  0  0
   20.8293   16.9689   24.5178 O   0  0  0  0  0  0  0  0  0  0  0  0
   18.9846   18.0380   23.5056 C   0  0  0  0  0  0  0  0  0  0  0  0
   19.3957   18.9142   24.0169 H   0  0  0  0  0  0  0  0  0  0  0  0
   17.9542   17.9218   23.8615 H   0  0  0  0  0  0  0  0  0  0  0  0
   18.9755   18.2432   21.9652 C   0  0  0  0  0  0  0  0  0  0  0  0
   18.6201   17.3129   21.5008 H   0  0  0  0  0  0  0  0  0  0  0  0
   18.2407   19.0141   21.6969 H   0  0  0  0  0  0  0  0  0  0  0  0
   20.3583   18.6054   21.3633 C   0  0  0  0  0  0  0  0  0  0  0  0
   20.4303   18.1396   20.3710 H   0  0  0  0  0  0  0  0  0  0  0  0
   21.1664   18.1605   21.9599 H   0  0  0  0  0  0  0  0  0  0  0  0
   20.6071   20.1232   21.1842 C   0  0  0  0  0  0  0  0  0  0  0  0
   21.5728   20.2601   20.6783 H   0  0  0  0  0  0  0  0  0  0  0  0
   19.8463   20.5454   20.5132 H   0  0  0  0  0  0  0  0  0  0  0  0
   20.6248   20.9201   22.5048 C   0  0  0  0  0  0  0  0  0  0  0  0
   21.3244   20.4744   23.2241 H   0  0  0  0  0  0  0  0  0  0  0  0
   20.9384   21.9563   22.3238 H   0  0  0  0  0  0  0  0  0  0  0  0
   19.6277   20.9517   22.9610 H   0  0  0  0  0  0  0  0  0  0  0  0
  1  2  1  0  0  0  0
  1  3  2  0  0  0  0
  1  4  1  0  0  0  0
  4  5  1  0  0  0  0
  4  6  1  0  0  0  0
  4  7  1  0  0  0  0
  7  8  1  0  0  0  0
  7  9  1  0  0  0  0
  7 10  1  0  0  0  0
 10 11  1  0  0  0  0
 10 12  1  0  0  0  0
 10 13  1  0  0  0  0
 13 14  1  0  0  0  0
 13 15  1  0  0  0  0
 13 16  1  0  0  0  0
 16 17  1  0  0  0  0
 16 18  1  0  0  0  0
 16 19  1  0  0  0  0
M  END
> <VConfSearch Rank>
850

> <Conf_Id>
73

> <Delta U+W>
3.707

> <U+W>
-51.184

> <U>
12.334

> <W>
-63.519

> <W(PB)>
-65.541

> <W(SA)>
2.022

> <Valence>
9.984

> <Coulomb>
1.768

> <VdW>
0.583

> <VdW6>
-7.767

> <VdW12>
8.350

> <Bond>
0.203

> <Angle>
3.192

> <Pdih>
6.589

> <Idih>
0.001

> <Tether>
0.000

$$$$
VeraChem MOL file


 19 18  0  0  0  0  0  0  0  0999 V2000     
   19.8259   18.3248   19.9037 C   0  0  0  0  0  0  0  0  0  0  0  0
   19.3587   17.2152   20.0686 O   0  5  0  0  0  0  0  0  0  0  0  0
   19.5954   19.0118   18.9280 O   0  0  0  0  0  0  0  0  0  0  0  0
   20.7789   18.8747   20.9615 C   0  0  0  0  0  0  0  0  0  0  0  0
   21.6776   19.2252   20.4406 H   0  0  0  0  0  0  0  0  0  0  0  0
   21.0978   18.0508   21.6101 H   0  0  0  0  0  0  0  0  0  0  0  0
   20.1884   20.0369   21.8057 C   0  0  0  0  0  0  0  0  0  0  0  0
   20.9608   20.4187   22.4858 H   0  0  0  0  0  0  0  0  0  0  0  0
   19.9409   20.8696   21.1330 H   0  0  0  0  0  0  0  0  0  0  0  0
   18.9208   19.6606   22.6155 C   0  0  0  0  0  0  0  0  0  0  0  0
   18.1150   19.3961   21.9171 H   0  0  0  0  0  0  0  0  0  0  0  0
   18.5711   20.5504   23.1564 H   0  0  0  0  0  0  0  0  0  0  0  0
   19.1034   18.5007   23.6247 C   0  0  0  0  0  0  0  0  0  0  0  0
   18.1414   18.3156   24.1219 H   0  0  0  0  0  0  0  0  0  0  0  0
   19.3521   17.5729   23.0921 H   0  0  0  0  0  0  0  0  0  0  0  0
   20.1718   18.7886   24.7014 C   0  0  0  0  0  0  0  0  0  0  0  0
   21.1726   18.8683   24.2587 H   0  0  0  0  0  0  0  0  0  0  0  0
   19.9531   19.7246   25.2314 H   0  0  0  0  0  0  0  0  0  0  0  0
   20.1990   17.9785   25.4416 H   0  0  0  0  0  0  0  0  0  0  0  0
  1  2  1  0  0  0  0
  1  3  2  0  0  0  0
  1  4  1  0  0  0  0
  4  5  1  0  0  0  0
  4  6  1  0  0  0  0
  4  7  1  0  0  0  0
  7  8  1  0  0  0  0
  7  9  1  0  0  0  0
  7 10  1  0  0  0  0
 10 11  1  0  0  0  0
 10 12  1  0  0  0  0
 10 13  1  0  0  0  0
 13 14  1  0  0  0  0
 13 15  1  0  0  0  0
 13 16  1  0  0  0  0
 16 17  1  0  0  0  0
 16 18  1  0  0  0  0
 16 19  1  0  0  0  0
M  END
> <VConfSearch Rank>
851

> <Conf_Id>
56

> <Delta U+W>
1.735

> <U+W>
-53.156

> <U>
10.214

> <W>
-63.370

> <W(PB)>
-65.388

> <W(SA)>
2.018

> <Valence>
7.868

> <Coulomb>
1.968

> <VdW>
0.378

> <VdW6>
-8.067

> <VdW12>
8.445

> <Bond>
0.191

> <Angle>
3.117

> <Pdih>
4.559

> <Idih>
0.001

> <Tether>
0.000

$$$$
VeraChem MOL file


 19 18  0  0  0  0  0  0  0  0999 V2000     
   17.6548   20.7611   22.1858 C   0  0  0  0  0  0  0  0  0  0  0  0
   16.7462   20.7241   22.9917 O   0  5  0  0  0  0  0  0  0  0  0  0
   17.6130   21.4030   21.1550 O   0  0  0  0  0  0  0  0  0  0  0  0
   18.9068   19.9401   22.4736 C   0  0  0  0  0  0  0  0  0  0  0  0
   19.0420   19.8932   23.5608 H   0  0  0  0  0  0  0  0  0  0  0  0
   19.7623   20.4835   22.0573 H   0  0  0  0  0  0  0  0  0  0  0  0
   18.8374   18.5105   21.8799 C   0  0  0  0  0  0  0  0  0  0  0  0
   17.8973   18.0416   22.2018 H   0  0  0  0  0  0  0  0  0  0  0  0
   18.7888   18.5760   20.7842 H   0  0  0  0  0  0  0  0  0  0  0  0
   20.0120   17.5890   22.2941 C   0  0  0  0  0  0  0  0  0  0  0  0
   19.8234   16.5980   21.8588 H   0  0  0  0  0  0  0  0  0  0  0  0
   20.0105   17.4418   23.3828 H   0  0  0  0  0  0  0  0  0  0  0  0
   21.4071   18.0660   21.8194 C   0  0  0  0  0  0  0  0  0  0  0  0
   22.0105   17.1842   21.5631 H   0  0  0  0  0  0  0  0  0  0  0  0
   21.3153   18.6523   20.8947 H   0  0  0  0  0  0  0  0  0  0  0  0
   22.1736   18.8722   22.8914 C   0  0  0  0  0  0  0  0  0  0  0  0
   23.1599   19.1712   22.5139 H   0  0  0  0  0  0  0  0  0  0  0  0
   21.6365   19.7824   23.1805 H   0  0  0  0  0  0  0  0  0  0  0  0
   22.3294   18.2693   23.7955 H   0  0  0  0  0  0  0  0  0  0  0  0
  1  2  1  0  0  0  0
  1  3  2  0  0  0  0
  1  4  1  0  0  0  0
  4  5  1  0  0  0  0
  4  6  1  0  0  0  0
  4  7  1  0  0  0  0
  7  8  1  0  0  0  0
  7  9  1  0  0  0  0
  7 10  1  0  0  0  0
 10 11  1  0  0  0  0
 10 12  1  0  0  0  0
 10 13  1  0  0  0  0
 13 14  1  0  0  0  0
 13 15  1  0  0  0  0
 13 16  1  0  0  0  0
 16 17  1  0  0  0  0
 16 18  1  0  0  0  0
 16 19  1  0  0  0  0
M  END
> <VConfSearch Rank>
852

> <Conf_Id>
53

> <Delta U+W>
2.279

> <U+W>
-52.612

> <U>
10.231

> <W>
-62.843

> <W(PB)>
-64.893

> <W(SA)>
2.050

> <Valence>
9.644

> <Coulomb>
-0.164

> <VdW>
0.751

> <VdW6>
-6.881

> <VdW12>
7.631

> <Bond>
0.163

> <Angle>
2.998

> <Pdih>
6.482

> <Idih>
0.001

> <Tether>
0.000

$$$$
VeraChem MOL file


 19 18  0  0  0  0  0  0  0  0999 V2000     
   20.2976   17.7757   20.3635 C   0  0  0  0  0  0  0  0  0  0  0  0
   21.4513   17.9513   20.0244 O   0  5  0  0  0  0  0  0  0  0  0  0
   19.3432   18.1111   19.6897 O   0  0  0  0  0  0  0  0  0  0  0  0
   20.0366   17.0320   21.6720 C   0  0  0  0  0  0  0  0  0  0  0  0
   20.9974   16.7551   22.1227 H   0  0  0  0  0  0  0  0  0  0  0  0
   19.5366   16.0952   21.3997 H   0  0  0  0  0  0  0  0  0  0  0  0
   19.1573   17.7926   22.7042 C   0  0  0  0  0  0  0  0  0  0  0  0
   18.2939   18.2467   22.1983 H   0  0  0  0  0  0  0  0  0  0  0  0
   18.7430   17.0551   23.4049 H   0  0  0  0  0  0  0  0  0  0  0  0
   19.9089   18.8618   23.5351 C   0  0  0  0  0  0  0  0  0  0  0  0
   20.7661   18.3997   24.0436 H   0  0  0  0  0  0  0  0  0  0  0  0
   19.2347   19.2158   24.3270 H   0  0  0  0  0  0  0  0  0  0  0  0
   20.3875   20.0777   22.7117 C   0  0  0  0  0  0  0  0  0  0  0  0
   21.1633   19.7687   21.9996 H   0  0  0  0  0  0  0  0  0  0  0  0
   19.5521   20.4807   22.1226 H   0  0  0  0  0  0  0  0  0  0  0  0
   20.9584   21.1859   23.6194 C   0  0  0  0  0  0  0  0  0  0  0  0
   21.8126   20.8151   24.2010 H   0  0  0  0  0  0  0  0  0  0  0  0
   21.3016   22.0383   23.0189 H   0  0  0  0  0  0  0  0  0  0  0  0
   20.1973   21.5508   24.3215 H   0  0  0  0  0  0  0  0  0  0  0  0
  1  2  1  0  0  0  0
  1  3  2  0  0  0  0
  1  4  1  0  0  0  0
  4  5  1  0  0  0  0
  4  6  1  0  0  0  0
  4  7  1  0  0  0  0
  7  8  1  0  0  0  0
  7  9  1  0  0  0  0
  7 10  1  0  0  0  0
 10 11  1  0  0  0  0
 10 12  1  0  0  0  0
 10 13  1  0  0  0  0
 13 14  1  0  0  0  0
 13 15  1  0  0  0  0
 13 16  1  0  0  0  0
 16 17  1  0  0  0  0
 16 18  1  0  0  0  0
 16 19  1  0  0  0  0
M  END
> <VConfSearch Rank>
853

> <Conf_Id>
25

> <Delta U+W>
2.065

> <U+W>
-52.826

> <U>
10.967

> <W>
-63.794

> <W(PB)>
-65.830

> <W(SA)>
2.036

> <Valence>
8.609

> <Coulomb>
1.892

> <VdW>
0.467

> <VdW6>
-7.569

> <VdW12>
8.036

> <Bond>
0.170

> <Angle>
3.195

> <Pdih>
5.237

> <Idih>
0.007

> <Tether>
0.000

$$$$
VeraChem MOL file


 19 18  0  0  0  0  0  0  0  0999 V2000     
   18.0857   17.6409   23.0360 C   0  0  0  0  0  0  0  0  0  0  0  0
   17.1610   18.4295   23.0543 O   0  5  0  0  0  0  0  0  0  0  0  0
   18.4057   16.9622   23.9919 O   0  0  0  0  0  0  0  0  0  0  0  0
   18.8418   17.4395   21.7240 C   0  0  0  0  0  0  0  0  0  0  0  0
   18.1142   17.0424   21.0067 H   0  0  0  0  0  0  0  0  0  0  0  0
   19.6003   16.6601   21.8653 H   0  0  0  0  0  0  0  0  0  0  0  0
   19.4910   18.7205   21.1283 C   0  0  0  0  0  0  0  0  0  0  0  0
   19.6696   18.5438   20.0591 H   0  0  0  0  0  0  0  0  0  0  0  0
   18.7828   19.5590   21.1818 H   0  0  0  0  0  0  0  0  0  0  0  0
   20.8411   19.1237   21.7713 C   0  0  0  0  0  0  0  0  0  0  0  0
   21.2753   19.9368   21.1735 H   0  0  0  0  0  0  0  0  0  0  0  0
   21.5464   18.2838   21.7080 H   0  0  0  0  0  0  0  0  0  0  0  0
   20.7248   19.5945   23.2377 C   0  0  0  0  0  0  0  0  0  0  0  0
   19.9464   20.3656   23.3207 H   0  0  0  0  0  0  0  0  0  0  0  0
   20.4181   18.7582   23.8787 H   0  0  0  0  0  0  0  0  0  0  0  0
   22.0629   20.1563   23.7591 C   0  0  0  0  0  0  0  0  0  0  0  0
   21.9656   20.4781   24.8041 H   0  0  0  0  0  0  0  0  0  0  0  0
   22.8530   19.3955   23.7108 H   0  0  0  0  0  0  0  0  0  0  0  0
   22.3837   21.0228   23.1662 H   0  0  0  0  0  0  0  0  0  0  0  0
  1  2  1  0  0  0  0
  1  3  2  0  0  0  0
  1  4  1  0  0  0  0
  4  5  1  0  0  0  0
  4  6  1  0  0  0  0
  4  7  1  0  0  0  0
  7  8  1  0  0  0  0
  7  9  1  0  0  0  0
  7 10  1  0  0  0  0
 10 11  1  0  0  0  0
 10 12  1  0  0  0  0
 10 13  1  0  0  0  0
 13 14  1  0  0  0  0
 13 15  1  0  0  0  0
 13 16  1  0  0  0  0
 16 17  1  0  0  0  0
 16 18  1  0  0  0  0
 16 19  1  0  0  0  0
M  END
> <VConfSearch Rank>
854

> <Conf_Id>
52

> <Delta U+W>
2.070

> <U+W>
-52.822

> <U>
10.967

> <W>
-63.789

> <W(PB)>
-65.837

> <W(SA)>
2.048

> <Valence>
8.609

> <Coulomb>
1.892

> <VdW>
0.467

> <VdW6>
-7.569

> <VdW12>
8.035

> <Bond>
0.170

> <Angle>
3.196

> <Pdih>
5.237

> <Idih>
0.007

> <Tether>
0.000

$$$$
VeraChem MOL file


 19 18  0  0  0  0  0  0  0  0999 V2000     
   20.8944   18.1020   20.9074 C   0  0  0  0  0  0  0  0  0  0  0  0
   20.0881   17.9373   20.0126 O   0  5  0  0  0  0  0  0  0  0  0  0
   21.9282   18.7248   20.7648 O   0  0  0  0  0  0  0  0  0  0  0  0
   20.6665   17.3897   22.2416 C   0  0  0  0  0  0  0  0  0  0  0  0
   21.3923   17.7624   22.9743 H   0  0  0  0  0  0  0  0  0  0  0  0
   20.9119   16.3357   22.0676 H   0  0  0  0  0  0  0  0  0  0  0  0
   19.2251   17.4809   22.8190 C   0  0  0  0  0  0  0  0  0  0  0  0
   18.4891   17.3650   22.0115 H   0  0  0  0  0  0  0  0  0  0  0  0
   19.0736   16.6206   23.4847 H   0  0  0  0  0  0  0  0  0  0  0  0
   18.9157   18.7617   23.6356 C   0  0  0  0  0  0  0  0  0  0  0  0
   19.5875   18.8255   24.5025 H   0  0  0  0  0  0  0  0  0  0  0  0
   17.9052   18.6505   24.0523 H   0  0  0  0  0  0  0  0  0  0  0  0
   18.9566   20.0800   22.8254 C   0  0  0  0  0  0  0  0  0  0  0  0
   18.8077   19.8783   21.7556 H   0  0  0  0  0  0  0  0  0  0  0  0
   18.1139   20.7131   23.1355 H   0  0  0  0  0  0  0  0  0  0  0  0
   20.2610   20.8760   23.0451 C   0  0  0  0  0  0  0  0  0  0  0  0
   20.3683   21.1686   24.0976 H   0  0  0  0  0  0  0  0  0  0  0  0
   21.1427   20.2875   22.7657 H   0  0  0  0  0  0  0  0  0  0  0  0
   20.2609   21.7906   22.4384 H   0  0  0  0  0  0  0  0  0  0  0  0
  1  2  1  0  0  0  0
  1  3  2  0  0  0  0
  1  4  1  0  0  0  0
  4  5  1  0  0  0  0
  4  6  1  0  0  0  0
  4  7  1  0  0  0  0
  7  8  1  0  0  0  0
  7  9  1  0  0  0  0
  7 10  1  0  0  0  0
 10 11  1  0  0  0  0
 10 12  1  0  0  0  0
 10 13  1  0  0  0  0
 13 14  1  0  0  0  0
 13 15  1  0  0  0  0
 13 16  1  0  0  0  0
 16 17  1  0  0  0  0
 16 18  1  0  0  0  0
 16 19  1  0  0  0  0
M  END
> <VConfSearch Rank>
855

> <Conf_Id>
66

> <Delta U+W>
5.819

> <U+W>
-49.072

> <U>
15.324

> <W>
-64.396

> <W(PB)>
-66.382

> <W(SA)>
1.986

> <Valence>
11.748

> <Coulomb>
3.201

> <VdW>
0.375

> <VdW6>
-8.854

> <VdW12>
9.229

> <Bond>
0.216

> <Angle>
3.812

> <Pdih>
7.699

> <Idih>
0.022

> <Tether>
0.000

$$$$
VeraChem MOL file


 19 18  0  0  0  0  0  0  0  0999 V2000     
   21.4548   17.6683   24.9549 C   0  0  0  0  0  0  0  0  0  0  0  0
   22.5444   17.3759   25.4053 O   0  5  0  0  0  0  0  0  0  0  0  0
   20.4217   17.5435   25.5837 O   0  0  0  0  0  0  0  0  0  0  0  0
   21.4135   18.2161   23.5274 C   0  0  0  0  0  0  0  0  0  0  0  0
   21.8744   17.4648   22.8752 H   0  0  0  0  0  0  0  0  0  0  0  0
   22.0565   19.1036   23.4988 H   0  0  0  0  0  0  0  0  0  0  0  0
   20.0004   18.5754   22.9957 C   0  0  0  0  0  0  0  0  0  0  0  0
   19.3596   17.6836   23.0324 H   0  0  0  0  0  0  0  0  0  0  0  0
   19.5419   19.3240   23.6567 H   0  0  0  0  0  0  0  0  0  0  0  0
   20.0516   19.1193   21.5515 C   0  0  0  0  0  0  0  0  0  0  0  0
   20.5105   18.3694   20.8925 H   0  0  0  0  0  0  0  0  0  0  0  0
   20.6929   20.0108   21.5171 H   0  0  0  0  0  0  0  0  0  0  0  0
   18.6459   19.4759   21.0249 C   0  0  0  0  0  0  0  0  0  0  0  0
   18.0018   18.5862   21.0559 H   0  0  0  0  0  0  0  0  0  0  0  0
   18.1843   20.2274   21.6804 H   0  0  0  0  0  0  0  0  0  0  0  0
   18.7008   20.0185   19.5828 C   0  0  0  0  0  0  0  0  0  0  0  0
   19.1298   19.2742   18.8992 H   0  0  0  0  0  0  0  0  0  0  0  0
   17.6933   20.2668   19.2244 H   0  0  0  0  0  0  0  0  0  0  0  0
   19.3137   20.9278   19.5283 H   0  0  0  0  0  0  0  0  0  0  0  0
  1  2  1  0  0  0  0
  1  3  2  0  0  0  0
  1  4  1  0  0  0  0
  4  5  1  0  0  0  0
  4  6  1  0  0  0  0
  4  7  1  0  0  0  0
  7  8  1  0  0  0  0
  7  9  1  0  0  0  0
  7 10  1  0  0  0  0
 10 11  1  0  0  0  0
 10 12  1  0  0  0  0
 10 13  1  0  0  0  0
 13 14  1  0  0  0  0
 13 15  1  0  0  0  0
 13 16  1  0  0  0  0
 16 17  1  0  0  0  0
 16 18  1  0  0  0  0
 16 19  1  0  0  0  0
M  END
> <VConfSearch Rank>
856

> <Conf_Id>
0

> <Delta U+W>
0.000

> <U+W>
-54.891

> <U>
6.966

> <W>
-61.857

> <W(PB)>
-63.965

> <W(SA)>
2.108

> <Valence>
7.175

> <Coulomb>
-1.360

> <VdW>
1.151

> <VdW6>
-5.641

> <VdW12>
6.792

> <Bond>
0.119

> <Angle>
2.715

> <Pdih>
4.340

> <Idih>
0.000

> <Tether>
0.000

$$$$
VeraChem MOL file


 19 18  0  0  0  0  0  0  0  0999 V2000     
   18.0526   20.9483   20.1569 C   0  0  0  0  0  0  0  0  0  0  0  0
   18.1634   20.7414   18.9648 O   0  5  0  0  0  0  0  0  0  0  0  0
   17.0413   21.3806   20.6733 O   0  0  0  0  0  0  0  0  0  0  0  0
   19.2409   20.6288   21.0569 C   0  0  0  0  0  0  0  0  0  0  0  0
   19.2347   21.3372   21.8941 H   0  0  0  0  0  0  0  0  0  0  0  0
   20.1595   20.8100   20.4859 H   0  0  0  0  0  0  0  0  0  0  0  0
   19.2201   19.1742   21.5879 C   0  0  0  0  0  0  0  0  0  0  0  0
   18.2889   19.0051   22.1463 H   0  0  0  0  0  0  0  0  0  0  0  0
   19.2136   18.4778   20.7379 H   0  0  0  0  0  0  0  0  0  0  0  0
   20.4329   18.8764   22.4957 C   0  0  0  0  0  0  0  0  0  0  0  0
   20.4374   19.5751   23.3436 H   0  0  0  0  0  0  0  0  0  0  0  0
   21.3622   19.0476   21.9351 H   0  0  0  0  0  0  0  0  0  0  0  0
   20.4096   17.4268   23.0232 C   0  0  0  0  0  0  0  0  0  0  0  0
   19.4823   17.2521   23.5863 H   0  0  0  0  0  0  0  0  0  0  0  0
   20.4070   16.7247   22.1779 H   0  0  0  0  0  0  0  0  0  0  0  0
   21.6219   17.1329   23.9293 C   0  0  0  0  0  0  0  0  0  0  0  0
   21.5895   16.0985   24.2954 H   0  0  0  0  0  0  0  0  0  0  0  0
   22.5637   17.2693   23.3818 H   0  0  0  0  0  0  0  0  0  0  0  0
   21.6320   17.8008   24.8007 H   0  0  0  0  0  0  0  0  0  0  0  0
  1  2  1  0  0  0  0
  1  3  2  0  0  0  0
  1  4  1  0  0  0  0
  4  5  1  0  0  0  0
  4  6  1  0  0  0  0
  4  7  1  0  0  0  0
  7  8  1  0  0  0  0
  7  9  1  0  0  0  0
  7 10  1  0  0  0  0
 10 11  1  0  0  0  0
 10 12  1  0  0  0  0
 10 13  1  0  0  0  0
 13 14  1  0  0  0  0
 13 15  1  0  0  0  0
 13 16  1  0  0  0  0
 16 17  1  0  0  0  0
 16 18  1  0  0  0  0
 16 19  1  0  0  0  0
M  END
> <VConfSearch Rank>
857

> <Conf_Id>
18

> <Delta U+W>
-1.199

> <U+W>
-56.090

> <U>
5.975

> <W>
-62.066

> <W(PB)>
-64.219

> <W(SA)>
2.153

> <Valence>
6.673

> <Coulomb>
-1.307

> <VdW>
0.610

> <VdW6>
-5.351

> <VdW12>
5.961

> <Bond>
0.086

> <Angle>
2.253

> <Pdih>
4.333

> <Idih>
0.001

> <Tether>
0.000

$$$$
VeraChem MOL file


 19 18  0  0  0  0  0  0  0  0999 V2000     
   22.8364   17.8845   21.1263 C   0  0  0  0  0  0  0  0  0  0  0  0
   23.1383   16.7103   21.0462 O   0  5  0  0  0  0  0  0  0  0  0  0
   23.4220   18.7709   20.5367 O   0  0  0  0  0  0  0  0  0  0  0  0
   21.6443   18.2639   21.9977 C   0  0  0  0  0  0  0  0  0  0  0  0
   21.8439   19.2540   22.4228 H   0  0  0  0  0  0  0  0  0  0  0  0
   21.5940   17.5551   22.8329 H   0  0  0  0  0  0  0  0  0  0  0  0
   20.3051   18.2645   21.2156 C   0  0  0  0  0  0  0  0  0  0  0  0
   20.3514   19.0097   20.4094 H   0  0  0  0  0  0  0  0  0  0  0  0
   20.1813   17.2876   20.7281 H   0  0  0  0  0  0  0  0  0  0  0  0
   19.0694   18.5340   22.1066 C   0  0  0  0  0  0  0  0  0  0  0  0
   19.0213   17.7823   22.9064 H   0  0  0  0  0  0  0  0  0  0  0  0
   18.1647   18.3986   21.4981 H   0  0  0  0  0  0  0  0  0  0  0  0
   19.0529   19.9512   22.7220 C   0  0  0  0  0  0  0  0  0  0  0  0
   19.9103   20.0818   23.3952 H   0  0  0  0  0  0  0  0  0  0  0  0
   19.1523   20.7022   21.9260 H   0  0  0  0  0  0  0  0  0  0  0  0
   17.7532   20.2098   23.5101 C   0  0  0  0  0  0  0  0  0  0  0  0
   17.7577   21.2184   23.9432 H   0  0  0  0  0  0  0  0  0  0  0  0
   16.8742   20.1253   22.8576 H   0  0  0  0  0  0  0  0  0  0  0  0
   17.6418   19.4889   24.3307 H   0  0  0  0  0  0  0  0  0  0  0  0
  1  2  1  0  0  0  0
  1  3  2  0  0  0  0
  1  4  1  0  0  0  0
  4  5  1  0  0  0  0
  4  6  1  0  0  0  0
  4  7  1  0  0  0  0
  7  8  1  0  0  0  0
  7  9  1  0  0  0  0
  7 10  1  0  0  0  0
 10 11  1  0  0  0  0
 10 12  1  0  0  0  0
 10 13  1  0  0  0  0
 13 14  1  0  0  0  0
 13 15  1  0  0  0  0
 13 16  1  0  0  0  0
 16 17  1  0  0  0  0
 16 18  1  0  0  0  0
 16 19  1  0  0  0  0
M  END
> <VConfSearch Rank>
858

> <Conf_Id>
34

> <Delta U+W>
-0.563

> <U+W>
-55.455

> <U>
6.914

> <W>
-62.369

> <W(PB)>
-64.446

> <W(SA)>
2.077

> <Valence>
7.196

> <Coulomb>
-1.020

> <VdW>
0.738

> <VdW6>
-6.010

> <VdW12>
6.748

> <Bond>
0.126

> <Angle>
2.499

> <Pdih>
4.570

> <Idih>
0.001

> <Tether>
0.000

$$$$
VeraChem MOL file


 19 18  0  0  0  0  0  0  0  0999 V2000     
   23.1816   19.0073   22.3673 C   0  0  0  0  0  0  0  0  0  0  0  0
   23.7980   19.8520   22.9860 O   0  5  0  0  0  0  0  0  0  0  0  0
   23.6780   18.3090   21.5058 O   0  0  0  0  0  0  0  0  0  0  0  0
   21.6987   18.8292   22.6736 C   0  0  0  0  0  0  0  0  0  0  0  0
   21.5409   19.0553   23.7349 H   0  0  0  0  0  0  0  0  0  0  0  0
   21.4526   17.7716   22.5261 H   0  0  0  0  0  0  0  0  0  0  0  0
   20.7919   19.7292   21.7945 C   0  0  0  0  0  0  0  0  0  0  0  0
   21.1248   20.7714   21.8966 H   0  0  0  0  0  0  0  0  0  0  0  0
   20.9256   19.4632   20.7368 H   0  0  0  0  0  0  0  0  0  0  0  0
   19.2929   19.6488   22.1685 C   0  0  0  0  0  0  0  0  0  0  0  0
   18.7464   20.3998   21.5817 H   0  0  0  0  0  0  0  0  0  0  0  0
   19.1616   19.9236   23.2241 H   0  0  0  0  0  0  0  0  0  0  0  0
   18.6690   18.2589   21.9106 C   0  0  0  0  0  0  0  0  0  0  0  0
   18.8448   17.9614   20.8676 H   0  0  0  0  0  0  0  0  0  0  0  0
   19.1510   17.5038   22.5453 H   0  0  0  0  0  0  0  0  0  0  0  0
   17.1535   18.2586   22.1944 C   0  0  0  0  0  0  0  0  0  0  0  0
   16.9499   18.5264   23.2395 H   0  0  0  0  0  0  0  0  0  0  0  0
   16.6322   18.9771   21.5483 H   0  0  0  0  0  0  0  0  0  0  0  0
   16.7257   17.2646   22.0097 H   0  0  0  0  0  0  0  0  0  0  0  0
  1  2  1  0  0  0  0
  1  3  2  0  0  0  0
  1  4  1  0  0  0  0
  4  5  1  0  0  0  0
  4  6  1  0  0  0  0
  4  7  1  0  0  0  0
  7  8  1  0  0  0  0
  7  9  1  0  0  0  0
  7 10  1  0  0  0  0
 10 11  1  0  0  0  0
 10 12  1  0  0  0  0
 10 13  1  0  0  0  0
 13 14  1  0  0  0  0
 13 15  1  0  0  0  0
 13 16  1  0  0  0  0
 16 17  1  0  0  0  0
 16 18  1  0  0  0  0
 16 19  1  0  0  0  0
M  END
> <VConfSearch Rank>
859

> <Conf_Id>
33

> <Delta U+W>
-0.526

> <U+W>
-55.418

> <U>
6.914

> <W>
-62.332

> <W(PB)>
-64.421

> <W(SA)>
2.090

> <Valence>
7.196

> <Coulomb>
-1.020

> <VdW>
0.738

> <VdW6>
-6.010

> <VdW12>
6.748

> <Bond>
0.126

> <Angle>
2.499

> <Pdih>
4.570

> <Idih>
0.001

> <Tether>
0.000

$$$$
VeraChem MOL file


 19 18  0  0  0  0  0  0  0  0999 V2000     
   21.1565   20.4473   19.7357 C   0  0  0  0  0  0  0  0  0  0  0  0
   20.3842   21.2945   19.3332 O   0  5  0  0  0  0  0  0  0  0  0  0
   22.3648   20.5729   19.7117 O   0  0  0  0  0  0  0  0  0  0  0  0
   20.5773   19.1632   20.3190 C   0  0  0  0  0  0  0  0  0  0  0  0
   21.2730   18.3447   20.0980 H   0  0  0  0  0  0  0  0  0  0  0  0
   19.6400   18.9426   19.7941 H   0  0  0  0  0  0  0  0  0  0  0  0
   20.3259   19.2545   21.8444 C   0  0  0  0  0  0  0  0  0  0  0  0
   21.2712   19.4851   22.3546 H   0  0  0  0  0  0  0  0  0  0  0  0
   19.6427   20.0909   22.0424 H   0  0  0  0  0  0  0  0  0  0  0  0
   19.7358   17.9411   22.4078 C   0  0  0  0  0  0  0  0  0  0  0  0
   20.3977   17.1069   22.1375 H   0  0  0  0  0  0  0  0  0  0  0  0
   18.7667   17.7364   21.9325 H   0  0  0  0  0  0  0  0  0  0  0  0
   19.5654   17.9543   23.9445 C   0  0  0  0  0  0  0  0  0  0  0  0
   19.2563   16.9525   24.2735 H   0  0  0  0  0  0  0  0  0  0  0  0
   20.5339   18.1533   24.4238 H   0  0  0  0  0  0  0  0  0  0  0  0
   18.5224   18.9819   24.4346 C   0  0  0  0  0  0  0  0  0  0  0  0
   17.5525   18.8207   23.9464 H   0  0  0  0  0  0  0  0  0  0  0  0
   18.3744   18.8910   25.5185 H   0  0  0  0  0  0  0  0  0  0  0  0
   18.8454   20.0100   24.2289 H   0  0  0  0  0  0  0  0  0  0  0  0
  1  2  1  0  0  0  0
  1  3  2  0  0  0  0
  1  4  1  0  0  0  0
  4  5  1  0  0  0  0
  4  6  1  0  0  0  0
  4  7  1  0  0  0  0
  7  8  1  0  0  0  0
  7  9  1  0  0  0  0
  7 10  1  0  0  0  0
 10 11  1  0  0  0  0
 10 12  1  0  0  0  0
 10 13  1  0  0  0  0
 13 14  1  0  0  0  0
 13 15  1  0  0  0  0
 13 16  1  0  0  0  0
 16 17  1  0  0  0  0
 16 18  1  0  0  0  0
 16 19  1  0  0  0  0
M  END
> <VConfSearch Rank>
860

> <Conf_Id>
42

> <Delta U+W>
-0.344

> <U+W>
-55.236

> <U>
7.244

> <W>
-62.479

> <W(PB)>
-64.610

> <W(SA)>
2.130

> <Valence>
7.174

> <Coulomb>
-0.669

> <VdW>
0.739

> <VdW6>
-5.969

> <VdW12>
6.708

> <Bond>
0.116

> <Angle>
2.481

> <Pdih>
4.576

> <Idih>
0.000

> <Tether>
0.000

$$$$
VeraChem MOL file


 19 18  0  0  0  0  0  0  0  0999 V2000     
   18.2537   16.8766   23.8242 C   0  0  0  0  0  0  0  0  0  0  0  0
   18.3465   15.7752   23.3195 O   0  5  0  0  0  0  0  0  0  0  0  0
   17.2317   17.3034   24.3239 O   0  0  0  0  0  0  0  0  0  0  0  0
   19.4820   17.7797   23.8135 C   0  0  0  0  0  0  0  0  0  0  0  0
   20.3732   17.1442   23.8815 H   0  0  0  0  0  0  0  0  0  0  0  0
   19.4564   18.4000   24.7176 H   0  0  0  0  0  0  0  0  0  0  0  0
   19.5601   18.6752   22.5524 C   0  0  0  0  0  0  0  0  0  0  0  0
   19.5656   18.0341   21.6611 H   0  0  0  0  0  0  0  0  0  0  0  0
   18.6571   19.2984   22.4935 H   0  0  0  0  0  0  0  0  0  0  0  0
   20.8161   19.5770   22.5665 C   0  0  0  0  0  0  0  0  0  0  0  0
   21.7202   18.9529   22.5758 H   0  0  0  0  0  0  0  0  0  0  0  0
   20.8289   20.1576   23.4991 H   0  0  0  0  0  0  0  0  0  0  0  0
   20.8790   20.5604   21.3751 C   0  0  0  0  0  0  0  0  0  0  0  0
   19.9788   21.1904   21.3657 H   0  0  0  0  0  0  0  0  0  0  0  0
   21.7308   21.2387   21.5224 H   0  0  0  0  0  0  0  0  0  0  0  0
   21.0348   19.8567   20.0097 C   0  0  0  0  0  0  0  0  0  0  0  0
   20.1507   19.2544   19.7660 H   0  0  0  0  0  0  0  0  0  0  0  0
   21.1633   20.5967   19.2091 H   0  0  0  0  0  0  0  0  0  0  0  0
   21.9129   19.1979   20.0050 H   0  0  0  0  0  0  0  0  0  0  0  0
  1  2  1  0  0  0  0
  1  3  2  0  0  0  0
  1  4  1  0  0  0  0
  4  5  1  0  0  0  0
  4  6  1  0  0  0  0
  4  7  1  0  0  0  0
  7  8  1  0  0  0  0
  7  9  1  0  0  0  0
  7 10  1  0  0  0  0
 10 11  1  0  0  0  0
 10 12  1  0  0  0  0
 10 13  1  0  0  0  0
 13 14  1  0  0  0  0
 13 15  1  0  0  0  0
 13 16  1  0  0  0  0
 16 17  1  0  0  0  0
 16 18  1  0  0  0  0
 16 19  1  0  0  0  0
M  END
> <VConfSearch Rank>
861

> <Conf_Id>
41

> <Delta U+W>
-0.361

> <U+W>
-55.252

> <U>
7.244

> <W>
-62.496

> <W(PB)>
-64.596

> <W(SA)>
2.099

> <Valence>
7.174

> <Coulomb>
-0.669

> <VdW>
0.739

> <VdW6>
-5.969

> <VdW12>
6.708

> <Bond>
0.116

> <Angle>
2.481

> <Pdih>
4.576

> <Idih>
0.000

> <Tether>
0.000

$$$$
VeraChem MOL file


 19 18  0  0  0  0  0  0  0  0999 V2000     
   19.1027   16.2677   21.7886 C   0  0  0  0  0  0  0  0  0  0  0  0
   18.0562   16.4472   21.1975 O   0  5  0  0  0  0  0  0  0  0  0  0
   20.0057   15.5761   21.3609 O   0  0  0  0  0  0  0  0  0  0  0  0
   19.2862   16.9279   23.1523 C   0  0  0  0  0  0  0  0  0  0  0  0
   19.6847   16.1671   23.8339 H   0  0  0  0  0  0  0  0  0  0  0  0
   18.3004   17.2147   23.5383 H   0  0  0  0  0  0  0  0  0  0  0  0
   20.2330   18.1561   23.1370 C   0  0  0  0  0  0  0  0  0  0  0  0
   20.4153   18.4782   24.1712 H   0  0  0  0  0  0  0  0  0  0  0  0
   21.2064   17.8600   22.7217 H   0  0  0  0  0  0  0  0  0  0  0  0
   19.6573   19.3403   22.3287 C   0  0  0  0  0  0  0  0  0  0  0  0
   18.6786   19.6239   22.7395 H   0  0  0  0  0  0  0  0  0  0  0  0
   19.4880   19.0308   21.2880 H   0  0  0  0  0  0  0  0  0  0  0  0
   20.6006   20.5610   22.3533 C   0  0  0  0  0  0  0  0  0  0  0  0
   20.7703   20.8778   23.3917 H   0  0  0  0  0  0  0  0  0  0  0  0
   21.5797   20.2806   21.9406 H   0  0  0  0  0  0  0  0  0  0  0  0
   20.0234   21.7408   21.5460 C   0  0  0  0  0  0  0  0  0  0  0  0
   19.0574   22.0626   21.9569 H   0  0  0  0  0  0  0  0  0  0  0  0
   20.7066   22.5996   21.5737 H   0  0  0  0  0  0  0  0  0  0  0  0
   19.8728   21.4611   20.4951 H   0  0  0  0  0  0  0  0  0  0  0  0
  1  2  1  0  0  0  0
  1  3  2  0  0  0  0
  1  4  1  0  0  0  0
  4  5  1  0  0  0  0
  4  6  1  0  0  0  0
  4  7  1  0  0  0  0
  7  8  1  0  0  0  0
  7  9  1  0  0  0  0
  7 10  1  0  0  0  0
 10 11  1  0  0  0  0
 10 12  1  0  0  0  0
 10 13  1  0  0  0  0
 13 14  1  0  0  0  0
 13 15  1  0  0  0  0
 13 16  1  0  0  0  0
 16 17  1  0  0  0  0
 16 18  1  0  0  0  0
 16 19  1  0  0  0  0
M  END
> <VConfSearch Rank>
862

> <Conf_Id>
36

> <Delta U+W>
-0.079

> <U+W>
-54.971

> <U>
8.266

> <W>
-63.237

> <W(PB)>
-65.340

> <W(SA)>
2.103

> <Valence>
6.935

> <Coulomb>
0.874

> <VdW>
0.457

> <VdW6>
-6.205

> <VdW12>
6.662

> <Bond>
0.107

> <Angle>
2.420

> <Pdih>
4.407

> <Idih>
0.001

> <Tether>
0.000

$$$$
VeraChem MOL file


 19 18  0  0  0  0  0  0  0  0999 V2000     
   20.1011   16.1036   22.0611 C   0  0  0  0  0  0  0  0  0  0  0  0
   21.1974   15.8338   22.5104 O   0  5  0  0  0  0  0  0  0  0  0  0
   19.6984   15.7036   20.9866 O   0  0  0  0  0  0  0  0  0  0  0  0
   19.1695   16.9744   22.8995 C   0  0  0  0  0  0  0  0  0  0  0  0
   19.5210   16.9643   23.9385 H   0  0  0  0  0  0  0  0  0  0  0  0
   18.1820   16.4979   22.8941 H   0  0  0  0  0  0  0  0  0  0  0  0
   19.0424   18.4342   22.3917 C   0  0  0  0  0  0  0  0  0  0  0  0
   18.7173   18.4274   21.3420 H   0  0  0  0  0  0  0  0  0  0  0  0
   18.2546   18.9431   22.9635 H   0  0  0  0  0  0  0  0  0  0  0  0
   20.3618   19.2270   22.5259 C   0  0  0  0  0  0  0  0  0  0  0  0
   21.1514   18.7334   21.9424 H   0  0  0  0  0  0  0  0  0  0  0  0
   20.6894   19.2199   23.5745 H   0  0  0  0  0  0  0  0  0  0  0  0
   20.2040   20.6844   22.0445 C   0  0  0  0  0  0  0  0  0  0  0  0
   19.8786   20.6945   20.9950 H   0  0  0  0  0  0  0  0  0  0  0  0
   19.4183   21.1846   22.6275 H   0  0  0  0  0  0  0  0  0  0  0  0
   21.5221   21.4727   22.1796 C   0  0  0  0  0  0  0  0  0  0  0  0
   22.3185   21.0116   21.5808 H   0  0  0  0  0  0  0  0  0  0  0  0
   21.3922   22.5061   21.8328 H   0  0  0  0  0  0  0  0  0  0  0  0
   21.8547   21.5053   23.2255 H   0  0  0  0  0  0  0  0  0  0  0  0
  1  2  1  0  0  0  0
  1  3  2  0  0  0  0
  1  4  1  0  0  0  0
  4  5  1  0  0  0  0
  4  6  1  0  0  0  0
  4  7  1  0  0  0  0
  7  8  1  0  0  0  0
  7  9  1  0  0  0  0
  7 10  1  0  0  0  0
 10 11  1  0  0  0  0
 10 12  1  0  0  0  0
 10 13  1  0  0  0  0
 13 14  1  0  0  0  0
 13 15  1  0  0  0  0
 13 16  1  0  0  0  0
 16 17  1  0  0  0  0
 16 18  1  0  0  0  0
 16 19  1  0  0  0  0
M  END
> <VConfSearch Rank>
863

> <Conf_Id>
35

> <Delta U+W>
-0.030

> <U+W>
-54.921

> <U>
8.267

> <W>
-63.188

> <W(PB)>
-65.294

> <W(SA)>
2.106

> <Valence>
6.935

> <Coulomb>
0.875

> <VdW>
0.457

> <VdW6>
-6.205

> <VdW12>
6.662

> <Bond>
0.107

> <Angle>
2.420

> <Pdih>
4.407

> <Idih>
0.001

> <Tether>
0.000

$$$$
VeraChem MOL file


 19 18  0  0  0  0  0  0  0  0999 V2000     
   22.1794   18.4808   20.3030 C   0  0  0  0  0  0  0  0  0  0  0  0
   21.8911   18.9266   19.2099 O   0  5  0  0  0  0  0  0  0  0  0  0
   22.6330   17.3668   20.4757 O   0  0  0  0  0  0  0  0  0  0  0  0
   21.9806   19.3784   21.5214 C   0  0  0  0  0  0  0  0  0  0  0  0
   22.3883   20.3649   21.2710 H   0  0  0  0  0  0  0  0  0  0  0  0
   22.5847   18.9860   22.3484 H   0  0  0  0  0  0  0  0  0  0  0  0
   20.5013   19.5273   21.9634 C   0  0  0  0  0  0  0  0  0  0  0  0
   20.4458   20.3028   22.7379 H   0  0  0  0  0  0  0  0  0  0  0  0
   19.9019   19.8832   21.1140 H   0  0  0  0  0  0  0  0  0  0  0  0
   19.9080   18.2057   22.5072 C   0  0  0  0  0  0  0  0  0  0  0  0
   20.4856   17.8718   23.3800 H   0  0  0  0  0  0  0  0  0  0  0  0
   20.0163   17.4211   21.7458 H   0  0  0  0  0  0  0  0  0  0  0  0
   18.4128   18.3137   22.8863 C   0  0  0  0  0  0  0  0  0  0  0  0
   17.8321   18.6455   22.0145 H   0  0  0  0  0  0  0  0  0  0  0  0
   18.0416   17.3121   23.1432 H   0  0  0  0  0  0  0  0  0  0  0  0
   18.1501   19.2609   24.0770 C   0  0  0  0  0  0  0  0  0  0  0  0
   18.3968   20.2998   23.8253 H   0  0  0  0  0  0  0  0  0  0  0  0
   17.0909   19.2316   24.3638 H   0  0  0  0  0  0  0  0  0  0  0  0
   18.7450   18.9670   24.9516 H   0  0  0  0  0  0  0  0  0  0  0  0
  1  2  1  0  0  0  0
  1  3  2  0  0  0  0
  1  4  1  0  0  0  0
  4  5  1  0  0  0  0
  4  6  1  0  0  0  0
  4  7  1  0  0  0  0
  7  8  1  0  0  0  0
  7  9  1  0  0  0  0
  7 10  1  0  0  0  0
 10 11  1  0  0  0  0
 10 12  1  0  0  0  0
 10 13  1  0  0  0  0
 13 14  1  0  0  0  0
 13 15  1  0  0  0  0
 13 16  1  0  0  0  0
 16 17  1  0  0  0  0
 16 18  1  0  0  0  0
 16 19  1  0  0  0  0
M  END
> <VConfSearch Rank>
864

> <Conf_Id>
74

> <Delta U+W>
0.797

> <U+W>
-54.095

> <U>
8.869

> <W>
-62.964

> <W(PB)>
-65.046

> <W(SA)>
2.082

> <Valence>
7.469

> <Coulomb>
0.762

> <VdW>
0.639

> <VdW6>
-6.782

> <VdW12>
7.421

> <Bond>
0.141

> <Angle>
2.667

> <Pdih>
4.660

> <Idih>
0.001

> <Tether>
0.000

$$$$
VeraChem MOL file


 19 18  0  0  0  0  0  0  0  0999 V2000     
   19.7508   17.9750   25.0619 C   0  0  0  0  0  0  0  0  0  0  0  0
   20.4480   17.1809   25.6617 O   0  5  0  0  0  0  0  0  0  0  0  0
   19.0648   18.8148   25.6100 O   0  0  0  0  0  0  0  0  0  0  0  0
   19.7519   17.9268   23.5382 C   0  0  0  0  0  0  0  0  0  0  0  0
   18.7557   18.2273   23.1940 H   0  0  0  0  0  0  0  0  0  0  0  0
   19.9031   16.8854   23.2299 H   0  0  0  0  0  0  0  0  0  0  0  0
   20.8407   18.8343   22.9092 C   0  0  0  0  0  0  0  0  0  0  0  0
   20.6571   19.8790   23.1933 H   0  0  0  0  0  0  0  0  0  0  0  0
   21.8146   18.5684   23.3428 H   0  0  0  0  0  0  0  0  0  0  0  0
   20.9368   18.7090   21.3679 C   0  0  0  0  0  0  0  0  0  0  0  0
   21.2217   17.6795   21.1117 H   0  0  0  0  0  0  0  0  0  0  0  0
   21.7569   19.3478   21.0128 H   0  0  0  0  0  0  0  0  0  0  0  0
   19.6463   19.0756   20.5944 C   0  0  0  0  0  0  0  0  0  0  0  0
   19.8307   18.9348   19.5205 H   0  0  0  0  0  0  0  0  0  0  0  0
   18.8369   18.3816   20.8564 H   0  0  0  0  0  0  0  0  0  0  0  0
   19.1832   20.5291   20.8318 C   0  0  0  0  0  0  0  0  0  0  0  0
   19.9857   21.2404   20.5976 H   0  0  0  0  0  0  0  0  0  0  0  0
   18.3225   20.7672   20.1935 H   0  0  0  0  0  0  0  0  0  0  0  0
   18.8772   20.6847   21.8742 H   0  0  0  0  0  0  0  0  0  0  0  0
  1  2  1  0  0  0  0
  1  3  2  0  0  0  0
  1  4  1  0  0  0  0
  4  5  1  0  0  0  0
  4  6  1  0  0  0  0
  4  7  1  0  0  0  0
  7  8  1  0  0  0  0
  7  9  1  0  0  0  0
  7 10  1  0  0  0  0
 10 11  1  0  0  0  0
 10 12  1  0  0  0  0
 10 13  1  0  0  0  0
 13 14  1  0  0  0  0
 13 15  1  0  0  0  0
 13 16  1  0  0  0  0
 16 17  1  0  0  0  0
 16 18  1  0  0  0  0
 16 19  1  0  0  0  0
M  END
> <VConfSearch Rank>
865

> <Conf_Id>
67

> <Delta U+W>
0.308

> <U+W>
-54.583

> <U>
8.219

> <W>
-62.802

> <W(PB)>
-64.859

> <W(SA)>
2.057

> <Valence>
7.609

> <Coulomb>
-0.089

> <VdW>
0.699

> <VdW6>
-6.924

> <VdW12>
7.623

> <Bond>
0.163

> <Angle>
2.870

> <Pdih>
4.576

> <Idih>
0.001

> <Tether>
0.000

$$$$
VeraChem MOL file


 19 18  0  0  0  0  0  0  0  0999 V2000     
   21.6498   20.1242   24.3928 C   0  0  0  0  0  0  0  0  0  0  0  0
   22.4599   21.0260   24.3097 O   0  5  0  0  0  0  0  0  0  0  0  0
   21.6619   19.2891   25.2753 O   0  0  0  0  0  0  0  0  0  0  0  0
   20.5713   20.0241   23.3199 C   0  0  0  0  0  0  0  0  0  0  0  0
   20.3295   21.0394   22.9836 H   0  0  0  0  0  0  0  0  0  0  0  0
   19.6705   19.6129   23.7896 H   0  0  0  0  0  0  0  0  0  0  0  0
   21.0028   19.1497   22.1142 C   0  0  0  0  0  0  0  0  0  0  0  0
   21.9554   19.5333   21.7236 H   0  0  0  0  0  0  0  0  0  0  0  0
   21.2054   18.1262   22.4566 H   0  0  0  0  0  0  0  0  0  0  0  0
   19.9686   19.1318   20.9606 C   0  0  0  0  0  0  0  0  0  0  0  0
   20.3716   18.5292   20.1352 H   0  0  0  0  0  0  0  0  0  0  0  0
   19.8583   20.1511   20.5659 H   0  0  0  0  0  0  0  0  0  0  0  0
   18.5680   18.5899   21.3382 C   0  0  0  0  0  0  0  0  0  0  0  0
   18.1000   19.2392   22.0898 H   0  0  0  0  0  0  0  0  0  0  0  0
   17.9228   18.6399   20.4504 H   0  0  0  0  0  0  0  0  0  0  0  0
   18.5937   17.1341   21.8515 C   0  0  0  0  0  0  0  0  0  0  0  0
   19.1335   17.0566   22.8038 H   0  0  0  0  0  0  0  0  0  0  0  0
   17.5726   16.7670   22.0172 H   0  0  0  0  0  0  0  0  0  0  0  0
   19.0788   16.4697   21.1246 H   0  0  0  0  0  0  0  0  0  0  0  0
  1  2  1  0  0  0  0
  1  3  2  0  0  0  0
  1  4  1  0  0  0  0
  4  5  1  0  0  0  0
  4  6  1  0  0  0  0
  4  7  1  0  0  0  0
  7  8  1  0  0  0  0
  7  9  1  0  0  0  0
  7 10  1  0  0  0  0
 10 11  1  0  0  0  0
 10 12  1  0  0  0  0
 10 13  1  0  0  0  0
 13 14  1  0  0  0  0
 13 15  1  0  0  0  0
 13 16  1  0  0  0  0
 16 17  1  0  0  0  0
 16 18  1  0  0  0  0
 16 19  1  0  0  0  0
M  END
> <VConfSearch Rank>
866

> <Conf_Id>
21

> <Delta U+W>
0.319

> <U+W>
-54.572

> <U>
8.220

> <W>
-62.792

> <W(PB)>
-64.830

> <W(SA)>
2.038

> <Valence>
7.609

> <Coulomb>
-0.088

> <VdW>
0.699

> <VdW6>
-6.924

> <VdW12>
7.623

> <Bond>
0.163

> <Angle>
2.870

> <Pdih>
4.576

> <Idih>
0.000

> <Tether>
0.000

$$$$
VeraChem MOL file


 19 18  0  0  0  0  0  0  0  0999 V2000     
   18.1466   16.8080   23.0523 C   0  0  0  0  0  0  0  0  0  0  0  0
   17.7863   16.4199   24.1459 O   0  5  0  0  0  0  0  0  0  0  0  0
   17.5083   16.6336   22.0333 O   0  0  0  0  0  0  0  0  0  0  0  0
   19.4628   17.5714   22.9570 C   0  0  0  0  0  0  0  0  0  0  0  0
   19.9079   17.3525   21.9814 H   0  0  0  0  0  0  0  0  0  0  0  0
   20.1435   17.1679   23.7161 H   0  0  0  0  0  0  0  0  0  0  0  0
   19.2869   19.0996   23.1599 C   0  0  0  0  0  0  0  0  0  0  0  0
   18.5603   19.4961   22.4374 H   0  0  0  0  0  0  0  0  0  0  0  0
   18.8477   19.2598   24.1544 H   0  0  0  0  0  0  0  0  0  0  0  0
   20.6168   19.8906   23.0724 C   0  0  0  0  0  0  0  0  0  0  0  0
   21.4560   19.2624   23.4010 H   0  0  0  0  0  0  0  0  0  0  0  0
   20.5674   20.7216   23.7893 H   0  0  0  0  0  0  0  0  0  0  0  0
   20.9187   20.4955   21.6793 C   0  0  0  0  0  0  0  0  0  0  0  0
   20.1162   21.1916   21.3984 H   0  0  0  0  0  0  0  0  0  0  0  0
   21.8353   21.0969   21.7520 H   0  0  0  0  0  0  0  0  0  0  0  0
   21.1024   19.4489   20.5610 C   0  0  0  0  0  0  0  0  0  0  0  0
   21.4414   19.9320   19.6356 H   0  0  0  0  0  0  0  0  0  0  0  0
   21.8499   18.6964   20.8439 H   0  0  0  0  0  0  0  0  0  0  0  0
   20.1574   18.9375   20.3389 H   0  0  0  0  0  0  0  0  0  0  0  0
  1  2  1  0  0  0  0
  1  3  2  0  0  0  0
  1  4  1  0  0  0  0
  4  5  1  0  0  0  0
  4  6  1  0  0  0  0
  4  7  1  0  0  0  0
  7  8  1  0  0  0  0
  7  9  1  0  0  0  0
  7 10  1  0  0  0  0
 10 11  1  0  0  0  0
 10 12  1  0  0  0  0
 10 13  1  0  0  0  0
 13 14  1  0  0  0  0
 13 15  1  0  0  0  0
 13 16  1  0  0  0  0
 16 17  1  0  0  0  0
 16 18  1  0  0  0  0
 16 19  1  0  0  0  0
M  END
> <VConfSearch Rank>
867

> <Conf_Id>
24

> <Delta U+W>
2.477

> <U+W>
-52.414

> <U>
10.422

> <W>
-62.836

> <W(PB)>
-64.906

> <W(SA)>
2.070

> <Valence>
9.628

> <Coulomb>
0.101

> <VdW>
0.693

> <VdW6>
-6.927

> <VdW12>
7.620

> <Bond>
0.173

> <Angle>
2.989

> <Pdih>
6.465

> <Idih>
0.001

> <Tether>
0.000

$$$$
VeraChem MOL file


 19 18  0  0  0  0  0  0  0  0999 V2000     
   18.6147   21.0372   21.2916 C   0  0  0  0  0  0  0  0  0  0  0  0
   18.4615   21.6810   22.3107 O   0  5  0  0  0  0  0  0  0  0  0  0
   18.7381   21.5406   20.1923 O   0  0  0  0  0  0  0  0  0  0  0  0
   18.6242   19.5139   21.3902 C   0  0  0  0  0  0  0  0  0  0  0  0
   17.9404   19.1356   20.6214 H   0  0  0  0  0  0  0  0  0  0  0  0
   18.1979   19.2278   22.3569 H   0  0  0  0  0  0  0  0  0  0  0  0
   20.0271   18.8768   21.1877 C   0  0  0  0  0  0  0  0  0  0  0  0
   19.9280   17.7897   21.0665 H   0  0  0  0  0  0  0  0  0  0  0  0
   20.4359   19.2503   20.2386 H   0  0  0  0  0  0  0  0  0  0  0  0
   21.0369   19.1874   22.3232 C   0  0  0  0  0  0  0  0  0  0  0  0
   20.8208   20.1658   22.7737 H   0  0  0  0  0  0  0  0  0  0  0  0
   22.0354   19.2807   21.8748 H   0  0  0  0  0  0  0  0  0  0  0  0
   21.1215   18.1041   23.4265 C   0  0  0  0  0  0  0  0  0  0  0  0
   21.4260   17.1469   22.9813 H   0  0  0  0  0  0  0  0  0  0  0  0
   21.9190   18.3841   24.1284 H   0  0  0  0  0  0  0  0  0  0  0  0
   19.8130   17.9074   24.2195 C   0  0  0  0  0  0  0  0  0  0  0  0
   19.0315   17.4652   23.5894 H   0  0  0  0  0  0  0  0  0  0  0  0
   19.9763   17.2302   25.0677 H   0  0  0  0  0  0  0  0  0  0  0  0
   19.4446   18.8634   24.6142 H   0  0  0  0  0  0  0  0  0  0  0  0
  1  2  1  0  0  0  0
  1  3  2  0  0  0  0
  1  4  1  0  0  0  0
  4  5  1  0  0  0  0
  4  6  1  0  0  0  0
  4  7  1  0  0  0  0
  7  8  1  0  0  0  0
  7  9  1  0  0  0  0
  7 10  1  0  0  0  0
 10 11  1  0  0  0  0
 10 12  1  0  0  0  0
 10 13  1  0  0  0  0
 13 14  1  0  0  0  0
 13 15  1  0  0  0  0
 13 16  1  0  0  0  0
 16 17  1  0  0  0  0
 16 18  1  0  0  0  0
 16 19  1  0  0  0  0
M  END
> <VConfSearch Rank>
868

> <Conf_Id>
4

> <Delta U+W>
3.753

> <U+W>
-51.138

> <U>
12.334

> <W>
-63.472

> <W(PB)>
-65.500

> <W(SA)>
2.028

> <Valence>
9.984

> <Coulomb>
1.767

> <VdW>
0.583

> <VdW6>
-7.767

> <VdW12>
8.349

> <Bond>
0.203

> <Angle>
3.191

> <Pdih>
6.589

> <Idih>
0.001

> <Tether>
0.000

$$$$
VeraChem MOL file


 19 18  0  0  0  0  0  0  0  0999 V2000     
   20.2485   17.8182   20.0637 C   0  0  0  0  0  0  0  0  0  0  0  0
   19.7931   18.1238   18.9791 O   0  5  0  0  0  0  0  0  0  0  0  0
   21.4019   17.4758   20.2344 O   0  0  0  0  0  0  0  0  0  0  0  0
   19.3117   17.8386   21.2688 C   0  0  0  0  0  0  0  0  0  0  0  0
   19.7704   17.2540   22.0726 H   0  0  0  0  0  0  0  0  0  0  0  0
   18.3978   17.3082   20.9772 H   0  0  0  0  0  0  0  0  0  0  0  0
   18.9426   19.2669   21.7575 C   0  0  0  0  0  0  0  0  0  0  0  0
   18.5522   19.8295   20.8980 H   0  0  0  0  0  0  0  0  0  0  0  0
   18.1183   19.2111   22.4811 H   0  0  0  0  0  0  0  0  0  0  0  0
   20.1280   20.0549   22.3735 C   0  0  0  0  0  0  0  0  0  0  0  0
   20.0043   21.1149   22.1129 H   0  0  0  0  0  0  0  0  0  0  0  0
   21.0766   19.7446   21.9144 H   0  0  0  0  0  0  0  0  0  0  0  0
   20.2320   19.9638   23.9158 C   0  0  0  0  0  0  0  0  0  0  0  0
   21.0480   20.6200   24.2487 H   0  0  0  0  0  0  0  0  0  0  0  0
   19.3141   20.3597   24.3717 H   0  0  0  0  0  0  0  0  0  0  0  0
   20.4956   18.5401   24.4477 C   0  0  0  0  0  0  0  0  0  0  0  0
   21.3665   18.0902   23.9530 H   0  0  0  0  0  0  0  0  0  0  0  0
   20.6931   18.5639   25.5271 H   0  0  0  0  0  0  0  0  0  0  0  0
   19.6271   17.8901   24.2851 H   0  0  0  0  0  0  0  0  0  0  0  0
  1  2  1  0  0  0  0
  1  3  2  0  0  0  0
  1  4  1  0  0  0  0
  4  5  1  0  0  0  0
  4  6  1  0  0  0  0
  4  7  1  0  0  0  0
  7  8  1  0  0  0  0
  7  9  1  0  0  0  0
  7 10  1  0  0  0  0
 10 11  1  0  0  0  0
 10 12  1  0  0  0  0
 10 13  1  0  0  0  0
 13 14  1  0  0  0  0
 13 15  1  0  0  0  0
 13 16  1  0  0  0  0
 16 17  1  0  0  0  0
 16 18  1  0  0  0  0
 16 19  1  0  0  0  0
M  END
> <VConfSearch Rank>
869

> <Conf_Id>
73

> <Delta U+W>
3.707

> <U+W>
-51.184

> <U>
12.334

> <W>
-63.519

> <W(PB)>
-65.541

> <W(SA)>
2.022

> <Valence>
9.984

> <Coulomb>
1.768

> <VdW>
0.583

> <VdW6>
-7.767

> <VdW12>
8.350

> <Bond>
0.203

> <Angle>
3.192

> <Pdih>
6.589

> <Idih>
0.001

> <Tether>
0.000

$$$$
VeraChem MOL file


 19 18  0  0  0  0  0  0  0  0999 V2000     
   20.7509   16.6302   22.7976 C   0  0  0  0  0  0  0  0  0  0  0  0
   20.0452   16.0708   21.9816 O   0  5  0  0  0  0  0  0  0  0  0  0
   21.8874   16.2829   23.0521 O   0  0  0  0  0  0  0  0  0  0  0  0
   20.1705   17.8125   23.5687 C   0  0  0  0  0  0  0  0  0  0  0  0
   20.3525   17.6285   24.6339 H   0  0  0  0  0  0  0  0  0  0  0  0
   19.0825   17.8188   23.4363 H   0  0  0  0  0  0  0  0  0  0  0  0
   20.7764   19.1871   23.1741 C   0  0  0  0  0  0  0  0  0  0  0  0
   20.3590   19.9664   23.8247 H   0  0  0  0  0  0  0  0  0  0  0  0
   21.8553   19.1680   23.3806 H   0  0  0  0  0  0  0  0  0  0  0  0
   20.5630   19.5786   21.6890 C   0  0  0  0  0  0  0  0  0  0  0  0
   21.0888   18.8567   21.0491 H   0  0  0  0  0  0  0  0  0  0  0  0
   21.0445   20.5491   21.5078 H   0  0  0  0  0  0  0  0  0  0  0  0
   19.0852   19.6602   21.2345 C   0  0  0  0  0  0  0  0  0  0  0  0
   19.0616   19.9268   20.1690 H   0  0  0  0  0  0  0  0  0  0  0  0
   18.6123   18.6717   21.3094 H   0  0  0  0  0  0  0  0  0  0  0  0
   18.2580   20.6971   22.0245 C   0  0  0  0  0  0  0  0  0  0  0  0
   18.1591   20.4089   23.0786 H   0  0  0  0  0  0  0  0  0  0  0  0
   18.7261   21.6891   21.9802 H   0  0  0  0  0  0  0  0  0  0  0  0
   17.2467   20.7808   21.6062 H   0  0  0  0  0  0  0  0  0  0  0  0
  1  2  1  0  0  0  0
  1  3  2  0  0  0  0
  1  4  1  0  0  0  0
  4  5  1  0  0  0  0
  4  6  1  0  0  0  0
  4  7  1  0  0  0  0
  7  8  1  0  0  0  0
  7  9  1  0  0  0  0
  7 10  1  0  0  0  0
 10 11  1  0  0  0  0
 10 12  1  0  0  0  0
 10 13  1  0  0  0  0
 13 14  1  0  0  0  0
 13 15  1  0  0  0  0
 13 16  1  0  0  0  0
 16 17  1  0  0  0  0
 16 18  1  0  0  0  0
 16 19  1  0  0  0  0
M  END
> <VConfSearch Rank>
870

> <Conf_Id>
56

> <Delta U+W>
1.735

> <U+W>
-53.156

> <U>
10.214

> <W>
-63.370

> <W(PB)>
-65.388

> <W(SA)>
2.018

> <Valence>
7.868

> <Coulomb>
1.968

> <VdW>
0.378

> <VdW6>
-8.067

> <VdW12>
8.445

> <Bond>
0.191

> <Angle>
3.117

> <Pdih>
4.559

> <Idih>
0.001

> <Tether>
0.000

$$$$
VeraChem MOL file


 19 18  0  0  0  0  0  0  0  0999 V2000     
   20.5364   17.7912   24.9199 C   0  0  0  0  0  0  0  0  0  0  0  0
   19.7578   17.8417   25.8513 O   0  5  0  0  0  0  0  0  0  0  0  0
   21.6958   17.4450   25.0312 O   0  0  0  0  0  0  0  0  0  0  0  0
   20.0371   18.2055   23.5403 C   0  0  0  0  0  0  0  0  0  0  0  0
   18.9714   17.9558   23.4737 H   0  0  0  0  0  0  0  0  0  0  0  0
   20.5663   17.5959   22.7995 H   0  0  0  0  0  0  0  0  0  0  0  0
   20.2537   19.7122   23.2504 C   0  0  0  0  0  0  0  0  0  0  0  0
   19.8355   20.2940   24.0835 H   0  0  0  0  0  0  0  0  0  0  0  0
   21.3312   19.9264   23.2364 H   0  0  0  0  0  0  0  0  0  0  0  0
   19.6077   20.2086   21.9326 C   0  0  0  0  0  0  0  0  0  0  0  0
   19.7824   21.2912   21.8666 H   0  0  0  0  0  0  0  0  0  0  0  0
   18.5169   20.0847   21.9768 H   0  0  0  0  0  0  0  0  0  0  0  0
   20.1705   19.5508   20.6482 C   0  0  0  0  0  0  0  0  0  0  0  0
   20.1901   20.3039   19.8483 H   0  0  0  0  0  0  0  0  0  0  0  0
   21.2138   19.2429   20.8032 H   0  0  0  0  0  0  0  0  0  0  0  0
   19.3261   18.3546   20.1551 C   0  0  0  0  0  0  0  0  0  0  0  0
   19.7551   17.9356   19.2357 H   0  0  0  0  0  0  0  0  0  0  0  0
   19.2812   17.5513   20.8990 H   0  0  0  0  0  0  0  0  0  0  0  0
   18.2979   18.6683   19.9327 H   0  0  0  0  0  0  0  0  0  0  0  0
  1  2  1  0  0  0  0
  1  3  2  0  0  0  0
  1  4  1  0  0  0  0
  4  5  1  0  0  0  0
  4  6  1  0  0  0  0
  4  7  1  0  0  0  0
  7  8  1  0  0  0  0
  7  9  1  0  0  0  0
  7 10  1  0  0  0  0
 10 11  1  0  0  0  0
 10 12  1  0  0  0  0
 10 13  1  0  0  0  0
 13 14  1  0  0  0  0
 13 15  1  0  0  0  0
 13 16  1  0  0  0  0
 16 17  1  0  0  0  0
 16 18  1  0  0  0  0
 16 19  1  0  0  0  0
M  END
> <VConfSearch Rank>
871

> <Conf_Id>
53

> <Delta U+W>
2.279

> <U+W>
-52.612

> <U>
10.231

> <W>
-62.843

> <W(PB)>
-64.893

> <W(SA)>
2.050

> <Valence>
9.644

> <Coulomb>
-0.164

> <VdW>
0.751

> <VdW6>
-6.881

> <VdW12>
7.631

> <Bond>
0.163

> <Angle>
2.998

> <Pdih>
6.482

> <Idih>
0.001

> <Tether>
0.000

$$$$
VeraChem MOL file


 19 18  0  0  0  0  0  0  0  0999 V2000     
   22.0604   18.7583   23.9960 C   0  0  0  0  0  0  0  0  0  0  0  0
   22.9032   19.4425   23.4498 O   0  5  0  0  0  0  0  0  0  0  0  0
   22.2318   17.5909   24.2877 O   0  0  0  0  0  0  0  0  0  0  0  0
   20.7445   19.4213   24.3989 C   0  0  0  0  0  0  0  0  0  0  0  0
   20.7764   20.4799   24.1139 H   0  0  0  0  0  0  0  0  0  0  0  0
   20.7076   19.3927   25.4941 H   0  0  0  0  0  0  0  0  0  0  0  0
   19.4618   18.7498   23.8324 C   0  0  0  0  0  0  0  0  0  0  0  0
   19.5326   17.6583   23.9378 H   0  0  0  0  0  0  0  0  0  0  0  0
   18.6133   19.0591   24.4576 H   0  0  0  0  0  0  0  0  0  0  0  0
   19.1273   19.1215   22.3666 C   0  0  0  0  0  0  0  0  0  0  0  0
   19.0510   20.2131   22.2700 H   0  0  0  0  0  0  0  0  0  0  0  0
   18.1320   18.7205   22.1307 H   0  0  0  0  0  0  0  0  0  0  0  0
   20.1380   18.5783   21.3326 C   0  0  0  0  0  0  0  0  0  0  0  0
   21.1119   19.0664   21.4654 H   0  0  0  0  0  0  0  0  0  0  0  0
   20.2929   17.5023   21.4929 H   0  0  0  0  0  0  0  0  0  0  0  0
   19.6539   18.8186   19.8884 C   0  0  0  0  0  0  0  0  0  0  0  0
   19.5160   19.8904   19.6944 H   0  0  0  0  0  0  0  0  0  0  0  0
   20.3866   18.4349   19.1666 H   0  0  0  0  0  0  0  0  0  0  0  0
   18.6984   18.3104   19.7038 H   0  0  0  0  0  0  0  0  0  0  0  0
  1  2  1  0  0  0  0
  1  3  2  0  0  0  0
  1  4  1  0  0  0  0
  4  5  1  0  0  0  0
  4  6  1  0  0  0  0
  4  7  1  0  0  0  0
  7  8  1  0  0  0  0
  7  9  1  0  0  0  0
  7 10  1  0  0  0  0
 10 11  1  0  0  0  0
 10 12  1  0  0  0  0
 10 13  1  0  0  0  0
 13 14  1  0  0  0  0
 13 15  1  0  0  0  0
 13 16  1  0  0  0  0
 16 17  1  0  0  0  0
 16 18  1  0  0  0  0
 16 19  1  0  0  0  0
M  END
> <VConfSearch Rank>
872

> <Conf_Id>
25

> <Delta U+W>
2.065

> <U+W>
-52.826

> <U>
10.967

> <W>
-63.794

> <W(PB)>
-65.830

> <W(SA)>
2.036

> <Valence>
8.609

> <Coulomb>
1.892

> <VdW>
0.467

> <VdW6>
-7.569

> <VdW12>
8.036

> <Bond>
0.170

> <Angle>
3.195

> <Pdih>
5.237

> <Idih>
0.007

> <Tether>
0.000

$$$$
VeraChem MOL file


 19 18  0  0  0  0  0  0  0  0999 V2000     
   20.1881   17.3749   24.4222 C   0  0  0  0  0  0  0  0  0  0  0  0
   20.7210   16.3346   24.0894 O   0  5  0  0  0  0  0  0  0  0  0  0
   19.0586   17.4363   24.8666 O   0  0  0  0  0  0  0  0  0  0  0  0
   21.0028   18.6648   24.3448 C   0  0  0  0  0  0  0  0  0  0  0  0
   21.8432   18.5407   25.0376 H   0  0  0  0  0  0  0  0  0  0  0  0
   20.3971   19.4932   24.7319 H   0  0  0  0  0  0  0  0  0  0  0  0
   21.5574   19.0164   22.9355 C   0  0  0  0  0  0  0  0  0  0  0  0
   22.3948   19.7151   23.0657 H   0  0  0  0  0  0  0  0  0  0  0  0
   21.9832   18.1188   22.4659 H   0  0  0  0  0  0  0  0  0  0  0  0
   20.5337   19.6802   21.9816 C   0  0  0  0  0  0  0  0  0  0  0  0
   21.0717   20.0221   21.0869 H   0  0  0  0  0  0  0  0  0  0  0  0
   20.1174   20.5803   22.4541 H   0  0  0  0  0  0  0  0  0  0  0  0
   19.3847   18.7462   21.5419 C   0  0  0  0  0  0  0  0  0  0  0  0
   19.7975   17.8016   21.1615 H   0  0  0  0  0  0  0  0  0  0  0  0
   18.7517   18.4966   22.4030 H   0  0  0  0  0  0  0  0  0  0  0  0
   18.5093   19.4002   20.4539 C   0  0  0  0  0  0  0  0  0  0  0  0
   17.6933   18.7277   20.1589 H   0  0  0  0  0  0  0  0  0  0  0  0
   18.0634   20.3348   20.8187 H   0  0  0  0  0  0  0  0  0  0  0  0
   19.1006   19.6287   19.5575 H   0  0  0  0  0  0  0  0  0  0  0  0
  1  2  1  0  0  0  0
  1  3  2  0  0  0  0
  1  4  1  0  0  0  0
  4  5  1  0  0  0  0
  4  6  1  0  0  0  0
  4  7  1  0  0  0  0
  7  8  1  0  0  0  0
  7  9  1  0  0  0  0
  7 10  1  0  0  0  0
 10 11  1  0  0  0  0
 10 12  1  0  0  0  0
 10 13  1  0  0  0  0
 13 14  1  0  0  0  0
 13 15  1  0  0  0  0
 13 16  1  0  0  0  0
 16 17  1  0  0  0  0
 16 18  1  0  0  0  0
 16 19  1  0  0  0  0
M  END
> <VConfSearch Rank>
873

> <Conf_Id>
52

> <Delta U+W>
2.070

> <U+W>
-52.822

> <U>
10.967

> <W>
-63.789

> <W(PB)>
-65.837

> <W(SA)>
2.048

> <Valence>
8.609

> <Coulomb>
1.892

> <VdW>
0.467

> <VdW6>
-7.569

> <VdW12>
8.035

> <Bond>
0.170

> <Angle>
3.196

> <Pdih>
5.237

> <Idih>
0.007

> <Tether>
0.000

$$$$
VeraChem MOL file


 19 18  0  0  0  0  0  0  0  0999 V2000     
   18.7886   17.1871   21.8162 C   0  0  0  0  0  0  0  0  0  0  0  0
   17.6155   17.3052   22.1128 O   0  5  0  0  0  0  0  0  0  0  0  0
   19.1701   16.9810   20.6810 O   0  0  0  0  0  0  0  0  0  0  0  0
   19.8308   17.1692   22.9355 C   0  0  0  0  0  0  0  0  0  0  0  0
   20.8327   17.2093   22.4917 H   0  0  0  0  0  0  0  0  0  0  0  0
   19.7416   16.1884   23.4164 H   0  0  0  0  0  0  0  0  0  0  0  0
   19.6784   18.2751   24.0187 C   0  0  0  0  0  0  0  0  0  0  0  0
   18.6174   18.4111   24.2698 H   0  0  0  0  0  0  0  0  0  0  0  0
   20.1576   17.9141   24.9387 H   0  0  0  0  0  0  0  0  0  0  0  0
   20.3173   19.6430   23.6669 C   0  0  0  0  0  0  0  0  0  0  0  0
   21.3987   19.5239   23.5141 H   0  0  0  0  0  0  0  0  0  0  0  0
   20.2129   20.2915   24.5476 H   0  0  0  0  0  0  0  0  0  0  0  0
   19.6804   20.3712   22.4586 C   0  0  0  0  0  0  0  0  0  0  0  0
   18.6552   20.0130   22.2909 H   0  0  0  0  0  0  0  0  0  0  0  0
   19.5939   21.4408   22.6944 H   0  0  0  0  0  0  0  0  0  0  0  0
   20.5159   20.2304   21.1681 C   0  0  0  0  0  0  0  0  0  0  0  0
   21.5107   20.6766   21.2954 H   0  0  0  0  0  0  0  0  0  0  0  0
   20.6497   19.1789   20.8887 H   0  0  0  0  0  0  0  0  0  0  0  0
   20.0213   20.7405   20.3315 H   0  0  0  0  0  0  0  0  0  0  0  0
  1  2  1  0  0  0  0
  1  3  2  0  0  0  0
  1  4  1  0  0  0  0
  4  5  1  0  0  0  0
  4  6  1  0  0  0  0
  4  7  1  0  0  0  0
  7  8  1  0  0  0  0
  7  9  1  0  0  0  0
  7 10  1  0  0  0  0
 10 11  1  0  0  0  0
 10 12  1  0  0  0  0
 10 13  1  0  0  0  0
 13 14  1  0  0  0  0
 13 15  1  0  0  0  0
 13 16  1  0  0  0  0
 16 17  1  0  0  0  0
 16 18  1  0  0  0  0
 16 19  1  0  0  0  0
M  END
> <VConfSearch Rank>
874

> <Conf_Id>
66

> <Delta U+W>
5.819

> <U+W>
-49.072

> <U>
15.324

> <W>
-64.396

> <W(PB)>
-66.382

> <W(SA)>
1.986

> <Valence>
11.748

> <Coulomb>
3.201

> <VdW>
0.375

> <VdW6>
-8.854

> <VdW12>
9.229

> <Bond>
0.216

> <Angle>
3.812

> <Pdih>
7.699

> <Idih>
0.022

> <Tether>
0.000

$$$$
VeraChem MOL file


 19 18  0  0  0  0  0  0  0  0999 V2000     
   17.4093   18.1164   20.0183 C   0  0  0  0  0  0  0  0  0  0  0  0
   17.1676   17.9503   18.8395 O   0  5  0  0  0  0  0  0  0  0  0  0
   16.5693   18.0043   20.8901 O   0  0  0  0  0  0  0  0  0  0  0  0
   18.8467   18.4831   20.3914 C   0  0  0  0  0  0  0  0  0  0  0  0
   19.1024   19.3995   19.8467 H   0  0  0  0  0  0  0  0  0  0  0  0
   19.4973   17.6890   20.0065 H   0  0  0  0  0  0  0  0  0  0  0  0
   19.1071   18.6849   21.9079 C   0  0  0  0  0  0  0  0  0  0  0  0
   18.4482   19.4776   22.2885 H   0  0  0  0  0  0  0  0  0  0  0  0
   18.8435   17.7653   22.4485 H   0  0  0  0  0  0  0  0  0  0  0  0
   20.5796   19.0515   22.1938 C   0  0  0  0  0  0  0  0  0  0  0  0
   20.8411   19.9710   21.6522 H   0  0  0  0  0  0  0  0  0  0  0  0
   21.2366   18.2577   21.8124 H   0  0  0  0  0  0  0  0  0  0  0  0
   20.8364   19.2517   23.7019 C   0  0  0  0  0  0  0  0  0  0  0  0
   20.1823   20.0464   24.0868 H   0  0  0  0  0  0  0  0  0  0  0  0
   20.5779   18.3333   24.2470 H   0  0  0  0  0  0  0  0  0  0  0  0
   22.3074   19.6177   23.9835 C   0  0  0  0  0  0  0  0  0  0  0  0
   22.5842   20.5507   23.4753 H   0  0  0  0  0  0  0  0  0  0  0  0
   22.4721   19.7563   25.0600 H   0  0  0  0  0  0  0  0  0  0  0  0
   22.9828   18.8247   23.6366 H   0  0  0  0  0  0  0  0  0  0  0  0
  1  2  1  0  0  0  0
  1  3  2  0  0  0  0
  1  4  1  0  0  0  0
  4  5  1  0  0  0  0
  4  6  1  0  0  0  0
  4  7  1  0  0  0  0
  7  8  1  0  0  0  0
  7  9  1  0  0  0  0
  7 10  1  0  0  0  0
 10 11  1  0  0  0  0
 10 12  1  0  0  0  0
 10 13  1  0  0  0  0
 13 14  1  0  0  0  0
 13 15  1  0  0  0  0
 13 16  1  0  0  0  0
 16 17  1  0  0  0  0
 16 18  1  0  0  0  0
 16 19  1  0  0  0  0
M  END
> <VConfSearch Rank>
875

> <Conf_Id>
0

> <Delta U+W>
0.000

> <U+W>
-54.891

> <U>
6.966

> <W>
-61.857

> <W(PB)>
-63.965

> <W(SA)>
2.108

> <Valence>
7.175

> <Coulomb>
-1.360

> <VdW>
1.151

> <VdW6>
-5.641

> <VdW12>
6.792

> <Bond>
0.119

> <Angle>
2.715

> <Pdih>
4.340

> <Idih>
0.000

> <Tether>
0.000

$$$$
VeraChem MOL file


 19 18  0  0  0  0  0  0  0  0999 V2000     
   22.5985   17.0317   23.0000 C   0  0  0  0  0  0  0  0  0  0  0  0
   23.6465   17.6378   23.1031 O   0  5  0  0  0  0  0  0  0  0  0  0
   22.3338   16.0324   23.6383 O   0  0  0  0  0  0  0  0  0  0  0  0
   21.5497   17.5664   22.0312 C   0  0  0  0  0  0  0  0  0  0  0  0
   20.9899   16.7131   21.6298 H   0  0  0  0  0  0  0  0  0  0  0  0
   22.0717   18.0366   21.1890 H   0  0  0  0  0  0  0  0  0  0  0  0
   20.5807   18.5783   22.6910 C   0  0  0  0  0  0  0  0  0  0  0  0
   20.0756   18.0964   23.5397 H   0  0  0  0  0  0  0  0  0  0  0  0
   21.1576   19.4199   23.0990 H   0  0  0  0  0  0  0  0  0  0  0  0
   19.5297   19.1042   21.6899 C   0  0  0  0  0  0  0  0  0  0  0  0
   18.9557   18.2604   21.2828 H   0  0  0  0  0  0  0  0  0  0  0  0
   20.0378   19.5842   20.8422 H   0  0  0  0  0  0  0  0  0  0  0  0
   18.5657   20.1119   22.3500 C   0  0  0  0  0  0  0  0  0  0  0  0
   18.0541   19.6348   23.1974 H   0  0  0  0  0  0  0  0  0  0  0  0
   19.1360   20.9585   22.7567 H   0  0  0  0  0  0  0  0  0  0  0  0
   17.5176   20.6348   21.3475 C   0  0  0  0  0  0  0  0  0  0  0  0
   16.8408   21.3497   21.8332 H   0  0  0  0  0  0  0  0  0  0  0  0
   18.0011   21.1451   20.5041 H   0  0  0  0  0  0  0  0  0  0  0  0
   16.9110   19.8115   20.9481 H   0  0  0  0  0  0  0  0  0  0  0  0
  1  2  1  0  0  0  0
  1  3  2  0  0  0  0
  1  4  1  0  0  0  0
  4  5  1  0  0  0  0
  4  6  1  0  0  0  0
  4  7  1  0  0  0  0
  7  8  1  0  0  0  0
  7  9  1  0  0  0  0
  7 10  1  0  0  0  0
 10 11  1  0  0  0  0
 10 12  1  0  0  0  0
 10 13  1  0  0  0  0
 13 14  1  0  0  0  0
 13 15  1  0  0  0  0
 13 16  1  0  0  0  0
 16 17  1  0  0  0  0
 16 18  1  0  0  0  0
 16 19  1  0  0  0  0
M  END
> <VConfSearch Rank>
876

> <Conf_Id>
18

> <Delta U+W>
-1.199

> <U+W>
-56.090

> <U>
5.975

> <W>
-62.066

> <W(PB)>
-64.219

> <W(SA)>
2.153

> <Valence>
6.673

> <Coulomb>
-1.307

> <VdW>
0.610

> <VdW6>
-5.351

> <VdW12>
5.961

> <Bond>
0.086

> <Angle>
2.253

> <Pdih>
4.333

> <Idih>
0.001

> <Tether>
0.000

$$$$
VeraChem MOL file


 19 18  0  0  0  0  0  0  0  0999 V2000     
   20.9775   20.8313   24.5700 C   0  0  0  0  0  0  0  0  0  0  0  0
   20.3163   21.0690   25.5613 O   0  5  0  0  0  0  0  0  0  0  0  0
   22.1772   21.0117   24.5029 O   0  0  0  0  0  0  0  0  0  0  0  0
   20.2661   20.2554   23.3508 C   0  0  0  0  0  0  0  0  0  0  0  0
   20.7801   20.6284   22.4578 H   0  0  0  0  0  0  0  0  0  0  0  0
   19.2458   20.6569   23.3308 H   0  0  0  0  0  0  0  0  0  0  0  0
   20.2306   18.7049   23.3534 C   0  0  0  0  0  0  0  0  0  0  0  0
   21.2573   18.3143   23.3284 H   0  0  0  0  0  0  0  0  0  0  0  0
   19.7921   18.3641   24.3016 H   0  0  0  0  0  0  0  0  0  0  0  0
   19.4137   18.1036   22.1852 C   0  0  0  0  0  0  0  0  0  0  0  0
   18.3856   18.4895   22.2180 H   0  0  0  0  0  0  0  0  0  0  0  0
   19.3427   17.0172   22.3324 H   0  0  0  0  0  0  0  0  0  0  0  0
   20.0307   18.3828   20.7964 C   0  0  0  0  0  0  0  0  0  0  0  0
   20.0414   19.4623   20.5967 H   0  0  0  0  0  0  0  0  0  0  0  0
   21.0755   18.0428   20.7798 H   0  0  0  0  0  0  0  0  0  0  0  0
   19.2440   17.6737   19.6759 C   0  0  0  0  0  0  0  0  0  0  0  0
   19.6922   17.8838   18.6961 H   0  0  0  0  0  0  0  0  0  0  0  0
   19.2450   16.5856   19.8225 H   0  0  0  0  0  0  0  0  0  0  0  0
   18.2009   18.0157   19.6518 H   0  0  0  0  0  0  0  0  0  0  0  0
  1  2  1  0  0  0  0
  1  3  2  0  0  0  0
  1  4  1  0  0  0  0
  4  5  1  0  0  0  0
  4  6  1  0  0  0  0
  4  7  1  0  0  0  0
  7  8  1  0  0  0  0
  7  9  1  0  0  0  0
  7 10  1  0  0  0  0
 10 11  1  0  0  0  0
 10 12  1  0  0  0  0
 10 13  1  0  0  0  0
 13 14  1  0  0  0  0
 13 15  1  0  0  0  0
 13 16  1  0  0  0  0
 16 17  1  0  0  0  0
 16 18  1  0  0  0  0
 16 19  1  0  0  0  0
M  END
> <VConfSearch Rank>
877

> <Conf_Id>
34

> <Delta U+W>
-0.563

> <U+W>
-55.455

> <U>
6.914

> <W>
-62.369

> <W(PB)>
-64.446

> <W(SA)>
2.077

> <Valence>
7.196

> <Coulomb>
-1.020

> <VdW>
0.738

> <VdW6>
-6.010

> <VdW12>
6.748

> <Bond>
0.126

> <Angle>
2.499

> <Pdih>
4.570

> <Idih>
0.001

> <Tether>
0.000

$$$$
VeraChem MOL file


 19 18  0  0  0  0  0  0  0  0999 V2000     
   22.7390   20.3837   22.9235 C   0  0  0  0  0  0  0  0  0  0  0  0
   22.8108   21.3705   23.6287 O   0  5  0  0  0  0  0  0  0  0  0  0
   23.6250   20.0289   22.1715 O   0  0  0  0  0  0  0  0  0  0  0  0
   21.4582   19.5580   22.9684 C   0  0  0  0  0  0  0  0  0  0  0  0
   21.0465   19.6235   23.9827 H   0  0  0  0  0  0  0  0  0  0  0  0
   21.7305   18.5108   22.7947 H   0  0  0  0  0  0  0  0  0  0  0  0
   20.4044   20.0280   21.9323 C   0  0  0  0  0  0  0  0  0  0  0  0
   20.2228   21.1020   22.0766 H   0  0  0  0  0  0  0  0  0  0  0  0
   20.8117   19.9159   20.9179 H   0  0  0  0  0  0  0  0  0  0  0  0
   19.0552   19.2785   22.0398 C   0  0  0  0  0  0  0  0  0  0  0  0
   18.3375   19.7528   21.3563 H   0  0  0  0  0  0  0  0  0  0  0  0
   18.6465   19.3996   23.0524 H   0  0  0  0  0  0  0  0  0  0  0  0
   19.1581   17.7757   21.6959 C   0  0  0  0  0  0  0  0  0  0  0  0
   19.6140   17.6528   20.7038 H   0  0  0  0  0  0  0  0  0  0  0  0
   19.8128   17.2665   22.4152 H   0  0  0  0  0  0  0  0  0  0  0  0
   17.7738   17.0967   21.7106 C   0  0  0  0  0  0  0  0  0  0  0  0
   17.3060   17.1808   22.7003 H   0  0  0  0  0  0  0  0  0  0  0  0
   17.1024   17.5566   20.9736 H   0  0  0  0  0  0  0  0  0  0  0  0
   17.8637   16.0300   21.4675 H   0  0  0  0  0  0  0  0  0  0  0  0
  1  2  1  0  0  0  0
  1  3  2  0  0  0  0
  1  4  1  0  0  0  0
  4  5  1  0  0  0  0
  4  6  1  0  0  0  0
  4  7  1  0  0  0  0
  7  8  1  0  0  0  0
  7  9  1  0  0  0  0
  7 10  1  0  0  0  0
 10 11  1  0  0  0  0
 10 12  1  0  0  0  0
 10 13  1  0  0  0  0
 13 14  1  0  0  0  0
 13 15  1  0  0  0  0
 13 16  1  0  0  0  0
 16 17  1  0  0  0  0
 16 18  1  0  0  0  0
 16 19  1  0  0  0  0
M  END
> <VConfSearch Rank>
878

> <Conf_Id>
33

> <Delta U+W>
-0.526

> <U+W>
-55.418

> <U>
6.914

> <W>
-62.332

> <W(PB)>
-64.421

> <W(SA)>
2.090

> <Valence>
7.196

> <Coulomb>
-1.020

> <VdW>
0.738

> <VdW6>
-6.010

> <VdW12>
6.748

> <Bond>
0.126

> <Angle>
2.499

> <Pdih>
4.570

> <Idih>
0.001

> <Tether>
0.000

$$$$
VeraChem MOL file


 19 18  0  0  0  0  0  0  0  0999 V2000     
   19.2880   21.9153   23.1853 C   0  0  0  0  0  0  0  0  0  0  0  0
   20.3283   22.4960   23.4235 O   0  5  0  0  0  0  0  0  0  0  0  0
   18.3082   22.4572   22.7133 O   0  0  0  0  0  0  0  0  0  0  0  0
   19.2135   20.4210   23.4783 C   0  0  0  0  0  0  0  0  0  0  0  0
   18.1833   20.1817   23.7681 H   0  0  0  0  0  0  0  0  0  0  0  0
   19.8513   20.2113   24.3456 H   0  0  0  0  0  0  0  0  0  0  0  0
   19.6469   19.5488   22.2742 C   0  0  0  0  0  0  0  0  0  0  0  0
   19.0056   19.7769   21.4117 H   0  0  0  0  0  0  0  0  0  0  0  0
   20.6728   19.8188   21.9909 H   0  0  0  0  0  0  0  0  0  0  0  0
   19.5650   18.0397   22.6004 C   0  0  0  0  0  0  0  0  0  0  0  0
   18.5505   17.8040   22.9499 H   0  0  0  0  0  0  0  0  0  0  0  0
   20.2435   17.8029   23.4314 H   0  0  0  0  0  0  0  0  0  0  0  0
   19.8911   17.1319   21.3920 C   0  0  0  0  0  0  0  0  0  0  0  0
   19.6960   16.0877   21.6727 H   0  0  0  0  0  0  0  0  0  0  0  0
   19.2107   17.3620   20.5605 H   0  0  0  0  0  0  0  0  0  0  0  0
   21.3544   17.2528   20.9144 C   0  0  0  0  0  0  0  0  0  0  0  0
   22.0538   17.0555   21.7373 H   0  0  0  0  0  0  0  0  0  0  0  0
   21.5586   16.5275   20.1162 H   0  0  0  0  0  0  0  0  0  0  0  0
   21.5645   18.2531   20.5157 H   0  0  0  0  0  0  0  0  0  0  0  0
  1  2  1  0  0  0  0
  1  3  2  0  0  0  0
  1  4  1  0  0  0  0
  4  5  1  0  0  0  0
  4  6  1  0  0  0  0
  4  7  1  0  0  0  0
  7  8  1  0  0  0  0
  7  9  1  0  0  0  0
  7 10  1  0  0  0  0
 10 11  1  0  0  0  0
 10 12  1  0  0  0  0
 10 13  1  0  0  0  0
 13 14  1  0  0  0  0
 13 15  1  0  0  0  0
 13 16  1  0  0  0  0
 16 17  1  0  0  0  0
 16 18  1  0  0  0  0
 16 19  1  0  0  0  0
M  END
> <VConfSearch Rank>
879

> <Conf_Id>
42

> <Delta U+W>
-0.344

> <U+W>
-55.236

> <U>
7.244

> <W>
-62.479

> <W(PB)>
-64.610

> <W(SA)>
2.130

> <Valence>
7.174

> <Coulomb>
-0.669

> <VdW>
0.739

> <VdW6>
-5.969

> <VdW12>
6.708

> <Bond>
0.116

> <Angle>
2.481

> <Pdih>
4.576

> <Idih>
0.000

> <Tether>
0.000

$$$$
VeraChem MOL file


 19 18  0  0  0  0  0  0  0  0999 V2000     
   23.1389   19.2039   21.5307 C   0  0  0  0  0  0  0  0  0  0  0  0
   23.6947   19.8904   22.3650 O   0  5  0  0  0  0  0  0  0  0  0  0
   23.4410   19.1991   20.3539 O   0  0  0  0  0  0  0  0  0  0  0  0
   21.9869   18.3130   21.9822 C   0  0  0  0  0  0  0  0  0  0  0  0
   22.1882   17.9902   23.0108 H   0  0  0  0  0  0  0  0  0  0  0  0
   21.9856   17.4138   21.3545 H   0  0  0  0  0  0  0  0  0  0  0  0
   20.6118   19.0213   21.9048 C   0  0  0  0  0  0  0  0  0  0  0  0
   20.6432   19.9269   22.5250 H   0  0  0  0  0  0  0  0  0  0  0  0
   20.4290   19.3467   20.8714 H   0  0  0  0  0  0  0  0  0  0  0  0
   19.4636   18.0968   22.3714 C   0  0  0  0  0  0  0  0  0  0  0  0
   19.6210   17.8112   23.4205 H   0  0  0  0  0  0  0  0  0  0  0  0
   19.4938   17.1667   21.7875 H   0  0  0  0  0  0  0  0  0  0  0  0
   18.0623   18.7306   22.2129 C   0  0  0  0  0  0  0  0  0  0  0  0
   17.8989   19.0127   21.1636 H   0  0  0  0  0  0  0  0  0  0  0  0
   17.3035   17.9729   22.4523 H   0  0  0  0  0  0  0  0  0  0  0  0
   17.8412   19.9593   23.1215 C   0  0  0  0  0  0  0  0  0  0  0  0
   18.5031   20.7885   22.8422 H   0  0  0  0  0  0  0  0  0  0  0  0
   16.8069   20.3173   23.0376 H   0  0  0  0  0  0  0  0  0  0  0  0
   18.0277   19.7084   24.1738 H   0  0  0  0  0  0  0  0  0  0  0  0
  1  2  1  0  0  0  0
  1  3  2  0  0  0  0
  1  4  1  0  0  0  0
  4  5  1  0  0  0  0
  4  6  1  0  0  0  0
  4  7  1  0  0  0  0
  7  8  1  0  0  0  0
  7  9  1  0  0  0  0
  7 10  1  0  0  0  0
 10 11  1  0  0  0  0
 10 12  1  0  0  0  0
 10 13  1  0  0  0  0
 13 14  1  0  0  0  0
 13 15  1  0  0  0  0
 13 16  1  0  0  0  0
 16 17  1  0  0  0  0
 16 18  1  0  0  0  0
 16 19  1  0  0  0  0
M  END
> <VConfSearch Rank>
880

> <Conf_Id>
41

> <Delta U+W>
-0.361

> <U+W>
-55.252

> <U>
7.244

> <W>
-62.496

> <W(PB)>
-64.596

> <W(SA)>
2.099

> <Valence>
7.174

> <Coulomb>
-0.669

> <VdW>
0.739

> <VdW6>
-5.969

> <VdW12>
6.708

> <Bond>
0.116

> <Angle>
2.481

> <Pdih>
4.576

> <Idih>
0.000

> <Tether>
0.000

$$$$
VeraChem MOL file


 19 18  0  0  0  0  0  0  0  0999 V2000     
   19.6068   16.2120   21.6513 C   0  0  0  0  0  0  0  0  0  0  0  0
   20.3125   16.1864   20.6624 O   0  5  0  0  0  0  0  0  0  0  0  0
   19.7290   15.4425   22.5839 O   0  0  0  0  0  0  0  0  0  0  0  0
   18.4917   17.2519   21.7181 C   0  0  0  0  0  0  0  0  0  0  0  0
   17.5824   16.7368   22.0497 H   0  0  0  0  0  0  0  0  0  0  0  0
   18.2955   17.6210   20.7041 H   0  0  0  0  0  0  0  0  0  0  0  0
   18.7910   18.4384   22.6709 C   0  0  0  0  0  0  0  0  0  0  0  0
   17.8885   19.0575   22.7633 H   0  0  0  0  0  0  0  0  0  0  0  0
   19.0135   18.0515   23.6751 H   0  0  0  0  0  0  0  0  0  0  0  0
   19.9625   19.3164   22.1769 C   0  0  0  0  0  0  0  0  0  0  0  0
   19.7412   19.6899   21.1677 H   0  0  0  0  0  0  0  0  0  0  0  0
   20.8739   18.7076   22.0981 H   0  0  0  0  0  0  0  0  0  0  0  0
   20.2220   20.5075   23.1226 C   0  0  0  0  0  0  0  0  0  0  0  0
   19.3149   21.1225   23.2020 H   0  0  0  0  0  0  0  0  0  0  0  0
   20.4461   20.1365   24.1324 H   0  0  0  0  0  0  0  0  0  0  0  0
   21.3913   21.3816   22.6269 C   0  0  0  0  0  0  0  0  0  0  0  0
   21.1801   21.7918   21.6307 H   0  0  0  0  0  0  0  0  0  0  0  0
   21.5623   22.2231   23.3108 H   0  0  0  0  0  0  0  0  0  0  0  0
   22.3198   20.7986   22.5679 H   0  0  0  0  0  0  0  0  0  0  0  0
  1  2  1  0  0  0  0
  1  3  2  0  0  0  0
  1  4  1  0  0  0  0
  4  5  1  0  0  0  0
  4  6  1  0  0  0  0
  4  7  1  0  0  0  0
  7  8  1  0  0  0  0
  7  9  1  0  0  0  0
  7 10  1  0  0  0  0
 10 11  1  0  0  0  0
 10 12  1  0  0  0  0
 10 13  1  0  0  0  0
 13 14  1  0  0  0  0
 13 15  1  0  0  0  0
 13 16  1  0  0  0  0
 16 17  1  0  0  0  0
 16 18  1  0  0  0  0
 16 19  1  0  0  0  0
M  END
> <VConfSearch Rank>
881

> <Conf_Id>
36

> <Delta U+W>
-0.079

> <U+W>
-54.971

> <U>
8.266

> <W>
-63.237

> <W(PB)>
-65.340

> <W(SA)>
2.103

> <Valence>
6.935

> <Coulomb>
0.874

> <VdW>
0.457

> <VdW6>
-6.205

> <VdW12>
6.662

> <Bond>
0.107

> <Angle>
2.420

> <Pdih>
4.407

> <Idih>
0.001

> <Tether>
0.000

$$$$
VeraChem MOL file


 19 18  0  0  0  0  0  0  0  0999 V2000     
   17.3761   18.4807   21.7623 C   0  0  0  0  0  0  0  0  0  0  0  0
   17.3566   17.2667   21.8127 O   0  5  0  0  0  0  0  0  0  0  0  0
   16.9347   19.1215   20.8289 O   0  0  0  0  0  0  0  0  0  0  0  0
   17.9670   19.2447   22.9440 C   0  0  0  0  0  0  0  0  0  0  0  0
   17.9996   18.5760   23.8127 H   0  0  0  0  0  0  0  0  0  0  0  0
   17.2703   20.0541   23.1925 H   0  0  0  0  0  0  0  0  0  0  0  0
   19.3739   19.8381   22.6723 C   0  0  0  0  0  0  0  0  0  0  0  0
   19.3316   20.4825   21.7832 H   0  0  0  0  0  0  0  0  0  0  0  0
   19.6581   20.4815   23.5160 H   0  0  0  0  0  0  0  0  0  0  0  0
   20.4512   18.7478   22.4778 C   0  0  0  0  0  0  0  0  0  0  0  0
   20.1826   18.1099   21.6243 H   0  0  0  0  0  0  0  0  0  0  0  0
   20.4806   18.0985   23.3635 H   0  0  0  0  0  0  0  0  0  0  0  0
   21.8474   19.3602   22.2405 C   0  0  0  0  0  0  0  0  0  0  0  0
   21.8214   20.0084   21.3535 H   0  0  0  0  0  0  0  0  0  0  0  0
   22.1233   19.9961   23.0931 H   0  0  0  0  0  0  0  0  0  0  0  0
   22.9200   18.2698   22.0467 C   0  0  0  0  0  0  0  0  0  0  0  0
   22.6851   17.6376   21.1804 H   0  0  0  0  0  0  0  0  0  0  0  0
   23.9059   18.7225   21.8788 H   0  0  0  0  0  0  0  0  0  0  0  0
   22.9893   17.6253   22.9328 H   0  0  0  0  0  0  0  0  0  0  0  0
  1  2  1  0  0  0  0
  1  3  2  0  0  0  0
  1  4  1  0  0  0  0
  4  5  1  0  0  0  0
  4  6  1  0  0  0  0
  4  7  1  0  0  0  0
  7  8  1  0  0  0  0
  7  9  1  0  0  0  0
  7 10  1  0  0  0  0
 10 11  1  0  0  0  0
 10 12  1  0  0  0  0
 10 13  1  0  0  0  0
 13 14  1  0  0  0  0
 13 15  1  0  0  0  0
 13 16  1  0  0  0  0
 16 17  1  0  0  0  0
 16 18  1  0  0  0  0
 16 19  1  0  0  0  0
M  END
> <VConfSearch Rank>
882

> <Conf_Id>
35

> <Delta U+W>
-0.030

> <U+W>
-54.921

> <U>
8.267

> <W>
-63.188

> <W(PB)>
-65.294

> <W(SA)>
2.106

> <Valence>
6.935

> <Coulomb>
0.875

> <VdW>
0.457

> <VdW6>
-6.205

> <VdW12>
6.662

> <Bond>
0.107

> <Angle>
2.420

> <Pdih>
4.407

> <Idih>
0.001

> <Tether>
0.000

$$$$
VeraChem MOL file


 19 18  0  0  0  0  0  0  0  0999 V2000     
   19.1144   20.7104   20.2370 C   0  0  0  0  0  0  0  0  0  0  0  0
   19.6182   20.5152   19.1486 O   0  5  0  0  0  0  0  0  0  0  0  0
   19.0191   21.8100   20.7455 O   0  0  0  0  0  0  0  0  0  0  0  0
   18.5520   19.5111   20.9951 C   0  0  0  0  0  0  0  0  0  0  0  0
   17.9656   18.9192   20.2824 H   0  0  0  0  0  0  0  0  0  0  0  0
   17.8519   19.8747   21.7572 H   0  0  0  0  0  0  0  0  0  0  0  0
   19.6333   18.6111   21.6481 C   0  0  0  0  0  0  0  0  0  0  0  0
   19.1470   17.7049   22.0311 H   0  0  0  0  0  0  0  0  0  0  0  0
   20.3492   18.2870   20.8802 H   0  0  0  0  0  0  0  0  0  0  0  0
   20.3842   19.3241   22.7981 C   0  0  0  0  0  0  0  0  0  0  0  0
   19.6716   19.6132   23.5826 H   0  0  0  0  0  0  0  0  0  0  0  0
   20.8225   20.2574   22.4189 H   0  0  0  0  0  0  0  0  0  0  0  0
   21.5156   18.4699   23.4154 C   0  0  0  0  0  0  0  0  0  0  0  0
   22.2312   18.1810   22.6333 H   0  0  0  0  0  0  0  0  0  0  0  0
   22.0727   19.0888   24.1322 H   0  0  0  0  0  0  0  0  0  0  0  0
   21.0028   17.2082   24.1428 C   0  0  0  0  0  0  0  0  0  0  0  0
   20.5403   16.5016   23.4425 H   0  0  0  0  0  0  0  0  0  0  0  0
   21.8322   16.6881   24.6393 H   0  0  0  0  0  0  0  0  0  0  0  0
   20.2614   17.4702   24.9088 H   0  0  0  0  0  0  0  0  0  0  0  0
  1  2  1  0  0  0  0
  1  3  2  0  0  0  0
  1  4  1  0  0  0  0
  4  5  1  0  0  0  0
  4  6  1  0  0  0  0
  4  7  1  0  0  0  0
  7  8  1  0  0  0  0
  7  9  1  0  0  0  0
  7 10  1  0  0  0  0
 10 11  1  0  0  0  0
 10 12  1  0  0  0  0
 10 13  1  0  0  0  0
 13 14  1  0  0  0  0
 13 15  1  0  0  0  0
 13 16  1  0  0  0  0
 16 17  1  0  0  0  0
 16 18  1  0  0  0  0
 16 19  1  0  0  0  0
M  END
> <VConfSearch Rank>
883

> <Conf_Id>
74

> <Delta U+W>
0.797

> <U+W>
-54.095

> <U>
8.869

> <W>
-62.964

> <W(PB)>
-65.046

> <W(SA)>
2.082

> <Valence>
7.469

> <Coulomb>
0.762

> <VdW>
0.639

> <VdW6>
-6.782

> <VdW12>
7.421

> <Bond>
0.141

> <Angle>
2.667

> <Pdih>
4.660

> <Idih>
0.001

> <Tether>
0.000

$$$$
VeraChem MOL file


 19 18  0  0  0  0  0  0  0  0999 V2000     
   20.6593   21.3044   20.7253 C   0  0  0  0  0  0  0  0  0  0  0  0
   20.5513   21.4920   19.5296 O   0  5  0  0  0  0  0  0  0  0  0  0
   20.7042   22.2003   21.5448 O   0  0  0  0  0  0  0  0  0  0  0  0
   20.7228   19.8656   21.2255 C   0  0  0  0  0  0  0  0  0  0  0  0
   21.3573   19.8506   22.1190 H   0  0  0  0  0  0  0  0  0  0  0  0
   21.2227   19.2601   20.4601 H   0  0  0  0  0  0  0  0  0  0  0  0
   19.3234   19.2777   21.5429 C   0  0  0  0  0  0  0  0  0  0  0  0
   18.8482   19.8688   22.3370 H   0  0  0  0  0  0  0  0  0  0  0  0
   18.6843   19.3909   20.6564 H   0  0  0  0  0  0  0  0  0  0  0  0
   19.3562   17.7801   21.9389 C   0  0  0  0  0  0  0  0  0  0  0  0
   19.7400   17.1963   21.0912 H   0  0  0  0  0  0  0  0  0  0  0  0
   18.3258   17.4360   22.1021 H   0  0  0  0  0  0  0  0  0  0  0  0
   20.1992   17.4479   23.1946 C   0  0  0  0  0  0  0  0  0  0  0  0
   20.1590   16.3634   23.3657 H   0  0  0  0  0  0  0  0  0  0  0  0
   21.2559   17.6874   23.0164 H   0  0  0  0  0  0  0  0  0  0  0  0
   19.7095   18.1697   24.4684 C   0  0  0  0  0  0  0  0  0  0  0  0
   18.6475   17.9624   24.6537 H   0  0  0  0  0  0  0  0  0  0  0  0
   20.2784   17.8318   25.3442 H   0  0  0  0  0  0  0  0  0  0  0  0
   19.8399   19.2562   24.3861 H   0  0  0  0  0  0  0  0  0  0  0  0
  1  2  1  0  0  0  0
  1  3  2  0  0  0  0
  1  4  1  0  0  0  0
  4  5  1  0  0  0  0
  4  6  1  0  0  0  0
  4  7  1  0  0  0  0
  7  8  1  0  0  0  0
  7  9  1  0  0  0  0
  7 10  1  0  0  0  0
 10 11  1  0  0  0  0
 10 12  1  0  0  0  0
 10 13  1  0  0  0  0
 13 14  1  0  0  0  0
 13 15  1  0  0  0  0
 13 16  1  0  0  0  0
 16 17  1  0  0  0  0
 16 18  1  0  0  0  0
 16 19  1  0  0  0  0
M  END
> <VConfSearch Rank>
884

> <Conf_Id>
67

> <Delta U+W>
0.308

> <U+W>
-54.583

> <U>
8.219

> <W>
-62.802

> <W(PB)>
-64.859

> <W(SA)>
2.057

> <Valence>
7.609

> <Coulomb>
-0.089

> <VdW>
0.699

> <VdW6>
-6.924

> <VdW12>
7.623

> <Bond>
0.163

> <Angle>
2.870

> <Pdih>
4.576

> <Idih>
0.001

> <Tether>
0.000

$$$$
VeraChem MOL file


 19 18  0  0  0  0  0  0  0  0999 V2000     
   17.4618   18.6072   23.7595 C   0  0  0  0  0  0  0  0  0  0  0  0
   16.8064   19.4389   24.3554 O   0  5  0  0  0  0  0  0  0  0  0  0
   17.3996   17.4149   23.9849 O   0  0  0  0  0  0  0  0  0  0  0  0
   18.4289   19.0884   22.6837 C   0  0  0  0  0  0  0  0  0  0  0  0
   18.0028   19.9851   22.2181 H   0  0  0  0  0  0  0  0  0  0  0  0
   18.4811   18.3131   21.9108 H   0  0  0  0  0  0  0  0  0  0  0  0
   19.8429   19.3958   23.2412 C   0  0  0  0  0  0  0  0  0  0  0  0
   19.7467   20.1063   24.0737 H   0  0  0  0  0  0  0  0  0  0  0  0
   20.2750   18.4821   23.6705 H   0  0  0  0  0  0  0  0  0  0  0  0
   20.8064   19.9983   22.1879 C   0  0  0  0  0  0  0  0  0  0  0  0
   21.7643   20.2253   22.6754 H   0  0  0  0  0  0  0  0  0  0  0  0
   20.4037   20.9620   21.8475 H   0  0  0  0  0  0  0  0  0  0  0  0
   21.0738   19.1056   20.9511 C   0  0  0  0  0  0  0  0  0  0  0  0
   20.1445   18.9507   20.3871 H   0  0  0  0  0  0  0  0  0  0  0  0
   21.7536   19.6410   20.2741 H   0  0  0  0  0  0  0  0  0  0  0  0
   21.7009   17.7404   21.3065 C   0  0  0  0  0  0  0  0  0  0  0  0
   21.0062   17.1221   21.8891 H   0  0  0  0  0  0  0  0  0  0  0  0
   21.9552   17.1854   20.3944 H   0  0  0  0  0  0  0  0  0  0  0  0
   22.6206   17.8708   21.8913 H   0  0  0  0  0  0  0  0  0  0  0  0
  1  2  1  0  0  0  0
  1  3  2  0  0  0  0
  1  4  1  0  0  0  0
  4  5  1  0  0  0  0
  4  6  1  0  0  0  0
  4  7  1  0  0  0  0
  7  8  1  0  0  0  0
  7  9  1  0  0  0  0
  7 10  1  0  0  0  0
 10 11  1  0  0  0  0
 10 12  1  0  0  0  0
 10 13  1  0  0  0  0
 13 14  1  0  0  0  0
 13 15  1  0  0  0  0
 13 16  1  0  0  0  0
 16 17  1  0  0  0  0
 16 18  1  0  0  0  0
 16 19  1  0  0  0  0
M  END
> <VConfSearch Rank>
885

> <Conf_Id>
21

> <Delta U+W>
0.319

> <U+W>
-54.572

> <U>
8.220

> <W>
-62.792

> <W(PB)>
-64.830

> <W(SA)>
2.038

> <Valence>
7.609

> <Coulomb>
-0.088

> <VdW>
0.699

> <VdW6>
-6.924

> <VdW12>
7.623

> <Bond>
0.163

> <Angle>
2.870

> <Pdih>
4.576

> <Idih>
0.000

> <Tether>
0.000

$$$$
VeraChem MOL file


 19 18  0  0  0  0  0  0  0  0999 V2000     
   22.5434   18.1529   23.4349 C   0  0  0  0  0  0  0  0  0  0  0  0
   22.9898   17.0546   23.7009 O   0  5  0  0  0  0  0  0  0  0  0  0
   23.2373   19.1286   23.2284 O   0  0  0  0  0  0  0  0  0  0  0  0
   21.0302   18.3105   23.3369 C   0  0  0  0  0  0  0  0  0  0  0  0
   20.7768   19.3255   23.6585 H   0  0  0  0  0  0  0  0  0  0  0  0
   20.5713   17.6235   24.0579 H   0  0  0  0  0  0  0  0  0  0  0  0
   20.4874   18.0248   21.9117 C   0  0  0  0  0  0  0  0  0  0  0  0
   20.9888   18.6723   21.1791 H   0  0  0  0  0  0  0  0  0  0  0  0
   20.7611   16.9942   21.6465 H   0  0  0  0  0  0  0  0  0  0  0  0
   18.9492   18.1744   21.7959 C   0  0  0  0  0  0  0  0  0  0  0  0
   18.4702   17.9383   22.7559 H   0  0  0  0  0  0  0  0  0  0  0  0
   18.5852   17.4183   21.0868 H   0  0  0  0  0  0  0  0  0  0  0  0
   18.4705   19.5567   21.2881 C   0  0  0  0  0  0  0  0  0  0  0  0
   18.8840   19.7449   20.2876 H   0  0  0  0  0  0  0  0  0  0  0  0
   17.3788   19.5247   21.1681 H   0  0  0  0  0  0  0  0  0  0  0  0
   18.8305   20.7326   22.2195 C   0  0  0  0  0  0  0  0  0  0  0  0
   18.3524   21.6574   21.8718 H   0  0  0  0  0  0  0  0  0  0  0  0
   18.4914   20.5410   23.2458 H   0  0  0  0  0  0  0  0  0  0  0  0
   19.9135   20.9072   22.2354 H   0  0  0  0  0  0  0  0  0  0  0  0
  1  2  1  0  0  0  0
  1  3  2  0  0  0  0
  1  4  1  0  0  0  0
  4  5  1  0  0  0  0
  4  6  1  0  0  0  0
  4  7  1  0  0  0  0
  7  8  1  0  0  0  0
  7  9  1  0  0  0  0
  7 10  1  0  0  0  0
 10 11  1  0  0  0  0
 10 12  1  0  0  0  0
 10 13  1  0  0  0  0
 13 14  1  0  0  0  0
 13 15  1  0  0  0  0
 13 16  1  0  0  0  0
 16 17  1  0  0  0  0
 16 18  1  0  0  0  0
 16 19  1  0  0  0  0
M  END
> <VConfSearch Rank>
886

> <Conf_Id>
24

> <Delta U+W>
2.477

> <U+W>
-52.414

> <U>
10.422

> <W>
-62.836

> <W(PB)>
-64.906

> <W(SA)>
2.070

> <Valence>
9.628

> <Coulomb>
0.101

> <VdW>
0.693

> <VdW6>
-6.927

> <VdW12>
7.620

> <Bond>
0.173

> <Angle>
2.989

> <Pdih>
6.465

> <Idih>
0.001

> <Tether>
0.000

$$$$
VeraChem MOL file


 19 18  0  0  0  0  0  0  0  0999 V2000     
   22.2093   19.7114   21.4563 C   0  0  0  0  0  0  0  0  0  0  0  0
   22.0271   20.9123   21.4918 O   0  5  0  0  0  0  0  0  0  0  0  0
   23.3004   19.1942   21.5948 O   0  0  0  0  0  0  0  0  0  0  0  0
   21.0106   18.8030   21.1951 C   0  0  0  0  0  0  0  0  0  0  0  0
   21.3018   18.1027   20.4036 H   0  0  0  0  0  0  0  0  0  0  0  0
   20.1969   19.4129   20.7901 H   0  0  0  0  0  0  0  0  0  0  0  0
   20.5415   18.0026   22.4418 C   0  0  0  0  0  0  0  0  0  0  0  0
   19.8228   17.2294   22.1387 H   0  0  0  0  0  0  0  0  0  0  0  0
   21.4102   17.4650   22.8468 H   0  0  0  0  0  0  0  0  0  0  0  0
   19.9272   18.8774   23.5655 C   0  0  0  0  0  0  0  0  0  0  0  0
   20.3761   19.8800   23.5619 H   0  0  0  0  0  0  0  0  0  0  0  0
   20.2013   18.4325   24.5318 H   0  0  0  0  0  0  0  0  0  0  0  0
   18.3832   18.9890   23.5259 C   0  0  0  0  0  0  0  0  0  0  0  0
   17.9383   17.9888   23.6204 H   0  0  0  0  0  0  0  0  0  0  0  0
   18.0527   19.5568   24.4065 H   0  0  0  0  0  0  0  0  0  0  0  0
   17.8325   19.6773   22.2600 C   0  0  0  0  0  0  0  0  0  0  0  0
   17.9932   19.0559   21.3703 H   0  0  0  0  0  0  0  0  0  0  0  0
   16.7521   19.8465   22.3541 H   0  0  0  0  0  0  0  0  0  0  0  0
   18.3157   20.6499   22.0991 H   0  0  0  0  0  0  0  0  0  0  0  0
  1  2  1  0  0  0  0
  1  3  2  0  0  0  0
  1  4  1  0  0  0  0
  4  5  1  0  0  0  0
  4  6  1  0  0  0  0
  4  7  1  0  0  0  0
  7  8  1  0  0  0  0
  7  9  1  0  0  0  0
  7 10  1  0  0  0  0
 10 11  1  0  0  0  0
 10 12  1  0  0  0  0
 10 13  1  0  0  0  0
 13 14  1  0  0  0  0
 13 15  1  0  0  0  0
 13 16  1  0  0  0  0
 16 17  1  0  0  0  0
 16 18  1  0  0  0  0
 16 19  1  0  0  0  0
M  END
> <VConfSearch Rank>
887

> <Conf_Id>
4

> <Delta U+W>
3.753

> <U+W>
-51.138

> <U>
12.334

> <W>
-63.472

> <W(PB)>
-65.500

> <W(SA)>
2.028

> <Valence>
9.984

> <Coulomb>
1.767

> <VdW>
0.583

> <VdW6>
-7.767

> <VdW12>
8.349

> <Bond>
0.203

> <Angle>
3.191

> <Pdih>
6.589

> <Idih>
0.001

> <Tether>
0.000

$$$$
VeraChem MOL file


 19 18  0  0  0  0  0  0  0  0999 V2000     
   21.0683   18.2407   24.6632 C   0  0  0  0  0  0  0  0  0  0  0  0
   20.7840   17.3863   25.4794 O   0  5  0  0  0  0  0  0  0  0  0  0
   22.2059   18.4738   24.3049 O   0  0  0  0  0  0  0  0  0  0  0  0
   19.9369   19.0837   24.0805 C   0  0  0  0  0  0  0  0  0  0  0  0
   20.3722   19.9802   23.6277 H   0  0  0  0  0  0  0  0  0  0  0  0
   19.3211   19.4241   24.9212 H   0  0  0  0  0  0  0  0  0  0  0  0
   19.0417   18.3226   23.0635 C   0  0  0  0  0  0  0  0  0  0  0  0
   18.6884   17.4005   23.5457 H   0  0  0  0  0  0  0  0  0  0  0  0
   18.1416   18.9130   22.8456 H   0  0  0  0  0  0  0  0  0  0  0  0
   19.7578   17.9507   21.7390 C   0  0  0  0  0  0  0  0  0  0  0  0
   19.3662   16.9818   21.4005 H   0  0  0  0  0  0  0  0  0  0  0  0
   20.8311   17.7933   21.9126 H   0  0  0  0  0  0  0  0  0  0  0  0
   19.5514   18.9644   20.5867 C   0  0  0  0  0  0  0  0  0  0  0  0
   20.0282   18.5638   19.6815 H   0  0  0  0  0  0  0  0  0  0  0  0
   18.4803   19.0497   20.3576 H   0  0  0  0  0  0  0  0  0  0  0  0
   20.1286   20.3668   20.8688 C   0  0  0  0  0  0  0  0  0  0  0  0
   21.1815   20.3050   21.1737 H   0  0  0  0  0  0  0  0  0  0  0  0
   20.0719   20.9934   19.9693 H   0  0  0  0  0  0  0  0  0  0  0  0
   19.5646   20.8745   21.6610 H   0  0  0  0  0  0  0  0  0  0  0  0
  1  2  1  0  0  0  0
  1  3  2  0  0  0  0
  1  4  1  0  0  0  0
  4  5  1  0  0  0  0
  4  6  1  0  0  0  0
  4  7  1  0  0  0  0
  7  8  1  0  0  0  0
  7  9  1  0  0  0  0
  7 10  1  0  0  0  0
 10 11  1  0  0  0  0
 10 12  1  0  0  0  0
 10 13  1  0  0  0  0
 13 14  1  0  0  0  0
 13 15  1  0  0  0  0
 13 16  1  0  0  0  0
 16 17  1  0  0  0  0
 16 18  1  0  0  0  0
 16 19  1  0  0  0  0
M  END
> <VConfSearch Rank>
888

> <Conf_Id>
73

> <Delta U+W>
3.707

> <U+W>
-51.184

> <U>
12.334

> <W>
-63.519

> <W(PB)>
-65.541

> <W(SA)>
2.022

> <Valence>
9.984

> <Coulomb>
1.768

> <VdW>
0.583

> <VdW6>
-7.767

> <VdW12>
8.350

> <Bond>
0.203

> <Angle>
3.192

> <Pdih>
6.589

> <Idih>
0.001

> <Tether>
0.000

$$$$
VeraChem MOL file


 19 18  0  0  0  0  0  0  0  0999 V2000     
   19.9055   19.3374   19.8285 C   0  0  0  0  0  0  0  0  0  0  0  0
   18.9167   20.0393   19.7487 O   0  5  0  0  0  0  0  0  0  0  0  0
   20.8722   19.4548   19.1014 O   0  0  0  0  0  0  0  0  0  0  0  0
   19.9239   18.2275   20.8759 C   0  0  0  0  0  0  0  0  0  0  0  0
   20.2127   17.3015   20.3652 H   0  0  0  0  0  0  0  0  0  0  0  0
   18.9029   18.0736   21.2435 H   0  0  0  0  0  0  0  0  0  0  0  0
   20.8967   18.4865   22.0587 C   0  0  0  0  0  0  0  0  0  0  0  0
   20.9017   17.6112   22.7211 H   0  0  0  0  0  0  0  0  0  0  0  0
   21.9179   18.5703   21.6621 H   0  0  0  0  0  0  0  0  0  0  0  0
   20.5787   19.7613   22.8821 C   0  0  0  0  0  0  0  0  0  0  0  0
   20.6955   20.6429   22.2369 H   0  0  0  0  0  0  0  0  0  0  0  0
   21.3320   19.8657   23.6747 H   0  0  0  0  0  0  0  0  0  0  0  0
   19.1696   19.7982   23.5225 C   0  0  0  0  0  0  0  0  0  0  0  0
   19.0555   20.7487   24.0613 H   0  0  0  0  0  0  0  0  0  0  0  0
   18.3993   19.8002   22.7394 H   0  0  0  0  0  0  0  0  0  0  0  0
   18.9132   18.6358   24.5057 C   0  0  0  0  0  0  0  0  0  0  0  0
   18.9051   17.6690   23.9868 H   0  0  0  0  0  0  0  0  0  0  0  0
   19.6857   18.6029   25.2849 H   0  0  0  0  0  0  0  0  0  0  0  0
   17.9399   18.7571   24.9983 H   0  0  0  0  0  0  0  0  0  0  0  0
  1  2  1  0  0  0  0
  1  3  2  0  0  0  0
  1  4  1  0  0  0  0
  4  5  1  0  0  0  0
  4  6  1  0  0  0  0
  4  7  1  0  0  0  0
  7  8  1  0  0  0  0
  7  9  1  0  0  0  0
  7 10  1  0  0  0  0
 10 11  1  0  0  0  0
 10 12  1  0  0  0  0
 10 13  1  0  0  0  0
 13 14  1  0  0  0  0
 13 15  1  0  0  0  0
 13 16  1  0  0  0  0
 16 17  1  0  0  0  0
 16 18  1  0  0  0  0
 16 19  1  0  0  0  0
M  END
> <VConfSearch Rank>
889

> <Conf_Id>
56

> <Delta U+W>
1.735

> <U+W>
-53.156

> <U>
10.214

> <W>
-63.370

> <W(PB)>
-65.388

> <W(SA)>
2.018

> <Valence>
7.868

> <Coulomb>
1.968

> <VdW>
0.378

> <VdW6>
-8.067

> <VdW12>
8.445

> <Bond>
0.191

> <Angle>
3.117

> <Pdih>
4.559

> <Idih>
0.001

> <Tether>
0.000

$$$$
VeraChem MOL file


 19 18  0  0  0  0  0  0  0  0999 V2000     
   18.2522   17.7668   24.3645 C   0  0  0  0  0  0  0  0  0  0  0  0
   17.0673   18.0152   24.4682 O   0  5  0  0  0  0  0  0  0  0  0  0
   18.8916   17.1757   25.2120 O   0  0  0  0  0  0  0  0  0  0  0  0
   18.9808   18.2417   23.1124 C   0  0  0  0  0  0  0  0  0  0  0  0
   18.2687   18.2323   22.2787 H   0  0  0  0  0  0  0  0  0  0  0  0
   19.7636   17.5090   22.8866 H   0  0  0  0  0  0  0  0  0  0  0  0
   19.5971   19.6540   23.2752 C   0  0  0  0  0  0  0  0  0  0  0  0
   18.8179   20.3376   23.6396 H   0  0  0  0  0  0  0  0  0  0  0  0
   20.3692   19.6237   24.0564 H   0  0  0  0  0  0  0  0  0  0  0  0
   20.1970   20.2432   21.9738 C   0  0  0  0  0  0  0  0  0  0  0  0
   20.5503   21.2579   22.2031 H   0  0  0  0  0  0  0  0  0  0  0  0
   19.4101   20.3653   21.2170 H   0  0  0  0  0  0  0  0  0  0  0  0
   21.3850   19.4405   21.3877 C   0  0  0  0  0  0  0  0  0  0  0  0
   22.1046   20.1474   20.9519 H   0  0  0  0  0  0  0  0  0  0  0  0
   21.9216   18.9138   22.1889 H   0  0  0  0  0  0  0  0  0  0  0  0
   20.9637   18.4475   20.2817 C   0  0  0  0  0  0  0  0  0  0  0  0
   21.8407   17.9177   19.8878 H   0  0  0  0  0  0  0  0  0  0  0  0
   20.2587   17.6958   20.6537 H   0  0  0  0  0  0  0  0  0  0  0  0
   20.4868   18.9746   19.4452 H   0  0  0  0  0  0  0  0  0  0  0  0
  1  2  1  0  0  0  0
  1  3  2  0  0  0  0
  1  4  1  0  0  0  0
  4  5  1  0  0  0  0
  4  6  1  0  0  0  0
  4  7  1  0  0  0  0
  7  8  1  0  0  0  0
  7  9  1  0  0  0  0
  7 10  1  0  0  0  0
 10 11  1  0  0  0  0
 10 12  1  0  0  0  0
 10 13  1  0  0  0  0
 13 14  1  0  0  0  0
 13 15  1  0  0  0  0
 13 16  1  0  0  0  0
 16 17  1  0  0  0  0
 16 18  1  0  0  0  0
 16 19  1  0  0  0  0
M  END
> <VConfSearch Rank>
890

> <Conf_Id>
53

> <Delta U+W>
2.279

> <U+W>
-52.612

> <U>
10.231

> <W>
-62.843

> <W(PB)>
-64.893

> <W(SA)>
2.050

> <Valence>
9.644

> <Coulomb>
-0.164

> <VdW>
0.751

> <VdW6>
-6.881

> <VdW12>
7.631

> <Bond>
0.163

> <Angle>
2.998

> <Pdih>
6.482

> <Idih>
0.001

> <Tether>
0.000

$$$$
VeraChem MOL file


 19 18  0  0  0  0  0  0  0  0999 V2000     
   22.0874   20.1666   21.7436 C   0  0  0  0  0  0  0  0  0  0  0  0
   23.0041   19.3776   21.8613 O   0  5  0  0  0  0  0  0  0  0  0  0
   22.0690   21.2568   22.2808 O   0  0  0  0  0  0  0  0  0  0  0  0
   20.9320   19.7952   20.8159 C   0  0  0  0  0  0  0  0  0  0  0  0
   21.1316   18.8116   20.3736 H   0  0  0  0  0  0  0  0  0  0  0  0
   20.9526   20.5189   19.9929 H   0  0  0  0  0  0  0  0  0  0  0  0
   19.5220   19.8147   21.4707 C   0  0  0  0  0  0  0  0  0  0  0  0
   19.4074   20.7175   22.0867 H   0  0  0  0  0  0  0  0  0  0  0  0
   18.7770   19.9003   20.6681 H   0  0  0  0  0  0  0  0  0  0  0  0
   19.1750   18.5558   22.3034 C   0  0  0  0  0  0  0  0  0  0  0  0
   19.2845   17.6581   21.6799 H   0  0  0  0  0  0  0  0  0  0  0  0
   18.1133   18.6111   22.5807 H   0  0  0  0  0  0  0  0  0  0  0  0
   20.0155   18.4001   23.5899 C   0  0  0  0  0  0  0  0  0  0  0  0
   21.0654   18.2102   23.3332 H   0  0  0  0  0  0  0  0  0  0  0  0
   19.9894   19.3346   24.1672 H   0  0  0  0  0  0  0  0  0  0  0  0
   19.4997   17.2402   24.4653 C   0  0  0  0  0  0  0  0  0  0  0  0
   19.5398   16.2887   23.9190 H   0  0  0  0  0  0  0  0  0  0  0  0
   20.1124   17.1375   25.3704 H   0  0  0  0  0  0  0  0  0  0  0  0
   18.4615   17.4137   24.7770 H   0  0  0  0  0  0  0  0  0  0  0  0
  1  2  1  0  0  0  0
  1  3  2  0  0  0  0
  1  4  1  0  0  0  0
  4  5  1  0  0  0  0
  4  6  1  0  0  0  0
  4  7  1  0  0  0  0
  7  8  1  0  0  0  0
  7  9  1  0  0  0  0
  7 10  1  0  0  0  0
 10 11  1  0  0  0  0
 10 12  1  0  0  0  0
 10 13  1  0  0  0  0
 13 14  1  0  0  0  0
 13 15  1  0  0  0  0
 13 16  1  0  0  0  0
 16 17  1  0  0  0  0
 16 18  1  0  0  0  0
 16 19  1  0  0  0  0
M  END
> <VConfSearch Rank>
891

> <Conf_Id>
25

> <Delta U+W>
2.065

> <U+W>
-52.826

> <U>
10.967

> <W>
-63.794

> <W(PB)>
-65.830

> <W(SA)>
2.036

> <Valence>
8.609

> <Coulomb>
1.892

> <VdW>
0.467

> <VdW6>
-7.569

> <VdW12>
8.036

> <Bond>
0.170

> <Angle>
3.195

> <Pdih>
5.237

> <Idih>
0.007

> <Tether>
0.000

$$$$
VeraChem MOL file


 19 18  0  0  0  0  0  0  0  0999 V2000     
   18.5630   18.6185   20.6613 C   0  0  0  0  0  0  0  0  0  0  0  0
   17.6114   17.9626   21.0375 O   0  5  0  0  0  0  0  0  0  0  0  0
   19.2763   18.2918   19.7332 O   0  0  0  0  0  0  0  0  0  0  0  0
   18.8364   19.9577   21.3434 C   0  0  0  0  0  0  0  0  0  0  0  0
   17.9608   20.5877   21.1479 H   0  0  0  0  0  0  0  0  0  0  0  0
   19.6877   20.4422   20.8500 H   0  0  0  0  0  0  0  0  0  0  0  0
   19.0740   19.8850   22.8781 C   0  0  0  0  0  0  0  0  0  0  0  0
   18.8915   20.8839   23.2968 H   0  0  0  0  0  0  0  0  0  0  0  0
   18.3296   19.2227   23.3415 H   0  0  0  0  0  0  0  0  0  0  0  0
   20.5017   19.4531   23.2947 C   0  0  0  0  0  0  0  0  0  0  0  0
   20.5970   19.5890   24.3807 H   0  0  0  0  0  0  0  0  0  0  0  0
   21.2402   20.1234   22.8340 H   0  0  0  0  0  0  0  0  0  0  0  0
   20.8431   17.9874   22.9470 C   0  0  0  0  0  0  0  0  0  0  0  0
   20.0521   17.3222   23.3201 H   0  0  0  0  0  0  0  0  0  0  0  0
   20.8843   17.8584   21.8580 H   0  0  0  0  0  0  0  0  0  0  0  0
   22.1978   17.5641   23.5498 C   0  0  0  0  0  0  0  0  0  0  0  0
   22.4294   16.5238   23.2866 H   0  0  0  0  0  0  0  0  0  0  0  0
   23.0105   18.1984   23.1720 H   0  0  0  0  0  0  0  0  0  0  0  0
   22.1828   17.6411   24.6448 H   0  0  0  0  0  0  0  0  0  0  0  0
  1  2  1  0  0  0  0
  1  3  2  0  0  0  0
  1  4  1  0  0  0  0
  4  5  1  0  0  0  0
  4  6  1  0  0  0  0
  4  7  1  0  0  0  0
  7  8  1  0  0  0  0
  7  9  1  0  0  0  0
  7 10  1  0  0  0  0
 10 11  1  0  0  0  0
 10 12  1  0  0  0  0
 10 13  1  0  0  0  0
 13 14  1  0  0  0  0
 13 15  1  0  0  0  0
 13 16  1  0  0  0  0
 16 17  1  0  0  0  0
 16 18  1  0  0  0  0
 16 19  1  0  0  0  0
M  END
> <VConfSearch Rank>
892

> <Conf_Id>
52

> <Delta U+W>
2.070

> <U+W>
-52.822

> <U>
10.967

> <W>
-63.789

> <W(PB)>
-65.837

> <W(SA)>
2.048

> <Valence>
8.609

> <Coulomb>
1.892

> <VdW>
0.467

> <VdW6>
-7.569

> <VdW12>
8.035

> <Bond>
0.170

> <Angle>
3.196

> <Pdih>
5.237

> <Idih>
0.007

> <Tether>
0.000

$$$$
VeraChem MOL file


 19 18  0  0  0  0  0  0  0  0999 V2000     
   20.8499   17.6031   21.2092 C   0  0  0  0  0  0  0  0  0  0  0  0
   22.0176   17.5353   21.5410 O   0  5  0  0  0  0  0  0  0  0  0  0
   20.1597   16.6248   21.0012 O   0  0  0  0  0  0  0  0  0  0  0  0
   20.2490   18.9785   20.9147 C   0  0  0  0  0  0  0  0  0  0  0  0
   19.1656   18.8739   20.7809 H   0  0  0  0  0  0  0  0  0  0  0  0
   20.6552   19.2846   19.9438 H   0  0  0  0  0  0  0  0  0  0  0  0
   20.5565   20.0885   21.9600 C   0  0  0  0  0  0  0  0  0  0  0  0
   21.6021   20.0146   22.2896 H   0  0  0  0  0  0  0  0  0  0  0  0
   20.4723   21.0600   21.4546 H   0  0  0  0  0  0  0  0  0  0  0  0
   19.6157   20.1212   23.1916 C   0  0  0  0  0  0  0  0  0  0  0  0
   18.5803   20.2962   22.8684 H   0  0  0  0  0  0  0  0  0  0  0  0
   19.8901   20.9990   23.7925 H   0  0  0  0  0  0  0  0  0  0  0  0
   19.6903   18.8739   24.1052 C   0  0  0  0  0  0  0  0  0  0  0  0
   20.6497   18.3555   23.9701 H   0  0  0  0  0  0  0  0  0  0  0  0
   19.6663   19.2006   25.1539 H   0  0  0  0  0  0  0  0  0  0  0  0
   18.5162   17.8973   23.8799 C   0  0  0  0  0  0  0  0  0  0  0  0
   17.5569   18.3790   24.1095 H   0  0  0  0  0  0  0  0  0  0  0  0
   18.4789   17.5464   22.8420 H   0  0  0  0  0  0  0  0  0  0  0  0
   18.6166   17.0179   24.5289 H   0  0  0  0  0  0  0  0  0  0  0  0
  1  2  1  0  0  0  0
  1  3  2  0  0  0  0
  1  4  1  0  0  0  0
  4  5  1  0  0  0  0
  4  6  1  0  0  0  0
  4  7  1  0  0  0  0
  7  8  1  0  0  0  0
  7  9  1  0  0  0  0
  7 10  1  0  0  0  0
 10 11  1  0  0  0  0
 10 12  1  0  0  0  0
 10 13  1  0  0  0  0
 13 14  1  0  0  0  0
 13 15  1  0  0  0  0
 13 16  1  0  0  0  0
 16 17  1  0  0  0  0
 16 18  1  0  0  0  0
 16 19  1  0  0  0  0
M  END
> <VConfSearch Rank>
893

> <Conf_Id>
66

> <Delta U+W>
5.819

> <U+W>
-49.072

> <U>
15.324

> <W>
-64.396

> <W(PB)>
-66.382

> <W(SA)>
1.986

> <Valence>
11.748

> <Coulomb>
3.201

> <VdW>
0.375

> <VdW6>
-8.854

> <VdW12>
9.229

> <Bond>
0.216

> <Angle>
3.812

> <Pdih>
7.699

> <Idih>
0.022

> <Tether>
0.000

$$$$
VeraChem MOL file


 19 18  0  0  0  0  0  0  0  0999 V2000     
   18.4014   19.3620   19.1319 C   0  0  0  0  0  0  0  0  0  0  0  0
   17.2966   19.3344   18.6274 O   0  5  0  0  0  0  0  0  0  0  0  0
   19.4103   19.6229   18.5057 O   0  0  0  0  0  0  0  0  0  0  0  0
   18.4945   19.0492   20.6262 C   0  0  0  0  0  0  0  0  0  0  0  0
   18.0618   18.0536   20.7796 H   0  0  0  0  0  0  0  0  0  0  0  0
   17.8493   19.7637   21.1509 H   0  0  0  0  0  0  0  0  0  0  0  0
   19.9252   19.0968   21.2257 C   0  0  0  0  0  0  0  0  0  0  0  0
   20.5679   18.3830   20.6920 H   0  0  0  0  0  0  0  0  0  0  0  0
   20.3552   20.0949   21.0635 H   0  0  0  0  0  0  0  0  0  0  0  0
   19.9266   18.7695   22.7347 C   0  0  0  0  0  0  0  0  0  0  0  0
   19.4961   17.7713   22.8945 H   0  0  0  0  0  0  0  0  0  0  0  0
   19.2834   19.4842   23.2663 H   0  0  0  0  0  0  0  0  0  0  0  0
   21.3497   18.8173   23.3286 C   0  0  0  0  0  0  0  0  0  0  0  0
   21.9958   18.1023   22.8007 H   0  0  0  0  0  0  0  0  0  0  0  0
   21.7831   19.8149   23.1725 H   0  0  0  0  0  0  0  0  0  0  0  0
   21.3474   18.4899   24.8352 C   0  0  0  0  0  0  0  0  0  0  0  0
   20.9476   17.4838   25.0179 H   0  0  0  0  0  0  0  0  0  0  0  0
   22.3666   18.5284   25.2410 H   0  0  0  0  0  0  0  0  0  0  0  0
   20.7332   19.2093   25.3926 H   0  0  0  0  0  0  0  0  0  0  0  0
  1  2  1  0  0  0  0
  1  3  2  0  0  0  0
  1  4  1  0  0  0  0
  4  5  1  0  0  0  0
  4  6  1  0  0  0  0
  4  7  1  0  0  0  0
  7  8  1  0  0  0  0
  7  9  1  0  0  0  0
  7 10  1  0  0  0  0
 10 11  1  0  0  0  0
 10 12  1  0  0  0  0
 10 13  1  0  0  0  0
 13 14  1  0  0  0  0
 13 15  1  0  0  0  0
 13 16  1  0  0  0  0
 16 17  1  0  0  0  0
 16 18  1  0  0  0  0
 16 19  1  0  0  0  0
M  END
> <VConfSearch Rank>
894

> <Conf_Id>
0

> <Delta U+W>
0.000

> <U+W>
-54.891

> <U>
6.966

> <W>
-61.857

> <W(PB)>
-63.965

> <W(SA)>
2.108

> <Valence>
7.175

> <Coulomb>
-1.360

> <VdW>
1.151

> <VdW6>
-5.641

> <VdW12>
6.792

> <Bond>
0.119

> <Angle>
2.715

> <Pdih>
4.340

> <Idih>
0.000

> <Tether>
0.000

$$$$
VeraChem MOL file


 19 18  0  0  0  0  0  0  0  0999 V2000     
   17.8074   21.2737   23.3816 C   0  0  0  0  0  0  0  0  0  0  0  0
   18.2571   21.9406   24.2922 O   0  5  0  0  0  0  0  0  0  0  0  0
   16.9768   21.6827   22.5948 O   0  0  0  0  0  0  0  0  0  0  0  0
   18.3293   19.8523   23.2039 C   0  0  0  0  0  0  0  0  0  0  0  0
   17.5164   19.2390   22.7968 H   0  0  0  0  0  0  0  0  0  0  0  0
   18.5720   19.4518   24.1956 H   0  0  0  0  0  0  0  0  0  0  0  0
   19.5695   19.7773   22.2795 C   0  0  0  0  0  0  0  0  0  0  0  0
   19.3139   20.1934   21.2951 H   0  0  0  0  0  0  0  0  0  0  0  0
   20.3695   20.4064   22.6939 H   0  0  0  0  0  0  0  0  0  0  0  0
   20.0779   18.3287   22.1163 C   0  0  0  0  0  0  0  0  0  0  0  0
   19.2755   17.7021   21.7032 H   0  0  0  0  0  0  0  0  0  0  0  0
   20.3314   17.9151   23.1022 H   0  0  0  0  0  0  0  0  0  0  0  0
   21.3133   18.2570   21.1949 C   0  0  0  0  0  0  0  0  0  0  0  0
   21.0631   18.6681   20.2070 H   0  0  0  0  0  0  0  0  0  0  0  0
   22.1189   18.8810   21.6059 H   0  0  0  0  0  0  0  0  0  0  0  0
   21.8182   16.8092   21.0342 C   0  0  0  0  0  0  0  0  0  0  0  0
   22.6964   16.7766   20.3763 H   0  0  0  0  0  0  0  0  0  0  0  0
   22.1056   16.3834   22.0045 H   0  0  0  0  0  0  0  0  0  0  0  0
   21.0418   16.1689   20.5951 H   0  0  0  0  0  0  0  0  0  0  0  0
  1  2  1  0  0  0  0
  1  3  2  0  0  0  0
  1  4  1  0  0  0  0
  4  5  1  0  0  0  0
  4  6  1  0  0  0  0
  4  7  1  0  0  0  0
  7  8  1  0  0  0  0
  7  9  1  0  0  0  0
  7 10  1  0  0  0  0
 10 11  1  0  0  0  0
 10 12  1  0  0  0  0
 10 13  1  0  0  0  0
 13 14  1  0  0  0  0
 13 15  1  0  0  0  0
 13 16  1  0  0  0  0
 16 17  1  0  0  0  0
 16 18  1  0  0  0  0
 16 19  1  0  0  0  0
M  END
> <VConfSearch Rank>
895

> <Conf_Id>
18

> <Delta U+W>
-1.199

> <U+W>
-56.090

> <U>
5.975

> <W>
-62.066

> <W(PB)>
-64.219

> <W(SA)>
2.153

> <Valence>
6.673

> <Coulomb>
-1.307

> <VdW>
0.610

> <VdW6>
-5.351

> <VdW12>
5.961

> <Bond>
0.086

> <Angle>
2.253

> <Pdih>
4.333

> <Idih>
0.001

> <Tether>
0.000

$$$$
VeraChem MOL file


 19 18  0  0  0  0  0  0  0  0999 V2000     
   22.4587   20.8064   22.9906 C   0  0  0  0  0  0  0  0  0  0  0  0
   22.3653   22.0073   23.1502 O   0  5  0  0  0  0  0  0  0  0  0  0
   23.3832   20.1418   23.4146 O   0  0  0  0  0  0  0  0  0  0  0  0
   21.3439   20.0914   22.2354 C   0  0  0  0  0  0  0  0  0  0  0  0
   21.7937   19.2521   21.6932 H   0  0  0  0  0  0  0  0  0  0  0  0
   20.9411   20.7843   21.4870 H   0  0  0  0  0  0  0  0  0  0  0  0
   20.2097   19.5941   23.1689 C   0  0  0  0  0  0  0  0  0  0  0  0
   20.6164   18.8673   23.8856 H   0  0  0  0  0  0  0  0  0  0  0  0
   19.8439   20.4435   23.7624 H   0  0  0  0  0  0  0  0  0  0  0  0
   19.0151   18.9684   22.4106 C   0  0  0  0  0  0  0  0  0  0  0  0
   18.6054   19.7004   21.7011 H   0  0  0  0  0  0  0  0  0  0  0  0
   18.2159   18.7558   23.1338 H   0  0  0  0  0  0  0  0  0  0  0  0
   19.3762   17.6648   21.6638 C   0  0  0  0  0  0  0  0  0  0  0  0
   20.1202   17.8694   20.8829 H   0  0  0  0  0  0  0  0  0  0  0  0
   19.8329   16.9512   22.3634 H   0  0  0  0  0  0  0  0  0  0  0  0
   18.1334   17.0222   21.0159 C   0  0  0  0  0  0  0  0  0  0  0  0
   18.4063   16.0996   20.4873 H   0  0  0  0  0  0  0  0  0  0  0  0
   17.3814   16.7681   21.7744 H   0  0  0  0  0  0  0  0  0  0  0  0
   17.6718   17.7048   20.2904 H   0  0  0  0  0  0  0  0  0  0  0  0
  1  2  1  0  0  0  0
  1  3  2  0  0  0  0
  1  4  1  0  0  0  0
  4  5  1  0  0  0  0
  4  6  1  0  0  0  0
  4  7  1  0  0  0  0
  7  8  1  0  0  0  0
  7  9  1  0  0  0  0
  7 10  1  0  0  0  0
 10 11  1  0  0  0  0
 10 12  1  0  0  0  0
 10 13  1  0  0  0  0
 13 14  1  0  0  0  0
 13 15  1  0  0  0  0
 13 16  1  0  0  0  0
 16 17  1  0  0  0  0
 16 18  1  0  0  0  0
 16 19  1  0  0  0  0
M  END
> <VConfSearch Rank>
896

> <Conf_Id>
34

> <Delta U+W>
-0.563

> <U+W>
-55.455

> <U>
6.914

> <W>
-62.369

> <W(PB)>
-64.446

> <W(SA)>
2.077

> <Valence>
7.196

> <Coulomb>
-1.020

> <VdW>
0.738

> <VdW6>
-6.010

> <VdW12>
6.748

> <Bond>
0.126

> <Angle>
2.499

> <Pdih>
4.570

> <Idih>
0.001

> <Tether>
0.000

$$$$
VeraChem MOL file


 19 18  0  0  0  0  0  0  0  0999 V2000     
   19.9354   16.0524   20.7389 C   0  0  0  0  0  0  0  0  0  0  0  0
   18.9570   15.3332   20.6973 O   0  5  0  0  0  0  0  0  0  0  0  0
   21.0672   15.6602   20.5356 O   0  0  0  0  0  0  0  0  0  0  0  0
   19.7339   17.5230   21.0867 C   0  0  0  0  0  0  0  0  0  0  0  0
   18.7555   17.8331   20.7008 H   0  0  0  0  0  0  0  0  0  0  0  0
   20.4940   18.1001   20.5481 H   0  0  0  0  0  0  0  0  0  0  0  0
   19.8186   17.7963   22.6110 C   0  0  0  0  0  0  0  0  0  0  0  0
   19.1078   17.1362   23.1273 H   0  0  0  0  0  0  0  0  0  0  0  0
   20.8177   17.5236   22.9778 H   0  0  0  0  0  0  0  0  0  0  0  0
   19.5026   19.2615   22.9945 C   0  0  0  0  0  0  0  0  0  0  0  0
   19.4687   19.3355   24.0901 H   0  0  0  0  0  0  0  0  0  0  0  0
   18.4997   19.5283   22.6339 H   0  0  0  0  0  0  0  0  0  0  0  0
   20.5369   20.2745   22.4547 C   0  0  0  0  0  0  0  0  0  0  0  0
   21.5462   19.9791   22.7729 H   0  0  0  0  0  0  0  0  0  0  0  0
   20.5328   20.2713   21.3568 H   0  0  0  0  0  0  0  0  0  0  0  0
   20.2410   21.7034   22.9527 C   0  0  0  0  0  0  0  0  0  0  0  0
   19.2472   22.0354   22.6249 H   0  0  0  0  0  0  0  0  0  0  0  0
   20.2749   21.7528   24.0489 H   0  0  0  0  0  0  0  0  0  0  0  0
   20.9819   22.4114   22.5588 H   0  0  0  0  0  0  0  0  0  0  0  0
  1  2  1  0  0  0  0
  1  3  2  0  0  0  0
  1  4  1  0  0  0  0
  4  5  1  0  0  0  0
  4  6  1  0  0  0  0
  4  7  1  0  0  0  0
  7  8  1  0  0  0  0
  7  9  1  0  0  0  0
  7 10  1  0  0  0  0
 10 11  1  0  0  0  0
 10 12  1  0  0  0  0
 10 13  1  0  0  0  0
 13 14  1  0  0  0  0
 13 15  1  0  0  0  0
 13 16  1  0  0  0  0
 16 17  1  0  0  0  0
 16 18  1  0  0  0  0
 16 19  1  0  0  0  0
M  END
> <VConfSearch Rank>
897

> <Conf_Id>
33

> <Delta U+W>
-0.526

> <U+W>
-55.418

> <U>
6.914

> <W>
-62.332

> <W(PB)>
-64.421

> <W(SA)>
2.090

> <Valence>
7.196

> <Coulomb>
-1.020

> <VdW>
0.738

> <VdW6>
-6.010

> <VdW12>
6.748

> <Bond>
0.126

> <Angle>
2.499

> <Pdih>
4.570

> <Idih>
0.001

> <Tether>
0.000

$$$$
VeraChem MOL file


 19 18  0  0  0  0  0  0  0  0999 V2000     
   23.0580   18.7785   21.9713 C   0  0  0  0  0  0  0  0  0  0  0  0
   23.4833   17.9019   22.6972 O   0  5  0  0  0  0  0  0  0  0  0  0
   23.5405   19.0487   20.8894 O   0  0  0  0  0  0  0  0  0  0  0  0
   21.8412   19.5712   22.4355 C   0  0  0  0  0  0  0  0  0  0  0  0
   21.9294   20.5914   22.0428 H   0  0  0  0  0  0  0  0  0  0  0  0
   21.8765   19.6407   23.5294 H   0  0  0  0  0  0  0  0  0  0  0  0
   20.5019   18.9381   21.9840 C   0  0  0  0  0  0  0  0  0  0  0  0
   20.4858   18.8667   20.8877 H   0  0  0  0  0  0  0  0  0  0  0  0
   20.4447   17.9128   22.3727 H   0  0  0  0  0  0  0  0  0  0  0  0
   19.2862   19.7601   22.4711 C   0  0  0  0  0  0  0  0  0  0  0  0
   19.3983   20.7991   22.1323 H   0  0  0  0  0  0  0  0  0  0  0  0
   19.2753   19.7900   23.5693 H   0  0  0  0  0  0  0  0  0  0  0  0
   17.9329   19.2189   21.9552 C   0  0  0  0  0  0  0  0  0  0  0  0
   17.1389   19.9208   22.2452 H   0  0  0  0  0  0  0  0  0  0  0  0
   17.9379   19.1926   20.8568 H   0  0  0  0  0  0  0  0  0  0  0  0
   17.5844   17.8194   22.5066 C   0  0  0  0  0  0  0  0  0  0  0  0
   17.6020   17.8140   23.6043 H   0  0  0  0  0  0  0  0  0  0  0  0
   16.5794   17.5190   22.1833 H   0  0  0  0  0  0  0  0  0  0  0  0
   18.2896   17.0599   22.1468 H   0  0  0  0  0  0  0  0  0  0  0  0
  1  2  1  0  0  0  0
  1  3  2  0  0  0  0
  1  4  1  0  0  0  0
  4  5  1  0  0  0  0
  4  6  1  0  0  0  0
  4  7  1  0  0  0  0
  7  8  1  0  0  0  0
  7  9  1  0  0  0  0
  7 10  1  0  0  0  0
 10 11  1  0  0  0  0
 10 12  1  0  0  0  0
 10 13  1  0  0  0  0
 13 14  1  0  0  0  0
 13 15  1  0  0  0  0
 13 16  1  0  0  0  0
 16 17  1  0  0  0  0
 16 18  1  0  0  0  0
 16 19  1  0  0  0  0
M  END
> <VConfSearch Rank>
898

> <Conf_Id>
42

> <Delta U+W>
-0.344

> <U+W>
-55.236

> <U>
7.244

> <W>
-62.479

> <W(PB)>
-64.610

> <W(SA)>
2.130

> <Valence>
7.174

> <Coulomb>
-0.669

> <VdW>
0.739

> <VdW6>
-5.969

> <VdW12>
6.708

> <Bond>
0.116

> <Angle>
2.481

> <Pdih>
4.576

> <Idih>
0.000

> <Tether>
0.000

$$$$
VeraChem MOL file


 19 18  0  0  0  0  0  0  0  0999 V2000     
   21.7664   21.2999   20.9840 C   0  0  0  0  0  0  0  0  0  0  0  0
   21.1384   22.3383   21.0433 O   0  5  0  0  0  0  0  0  0  0  0  0
   22.5157   21.0184   20.0698 O   0  0  0  0  0  0  0  0  0  0  0  0
   21.5908   20.2864   22.1094 C   0  0  0  0  0  0  0  0  0  0  0  0
   21.3983   20.8376   23.0377 H   0  0  0  0  0  0  0  0  0  0  0  0
   22.5407   19.7540   22.2395 H   0  0  0  0  0  0  0  0  0  0  0  0
   20.4457   19.2792   21.8396 C   0  0  0  0  0  0  0  0  0  0  0  0
   19.5102   19.8354   21.6943 H   0  0  0  0  0  0  0  0  0  0  0  0
   20.6482   18.7423   20.9026 H   0  0  0  0  0  0  0  0  0  0  0  0
   20.2881   18.2667   22.9974 C   0  0  0  0  0  0  0  0  0  0  0  0
   20.0370   18.8001   23.9245 H   0  0  0  0  0  0  0  0  0  0  0  0
   21.2532   17.7725   23.1741 H   0  0  0  0  0  0  0  0  0  0  0  0
   19.2233   17.1800   22.7218 C   0  0  0  0  0  0  0  0  0  0  0  0
   19.4740   16.6404   21.7980 H   0  0  0  0  0  0  0  0  0  0  0  0
   19.2574   16.4394   23.5327 H   0  0  0  0  0  0  0  0  0  0  0  0
   17.7886   17.7418   22.6220 C   0  0  0  0  0  0  0  0  0  0  0  0
   17.6761   18.4016   21.7527 H   0  0  0  0  0  0  0  0  0  0  0  0
   17.0633   16.9248   22.5148 H   0  0  0  0  0  0  0  0  0  0  0  0
   17.5259   18.3108   23.5233 H   0  0  0  0  0  0  0  0  0  0  0  0
  1  2  1  0  0  0  0
  1  3  2  0  0  0  0
  1  4  1  0  0  0  0
  4  5  1  0  0  0  0
  4  6  1  0  0  0  0
  4  7  1  0  0  0  0
  7  8  1  0  0  0  0
  7  9  1  0  0  0  0
  7 10  1  0  0  0  0
 10 11  1  0  0  0  0
 10 12  1  0  0  0  0
 10 13  1  0  0  0  0
 13 14  1  0  0  0  0
 13 15  1  0  0  0  0
 13 16  1  0  0  0  0
 16 17  1  0  0  0  0
 16 18  1  0  0  0  0
 16 19  1  0  0  0  0
M  END
> <VConfSearch Rank>
899

> <Conf_Id>
41

> <Delta U+W>
-0.361

> <U+W>
-55.252

> <U>
7.244

> <W>
-62.496

> <W(PB)>
-64.596

> <W(SA)>
2.099

> <Valence>
7.174

> <Coulomb>
-0.669

> <VdW>
0.739

> <VdW6>
-5.969

> <VdW12>
6.708

> <Bond>
0.116

> <Angle>
2.481

> <Pdih>
4.576

> <Idih>
0.000

> <Tether>
0.000

$$$$
VeraChem MOL file


 19 18  0  0  0  0  0  0  0  0999 V2000     
   18.6132   21.0069   23.9655 C   0  0  0  0  0  0  0  0  0  0  0  0
   19.1947   21.9880   23.5460 O   0  5  0  0  0  0  0  0  0  0  0  0
   17.4038   20.9303   24.0558 O   0  0  0  0  0  0  0  0  0  0  0  0
   19.4459   19.8133   24.4251 C   0  0  0  0  0  0  0  0  0  0  0  0
   19.0473   19.4889   25.3936 H   0  0  0  0  0  0  0  0  0  0  0  0
   20.4743   20.1509   24.6023 H   0  0  0  0  0  0  0  0  0  0  0  0
   19.4377   18.6191   23.4357 C   0  0  0  0  0  0  0  0  0  0  0  0
   19.9409   17.7634   23.9059 H   0  0  0  0  0  0  0  0  0  0  0  0
   18.4001   18.3109   23.2460 H   0  0  0  0  0  0  0  0  0  0  0  0
   20.1381   18.9501   22.0988 C   0  0  0  0  0  0  0  0  0  0  0  0
   21.1707   19.2702   22.2947 H   0  0  0  0  0  0  0  0  0  0  0  0
   19.6297   19.7949   21.6137 H   0  0  0  0  0  0  0  0  0  0  0  0
   20.1458   17.7391   21.1429 C   0  0  0  0  0  0  0  0  0  0  0  0
   20.6569   16.8921   21.6213 H   0  0  0  0  0  0  0  0  0  0  0  0
   19.1140   17.4184   20.9433 H   0  0  0  0  0  0  0  0  0  0  0  0
   20.8454   18.0725   19.8100 C   0  0  0  0  0  0  0  0  0  0  0  0
   21.8898   18.3667   19.9775 H   0  0  0  0  0  0  0  0  0  0  0  0
   20.8415   17.2010   19.1425 H   0  0  0  0  0  0  0  0  0  0  0  0
   20.3355   18.8969   19.2945 H   0  0  0  0  0  0  0  0  0  0  0  0
  1  2  1  0  0  0  0
  1  3  2  0  0  0  0
  1  4  1  0  0  0  0
  4  5  1  0  0  0  0
  4  6  1  0  0  0  0
  4  7  1  0  0  0  0
  7  8  1  0  0  0  0
  7  9  1  0  0  0  0
  7 10  1  0  0  0  0
 10 11  1  0  0  0  0
 10 12  1  0  0  0  0
 10 13  1  0  0  0  0
 13 14  1  0  0  0  0
 13 15  1  0  0  0  0
 13 16  1  0  0  0  0
 16 17  1  0  0  0  0
 16 18  1  0  0  0  0
 16 19  1  0  0  0  0
M  END
> <VConfSearch Rank>
900

> <Conf_Id>
36

> <Delta U+W>
-0.079

> <U+W>
-54.971

> <U>
8.266

> <W>
-63.237

> <W(PB)>
-65.340

> <W(SA)>
2.103

> <Valence>
6.935

> <Coulomb>
0.874

> <VdW>
0.457

> <VdW6>
-6.205

> <VdW12>
6.662

> <Bond>
0.107

> <Angle>
2.420

> <Pdih>
4.407

> <Idih>
0.001

> <Tether>
0.000

$$$$
VeraChem MOL file


 19 18  0  0  0  0  0  0  0  0999 V2000     
   18.8982   21.3933   21.5008 C   0  0  0  0  0  0  0  0  0  0  0  0
   17.7602   21.0015   21.3338 O   0  5  0  0  0  0  0  0  0  0  0  0
   19.5215   22.0213   20.6679 O   0  0  0  0  0  0  0  0  0  0  0  0
   19.5759   21.1005   22.8366 C   0  0  0  0  0  0  0  0  0  0  0  0
   18.8037   20.8475   23.5733 H   0  0  0  0  0  0  0  0  0  0  0  0
   20.0461   22.0308   23.1766 H   0  0  0  0  0  0  0  0  0  0  0  0
   20.6417   19.9759   22.7708 C   0  0  0  0  0  0  0  0  0  0  0  0
   21.3921   20.2297   22.0092 H   0  0  0  0  0  0  0  0  0  0  0  0
   21.1704   19.9294   23.7325 H   0  0  0  0  0  0  0  0  0  0  0  0
   20.0276   18.5926   22.4599 C   0  0  0  0  0  0  0  0  0  0  0  0
   19.5110   18.6261   21.4907 H   0  0  0  0  0  0  0  0  0  0  0  0
   19.2690   18.3492   23.2165 H   0  0  0  0  0  0  0  0  0  0  0  0
   21.1010   17.4846   22.4305 C   0  0  0  0  0  0  0  0  0  0  0  0
   21.8598   17.7243   21.6728 H   0  0  0  0  0  0  0  0  0  0  0  0
   21.6183   17.4435   23.3991 H   0  0  0  0  0  0  0  0  0  0  0  0
   20.4851   16.1057   22.1201 C   0  0  0  0  0  0  0  0  0  0  0  0
   19.9874   16.1094   21.1415 H   0  0  0  0  0  0  0  0  0  0  0  0
   21.2618   15.3301   22.1026 H   0  0  0  0  0  0  0  0  0  0  0  0
   19.7441   15.8264   22.8806 H   0  0  0  0  0  0  0  0  0  0  0  0
  1  2  1  0  0  0  0
  1  3  2  0  0  0  0
  1  4  1  0  0  0  0
  4  5  1  0  0  0  0
  4  6  1  0  0  0  0
  4  7  1  0  0  0  0
  7  8  1  0  0  0  0
  7  9  1  0  0  0  0
  7 10  1  0  0  0  0
 10 11  1  0  0  0  0
 10 12  1  0  0  0  0
 10 13  1  0  0  0  0
 13 14  1  0  0  0  0
 13 15  1  0  0  0  0
 13 16  1  0  0  0  0
 16 17  1  0  0  0  0
 16 18  1  0  0  0  0
 16 19  1  0  0  0  0
M  END
> <VConfSearch Rank>
901

> <Conf_Id>
35

> <Delta U+W>
-0.030

> <U+W>
-54.921

> <U>
8.267

> <W>
-63.188

> <W(PB)>
-65.294

> <W(SA)>
2.106

> <Valence>
6.935

> <Coulomb>
0.875

> <VdW>
0.457

> <VdW6>
-6.205

> <VdW12>
6.662

> <Bond>
0.107

> <Angle>
2.420

> <Pdih>
4.407

> <Idih>
0.001

> <Tether>
0.000

$$$$
VeraChem MOL file


 19 18  0  0  0  0  0  0  0  0999 V2000     
   21.1764   20.3025   24.6218 C   0  0  0  0  0  0  0  0  0  0  0  0
   22.3477   20.6000   24.4943 O   0  5  0  0  0  0  0  0  0  0  0  0
   20.7226   19.7715   25.6161 O   0  0  0  0  0  0  0  0  0  0  0  0
   20.2212   20.6344   23.4785 C   0  0  0  0  0  0  0  0  0  0  0  0
   20.4344   21.6623   23.1620 H   0  0  0  0  0  0  0  0  0  0  0  0
   19.1950   20.6282   23.8657 H   0  0  0  0  0  0  0  0  0  0  0  0
   20.3385   19.6832   22.2591 C   0  0  0  0  0  0  0  0  0  0  0  0
   19.7320   20.0904   21.4402 H   0  0  0  0  0  0  0  0  0  0  0  0
   21.3793   19.6695   21.9071 H   0  0  0  0  0  0  0  0  0  0  0  0
   19.8752   18.2426   22.5829 C   0  0  0  0  0  0  0  0  0  0  0  0
   18.8228   18.2540   22.8978 H   0  0  0  0  0  0  0  0  0  0  0  0
   20.4502   17.8621   23.4382 H   0  0  0  0  0  0  0  0  0  0  0  0
   20.0515   17.2606   21.4016 C   0  0  0  0  0  0  0  0  0  0  0  0
   21.1038   17.2455   21.0856 H   0  0  0  0  0  0  0  0  0  0  0  0
   19.8177   16.2452   21.7501 H   0  0  0  0  0  0  0  0  0  0  0  0
   19.1502   17.5898   20.1920 C   0  0  0  0  0  0  0  0  0  0  0  0
   19.4266   18.5480   19.7348 H   0  0  0  0  0  0  0  0  0  0  0  0
   19.2452   16.8146   19.4207 H   0  0  0  0  0  0  0  0  0  0  0  0
   18.0951   17.6416   20.4907 H   0  0  0  0  0  0  0  0  0  0  0  0
  1  2  1  0  0  0  0
  1  3  2  0  0  0  0
  1  4  1  0  0  0  0
  4  5  1  0  0  0  0
  4  6  1  0  0  0  0
  4  7  1  0  0  0  0
  7  8  1  0  0  0  0
  7  9  1  0  0  0  0
  7 10  1  0  0  0  0
 10 11  1  0  0  0  0
 10 12  1  0  0  0  0
 10 13  1  0  0  0  0
 13 14  1  0  0  0  0
 13 15  1  0  0  0  0
 13 16  1  0  0  0  0
 16 17  1  0  0  0  0
 16 18  1  0  0  0  0
 16 19  1  0  0  0  0
M  END
> <VConfSearch Rank>
902

> <Conf_Id>
74

> <Delta U+W>
0.797

> <U+W>
-54.095

> <U>
8.869

> <W>
-62.964

> <W(PB)>
-65.046

> <W(SA)>
2.082

> <Valence>
7.469

> <Coulomb>
0.762

> <VdW>
0.639

> <VdW6>
-6.782

> <VdW12>
7.421

> <Bond>
0.141

> <Angle>
2.667

> <Pdih>
4.660

> <Idih>
0.001

> <Tether>
0.000

$$$$
VeraChem MOL file


 19 18  0  0  0  0  0  0  0  0999 V2000     
   19.6979   19.5180   19.4431 C   0  0  0  0  0  0  0  0  0  0  0  0
   20.5465   19.8492   18.6389 O   0  5  0  0  0  0  0  0  0  0  0  0
   18.6475   18.9917   19.1334 O   0  0  0  0  0  0  0  0  0  0  0  0
   19.9751   19.7593   20.9227 C   0  0  0  0  0  0  0  0  0  0  0  0
   19.0165   19.9643   21.4127 H   0  0  0  0  0  0  0  0  0  0  0  0
   20.5874   20.6645   21.0119 H   0  0  0  0  0  0  0  0  0  0  0  0
   20.6881   18.5621   21.6032 C   0  0  0  0  0  0  0  0  0  0  0  0
   20.0495   17.6709   21.5414 H   0  0  0  0  0  0  0  0  0  0  0  0
   21.5975   18.3239   21.0345 H   0  0  0  0  0  0  0  0  0  0  0  0
   21.0849   18.8335   23.0762 C   0  0  0  0  0  0  0  0  0  0  0  0
   21.8036   19.6639   23.1037 H   0  0  0  0  0  0  0  0  0  0  0  0
   21.6202   17.9563   23.4644 H   0  0  0  0  0  0  0  0  0  0  0  0
   19.9076   19.1622   24.0269 C   0  0  0  0  0  0  0  0  0  0  0  0
   20.3113   19.3487   25.0315 H   0  0  0  0  0  0  0  0  0  0  0  0
   19.4201   20.0963   23.7181 H   0  0  0  0  0  0  0  0  0  0  0  0
   18.8593   18.0323   24.1152 C   0  0  0  0  0  0  0  0  0  0  0  0
   19.3289   17.0821   24.4007 H   0  0  0  0  0  0  0  0  0  0  0  0
   18.0973   18.2732   24.8676 H   0  0  0  0  0  0  0  0  0  0  0  0
   18.3457   17.8891   23.1560 H   0  0  0  0  0  0  0  0  0  0  0  0
  1  2  1  0  0  0  0
  1  3  2  0  0  0  0
  1  4  1  0  0  0  0
  4  5  1  0  0  0  0
  4  6  1  0  0  0  0
  4  7  1  0  0  0  0
  7  8  1  0  0  0  0
  7  9  1  0  0  0  0
  7 10  1  0  0  0  0
 10 11  1  0  0  0  0
 10 12  1  0  0  0  0
 10 13  1  0  0  0  0
 13 14  1  0  0  0  0
 13 15  1  0  0  0  0
 13 16  1  0  0  0  0
 16 17  1  0  0  0  0
 16 18  1  0  0  0  0
 16 19  1  0  0  0  0
M  END
> <VConfSearch Rank>
903

> <Conf_Id>
67

> <Delta U+W>
0.308

> <U+W>
-54.583

> <U>
8.219

> <W>
-62.802

> <W(PB)>
-64.859

> <W(SA)>
2.057

> <Valence>
7.609

> <Coulomb>
-0.089

> <VdW>
0.699

> <VdW6>
-6.924

> <VdW12>
7.623

> <Bond>
0.163

> <Angle>
2.870

> <Pdih>
4.576

> <Idih>
0.001

> <Tether>
0.000

$$$$
VeraChem MOL file


 19 18  0  0  0  0  0  0  0  0999 V2000     
   17.3728   17.6833   21.8240 C   0  0  0  0  0  0  0  0  0  0  0  0
   17.0010   17.0114   20.8824 O   0  5  0  0  0  0  0  0  0  0  0  0
   16.6170   18.2906   22.5563 O   0  0  0  0  0  0  0  0  0  0  0  0
   18.8707   17.7853   22.0888 C   0  0  0  0  0  0  0  0  0  0  0  0
   19.3358   16.8396   21.7860 H   0  0  0  0  0  0  0  0  0  0  0  0
   19.0122   17.8866   23.1709 H   0  0  0  0  0  0  0  0  0  0  0  0
   19.5335   18.9710   21.3409 C   0  0  0  0  0  0  0  0  0  0  0  0
   19.2964   18.8896   20.2711 H   0  0  0  0  0  0  0  0  0  0  0  0
   19.0866   19.9150   21.6798 H   0  0  0  0  0  0  0  0  0  0  0  0
   21.0738   19.0214   21.5018 C   0  0  0  0  0  0  0  0  0  0  0  0
   21.4630   19.8594   20.9077 H   0  0  0  0  0  0  0  0  0  0  0  0
   21.5072   18.1121   21.0634 H   0  0  0  0  0  0  0  0  0  0  0  0
   21.5808   19.1625   22.9581 C   0  0  0  0  0  0  0  0  0  0  0  0
   21.2919   18.2822   23.5473 H   0  0  0  0  0  0  0  0  0  0  0  0
   22.6794   19.1721   22.9462 H   0  0  0  0  0  0  0  0  0  0  0  0
   21.0809   20.4445   23.6580 C   0  0  0  0  0  0  0  0  0  0  0  0
   19.9924   20.4251   23.7956 H   0  0  0  0  0  0  0  0  0  0  0  0
   21.5398   20.5444   24.6501 H   0  0  0  0  0  0  0  0  0  0  0  0
   21.3392   21.3373   23.0739 H   0  0  0  0  0  0  0  0  0  0  0  0
  1  2  1  0  0  0  0
  1  3  2  0  0  0  0
  1  4  1  0  0  0  0
  4  5  1  0  0  0  0
  4  6  1  0  0  0  0
  4  7  1  0  0  0  0
  7  8  1  0  0  0  0
  7  9  1  0  0  0  0
  7 10  1  0  0  0  0
 10 11  1  0  0  0  0
 10 12  1  0  0  0  0
 10 13  1  0  0  0  0
 13 14  1  0  0  0  0
 13 15  1  0  0  0  0
 13 16  1  0  0  0  0
 16 17  1  0  0  0  0
 16 18  1  0  0  0  0
 16 19  1  0  0  0  0
M  END
> <VConfSearch Rank>
904

> <Conf_Id>
21

> <Delta U+W>
0.319

> <U+W>
-54.572

> <U>
8.220

> <W>
-62.792

> <W(PB)>
-64.830

> <W(SA)>
2.038

> <Valence>
7.609

> <Coulomb>
-0.088

> <VdW>
0.699

> <VdW6>
-6.924

> <VdW12>
7.623

> <Bond>
0.163

> <Angle>
2.870

> <Pdih>
4.576

> <Idih>
0.000

> <Tether>
0.000

$$$$
VeraChem MOL file


 19 18  0  0  0  0  0  0  0  0999 V2000     
   18.8090   18.7451   24.9599 C   0  0  0  0  0  0  0  0  0  0  0  0
   17.9197   19.3962   25.4714 O   0  5  0  0  0  0  0  0  0  0  0  0
   19.1232   17.6307   25.3281 O   0  0  0  0  0  0  0  0  0  0  0  0
   19.5589   19.3528   23.7799 C   0  0  0  0  0  0  0  0  0  0  0  0
   20.5879   18.9812   23.8087 H   0  0  0  0  0  0  0  0  0  0  0  0
   19.6071   20.4376   23.9324 H   0  0  0  0  0  0  0  0  0  0  0  0
   18.8896   19.0374   22.4160 C   0  0  0  0  0  0  0  0  0  0  0  0
   18.7872   17.9511   22.2870 H   0  0  0  0  0  0  0  0  0  0  0  0
   17.8675   19.4401   22.4404 H   0  0  0  0  0  0  0  0  0  0  0  0
   19.6360   19.6534   21.2055 C   0  0  0  0  0  0  0  0  0  0  0  0
   20.1471   20.5790   21.5039 H   0  0  0  0  0  0  0  0  0  0  0  0
   18.8874   19.9530   20.4594 H   0  0  0  0  0  0  0  0  0  0  0  0
   20.6329   18.6970   20.5059 C   0  0  0  0  0  0  0  0  0  0  0  0
   20.0957   17.8145   20.1320 H   0  0  0  0  0  0  0  0  0  0  0  0
   21.0410   19.2055   19.6215 H   0  0  0  0  0  0  0  0  0  0  0  0
   21.8057   18.2416   21.3985 C   0  0  0  0  0  0  0  0  0  0  0  0
   22.5397   17.6773   20.8089 H   0  0  0  0  0  0  0  0  0  0  0  0
   22.3196   19.1030   21.8446 H   0  0  0  0  0  0  0  0  0  0  0  0
   21.4567   17.5855   22.2056 H   0  0  0  0  0  0  0  0  0  0  0  0
  1  2  1  0  0  0  0
  1  3  2  0  0  0  0
  1  4  1  0  0  0  0
  4  5  1  0  0  0  0
  4  6  1  0  0  0  0
  4  7  1  0  0  0  0
  7  8  1  0  0  0  0
  7  9  1  0  0  0  0
  7 10  1  0  0  0  0
 10 11  1  0  0  0  0
 10 12  1  0  0  0  0
 10 13  1  0  0  0  0
 13 14  1  0  0  0  0
 13 15  1  0  0  0  0
 13 16  1  0  0  0  0
 16 17  1  0  0  0  0
 16 18  1  0  0  0  0
 16 19  1  0  0  0  0
M  END
> <VConfSearch Rank>
905

> <Conf_Id>
24

> <Delta U+W>
2.477

> <U+W>
-52.414

> <U>
10.422

> <W>
-62.836

> <W(PB)>
-64.906

> <W(SA)>
2.070

> <Valence>
9.628

> <Coulomb>
0.101

> <VdW>
0.693

> <VdW6>
-6.927

> <VdW12>
7.620

> <Bond>
0.173

> <Angle>
2.989

> <Pdih>
6.465

> <Idih>
0.001

> <Tether>
0.000

$$$$
VeraChem MOL file


 19 18  0  0  0  0  0  0  0  0999 V2000     
   21.0209   19.3432   20.0805 C   0  0  0  0  0  0  0  0  0  0  0  0
   20.1308   19.9997   19.5772 O   0  5  0  0  0  0  0  0  0  0  0  0
   22.1933   19.4639   19.7836 O   0  0  0  0  0  0  0  0  0  0  0  0
   20.6469   18.2899   21.1201 C   0  0  0  0  0  0  0  0  0  0  0  0
   21.1576   17.3616   20.8384 H   0  0  0  0  0  0  0  0  0  0  0  0
   19.5730   18.0930   21.0412 H   0  0  0  0  0  0  0  0  0  0  0  0
   21.0397   18.6709   22.5745 C   0  0  0  0  0  0  0  0  0  0  0  0
   20.9321   17.7963   23.2301 H   0  0  0  0  0  0  0  0  0  0  0  0
   22.1090   18.9241   22.5822 H   0  0  0  0  0  0  0  0  0  0  0  0
   20.2395   19.8646   23.1578 C   0  0  0  0  0  0  0  0  0  0  0  0
   19.9409   20.5556   22.3578 H   0  0  0  0  0  0  0  0  0  0  0  0
   20.9113   20.4383   23.8108 H   0  0  0  0  0  0  0  0  0  0  0  0
   19.0030   19.4636   23.9994 C   0  0  0  0  0  0  0  0  0  0  0  0
   19.3205   18.8455   24.8505 H   0  0  0  0  0  0  0  0  0  0  0  0
   18.5638   20.3748   24.4283 H   0  0  0  0  0  0  0  0  0  0  0  0
   17.9125   18.7179   23.2030 C   0  0  0  0  0  0  0  0  0  0  0  0
   18.2565   17.7218   22.8986 H   0  0  0  0  0  0  0  0  0  0  0  0
   17.0128   18.5834   23.8172 H   0  0  0  0  0  0  0  0  0  0  0  0
   17.6286   19.2798   22.3035 H   0  0  0  0  0  0  0  0  0  0  0  0
  1  2  1  0  0  0  0
  1  3  2  0  0  0  0
  1  4  1  0  0  0  0
  4  5  1  0  0  0  0
  4  6  1  0  0  0  0
  4  7  1  0  0  0  0
  7  8  1  0  0  0  0
  7  9  1  0  0  0  0
  7 10  1  0  0  0  0
 10 11  1  0  0  0  0
 10 12  1  0  0  0  0
 10 13  1  0  0  0  0
 13 14  1  0  0  0  0
 13 15  1  0  0  0  0
 13 16  1  0  0  0  0
 16 17  1  0  0  0  0
 16 18  1  0  0  0  0
 16 19  1  0  0  0  0
M  END
> <VConfSearch Rank>
906

> <Conf_Id>
4

> <Delta U+W>
3.753

> <U+W>
-51.138

> <U>
12.334

> <W>
-63.472

> <W(PB)>
-65.500

> <W(SA)>
2.028

> <Valence>
9.984

> <Coulomb>
1.767

> <VdW>
0.583

> <VdW6>
-7.767

> <VdW12>
8.349

> <Bond>
0.203

> <Angle>
3.191

> <Pdih>
6.589

> <Idih>
0.001

> <Tether>
0.000

$$$$
VeraChem MOL file


 19 18  0  0  0  0  0  0  0  0999 V2000     
   17.9889   17.3663   23.2612 C   0  0  0  0  0  0  0  0  0  0  0  0
   17.2949   16.5631   22.6693 O   0  5  0  0  0  0  0  0  0  0  0  0
   18.4531   17.1658   24.3661 O   0  0  0  0  0  0  0  0  0  0  0  0
   18.2662   18.7093   22.5905 C   0  0  0  0  0  0  0  0  0  0  0  0
   18.6183   19.4103   23.3539 H   0  0  0  0  0  0  0  0  0  0  0  0
   17.3057   19.0951   22.2294 H   0  0  0  0  0  0  0  0  0  0  0  0
   19.2656   18.6277   21.4033 C   0  0  0  0  0  0  0  0  0  0  0  0
   18.9000   17.8634   20.7036 H   0  0  0  0  0  0  0  0  0  0  0  0
   19.2597   19.5742   20.8462 H   0  0  0  0  0  0  0  0  0  0  0  0
   20.7176   18.2724   21.8171 C   0  0  0  0  0  0  0  0  0  0  0  0
   21.1564   17.6536   21.0225 H   0  0  0  0  0  0  0  0  0  0  0  0
   20.7183   17.6439   22.7181 H   0  0  0  0  0  0  0  0  0  0  0  0
   21.6475   19.4934   22.0231 C   0  0  0  0  0  0  0  0  0  0  0  0
   22.6623   19.1267   22.2299 H   0  0  0  0  0  0  0  0  0  0  0  0
   21.7132   20.0690   21.0895 H   0  0  0  0  0  0  0  0  0  0  0  0
   21.2168   20.4280   23.1722 C   0  0  0  0  0  0  0  0  0  0  0  0
   21.0707   19.8651   24.1035 H   0  0  0  0  0  0  0  0  0  0  0  0
   21.9840   21.1917   23.3540 H   0  0  0  0  0  0  0  0  0  0  0  0
   20.2829   20.9494   22.9290 H   0  0  0  0  0  0  0  0  0  0  0  0
  1  2  1  0  0  0  0
  1  3  2  0  0  0  0
  1  4  1  0  0  0  0
  4  5  1  0  0  0  0
  4  6  1  0  0  0  0
  4  7  1  0  0  0  0
  7  8  1  0  0  0  0
  7  9  1  0  0  0  0
  7 10  1  0  0  0  0
 10 11  1  0  0  0  0
 10 12  1  0  0  0  0
 10 13  1  0  0  0  0
 13 14  1  0  0  0  0
 13 15  1  0  0  0  0
 13 16  1  0  0  0  0
 16 17  1  0  0  0  0
 16 18  1  0  0  0  0
 16 19  1  0  0  0  0
M  END
> <VConfSearch Rank>
907

> <Conf_Id>
73

> <Delta U+W>
3.707

> <U+W>
-51.184

> <U>
12.334

> <W>
-63.519

> <W(PB)>
-65.541

> <W(SA)>
2.022

> <Valence>
9.984

> <Coulomb>
1.768

> <VdW>
0.583

> <VdW6>
-7.767

> <VdW12>
8.350

> <Bond>
0.203

> <Angle>
3.192

> <Pdih>
6.589

> <Idih>
0.001

> <Tether>
0.000

$$$$
VeraChem MOL file


 19 18  0  0  0  0  0  0  0  0999 V2000     
   18.1602   17.3329   23.3900 C   0  0  0  0  0  0  0  0  0  0  0  0
   18.9321   16.7934   24.1580 O   0  5  0  0  0  0  0  0  0  0  0  0
   16.9795   17.4947   23.6286 O   0  0  0  0  0  0  0  0  0  0  0  0
   18.6923   17.8048   22.0396 C   0  0  0  0  0  0  0  0  0  0  0  0
   18.0229   17.4070   21.2680 H   0  0  0  0  0  0  0  0  0  0  0  0
   19.6722   17.3450   21.8674 H   0  0  0  0  0  0  0  0  0  0  0  0
   18.7811   19.3488   21.8964 C   0  0  0  0  0  0  0  0  0  0  0  0
   19.1001   19.5996   20.8765 H   0  0  0  0  0  0  0  0  0  0  0  0
   17.7730   19.7708   22.0092 H   0  0  0  0  0  0  0  0  0  0  0  0
   19.7225   20.0339   22.9202 C   0  0  0  0  0  0  0  0  0  0  0  0
   19.3251   19.8779   23.9326 H   0  0  0  0  0  0  0  0  0  0  0  0
   19.6979   21.1189   22.7504 H   0  0  0  0  0  0  0  0  0  0  0  0
   21.1945   19.5550   22.8857 C   0  0  0  0  0  0  0  0  0  0  0  0
   21.7558   20.0950   23.6605 H   0  0  0  0  0  0  0  0  0  0  0  0
   21.2518   18.4920   23.1563 H   0  0  0  0  0  0  0  0  0  0  0  0
   21.8816   19.7857   21.5225 C   0  0  0  0  0  0  0  0  0  0  0  0
   21.4220   19.1744   20.7358 H   0  0  0  0  0  0  0  0  0  0  0  0
   21.8162   20.8398   21.2232 H   0  0  0  0  0  0  0  0  0  0  0  0
   22.9437   19.5143   21.5771 H   0  0  0  0  0  0  0  0  0  0  0  0
  1  2  1  0  0  0  0
  1  3  2  0  0  0  0
  1  4  1  0  0  0  0
  4  5  1  0  0  0  0
  4  6  1  0  0  0  0
  4  7  1  0  0  0  0
  7  8  1  0  0  0  0
  7  9  1  0  0  0  0
  7 10  1  0  0  0  0
 10 11  1  0  0  0  0
 10 12  1  0  0  0  0
 10 13  1  0  0  0  0
 13 14  1  0  0  0  0
 13 15  1  0  0  0  0
 13 16  1  0  0  0  0
 16 17  1  0  0  0  0
 16 18  1  0  0  0  0
 16 19  1  0  0  0  0
M  END
> <VConfSearch Rank>
908

> <Conf_Id>
56

> <Delta U+W>
1.735

> <U+W>
-53.156

> <U>
10.214

> <W>
-63.370

> <W(PB)>
-65.388

> <W(SA)>
2.018

> <Valence>
7.868

> <Coulomb>
1.968

> <VdW>
0.378

> <VdW6>
-8.067

> <VdW12>
8.445

> <Bond>
0.191

> <Angle>
3.117

> <Pdih>
4.559

> <Idih>
0.001

> <Tether>
0.000

$$$$
VeraChem MOL file


 19 18  0  0  0  0  0  0  0  0999 V2000     
   17.0526   19.0940   21.8963 C   0  0  0  0  0  0  0  0  0  0  0  0
   16.3216   18.1284   21.9939 O   0  5  0  0  0  0  0  0  0  0  0  0
   16.6981   20.1615   21.4367 O   0  0  0  0  0  0  0  0  0  0  0  0
   18.4993   18.9516   22.3556 C   0  0  0  0  0  0  0  0  0  0  0  0
   18.5255   18.2336   23.1840 H   0  0  0  0  0  0  0  0  0  0  0  0
   18.8189   19.9227   22.7498 H   0  0  0  0  0  0  0  0  0  0  0  0
   19.4482   18.4939   21.2194 C   0  0  0  0  0  0  0  0  0  0  0  0
   19.0256   17.5952   20.7492 H   0  0  0  0  0  0  0  0  0  0  0  0
   19.4751   19.2658   20.4379 H   0  0  0  0  0  0  0  0  0  0  0  0
   20.8913   18.1725   21.6826 C   0  0  0  0  0  0  0  0  0  0  0  0
   21.4466   17.8114   20.8062 H   0  0  0  0  0  0  0  0  0  0  0  0
   20.8816   17.3361   22.3949 H   0  0  0  0  0  0  0  0  0  0  0  0
   21.6625   19.3761   22.2792 C   0  0  0  0  0  0  0  0  0  0  0  0
   22.7188   19.2949   21.9875 H   0  0  0  0  0  0  0  0  0  0  0  0
   21.2972   20.3166   21.8441 H   0  0  0  0  0  0  0  0  0  0  0  0
   21.5980   19.4381   23.8215 C   0  0  0  0  0  0  0  0  0  0  0  0
   22.1725   20.2956   24.1951 H   0  0  0  0  0  0  0  0  0  0  0  0
   20.5692   19.5418   24.1841 H   0  0  0  0  0  0  0  0  0  0  0  0
   22.0240   18.5295   24.2666 H   0  0  0  0  0  0  0  0  0  0  0  0
  1  2  1  0  0  0  0
  1  3  2  0  0  0  0
  1  4  1  0  0  0  0
  4  5  1  0  0  0  0
  4  6  1  0  0  0  0
  4  7  1  0  0  0  0
  7  8  1  0  0  0  0
  7  9  1  0  0  0  0
  7 10  1  0  0  0  0
 10 11  1  0  0  0  0
 10 12  1  0  0  0  0
 10 13  1  0  0  0  0
 13 14  1  0  0  0  0
 13 15  1  0  0  0  0
 13 16  1  0  0  0  0
 16 17  1  0  0  0  0
 16 18  1  0  0  0  0
 16 19  1  0  0  0  0
M  END
> <VConfSearch Rank>
909

> <Conf_Id>
53

> <Delta U+W>
2.279

> <U+W>
-52.612

> <U>
10.231

> <W>
-62.843

> <W(PB)>
-64.893

> <W(SA)>
2.050

> <Valence>
9.644

> <Coulomb>
-0.164

> <VdW>
0.751

> <VdW6>
-6.881

> <VdW12>
7.631

> <Bond>
0.163

> <Angle>
2.998

> <Pdih>
6.482

> <Idih>
0.001

> <Tether>
0.000

$$$$
VeraChem MOL file


 19 18  0  0  0  0  0  0  0  0999 V2000     
   20.3054   17.7357   24.6123 C   0  0  0  0  0  0  0  0  0  0  0  0
   21.0012   16.7733   24.3543 O   0  5  0  0  0  0  0  0  0  0  0  0
   19.1867   17.6473   25.0792 O   0  0  0  0  0  0  0  0  0  0  0  0
   20.8965   19.1287   24.4034 C   0  0  0  0  0  0  0  0  0  0  0  0
   21.9238   19.0285   24.0325 H   0  0  0  0  0  0  0  0  0  0  0  0
   20.9653   19.5865   25.3970 H   0  0  0  0  0  0  0  0  0  0  0  0
   20.0769   20.0650   23.4714 C   0  0  0  0  0  0  0  0  0  0  0  0
   19.0086   19.9998   23.7203 H   0  0  0  0  0  0  0  0  0  0  0  0
   20.3740   21.1005   23.6853 H   0  0  0  0  0  0  0  0  0  0  0  0
   20.2853   19.8183   21.9566 C   0  0  0  0  0  0  0  0  0  0  0  0
   21.3541   19.8921   21.7135 H   0  0  0  0  0  0  0  0  0  0  0  0
   19.7872   20.6284   21.4065 H   0  0  0  0  0  0  0  0  0  0  0  0
   19.7313   18.4661   21.4565 C   0  0  0  0  0  0  0  0  0  0  0  0
   20.3049   17.6390   21.8940 H   0  0  0  0  0  0  0  0  0  0  0  0
   18.6901   18.3453   21.7862 H   0  0  0  0  0  0  0  0  0  0  0  0
   19.7997   18.3607   19.9196 C   0  0  0  0  0  0  0  0  0  0  0  0
   20.8350   18.4526   19.5659 H   0  0  0  0  0  0  0  0  0  0  0  0
   19.4106   17.3915   19.5813 H   0  0  0  0  0  0  0  0  0  0  0  0
   19.2029   19.1499   19.4440 H   0  0  0  0  0  0  0  0  0  0  0  0
  1  2  1  0  0  0  0
  1  3  2  0  0  0  0
  1  4  1  0  0  0  0
  4  5  1  0  0  0  0
  4  6  1  0  0  0  0
  4  7  1  0  0  0  0
  7  8  1  0  0  0  0
  7  9  1  0  0  0  0
  7 10  1  0  0  0  0
 10 11  1  0  0  0  0
 10 12  1  0  0  0  0
 10 13  1  0  0  0  0
 13 14  1  0  0  0  0
 13 15  1  0  0  0  0
 13 16  1  0  0  0  0
 16 17  1  0  0  0  0
 16 18  1  0  0  0  0
 16 19  1  0  0  0  0
M  END
> <VConfSearch Rank>
910

> <Conf_Id>
25

> <Delta U+W>
2.065

> <U+W>
-52.826

> <U>
10.967

> <W>
-63.794

> <W(PB)>
-65.830

> <W(SA)>
2.036

> <Valence>
8.609

> <Coulomb>
1.892

> <VdW>
0.467

> <VdW6>
-7.569

> <VdW12>
8.036

> <Bond>
0.170

> <Angle>
3.195

> <Pdih>
5.237

> <Idih>
0.007

> <Tether>
0.000

$$$$
VeraChem MOL file


 19 18  0  0  0  0  0  0  0  0999 V2000     
   18.3779   19.1545   20.8469 C   0  0  0  0  0  0  0  0  0  0  0  0
   17.8602   18.0771   20.6268 O   0  5  0  0  0  0  0  0  0  0  0  0
   18.9224   19.8230   19.9905 O   0  0  0  0  0  0  0  0  0  0  0  0
   18.2789   19.7325   22.2575 C   0  0  0  0  0  0  0  0  0  0  0  0
   17.2112   19.8837   22.4544 H   0  0  0  0  0  0  0  0  0  0  0  0
   18.7437   20.7258   22.2695 H   0  0  0  0  0  0  0  0  0  0  0  0
   18.8793   18.8437   23.3830 C   0  0  0  0  0  0  0  0  0  0  0  0
   18.4381   19.1616   24.3372 H   0  0  0  0  0  0  0  0  0  0  0  0
   18.5702   17.7989   23.2404 H   0  0  0  0  0  0  0  0  0  0  0  0
   20.4193   18.9275   23.5248 C   0  0  0  0  0  0  0  0  0  0  0  0
   20.7084   18.3896   24.4381 H   0  0  0  0  0  0  0  0  0  0  0  0
   20.7207   19.9733   23.6743 H   0  0  0  0  0  0  0  0  0  0  0  0
   21.1954   18.3291   22.3310 C   0  0  0  0  0  0  0  0  0  0  0  0
   20.8244   17.3177   22.1149 H   0  0  0  0  0  0  0  0  0  0  0  0
   21.0253   18.9329   21.4304 H   0  0  0  0  0  0  0  0  0  0  0  0
   22.7104   18.2720   22.6128 C   0  0  0  0  0  0  0  0  0  0  0  0
   23.2477   17.8528   21.7523 H   0  0  0  0  0  0  0  0  0  0  0  0
   23.1112   19.2755   22.8068 H   0  0  0  0  0  0  0  0  0  0  0  0
   22.9248   17.6418   23.4858 H   0  0  0  0  0  0  0  0  0  0  0  0
  1  2  1  0  0  0  0
  1  3  2  0  0  0  0
  1  4  1  0  0  0  0
  4  5  1  0  0  0  0
  4  6  1  0  0  0  0
  4  7  1  0  0  0  0
  7  8  1  0  0  0  0
  7  9  1  0  0  0  0
  7 10  1  0  0  0  0
 10 11  1  0  0  0  0
 10 12  1  0  0  0  0
 10 13  1  0  0  0  0
 13 14  1  0  0  0  0
 13 15  1  0  0  0  0
 13 16  1  0  0  0  0
 16 17  1  0  0  0  0
 16 18  1  0  0  0  0
 16 19  1  0  0  0  0
M  END
> <VConfSearch Rank>
911

> <Conf_Id>
52

> <Delta U+W>
2.070

> <U+W>
-52.822

> <U>
10.967

> <W>
-63.789

> <W(PB)>
-65.837

> <W(SA)>
2.048

> <Valence>
8.609

> <Coulomb>
1.892

> <VdW>
0.467

> <VdW6>
-7.569

> <VdW12>
8.035

> <Bond>
0.170

> <Angle>
3.196

> <Pdih>
5.237

> <Idih>
0.007

> <Tether>
0.000

$$$$
VeraChem MOL file


 19 18  0  0  0  0  0  0  0  0999 V2000     
   18.2419   17.8370   23.5848 C   0  0  0  0  0  0  0  0  0  0  0  0
   18.6019   16.6901   23.7672 O   0  5  0  0  0  0  0  0  0  0  0  0
   17.7928   18.5413   24.4674 O   0  0  0  0  0  0  0  0  0  0  0  0
   18.2319   18.3852   22.1570 C   0  0  0  0  0  0  0  0  0  0  0  0
   18.0304   19.4626   22.1892 H   0  0  0  0  0  0  0  0  0  0  0  0
   17.3715   17.9216   21.6609 H   0  0  0  0  0  0  0  0  0  0  0  0
   19.5090   18.1024   21.3153 C   0  0  0  0  0  0  0  0  0  0  0  0
   19.8602   17.0775   21.4986 H   0  0  0  0  0  0  0  0  0  0  0  0
   19.2273   18.1346   20.2542 H   0  0  0  0  0  0  0  0  0  0  0  0
   20.6745   19.1041   21.5183 C   0  0  0  0  0  0  0  0  0  0  0  0
   20.3523   20.1165   21.2382 H   0  0  0  0  0  0  0  0  0  0  0  0
   21.4659   18.8377   20.8043 H   0  0  0  0  0  0  0  0  0  0  0  0
   21.2927   19.1098   22.9374 C   0  0  0  0  0  0  0  0  0  0  0  0
   21.0892   18.1589   23.4489 H   0  0  0  0  0  0  0  0  0  0  0  0
   22.3855   19.1790   22.8479 H   0  0  0  0  0  0  0  0  0  0  0  0
   20.8055   20.2964   23.7964 C   0  0  0  0  0  0  0  0  0  0  0  0
   21.0930   21.2530   23.3414 H   0  0  0  0  0  0  0  0  0  0  0  0
   19.7152   20.2895   23.9097 H   0  0  0  0  0  0  0  0  0  0  0  0
   21.2482   20.2529   24.7998 H   0  0  0  0  0  0  0  0  0  0  0  0
  1  2  1  0  0  0  0
  1  3  2  0  0  0  0
  1  4  1  0  0  0  0
  4  5  1  0  0  0  0
  4  6  1  0  0  0  0
  4  7  1  0  0  0  0
  7  8  1  0  0  0  0
  7  9  1  0  0  0  0
  7 10  1  0  0  0  0
 10 11  1  0  0  0  0
 10 12  1  0  0  0  0
 10 13  1  0  0  0  0
 13 14  1  0  0  0  0
 13 15  1  0  0  0  0
 13 16  1  0  0  0  0
 16 17  1  0  0  0  0
 16 18  1  0  0  0  0
 16 19  1  0  0  0  0
M  END
> <VConfSearch Rank>
912

> <Conf_Id>
66

> <Delta U+W>
5.819

> <U+W>
-49.072

> <U>
15.324

> <W>
-64.396

> <W(PB)>
-66.382

> <W(SA)>
1.986

> <Valence>
11.748

> <Coulomb>
3.201

> <VdW>
0.375

> <VdW6>
-8.854

> <VdW12>
9.229

> <Bond>
0.216

> <Angle>
3.812

> <Pdih>
7.699

> <Idih>
0.022

> <Tether>
0.000

$$$$
VeraChem MOL file


 19 18  0  0  0  0  0  0  0  0999 V2000     
   21.2074   16.0839   20.6445 C   0  0  0  0  0  0  0  0  0  0  0  0
   21.0500   15.3822   19.6656 O   0  5  0  0  0  0  0  0  0  0  0  0
   22.0445   15.8562   21.4964 O   0  0  0  0  0  0  0  0  0  0  0  0
   20.2944   17.3033   20.7837 C   0  0  0  0  0  0  0  0  0  0  0  0
   19.2600   16.9403   20.7729 H   0  0  0  0  0  0  0  0  0  0  0  0
   20.4286   17.9166   19.8848 H   0  0  0  0  0  0  0  0  0  0  0  0
   20.5329   18.1692   22.0493 C   0  0  0  0  0  0  0  0  0  0  0  0
   20.4027   17.5475   22.9460 H   0  0  0  0  0  0  0  0  0  0  0  0
   21.5726   18.5248   22.0570 H   0  0  0  0  0  0  0  0  0  0  0  0
   19.5708   19.3754   22.1093 C   0  0  0  0  0  0  0  0  0  0  0  0
   18.5320   19.0176   22.1013 H   0  0  0  0  0  0  0  0  0  0  0  0
   19.7025   19.9955   21.2119 H   0  0  0  0  0  0  0  0  0  0  0  0
   19.8095   20.2348   23.3682 C   0  0  0  0  0  0  0  0  0  0  0  0
   19.6768   19.6185   24.2682 H   0  0  0  0  0  0  0  0  0  0  0  0
   20.8471   20.5963   23.3789 H   0  0  0  0  0  0  0  0  0  0  0  0
   18.8472   21.4381   23.4249 C   0  0  0  0  0  0  0  0  0  0  0  0
   17.8015   21.1041   23.4472 H   0  0  0  0  0  0  0  0  0  0  0  0
   19.0306   22.0379   24.3258 H   0  0  0  0  0  0  0  0  0  0  0  0
   18.9807   22.0893   22.5511 H   0  0  0  0  0  0  0  0  0  0  0  0
  1  2  1  0  0  0  0
  1  3  2  0  0  0  0
  1  4  1  0  0  0  0
  4  5  1  0  0  0  0
  4  6  1  0  0  0  0
  4  7  1  0  0  0  0
  7  8  1  0  0  0  0
  7  9  1  0  0  0  0
  7 10  1  0  0  0  0
 10 11  1  0  0  0  0
 10 12  1  0  0  0  0
 10 13  1  0  0  0  0
 13 14  1  0  0  0  0
 13 15  1  0  0  0  0
 13 16  1  0  0  0  0
 16 17  1  0  0  0  0
 16 18  1  0  0  0  0
 16 19  1  0  0  0  0
M  END
> <VConfSearch Rank>
913

> <Conf_Id>
0

> <Delta U+W>
0.000

> <U+W>
-54.891

> <U>
6.966

> <W>
-61.857

> <W(PB)>
-63.965

> <W(SA)>
2.108

> <Valence>
7.175

> <Coulomb>
-1.360

> <VdW>
1.151

> <VdW6>
-5.641

> <VdW12>
6.792

> <Bond>
0.119

> <Angle>
2.715

> <Pdih>
4.340

> <Idih>
0.000

> <Tether>
0.000

$$$$
VeraChem MOL file


 19 18  0  0  0  0  0  0  0  0999 V2000     
   17.8741   17.1243   24.1490 C   0  0  0  0  0  0  0  0  0  0  0  0
   17.6165   17.6413   25.2179 O   0  5  0  0  0  0  0  0  0  0  0  0
   17.1189   16.3714   23.5667 O   0  0  0  0  0  0  0  0  0  0  0  0
   19.2098   17.4545   23.4925 C   0  0  0  0  0  0  0  0  0  0  0  0
   19.5378   16.5749   22.9255 H   0  0  0  0  0  0  0  0  0  0  0  0
   19.9477   17.6220   24.2864 H   0  0  0  0  0  0  0  0  0  0  0  0
   19.1347   18.6913   22.5635 C   0  0  0  0  0  0  0  0  0  0  0  0
   18.3830   18.5130   21.7821 H   0  0  0  0  0  0  0  0  0  0  0  0
   18.7928   19.5601   23.1430 H   0  0  0  0  0  0  0  0  0  0  0  0
   20.4989   19.0043   21.9119 C   0  0  0  0  0  0  0  0  0  0  0  0
   20.8387   18.1334   21.3345 H   0  0  0  0  0  0  0  0  0  0  0  0
   21.2485   19.1808   22.6956 H   0  0  0  0  0  0  0  0  0  0  0  0
   20.4211   20.2367   20.9870 C   0  0  0  0  0  0  0  0  0  0  0  0
   19.6736   20.0632   20.2005 H   0  0  0  0  0  0  0  0  0  0  0  0
   20.0835   21.1105   21.5614 H   0  0  0  0  0  0  0  0  0  0  0  0
   21.7849   20.5463   20.3380 C   0  0  0  0  0  0  0  0  0  0  0  0
   21.7116   21.4249   19.6840 H   0  0  0  0  0  0  0  0  0  0  0  0
   22.5452   20.7550   21.1022 H   0  0  0  0  0  0  0  0  0  0  0  0
   22.1322   19.6999   19.7310 H   0  0  0  0  0  0  0  0  0  0  0  0
  1  2  1  0  0  0  0
  1  3  2  0  0  0  0
  1  4  1  0  0  0  0
  4  5  1  0  0  0  0
  4  6  1  0  0  0  0
  4  7  1  0  0  0  0
  7  8  1  0  0  0  0
  7  9  1  0  0  0  0
  7 10  1  0  0  0  0
 10 11  1  0  0  0  0
 10 12  1  0  0  0  0
 10 13  1  0  0  0  0
 13 14  1  0  0  0  0
 13 15  1  0  0  0  0
 13 16  1  0  0  0  0
 16 17  1  0  0  0  0
 16 18  1  0  0  0  0
 16 19  1  0  0  0  0
M  END
> <VConfSearch Rank>
914

> <Conf_Id>
18

> <Delta U+W>
-1.199

> <U+W>
-56.090

> <U>
5.975

> <W>
-62.066

> <W(PB)>
-64.219

> <W(SA)>
2.153

> <Valence>
6.673

> <Coulomb>
-1.307

> <VdW>
0.610

> <VdW6>
-5.351

> <VdW12>
5.961

> <Bond>
0.086

> <Angle>
2.253

> <Pdih>
4.333

> <Idih>
0.001

> <Tether>
0.000

$$$$
VeraChem MOL file


 19 18  0  0  0  0  0  0  0  0999 V2000     
   17.7214   19.6518   20.0246 C   0  0  0  0  0  0  0  0  0  0  0  0
   17.9399   19.7720   18.8355 O   0  5  0  0  0  0  0  0  0  0  0  0
   16.6129   19.4765   20.4901 O   0  0  0  0  0  0  0  0  0  0  0  0
   18.9058   19.7026   20.9832 C   0  0  0  0  0  0  0  0  0  0  0  0
   18.5573   20.1515   21.9202 H   0  0  0  0  0  0  0  0  0  0  0  0
   19.6584   20.3779   20.5588 H   0  0  0  0  0  0  0  0  0  0  0  0
   19.5272   18.3058   21.2442 C   0  0  0  0  0  0  0  0  0  0  0  0
   18.7772   17.6518   21.7100 H   0  0  0  0  0  0  0  0  0  0  0  0
   19.7815   17.8474   20.2785 H   0  0  0  0  0  0  0  0  0  0  0  0
   20.8002   18.3501   22.1223 C   0  0  0  0  0  0  0  0  0  0  0  0
   21.5511   18.9980   21.6496 H   0  0  0  0  0  0  0  0  0  0  0  0
   21.2360   17.3422   22.1554 H   0  0  0  0  0  0  0  0  0  0  0  0
   20.5338   18.8296   23.5668 C   0  0  0  0  0  0  0  0  0  0  0  0
   20.1683   19.8649   23.5608 H   0  0  0  0  0  0  0  0  0  0  0  0
   19.7462   18.2137   24.0225 H   0  0  0  0  0  0  0  0  0  0  0  0
   21.8080   18.7530   24.4314 C   0  0  0  0  0  0  0  0  0  0  0  0
   21.6036   19.0994   25.4529 H   0  0  0  0  0  0  0  0  0  0  0  0
   22.1811   17.7222   24.4916 H   0  0  0  0  0  0  0  0  0  0  0  0
   22.6045   19.3823   24.0131 H   0  0  0  0  0  0  0  0  0  0  0  0
  1  2  1  0  0  0  0
  1  3  2  0  0  0  0
  1  4  1  0  0  0  0
  4  5  1  0  0  0  0
  4  6  1  0  0  0  0
  4  7  1  0  0  0  0
  7  8  1  0  0  0  0
  7  9  1  0  0  0  0
  7 10  1  0  0  0  0
 10 11  1  0  0  0  0
 10 12  1  0  0  0  0
 10 13  1  0  0  0  0
 13 14  1  0  0  0  0
 13 15  1  0  0  0  0
 13 16  1  0  0  0  0
 16 17  1  0  0  0  0
 16 18  1  0  0  0  0
 16 19  1  0  0  0  0
M  END
> <VConfSearch Rank>
915

> <Conf_Id>
34

> <Delta U+W>
-0.563

> <U+W>
-55.455

> <U>
6.914

> <W>
-62.369

> <W(PB)>
-64.446

> <W(SA)>
2.077

> <Valence>
7.196

> <Coulomb>
-1.020

> <VdW>
0.738

> <VdW6>
-6.010

> <VdW12>
6.748

> <Bond>
0.126

> <Angle>
2.499

> <Pdih>
4.570

> <Idih>
0.001

> <Tether>
0.000

$$$$
VeraChem MOL file


 19 18  0  0  0  0  0  0  0  0999 V2000     
   21.0707   20.2622   24.8916 C   0  0  0  0  0  0  0  0  0  0  0  0
   22.0714   19.8882   25.4704 O   0  5  0  0  0  0  0  0  0  0  0  0
   20.2097   20.9450   25.4100 O   0  0  0  0  0  0  0  0  0  0  0  0
   20.8742   19.8328   23.4420 C   0  0  0  0  0  0  0  0  0  0  0  0
   21.8629   19.7489   22.9749 H   0  0  0  0  0  0  0  0  0  0  0  0
   20.3378   20.6370   22.9259 H   0  0  0  0  0  0  0  0  0  0  0  0
   20.1059   18.4920   23.3120 C   0  0  0  0  0  0  0  0  0  0  0  0
   20.6208   17.7309   23.9146 H   0  0  0  0  0  0  0  0  0  0  0  0
   19.1012   18.6014   23.7432 H   0  0  0  0  0  0  0  0  0  0  0  0
   19.9971   17.9808   21.8558 C   0  0  0  0  0  0  0  0  0  0  0  0
   19.5481   16.9782   21.8709 H   0  0  0  0  0  0  0  0  0  0  0  0
   21.0033   17.8643   21.4304 H   0  0  0  0  0  0  0  0  0  0  0  0
   19.1494   18.8968   20.9449 C   0  0  0  0  0  0  0  0  0  0  0  0
   18.1599   19.0548   21.3958 H   0  0  0  0  0  0  0  0  0  0  0  0
   19.6222   19.8835   20.8547 H   0  0  0  0  0  0  0  0  0  0  0  0
   18.9794   18.2920   19.5368 C   0  0  0  0  0  0  0  0  0  0  0  0
   19.9535   18.1486   19.0511 H   0  0  0  0  0  0  0  0  0  0  0  0
   18.4736   17.3188   19.5852 H   0  0  0  0  0  0  0  0  0  0  0  0
   18.3780   18.9550   18.9012 H   0  0  0  0  0  0  0  0  0  0  0  0
  1  2  1  0  0  0  0
  1  3  2  0  0  0  0
  1  4  1  0  0  0  0
  4  5  1  0  0  0  0
  4  6  1  0  0  0  0
  4  7  1  0  0  0  0
  7  8  1  0  0  0  0
  7  9  1  0  0  0  0
  7 10  1  0  0  0  0
 10 11  1  0  0  0  0
 10 12  1  0  0  0  0
 10 13  1  0  0  0  0
 13 14  1  0  0  0  0
 13 15  1  0  0  0  0
 13 16  1  0  0  0  0
 16 17  1  0  0  0  0
 16 18  1  0  0  0  0
 16 19  1  0  0  0  0
M  END
> <VConfSearch Rank>
916

> <Conf_Id>
33

> <Delta U+W>
-0.526

> <U+W>
-55.418

> <U>
6.914

> <W>
-62.332

> <W(PB)>
-64.421

> <W(SA)>
2.090

> <Valence>
7.196

> <Coulomb>
-1.020

> <VdW>
0.738

> <VdW6>
-6.010

> <VdW12>
6.748

> <Bond>
0.126

> <Angle>
2.499

> <Pdih>
4.570

> <Idih>
0.001

> <Tether>
0.000

$$$$
VeraChem MOL file


 19 18  0  0  0  0  0  0  0  0999 V2000     
   22.2056   18.5932   24.3852 C   0  0  0  0  0  0  0  0  0  0  0  0
   22.7616   19.6567   24.5755 O   0  5  0  0  0  0  0  0  0  0  0  0
   22.0287   17.7620   25.2535 O   0  0  0  0  0  0  0  0  0  0  0  0
   21.6857   18.2927   22.9838 C   0  0  0  0  0  0  0  0  0  0  0  0
   21.7577   17.2109   22.8186 H   0  0  0  0  0  0  0  0  0  0  0  0
   22.3540   18.7762   22.2611 H   0  0  0  0  0  0  0  0  0  0  0  0
   20.2289   18.7712   22.7665 C   0  0  0  0  0  0  0  0  0  0  0  0
   19.5739   18.2859   23.5032 H   0  0  0  0  0  0  0  0  0  0  0  0
   20.1779   19.8517   22.9553 H   0  0  0  0  0  0  0  0  0  0  0  0
   19.7294   18.4570   21.3374 C   0  0  0  0  0  0  0  0  0  0  0  0
   19.8552   17.3831   21.1427 H   0  0  0  0  0  0  0  0  0  0  0  0
   20.3548   18.9821   20.6025 H   0  0  0  0  0  0  0  0  0  0  0  0
   18.2451   18.8262   21.1109 C   0  0  0  0  0  0  0  0  0  0  0  0
   17.9395   18.4653   20.1191 H   0  0  0  0  0  0  0  0  0  0  0  0
   17.6157   18.2985   21.8407 H   0  0  0  0  0  0  0  0  0  0  0  0
   17.9739   20.3440   21.1925 C   0  0  0  0  0  0  0  0  0  0  0  0
   18.6136   20.8958   20.4915 H   0  0  0  0  0  0  0  0  0  0  0  0
   16.9283   20.5611   20.9382 H   0  0  0  0  0  0  0  0  0  0  0  0
   18.1567   20.7301   22.2031 H   0  0  0  0  0  0  0  0  0  0  0  0
  1  2  1  0  0  0  0
  1  3  2  0  0  0  0
  1  4  1  0  0  0  0
  4  5  1  0  0  0  0
  4  6  1  0  0  0  0
  4  7  1  0  0  0  0
  7  8  1  0  0  0  0
  7  9  1  0  0  0  0
  7 10  1  0  0  0  0
 10 11  1  0  0  0  0
 10 12  1  0  0  0  0
 10 13  1  0  0  0  0
 13 14  1  0  0  0  0
 13 15  1  0  0  0  0
 13 16  1  0  0  0  0
 16 17  1  0  0  0  0
 16 18  1  0  0  0  0
 16 19  1  0  0  0  0
M  END
> <VConfSearch Rank>
917

> <Conf_Id>
42

> <Delta U+W>
-0.344

> <U+W>
-55.236

> <U>
7.244

> <W>
-62.479

> <W(PB)>
-64.610

> <W(SA)>
2.130

> <Valence>
7.174

> <Coulomb>
-0.669

> <VdW>
0.739

> <VdW6>
-5.969

> <VdW12>
6.708

> <Bond>
0.116

> <Angle>
2.481

> <Pdih>
4.576

> <Idih>
0.000

> <Tether>
0.000

$$$$
VeraChem MOL file


 19 18  0  0  0  0  0  0  0  0999 V2000     
   17.7258   17.5894   23.9006 C   0  0  0  0  0  0  0  0  0  0  0  0
   16.8613   18.4096   24.1374 O   0  5  0  0  0  0  0  0  0  0  0  0
   18.0343   16.6975   24.6659 O   0  0  0  0  0  0  0  0  0  0  0  0
   18.4774   17.6961   22.5784 C   0  0  0  0  0  0  0  0  0  0  0  0
   17.7889   18.0999   21.8263 H   0  0  0  0  0  0  0  0  0  0  0  0
   18.7492   16.6829   22.2585 H   0  0  0  0  0  0  0  0  0  0  0  0
   19.7426   18.5840   22.6748 C   0  0  0  0  0  0  0  0  0  0  0  0
   19.4485   19.5860   23.0142 H   0  0  0  0  0  0  0  0  0  0  0  0
   20.4174   18.1723   23.4380 H   0  0  0  0  0  0  0  0  0  0  0  0
   20.4823   18.6773   21.3202 C   0  0  0  0  0  0  0  0  0  0  0  0
   19.8236   19.1344   20.5691 H   0  0  0  0  0  0  0  0  0  0  0  0
   20.7041   17.6622   20.9634 H   0  0  0  0  0  0  0  0  0  0  0  0
   21.8070   19.4708   21.3975 C   0  0  0  0  0  0  0  0  0  0  0  0
   22.4709   19.0132   22.1439 H   0  0  0  0  0  0  0  0  0  0  0  0
   22.3236   19.3893   20.4313 H   0  0  0  0  0  0  0  0  0  0  0  0
   21.6054   20.9654   21.7285 C   0  0  0  0  0  0  0  0  0  0  0  0
   21.1954   21.1008   22.7371 H   0  0  0  0  0  0  0  0  0  0  0  0
   22.5628   21.5006   21.6847 H   0  0  0  0  0  0  0  0  0  0  0  0
   20.9211   21.4377   21.0118 H   0  0  0  0  0  0  0  0  0  0  0  0
  1  2  1  0  0  0  0
  1  3  2  0  0  0  0
  1  4  1  0  0  0  0
  4  5  1  0  0  0  0
  4  6  1  0  0  0  0
  4  7  1  0  0  0  0
  7  8  1  0  0  0  0
  7  9  1  0  0  0  0
  7 10  1  0  0  0  0
 10 11  1  0  0  0  0
 10 12  1  0  0  0  0
 10 13  1  0  0  0  0
 13 14  1  0  0  0  0
 13 15  1  0  0  0  0
 13 16  1  0  0  0  0
 16 17  1  0  0  0  0
 16 18  1  0  0  0  0
 16 19  1  0  0  0  0
M  END
> <VConfSearch Rank>
918

> <Conf_Id>
41

> <Delta U+W>
-0.361

> <U+W>
-55.252

> <U>
7.244

> <W>
-62.496

> <W(PB)>
-64.596

> <W(SA)>
2.099

> <Valence>
7.174

> <Coulomb>
-0.669

> <VdW>
0.739

> <VdW6>
-5.969

> <VdW12>
6.708

> <Bond>
0.116

> <Angle>
2.481

> <Pdih>
4.576

> <Idih>
0.000

> <Tether>
0.000

$$$$
VeraChem MOL file


 19 18  0  0  0  0  0  0  0  0999 V2000     
   17.1104   18.9853   23.2492 C   0  0  0  0  0  0  0  0  0  0  0  0
   17.2908   19.0037   24.4507 O   0  5  0  0  0  0  0  0  0  0  0  0
   16.3798   19.7629   22.6676 O   0  0  0  0  0  0  0  0  0  0  0  0
   17.8219   17.9146   22.4267 C   0  0  0  0  0  0  0  0  0  0  0  0
   17.0806   17.4754   21.7487 H   0  0  0  0  0  0  0  0  0  0  0  0
   18.1486   17.1139   23.1014 H   0  0  0  0  0  0  0  0  0  0  0  0
   19.0249   18.4455   21.6044 C   0  0  0  0  0  0  0  0  0  0  0  0
   19.3851   17.6458   20.9432 H   0  0  0  0  0  0  0  0  0  0  0  0
   18.6881   19.2654   20.9548 H   0  0  0  0  0  0  0  0  0  0  0  0
   20.1883   18.9300   22.4983 C   0  0  0  0  0  0  0  0  0  0  0  0
   20.5126   18.1109   23.1548 H   0  0  0  0  0  0  0  0  0  0  0  0
   19.8401   19.7423   23.1513 H   0  0  0  0  0  0  0  0  0  0  0  0
   21.3855   19.4240   21.6598 C   0  0  0  0  0  0  0  0  0  0  0  0
   21.7408   18.6142   21.0075 H   0  0  0  0  0  0  0  0  0  0  0  0
   21.0644   20.2451   21.0039 H   0  0  0  0  0  0  0  0  0  0  0  0
   22.5446   19.9066   22.5545 C   0  0  0  0  0  0  0  0  0  0  0  0
   22.9066   19.0954   23.1997 H   0  0  0  0  0  0  0  0  0  0  0  0
   23.3868   20.2546   21.9424 H   0  0  0  0  0  0  0  0  0  0  0  0
   22.2252   20.7384   23.1961 H   0  0  0  0  0  0  0  0  0  0  0  0
  1  2  1  0  0  0  0
  1  3  2  0  0  0  0
  1  4  1  0  0  0  0
  4  5  1  0  0  0  0
  4  6  1  0  0  0  0
  4  7  1  0  0  0  0
  7  8  1  0  0  0  0
  7  9  1  0  0  0  0
  7 10  1  0  0  0  0
 10 11  1  0  0  0  0
 10 12  1  0  0  0  0
 10 13  1  0  0  0  0
 13 14  1  0  0  0  0
 13 15  1  0  0  0  0
 13 16  1  0  0  0  0
 16 17  1  0  0  0  0
 16 18  1  0  0  0  0
 16 19  1  0  0  0  0
M  END
> <VConfSearch Rank>
919

> <Conf_Id>
36

> <Delta U+W>
-0.079

> <U+W>
-54.971

> <U>
8.266

> <W>
-63.237

> <W(PB)>
-65.340

> <W(SA)>
2.103

> <Valence>
6.935

> <Coulomb>
0.874

> <VdW>
0.457

> <VdW6>
-6.205

> <VdW12>
6.662

> <Bond>
0.107

> <Angle>
2.420

> <Pdih>
4.407

> <Idih>
0.001

> <Tether>
0.000

$$$$
VeraChem MOL file


 19 18  0  0  0  0  0  0  0  0999 V2000     
   18.5709   20.0499   20.2126 C   0  0  0  0  0  0  0  0  0  0  0  0
   17.4605   19.7207   20.5803 O   0  5  0  0  0  0  0  0  0  0  0  0
   19.0017   19.8310   19.0976 O   0  0  0  0  0  0  0  0  0  0  0  0
   19.4669   20.7980   21.1959 C   0  0  0  0  0  0  0  0  0  0  0  0
   18.8412   21.2077   21.9982 H   0  0  0  0  0  0  0  0  0  0  0  0
   19.8977   21.6531   20.6617 H   0  0  0  0  0  0  0  0  0  0  0  0
   20.6070   19.9339   21.7946 C   0  0  0  0  0  0  0  0  0  0  0  0
   21.2073   19.5076   20.9788 H   0  0  0  0  0  0  0  0  0  0  0  0
   21.2775   20.5816   22.3755 H   0  0  0  0  0  0  0  0  0  0  0  0
   20.0795   18.8011   22.7034 C   0  0  0  0  0  0  0  0  0  0  0  0
   19.4210   18.1385   22.1249 H   0  0  0  0  0  0  0  0  0  0  0  0
   19.4695   19.2312   23.5096 H   0  0  0  0  0  0  0  0  0  0  0  0
   21.2311   17.9746   23.3127 C   0  0  0  0  0  0  0  0  0  0  0  0
   21.8416   17.5412   22.5084 H   0  0  0  0  0  0  0  0  0  0  0  0
   21.8910   18.6315   23.8962 H   0  0  0  0  0  0  0  0  0  0  0  0
   20.7016   16.8452   24.2189 C   0  0  0  0  0  0  0  0  0  0  0  0
   20.0629   16.1545   23.6528 H   0  0  0  0  0  0  0  0  0  0  0  0
   21.5331   16.2676   24.6431 H   0  0  0  0  0  0  0  0  0  0  0  0
   20.1126   17.2529   25.0509 H   0  0  0  0  0  0  0  0  0  0  0  0
  1  2  1  0  0  0  0
  1  3  2  0  0  0  0
  1  4  1  0  0  0  0
  4  5  1  0  0  0  0
  4  6  1  0  0  0  0
  4  7  1  0  0  0  0
  7  8  1  0  0  0  0
  7  9  1  0  0  0  0
  7 10  1  0  0  0  0
 10 11  1  0  0  0  0
 10 12  1  0  0  0  0
 10 13  1  0  0  0  0
 13 14  1  0  0  0  0
 13 15  1  0  0  0  0
 13 16  1  0  0  0  0
 16 17  1  0  0  0  0
 16 18  1  0  0  0  0
 16 19  1  0  0  0  0
M  END
> <VConfSearch Rank>
920

> <Conf_Id>
35

> <Delta U+W>
-0.030

> <U+W>
-54.921

> <U>
8.267

> <W>
-63.188

> <W(PB)>
-65.294

> <W(SA)>
2.106

> <Valence>
6.935

> <Coulomb>
0.875

> <VdW>
0.457

> <VdW6>
-6.205

> <VdW12>
6.662

> <Bond>
0.107

> <Angle>
2.420

> <Pdih>
4.407

> <Idih>
0.001

> <Tether>
0.000

$$$$
VeraChem MOL file


 19 18  0  0  0  0  0  0  0  0999 V2000     
   17.7196   19.1418   24.0147 C   0  0  0  0  0  0  0  0  0  0  0  0
   17.9621   18.9997   25.1969 O   0  5  0  0  0  0  0  0  0  0  0  0
   16.8024   18.5838   23.4454 O   0  0  0  0  0  0  0  0  0  0  0  0
   18.6027   20.0898   23.2078 C   0  0  0  0  0  0  0  0  0  0  0  0
   18.7229   21.0063   23.7974 H   0  0  0  0  0  0  0  0  0  0  0  0
   18.0703   20.3701   22.2908 H   0  0  0  0  0  0  0  0  0  0  0  0
   19.9994   19.5120   22.8601 C   0  0  0  0  0  0  0  0  0  0  0  0
   20.6081   20.3128   22.4213 H   0  0  0  0  0  0  0  0  0  0  0  0
   20.5044   19.1994   23.7846 H   0  0  0  0  0  0  0  0  0  0  0  0
   19.9209   18.3200   21.8764 C   0  0  0  0  0  0  0  0  0  0  0  0
   19.4503   18.6443   20.9382 H   0  0  0  0  0  0  0  0  0  0  0  0
   19.2664   17.5454   22.2993 H   0  0  0  0  0  0  0  0  0  0  0  0
   21.2966   17.6828   21.5724 C   0  0  0  0  0  0  0  0  0  0  0  0
   21.7688   17.3554   22.5090 H   0  0  0  0  0  0  0  0  0  0  0  0
   21.1396   16.7768   20.9709 H   0  0  0  0  0  0  0  0  0  0  0  0
   22.2527   18.6252   20.8098 C   0  0  0  0  0  0  0  0  0  0  0  0
   22.5333   19.4922   21.4208 H   0  0  0  0  0  0  0  0  0  0  0  0
   23.1763   18.0974   20.5390 H   0  0  0  0  0  0  0  0  0  0  0  0
   21.7888   18.9908   19.8844 H   0  0  0  0  0  0  0  0  0  0  0  0
  1  2  1  0  0  0  0
  1  3  2  0  0  0  0
  1  4  1  0  0  0  0
  4  5  1  0  0  0  0
  4  6  1  0  0  0  0
  4  7  1  0  0  0  0
  7  8  1  0  0  0  0
  7  9  1  0  0  0  0
  7 10  1  0  0  0  0
 10 11  1  0  0  0  0
 10 12  1  0  0  0  0
 10 13  1  0  0  0  0
 13 14  1  0  0  0  0
 13 15  1  0  0  0  0
 13 16  1  0  0  0  0
 16 17  1  0  0  0  0
 16 18  1  0  0  0  0
 16 19  1  0  0  0  0
M  END
> <VConfSearch Rank>
921

> <Conf_Id>
74

> <Delta U+W>
0.797

> <U+W>
-54.095

> <U>
8.869

> <W>
-62.964

> <W(PB)>
-65.046

> <W(SA)>
2.082

> <Valence>
7.469

> <Coulomb>
0.762

> <VdW>
0.639

> <VdW6>
-6.782

> <VdW12>
7.421

> <Bond>
0.141

> <Angle>
2.667

> <Pdih>
4.660

> <Idih>
0.001

> <Tether>
0.000

$$$$
VeraChem MOL file


 19 18  0  0  0  0  0  0  0  0999 V2000     
   22.5753   18.3261   23.5168 C   0  0  0  0  0  0  0  0  0  0  0  0
   22.9937   18.6150   24.6204 O   0  5  0  0  0  0  0  0  0  0  0  0
   23.0046   17.4009   22.8563 O   0  0  0  0  0  0  0  0  0  0  0  0
   21.4370   19.1585   22.9376 C   0  0  0  0  0  0  0  0  0  0  0  0
   21.5642   19.1866   21.8494 H   0  0  0  0  0  0  0  0  0  0  0  0
   21.5443   20.1859   23.3054 H   0  0  0  0  0  0  0  0  0  0  0  0
   20.0376   18.6017   23.3069 C   0  0  0  0  0  0  0  0  0  0  0  0
   19.9271   17.5874   22.9010 H   0  0  0  0  0  0  0  0  0  0  0  0
   19.9757   18.5000   24.3991 H   0  0  0  0  0  0  0  0  0  0  0  0
   18.8682   19.4986   22.8285 C   0  0  0  0  0  0  0  0  0  0  0  0
   18.9420   20.4750   23.3265 H   0  0  0  0  0  0  0  0  0  0  0  0
   17.9222   19.0556   23.1685 H   0  0  0  0  0  0  0  0  0  0  0  0
   18.7932   19.7246   21.2984 C   0  0  0  0  0  0  0  0  0  0  0  0
   17.9400   20.3827   21.0837 H   0  0  0  0  0  0  0  0  0  0  0  0
   19.6853   20.2617   20.9501 H   0  0  0  0  0  0  0  0  0  0  0  0
   18.6259   18.4171   20.4947 C   0  0  0  0  0  0  0  0  0  0  0  0
   17.7516   17.8516   20.8420 H   0  0  0  0  0  0  0  0  0  0  0  0
   18.4855   18.6368   19.4285 H   0  0  0  0  0  0  0  0  0  0  0  0
   19.5113   17.7756   20.5882 H   0  0  0  0  0  0  0  0  0  0  0  0
  1  2  1  0  0  0  0
  1  3  2  0  0  0  0
  1  4  1  0  0  0  0
  4  5  1  0  0  0  0
  4  6  1  0  0  0  0
  4  7  1  0  0  0  0
  7  8  1  0  0  0  0
  7  9  1  0  0  0  0
  7 10  1  0  0  0  0
 10 11  1  0  0  0  0
 10 12  1  0  0  0  0
 10 13  1  0  0  0  0
 13 14  1  0  0  0  0
 13 15  1  0  0  0  0
 13 16  1  0  0  0  0
 16 17  1  0  0  0  0
 16 18  1  0  0  0  0
 16 19  1  0  0  0  0
M  END
> <VConfSearch Rank>
922

> <Conf_Id>
67

> <Delta U+W>
0.308

> <U+W>
-54.583

> <U>
8.219

> <W>
-62.802

> <W(PB)>
-64.859

> <W(SA)>
2.057

> <Valence>
7.609

> <Coulomb>
-0.089

> <VdW>
0.699

> <VdW6>
-6.924

> <VdW12>
7.623

> <Bond>
0.163

> <Angle>
2.870

> <Pdih>
4.576

> <Idih>
0.001

> <Tether>
0.000

$$$$
VeraChem MOL file


 19 18  0  0  0  0  0  0  0  0999 V2000     
   21.9096   19.4493   20.1543 C   0  0  0  0  0  0  0  0  0  0  0  0
   23.0180   19.9429   20.2185 O   0  5  0  0  0  0  0  0  0  0  0  0
   21.2367   19.4377   19.1427 O   0  0  0  0  0  0  0  0  0  0  0  0
   21.3238   18.8281   21.4173 C   0  0  0  0  0  0  0  0  0  0  0  0
   22.1492   18.4124   22.0074 H   0  0  0  0  0  0  0  0  0  0  0  0
   20.6865   17.9902   21.1125 H   0  0  0  0  0  0  0  0  0  0  0  0
   20.5168   19.8434   22.2674 C   0  0  0  0  0  0  0  0  0  0  0  0
   21.1552   20.7122   22.4787 H   0  0  0  0  0  0  0  0  0  0  0  0
   19.6710   20.2241   21.6796 H   0  0  0  0  0  0  0  0  0  0  0  0
   20.0135   19.2627   23.6128 C   0  0  0  0  0  0  0  0  0  0  0  0
   19.4941   20.0563   24.1670 H   0  0  0  0  0  0  0  0  0  0  0  0
   20.8809   18.9827   24.2261 H   0  0  0  0  0  0  0  0  0  0  0  0
   19.0728   18.0386   23.4926 C   0  0  0  0  0  0  0  0  0  0  0  0
   19.6051   17.1947   23.0342 H   0  0  0  0  0  0  0  0  0  0  0  0
   18.7965   17.7095   24.5038 H   0  0  0  0  0  0  0  0  0  0  0  0
   17.7831   18.3344   22.6973 C   0  0  0  0  0  0  0  0  0  0  0  0
   18.0051   18.5565   21.6458 H   0  0  0  0  0  0  0  0  0  0  0  0
   17.1108   17.4670   22.7192 H   0  0  0  0  0  0  0  0  0  0  0  0
   17.2454   19.1906   23.1250 H   0  0  0  0  0  0  0  0  0  0  0  0
  1  2  1  0  0  0  0
  1  3  2  0  0  0  0
  1  4  1  0  0  0  0
  4  5  1  0  0  0  0
  4  6  1  0  0  0  0
  4  7  1  0  0  0  0
  7  8  1  0  0  0  0
  7  9  1  0  0  0  0
  7 10  1  0  0  0  0
 10 11  1  0  0  0  0
 10 12  1  0  0  0  0
 10 13  1  0  0  0  0
 13 14  1  0  0  0  0
 13 15  1  0  0  0  0
 13 16  1  0  0  0  0
 16 17  1  0  0  0  0
 16 18  1  0  0  0  0
 16 19  1  0  0  0  0
M  END
> <VConfSearch Rank>
923

> <Conf_Id>
21

> <Delta U+W>
0.319

> <U+W>
-54.572

> <U>
8.220

> <W>
-62.792

> <W(PB)>
-64.830

> <W(SA)>
2.038

> <Valence>
7.609

> <Coulomb>
-0.088

> <VdW>
0.699

> <VdW6>
-6.924

> <VdW12>
7.623

> <Bond>
0.163

> <Angle>
2.870

> <Pdih>
4.576

> <Idih>
0.000

> <Tether>
0.000

$$$$
VeraChem MOL file


 19 18  0  0  0  0  0  0  0  0999 V2000     
   22.5323   17.5552   22.1738 C   0  0  0  0  0  0  0  0  0  0  0  0
   23.2088   17.2508   21.2114 O   0  5  0  0  0  0  0  0  0  0  0  0
   22.9796   17.6846   23.2960 O   0  0  0  0  0  0  0  0  0  0  0  0
   21.0443   17.8065   21.9572 C   0  0  0  0  0  0  0  0  0  0  0  0
   20.5172   17.5071   22.8684 H   0  0  0  0  0  0  0  0  0  0  0  0
   20.7018   17.1398   21.1568 H   0  0  0  0  0  0  0  0  0  0  0  0
   20.7312   19.2812   21.5903 C   0  0  0  0  0  0  0  0  0  0  0  0
   21.1255   19.9553   22.3632 H   0  0  0  0  0  0  0  0  0  0  0  0
   21.2763   19.5225   20.6672 H   0  0  0  0  0  0  0  0  0  0  0  0
   19.2228   19.5528   21.3603 C   0  0  0  0  0  0  0  0  0  0  0  0
   18.7258   18.6480   20.9846 H   0  0  0  0  0  0  0  0  0  0  0  0
   19.1286   20.2994   20.5599 H   0  0  0  0  0  0  0  0  0  0  0  0
   18.4685   20.0996   22.5972 C   0  0  0  0  0  0  0  0  0  0  0  0
   18.9181   21.0515   22.9116 H   0  0  0  0  0  0  0  0  0  0  0  0
   17.4359   20.3306   22.3013 H   0  0  0  0  0  0  0  0  0  0  0  0
   18.4330   19.1301   23.7966 C   0  0  0  0  0  0  0  0  0  0  0  0
   17.7770   19.5200   24.5856 H   0  0  0  0  0  0  0  0  0  0  0  0
   18.0534   18.1448   23.4964 H   0  0  0  0  0  0  0  0  0  0  0  0
   19.4321   19.0027   24.2317 H   0  0  0  0  0  0  0  0  0  0  0  0
  1  2  1  0  0  0  0
  1  3  2  0  0  0  0
  1  4  1  0  0  0  0
  4  5  1  0  0  0  0
  4  6  1  0  0  0  0
  4  7  1  0  0  0  0
  7  8  1  0  0  0  0
  7  9  1  0  0  0  0
  7 10  1  0  0  0  0
 10 11  1  0  0  0  0
 10 12  1  0  0  0  0
 10 13  1  0  0  0  0
 13 14  1  0  0  0  0
 13 15  1  0  0  0  0
 13 16  1  0  0  0  0
 16 17  1  0  0  0  0
 16 18  1  0  0  0  0
 16 19  1  0  0  0  0
M  END
> <VConfSearch Rank>
924

> <Conf_Id>
24

> <Delta U+W>
2.477

> <U+W>
-52.414

> <U>
10.422

> <W>
-62.836

> <W(PB)>
-64.906

> <W(SA)>
2.070

> <Valence>
9.628

> <Coulomb>
0.101

> <VdW>
0.693

> <VdW6>
-6.927

> <VdW12>
7.620

> <Bond>
0.173

> <Angle>
2.989

> <Pdih>
6.465

> <Idih>
0.001

> <Tether>
0.000

$$$$
VeraChem MOL file


 19 18  0  0  0  0  0  0  0  0999 V2000     
   22.0934   19.9014   23.4674 C   0  0  0  0  0  0  0  0  0  0  0  0
   21.6818   19.9515   24.6097 O   0  5  0  0  0  0  0  0  0  0  0  0
   23.2522   19.6722   23.1815 O   0  0  0  0  0  0  0  0  0  0  0  0
   21.1113   20.1689   22.3298 C   0  0  0  0  0  0  0  0  0  0  0  0
   21.5824   20.8979   21.6603 H   0  0  0  0  0  0  0  0  0  0  0  0
   20.2236   20.6547   22.7471 H   0  0  0  0  0  0  0  0  0  0  0  0
   20.7248   18.9013   21.5182 C   0  0  0  0  0  0  0  0  0  0  0  0
   20.1894   19.1932   20.6048 H   0  0  0  0  0  0  0  0  0  0  0  0
   21.6524   18.4171   21.1826 H   0  0  0  0  0  0  0  0  0  0  0  0
   19.8821   17.8696   22.3125 C   0  0  0  0  0  0  0  0  0  0  0  0
   20.1291   17.9123   23.3820 H   0  0  0  0  0  0  0  0  0  0  0  0
   20.1732   16.8638   21.9800 H   0  0  0  0  0  0  0  0  0  0  0  0
   18.3513   17.9991   22.1176 C   0  0  0  0  0  0  0  0  0  0  0  0
   18.1018   17.8658   21.0559 H   0  0  0  0  0  0  0  0  0  0  0  0
   17.8614   17.1750   22.6542 H   0  0  0  0  0  0  0  0  0  0  0  0
   17.7620   19.3336   22.6189 C   0  0  0  0  0  0  0  0  0  0  0  0
   18.0966   20.1724   21.9961 H   0  0  0  0  0  0  0  0  0  0  0  0
   16.6654   19.3085   22.5780 H   0  0  0  0  0  0  0  0  0  0  0  0
   18.0587   19.5293   23.6577 H   0  0  0  0  0  0  0  0  0  0  0  0
  1  2  1  0  0  0  0
  1  3  2  0  0  0  0
  1  4  1  0  0  0  0
  4  5  1  0  0  0  0
  4  6  1  0  0  0  0
  4  7  1  0  0  0  0
  7  8  1  0  0  0  0
  7  9  1  0  0  0  0
  7 10  1  0  0  0  0
 10 11  1  0  0  0  0
 10 12  1  0  0  0  0
 10 13  1  0  0  0  0
 13 14  1  0  0  0  0
 13 15  1  0  0  0  0
 13 16  1  0  0  0  0
 16 17  1  0  0  0  0
 16 18  1  0  0  0  0
 16 19  1  0  0  0  0
M  END
> <VConfSearch Rank>
925

> <Conf_Id>
4

> <Delta U+W>
3.753

> <U+W>
-51.138

> <U>
12.334

> <W>
-63.472

> <W(PB)>
-65.500

> <W(SA)>
2.028

> <Valence>
9.984

> <Coulomb>
1.767

> <VdW>
0.583

> <VdW6>
-7.767

> <VdW12>
8.349

> <Bond>
0.203

> <Angle>
3.191

> <Pdih>
6.589

> <Idih>
0.001

> <Tether>
0.000

$$$$
VeraChem MOL file


 19 18  0  0  0  0  0  0  0  0999 V2000     
   20.1571   21.4884   22.2213 C   0  0  0  0  0  0  0  0  0  0  0  0
   20.9497   22.1698   21.6012 O   0  5  0  0  0  0  0  0  0  0  0  0
   18.9689   21.7343   22.2871 O   0  0  0  0  0  0  0  0  0  0  0  0
   20.6905   20.2763   22.9806 C   0  0  0  0  0  0  0  0  0  0  0  0
   19.9389   19.9713   23.7157 H   0  0  0  0  0  0  0  0  0  0  0  0
   21.5671   20.6099   23.5480 H   0  0  0  0  0  0  0  0  0  0  0  0
   21.0932   19.0857   22.0666 C   0  0  0  0  0  0  0  0  0  0  0  0
   21.7935   19.4619   21.3079 H   0  0  0  0  0  0  0  0  0  0  0  0
   21.6516   18.3413   22.6499 H   0  0  0  0  0  0  0  0  0  0  0  0
   19.9000   18.4019   21.3496 C   0  0  0  0  0  0  0  0  0  0  0  0
   20.2405   18.0757   20.3574 H   0  0  0  0  0  0  0  0  0  0  0  0
   19.0954   19.1267   21.1644 H   0  0  0  0  0  0  0  0  0  0  0  0
   19.3344   17.1588   22.0794 C   0  0  0  0  0  0  0  0  0  0  0  0
   18.5556   16.7092   21.4481 H   0  0  0  0  0  0  0  0  0  0  0  0
   20.1228   16.4003   22.1817 H   0  0  0  0  0  0  0  0  0  0  0  0
   18.7313   17.4613   23.4666 C   0  0  0  0  0  0  0  0  0  0  0  0
   17.9914   18.2702   23.4060 H   0  0  0  0  0  0  0  0  0  0  0  0
   18.2297   16.5720   23.8694 H   0  0  0  0  0  0  0  0  0  0  0  0
   19.5104   17.7533   24.1814 H   0  0  0  0  0  0  0  0  0  0  0  0
  1  2  1  0  0  0  0
  1  3  2  0  0  0  0
  1  4  1  0  0  0  0
  4  5  1  0  0  0  0
  4  6  1  0  0  0  0
  4  7  1  0  0  0  0
  7  8  1  0  0  0  0
  7  9  1  0  0  0  0
  7 10  1  0  0  0  0
 10 11  1  0  0  0  0
 10 12  1  0  0  0  0
 10 13  1  0  0  0  0
 13 14  1  0  0  0  0
 13 15  1  0  0  0  0
 13 16  1  0  0  0  0
 16 17  1  0  0  0  0
 16 18  1  0  0  0  0
 16 19  1  0  0  0  0
M  END
> <VConfSearch Rank>
926

> <Conf_Id>
73

> <Delta U+W>
3.707

> <U+W>
-51.184

> <U>
12.334

> <W>
-63.519

> <W(PB)>
-65.541

> <W(SA)>
2.022

> <Valence>
9.984

> <Coulomb>
1.768

> <VdW>
0.583

> <VdW6>
-7.767

> <VdW12>
8.350

> <Bond>
0.203

> <Angle>
3.192

> <Pdih>
6.589

> <Idih>
0.001

> <Tether>
0.000

$$$$
VeraChem MOL file


 19 18  0  0  0  0  0  0  0  0999 V2000     
   22.0451   17.7326   22.8488 C   0  0  0  0  0  0  0  0  0  0  0  0
   22.7662   18.7064   22.9401 O   0  5  0  0  0  0  0  0  0  0  0  0
   22.2067   16.7151   23.4936 O   0  0  0  0  0  0  0  0  0  0  0  0
   20.8932   17.7748   21.8485 C   0  0  0  0  0  0  0  0  0  0  0  0
   20.9570   16.8660   21.2388 H   0  0  0  0  0  0  0  0  0  0  0  0
   21.0505   18.6179   21.1661 H   0  0  0  0  0  0  0  0  0  0  0  0
   19.4869   17.8568   22.5025 C   0  0  0  0  0  0  0  0  0  0  0  0
   18.7201   17.8078   21.7186 H   0  0  0  0  0  0  0  0  0  0  0  0
   19.3369   16.9654   23.1269 H   0  0  0  0  0  0  0  0  0  0  0  0
   19.2592   19.1176   23.3759 C   0  0  0  0  0  0  0  0  0  0  0  0
   19.9532   19.0936   24.2273 H   0  0  0  0  0  0  0  0  0  0  0  0
   18.2503   19.0696   23.8077 H   0  0  0  0  0  0  0  0  0  0  0  0
   19.4247   20.4690   22.6388 C   0  0  0  0  0  0  0  0  0  0  0  0
   19.2573   21.2822   23.3583 H   0  0  0  0  0  0  0  0  0  0  0  0
   20.4594   20.5834   22.2884 H   0  0  0  0  0  0  0  0  0  0  0  0
   18.4490   20.6443   21.4551 C   0  0  0  0  0  0  0  0  0  0  0  0
   18.6558   19.9200   20.6573 H   0  0  0  0  0  0  0  0  0  0  0  0
   17.4090   20.5120   21.7806 H   0  0  0  0  0  0  0  0  0  0  0  0
   18.5441   21.6495   21.0247 H   0  0  0  0  0  0  0  0  0  0  0  0
  1  2  1  0  0  0  0
  1  3  2  0  0  0  0
  1  4  1  0  0  0  0
  4  5  1  0  0  0  0
  4  6  1  0  0  0  0
  4  7  1  0  0  0  0
  7  8  1  0  0  0  0
  7  9  1  0  0  0  0
  7 10  1  0  0  0  0
 10 11  1  0  0  0  0
 10 12  1  0  0  0  0
 10 13  1  0  0  0  0
 13 14  1  0  0  0  0
 13 15  1  0  0  0  0
 13 16  1  0  0  0  0
 16 17  1  0  0  0  0
 16 18  1  0  0  0  0
 16 19  1  0  0  0  0
M  END
> <VConfSearch Rank>
927

> <Conf_Id>
56

> <Delta U+W>
1.735

> <U+W>
-53.156

> <U>
10.214

> <W>
-63.370

> <W(PB)>
-65.388

> <W(SA)>
2.018

> <Valence>
7.868

> <Coulomb>
1.968

> <VdW>
0.378

> <VdW6>
-8.067

> <VdW12>
8.445

> <Bond>
0.191

> <Angle>
3.117

> <Pdih>
4.559

> <Idih>
0.001

> <Tether>
0.000

$$$$
VeraChem MOL file


 19 18  0  0  0  0  0  0  0  0999 V2000     
   19.4288   21.5296   21.0083 C   0  0  0  0  0  0  0  0  0  0  0  0
   20.2729   22.1429   20.3855 O   0  5  0  0  0  0  0  0  0  0  0  0
   18.3583   22.0029   21.3345 O   0  0  0  0  0  0  0  0  0  0  0  0
   19.7390   20.0953   21.4216 C   0  0  0  0  0  0  0  0  0  0  0  0
   20.3917   19.6538   20.6592 H   0  0  0  0  0  0  0  0  0  0  0  0
   18.7963   19.5369   21.4133 H   0  0  0  0  0  0  0  0  0  0  0  0
   20.4062   20.0032   22.8171 C   0  0  0  0  0  0  0  0  0  0  0  0
   21.2685   20.6839   22.8400 H   0  0  0  0  0  0  0  0  0  0  0  0
   19.7043   20.3706   23.5784 H   0  0  0  0  0  0  0  0  0  0  0  0
   20.8923   18.5828   23.2003 C   0  0  0  0  0  0  0  0  0  0  0  0
   21.3902   18.6567   24.1769 H   0  0  0  0  0  0  0  0  0  0  0  0
   21.6653   18.2457   22.4962 H   0  0  0  0  0  0  0  0  0  0  0  0
   19.7688   17.5225   23.3114 C   0  0  0  0  0  0  0  0  0  0  0  0
   20.0181   16.8319   24.1289 H   0  0  0  0  0  0  0  0  0  0  0  0
   18.8203   18.0000   23.5937 H   0  0  0  0  0  0  0  0  0  0  0  0
   19.5868   16.6892   22.0233 C   0  0  0  0  0  0  0  0  0  0  0  0
   18.7936   15.9426   22.1584 H   0  0  0  0  0  0  0  0  0  0  0  0
   19.3140   17.3151   21.1663 H   0  0  0  0  0  0  0  0  0  0  0  0
   20.5115   16.1540   21.7710 H   0  0  0  0  0  0  0  0  0  0  0  0
  1  2  1  0  0  0  0
  1  3  2  0  0  0  0
  1  4  1  0  0  0  0
  4  5  1  0  0  0  0
  4  6  1  0  0  0  0
  4  7  1  0  0  0  0
  7  8  1  0  0  0  0
  7  9  1  0  0  0  0
  7 10  1  0  0  0  0
 10 11  1  0  0  0  0
 10 12  1  0  0  0  0
 10 13  1  0  0  0  0
 13 14  1  0  0  0  0
 13 15  1  0  0  0  0
 13 16  1  0  0  0  0
 16 17  1  0  0  0  0
 16 18  1  0  0  0  0
 16 19  1  0  0  0  0
M  END
> <VConfSearch Rank>
928

> <Conf_Id>
53

> <Delta U+W>
2.279

> <U+W>
-52.612

> <U>
10.231

> <W>
-62.843

> <W(PB)>
-64.893

> <W(SA)>
2.050

> <Valence>
9.644

> <Coulomb>
-0.164

> <VdW>
0.751

> <VdW6>
-6.881

> <VdW12>
7.631

> <Bond>
0.163

> <Angle>
2.998

> <Pdih>
6.482

> <Idih>
0.001

> <Tether>
0.000

$$$$
VeraChem MOL file


 19 18  0  0  0  0  0  0  0  0999 V2000     
   20.0006   17.6596   20.4314 C   0  0  0  0  0  0  0  0  0  0  0  0
   20.8324   16.7837   20.5650 O   0  5  0  0  0  0  0  0  0  0  0  0
   20.0000   18.4468   19.5054 O   0  0  0  0  0  0  0  0  0  0  0  0
   18.8579   17.7280   21.4429 C   0  0  0  0  0  0  0  0  0  0  0  0
   18.9791   16.9191   22.1735 H   0  0  0  0  0  0  0  0  0  0  0  0
   17.9393   17.5116   20.8853 H   0  0  0  0  0  0  0  0  0  0  0  0
   18.6971   19.0919   22.1717 C   0  0  0  0  0  0  0  0  0  0  0  0
   18.7847   19.9153   21.4494 H   0  0  0  0  0  0  0  0  0  0  0  0
   17.6741   19.1456   22.5680 H   0  0  0  0  0  0  0  0  0  0  0  0
   19.6726   19.3158   23.3536 C   0  0  0  0  0  0  0  0  0  0  0  0
   19.5746   18.4932   24.0751 H   0  0  0  0  0  0  0  0  0  0  0  0
   19.3652   20.2284   23.8826 H   0  0  0  0  0  0  0  0  0  0  0  0
   21.1510   19.4624   22.9310 C   0  0  0  0  0  0  0  0  0  0  0  0
   21.5206   18.5150   22.5186 H   0  0  0  0  0  0  0  0  0  0  0  0
   21.2381   20.2153   22.1355 H   0  0  0  0  0  0  0  0  0  0  0  0
   22.0421   19.8676   24.1225 C   0  0  0  0  0  0  0  0  0  0  0  0
   21.9927   19.1171   24.9222 H   0  0  0  0  0  0  0  0  0  0  0  0
   23.0897   19.9591   23.8076 H   0  0  0  0  0  0  0  0  0  0  0  0
   21.7279   20.8339   24.5384 H   0  0  0  0  0  0  0  0  0  0  0  0
  1  2  1  0  0  0  0
  1  3  2  0  0  0  0
  1  4  1  0  0  0  0
  4  5  1  0  0  0  0
  4  6  1  0  0  0  0
  4  7  1  0  0  0  0
  7  8  1  0  0  0  0
  7  9  1  0  0  0  0
  7 10  1  0  0  0  0
 10 11  1  0  0  0  0
 10 12  1  0  0  0  0
 10 13  1  0  0  0  0
 13 14  1  0  0  0  0
 13 15  1  0  0  0  0
 13 16  1  0  0  0  0
 16 17  1  0  0  0  0
 16 18  1  0  0  0  0
 16 19  1  0  0  0  0
M  END
> <VConfSearch Rank>
929

> <Conf_Id>
25

> <Delta U+W>
2.065

> <U+W>
-52.826

> <U>
10.967

> <W>
-63.794

> <W(PB)>
-65.830

> <W(SA)>
2.036

> <Valence>
8.609

> <Coulomb>
1.892

> <VdW>
0.467

> <VdW6>
-7.569

> <VdW12>
8.036

> <Bond>
0.170

> <Angle>
3.195

> <Pdih>
5.237

> <Idih>
0.007

> <Tether>
0.000

$$$$
VeraChem MOL file


 19 18  0  0  0  0  0  0  0  0999 V2000     
   20.2659   16.7801   21.2569 C   0  0  0  0  0  0  0  0  0  0  0  0
   19.9372   16.9980   20.1072 O   0  5  0  0  0  0  0  0  0  0  0  0
   19.7010   15.9780   21.9741 O   0  0  0  0  0  0  0  0  0  0  0  0
   21.4955   17.4991   21.8087 C   0  0  0  0  0  0  0  0  0  0  0  0
   22.3454   17.1667   21.2014 H   0  0  0  0  0  0  0  0  0  0  0  0
   21.6847   17.1492   22.8308 H   0  0  0  0  0  0  0  0  0  0  0  0
   21.4275   19.0519   21.7754 C   0  0  0  0  0  0  0  0  0  0  0  0
   22.4542   19.4374   21.8368 H   0  0  0  0  0  0  0  0  0  0  0  0
   21.0358   19.3891   20.8057 H   0  0  0  0  0  0  0  0  0  0  0  0
   20.6145   19.6914   22.9281 C   0  0  0  0  0  0  0  0  0  0  0  0
   20.7666   20.7789   22.8917 H   0  0  0  0  0  0  0  0  0  0  0  0
   21.0157   19.3560   23.8942 H   0  0  0  0  0  0  0  0  0  0  0  0
   19.0987   19.4009   22.8666 C   0  0  0  0  0  0  0  0  0  0  0  0
   18.7137   19.6415   21.8659 H   0  0  0  0  0  0  0  0  0  0  0  0
   18.9128   18.3324   23.0341 H   0  0  0  0  0  0  0  0  0  0  0  0
   18.3240   20.2124   23.9245 C   0  0  0  0  0  0  0  0  0  0  0  0
   17.2506   19.9883   23.8732 H   0  0  0  0  0  0  0  0  0  0  0  0
   18.6729   19.9707   24.9370 H   0  0  0  0  0  0  0  0  0  0  0  0
   18.4528   21.2910   23.7652 H   0  0  0  0  0  0  0  0  0  0  0  0
  1  2  1  0  0  0  0
  1  3  2  0  0  0  0
  1  4  1  0  0  0  0
  4  5  1  0  0  0  0
  4  6  1  0  0  0  0
  4  7  1  0  0  0  0
  7  8  1  0  0  0  0
  7  9  1  0  0  0  0
  7 10  1  0  0  0  0
 10 11  1  0  0  0  0
 10 12  1  0  0  0  0
 10 13  1  0  0  0  0
 13 14  1  0  0  0  0
 13 15  1  0  0  0  0
 13 16  1  0  0  0  0
 16 17  1  0  0  0  0
 16 18  1  0  0  0  0
 16 19  1  0  0  0  0
M  END
> <VConfSearch Rank>
930

> <Conf_Id>
52

> <Delta U+W>
2.070

> <U+W>
-52.822

> <U>
10.967

> <W>
-63.789

> <W(PB)>
-65.837

> <W(SA)>
2.048

> <Valence>
8.609

> <Coulomb>
1.892

> <VdW>
0.467

> <VdW6>
-7.569

> <VdW12>
8.035

> <Bond>
0.170

> <Angle>
3.196

> <Pdih>
5.237

> <Idih>
0.007

> <Tether>
0.000

$$$$
VeraChem MOL file


 19 18  0  0  0  0  0  0  0  0999 V2000     
   21.9763   18.7827   22.8035 C   0  0  0  0  0  0  0  0  0  0  0  0
   22.4653   19.3776   21.8627 O   0  5  0  0  0  0  0  0  0  0  0  0
   22.2763   19.0057   23.9598 O   0  0  0  0  0  0  0  0  0  0  0  0
   21.0334   17.6118   22.5220 C   0  0  0  0  0  0  0  0  0  0  0  0
   20.5705   17.2915   23.4631 H   0  0  0  0  0  0  0  0  0  0  0  0
   21.6700   16.7838   22.1897 H   0  0  0  0  0  0  0  0  0  0  0  0
   19.9403   17.8680   21.4455 C   0  0  0  0  0  0  0  0  0  0  0  0
   20.3660   18.4335   20.6052 H   0  0  0  0  0  0  0  0  0  0  0  0
   19.6429   16.8961   21.0292 H   0  0  0  0  0  0  0  0  0  0  0  0
   18.6552   18.5685   21.9563 C   0  0  0  0  0  0  0  0  0  0  0  0
   18.1735   17.9526   22.7281 H   0  0  0  0  0  0  0  0  0  0  0  0
   17.9442   18.6032   21.1195 H   0  0  0  0  0  0  0  0  0  0  0  0
   18.8586   20.0140   22.4712 C   0  0  0  0  0  0  0  0  0  0  0  0
   19.7705   20.4505   22.0407 H   0  0  0  0  0  0  0  0  0  0  0  0
   18.0264   20.6374   22.1163 H   0  0  0  0  0  0  0  0  0  0  0  0
   18.8987   20.0991   24.0121 C   0  0  0  0  0  0  0  0  0  0  0  0
   17.9508   19.7574   24.4477 H   0  0  0  0  0  0  0  0  0  0  0  0
   19.7041   19.4825   24.4278 H   0  0  0  0  0  0  0  0  0  0  0  0
   19.0658   21.1343   24.3365 H   0  0  0  0  0  0  0  0  0  0  0  0
  1  2  1  0  0  0  0
  1  3  2  0  0  0  0
  1  4  1  0  0  0  0
  4  5  1  0  0  0  0
  4  6  1  0  0  0  0
  4  7  1  0  0  0  0
  7  8  1  0  0  0  0
  7  9  1  0  0  0  0
  7 10  1  0  0  0  0
 10 11  1  0  0  0  0
 10 12  1  0  0  0  0
 10 13  1  0  0  0  0
 13 14  1  0  0  0  0
 13 15  1  0  0  0  0
 13 16  1  0  0  0  0
 16 17  1  0  0  0  0
 16 18  1  0  0  0  0
 16 19  1  0  0  0  0
M  END
> <VConfSearch Rank>
931

> <Conf_Id>
66

> <Delta U+W>
5.819

> <U+W>
-49.072

> <U>
15.324

> <W>
-64.396

> <W(PB)>
-66.382

> <W(SA)>
1.986

> <Valence>
11.748

> <Coulomb>
3.201

> <VdW>
0.375

> <VdW6>
-8.854

> <VdW12>
9.229

> <Bond>
0.216

> <Angle>
3.812

> <Pdih>
7.699

> <Idih>
0.022

> <Tether>
0.000

$$$$
VeraChem MOL file


 19 18  0  0  0  0  0  0  0  0999 V2000     
   18.5397   20.0879   19.2632 C   0  0  0  0  0  0  0  0  0  0  0  0
   18.6912   20.0916   18.0579 O   0  5  0  0  0  0  0  0  0  0  0  0
   17.6120   20.6455   19.8169 O   0  0  0  0  0  0  0  0  0  0  0  0
   19.5815   19.3386   20.0956 C   0  0  0  0  0  0  0  0  0  0  0  0
   20.5603   19.7753   19.8647 H   0  0  0  0  0  0  0  0  0  0  0  0
   19.6007   18.3019   19.7394 H   0  0  0  0  0  0  0  0  0  0  0  0
   19.3460   19.3615   21.6293 C   0  0  0  0  0  0  0  0  0  0  0  0
   19.3220   20.4030   21.9788 H   0  0  0  0  0  0  0  0  0  0  0  0
   18.3614   18.9281   21.8534 H   0  0  0  0  0  0  0  0  0  0  0  0
   20.4414   18.5833   22.3901 C   0  0  0  0  0  0  0  0  0  0  0  0
   21.4249   19.0181   22.1645 H   0  0  0  0  0  0  0  0  0  0  0  0
   20.4637   17.5424   22.0390 H   0  0  0  0  0  0  0  0  0  0  0  0
   20.2055   18.6074   23.9146 C   0  0  0  0  0  0  0  0  0  0  0  0
   20.1844   19.6469   24.2700 H   0  0  0  0  0  0  0  0  0  0  0  0
   19.2234   18.1713   24.1445 H   0  0  0  0  0  0  0  0  0  0  0  0
   21.3010   17.8296   24.6709 C   0  0  0  0  0  0  0  0  0  0  0  0
   22.2916   18.2644   24.4838 H   0  0  0  0  0  0  0  0  0  0  0  0
   21.1177   17.8569   25.7529 H   0  0  0  0  0  0  0  0  0  0  0  0
   21.3234   16.7776   24.3573 H   0  0  0  0  0  0  0  0  0  0  0  0
  1  2  1  0  0  0  0
  1  3  2  0  0  0  0
  1  4  1  0  0  0  0
  4  5  1  0  0  0  0
  4  6  1  0  0  0  0
  4  7  1  0  0  0  0
  7  8  1  0  0  0  0
  7  9  1  0  0  0  0
  7 10  1  0  0  0  0
 10 11  1  0  0  0  0
 10 12  1  0  0  0  0
 10 13  1  0  0  0  0
 13 14  1  0  0  0  0
 13 15  1  0  0  0  0
 13 16  1  0  0  0  0
 16 17  1  0  0  0  0
 16 18  1  0  0  0  0
 16 19  1  0  0  0  0
M  END
> <VConfSearch Rank>
932

> <Conf_Id>
0

> <Delta U+W>
0.000

> <U+W>
-54.891

> <U>
6.966

> <W>
-61.857

> <W(PB)>
-63.965

> <W(SA)>
2.108

> <Valence>
7.175

> <Coulomb>
-1.360

> <VdW>
1.151

> <VdW6>
-5.641

> <VdW12>
6.792

> <Bond>
0.119

> <Angle>
2.715

> <Pdih>
4.340

> <Idih>
0.000

> <Tether>
0.000

$$$$
VeraChem MOL file


 19 18  0  0  0  0  0  0  0  0999 V2000     
   19.8591   22.2876   21.6525 C   0  0  0  0  0  0  0  0  0  0  0  0
   19.5333   22.9412   22.6235 O   0  5  0  0  0  0  0  0  0  0  0  0
   20.6107   22.6949   20.7891 O   0  0  0  0  0  0  0  0  0  0  0  0
   19.3110   20.8711   21.5207 C   0  0  0  0  0  0  0  0  0  0  0  0
   19.1965   20.6478   20.4531 H   0  0  0  0  0  0  0  0  0  0  0  0
   18.3087   20.8507   21.9654 H   0  0  0  0  0  0  0  0  0  0  0  0
   20.2160   19.8102   22.1943 C   0  0  0  0  0  0  0  0  0  0  0  0
   21.2188   19.8520   21.7470 H   0  0  0  0  0  0  0  0  0  0  0  0
   20.3312   20.0550   23.2594 H   0  0  0  0  0  0  0  0  0  0  0  0
   19.6392   18.3857   22.0469 C   0  0  0  0  0  0  0  0  0  0  0  0
   19.5240   18.1445   20.9812 H   0  0  0  0  0  0  0  0  0  0  0  0
   18.6362   18.3475   22.4939 H   0  0  0  0  0  0  0  0  0  0  0  0
   20.5428   17.3309   22.7187 C   0  0  0  0  0  0  0  0  0  0  0  0
   21.5466   17.3648   22.2730 H   0  0  0  0  0  0  0  0  0  0  0  0
   20.6588   17.5677   23.7855 H   0  0  0  0  0  0  0  0  0  0  0  0
   19.9638   15.9098   22.5696 C   0  0  0  0  0  0  0  0  0  0  0  0
   20.6185   15.1728   23.0527 H   0  0  0  0  0  0  0  0  0  0  0  0
   18.9720   15.8389   23.0351 H   0  0  0  0  0  0  0  0  0  0  0  0
   19.8664   15.6345   21.5113 H   0  0  0  0  0  0  0  0  0  0  0  0
  1  2  1  0  0  0  0
  1  3  2  0  0  0  0
  1  4  1  0  0  0  0
  4  5  1  0  0  0  0
  4  6  1  0  0  0  0
  4  7  1  0  0  0  0
  7  8  1  0  0  0  0
  7  9  1  0  0  0  0
  7 10  1  0  0  0  0
 10 11  1  0  0  0  0
 10 12  1  0  0  0  0
 10 13  1  0  0  0  0
 13 14  1  0  0  0  0
 13 15  1  0  0  0  0
 13 16  1  0  0  0  0
 16 17  1  0  0  0  0
 16 18  1  0  0  0  0
 16 19  1  0  0  0  0
M  END
> <VConfSearch Rank>
933

> <Conf_Id>
18

> <Delta U+W>
-1.199

> <U+W>
-56.090

> <U>
5.975

> <W>
-62.066

> <W(PB)>
-64.219

> <W(SA)>
2.153

> <Valence>
6.673

> <Coulomb>
-1.307

> <VdW>
0.610

> <VdW6>
-5.351

> <VdW12>
5.961

> <Bond>
0.086

> <Angle>
2.253

> <Pdih>
4.333

> <Idih>
0.001

> <Tether>
0.000

$$$$
VeraChem MOL file


 19 18  0  0  0  0  0  0  0  0999 V2000     
   19.0784   18.6658   19.1127 C   0  0  0  0  0  0  0  0  0  0  0  0
   17.9381   18.4316   18.7648 O   0  5  0  0  0  0  0  0  0  0  0  0
   19.9222   19.1379   18.3769 O   0  0  0  0  0  0  0  0  0  0  0  0
   19.4656   18.3711   20.5575 C   0  0  0  0  0  0  0  0  0  0  0  0
   20.5205   18.0745   20.5661 H   0  0  0  0  0  0  0  0  0  0  0  0
   18.8817   17.5072   20.8969 H   0  0  0  0  0  0  0  0  0  0  0  0
   19.2299   19.5795   21.5006 C   0  0  0  0  0  0  0  0  0  0  0  0
   19.8534   20.4245   21.1771 H   0  0  0  0  0  0  0  0  0  0  0  0
   18.1861   19.9075   21.3988 H   0  0  0  0  0  0  0  0  0  0  0  0
   19.5075   19.2646   22.9896 C   0  0  0  0  0  0  0  0  0  0  0  0
   18.8765   18.4251   23.3122 H   0  0  0  0  0  0  0  0  0  0  0  0
   19.2030   20.1315   23.5919 H   0  0  0  0  0  0  0  0  0  0  0  0
   20.9903   18.9449   23.2839 C   0  0  0  0  0  0  0  0  0  0  0  0
   21.2949   18.0354   22.7497 H   0  0  0  0  0  0  0  0  0  0  0  0
   21.6259   19.7618   22.9154 H   0  0  0  0  0  0  0  0  0  0  0  0
   21.2365   18.7458   24.7929 C   0  0  0  0  0  0  0  0  0  0  0  0
   22.2927   18.5167   24.9854 H   0  0  0  0  0  0  0  0  0  0  0  0
   20.9783   19.6519   25.3564 H   0  0  0  0  0  0  0  0  0  0  0  0
   20.6330   17.9156   25.1828 H   0  0  0  0  0  0  0  0  0  0  0  0
  1  2  1  0  0  0  0
  1  3  2  0  0  0  0
  1  4  1  0  0  0  0
  4  5  1  0  0  0  0
  4  6  1  0  0  0  0
  4  7  1  0  0  0  0
  7  8  1  0  0  0  0
  7  9  1  0  0  0  0
  7 10  1  0  0  0  0
 10 11  1  0  0  0  0
 10 12  1  0  0  0  0
 10 13  1  0  0  0  0
 13 14  1  0  0  0  0
 13 15  1  0  0  0  0
 13 16  1  0  0  0  0
 16 17  1  0  0  0  0
 16 18  1  0  0  0  0
 16 19  1  0  0  0  0
M  END
> <VConfSearch Rank>
934

> <Conf_Id>
34

> <Delta U+W>
-0.563

> <U+W>
-55.455

> <U>
6.914

> <W>
-62.369

> <W(PB)>
-64.446

> <W(SA)>
2.077

> <Valence>
7.196

> <Coulomb>
-1.020

> <VdW>
0.738

> <VdW6>
-6.010

> <VdW12>
6.748

> <Bond>
0.126

> <Angle>
2.499

> <Pdih>
4.570

> <Idih>
0.001

> <Tether>
0.000

$$$$
VeraChem MOL file


 19 18  0  0  0  0  0  0  0  0999 V2000     
   20.7509   15.8093   21.9957 C   0  0  0  0  0  0  0  0  0  0  0  0
   19.9739   14.9063   22.2350 O   0  5  0  0  0  0  0  0  0  0  0  0
   21.9576   15.6698   21.9739 O   0  0  0  0  0  0  0  0  0  0  0  0
   20.1810   17.1982   21.7299 C   0  0  0  0  0  0  0  0  0  0  0  0
   19.2050   17.0784   21.2447 H   0  0  0  0  0  0  0  0  0  0  0  0
   20.8419   17.6979   21.0126 H   0  0  0  0  0  0  0  0  0  0  0  0
   20.0360   18.0447   23.0212 C   0  0  0  0  0  0  0  0  0  0  0  0
   19.4443   17.4752   23.7513 H   0  0  0  0  0  0  0  0  0  0  0  0
   21.0256   18.1955   23.4742 H   0  0  0  0  0  0  0  0  0  0  0  0
   19.3528   19.4133   22.7894 C   0  0  0  0  0  0  0  0  0  0  0  0
   19.1850   19.8889   23.7654 H   0  0  0  0  0  0  0  0  0  0  0  0
   18.3603   19.2586   22.3443 H   0  0  0  0  0  0  0  0  0  0  0  0
   20.1790   20.3696   21.9003 C   0  0  0  0  0  0  0  0  0  0  0  0
   21.1889   20.4843   22.3178 H   0  0  0  0  0  0  0  0  0  0  0  0
   20.2941   19.9464   20.8938 H   0  0  0  0  0  0  0  0  0  0  0  0
   19.5113   21.7548   21.7881 C   0  0  0  0  0  0  0  0  0  0  0  0
   18.5090   21.6728   21.3474 H   0  0  0  0  0  0  0  0  0  0  0  0
   19.4146   22.2260   22.7750 H   0  0  0  0  0  0  0  0  0  0  0  0
   20.1079   22.4212   21.1516 H   0  0  0  0  0  0  0  0  0  0  0  0
  1  2  1  0  0  0  0
  1  3  2  0  0  0  0
  1  4  1  0  0  0  0
  4  5  1  0  0  0  0
  4  6  1  0  0  0  0
  4  7  1  0  0  0  0
  7  8  1  0  0  0  0
  7  9  1  0  0  0  0
  7 10  1  0  0  0  0
 10 11  1  0  0  0  0
 10 12  1  0  0  0  0
 10 13  1  0  0  0  0
 13 14  1  0  0  0  0
 13 15  1  0  0  0  0
 13 16  1  0  0  0  0
 16 17  1  0  0  0  0
 16 18  1  0  0  0  0
 16 19  1  0  0  0  0
M  END
> <VConfSearch Rank>
935

> <Conf_Id>
33

> <Delta U+W>
-0.526

> <U+W>
-55.418

> <U>
6.914

> <W>
-62.332

> <W(PB)>
-64.421

> <W(SA)>
2.090

> <Valence>
7.196

> <Coulomb>
-1.020

> <VdW>
0.738

> <VdW6>
-6.010

> <VdW12>
6.748

> <Bond>
0.126

> <Angle>
2.499

> <Pdih>
4.570

> <Idih>
0.001

> <Tether>
0.000

$$$$
VeraChem MOL file


 19 18  0  0  0  0  0  0  0  0999 V2000     
   21.7701   20.1874   24.4822 C   0  0  0  0  0  0  0  0  0  0  0  0
   22.5476   20.9769   23.9837 O   0  5  0  0  0  0  0  0  0  0  0  0
   21.2892   20.3252   25.5895 O   0  0  0  0  0  0  0  0  0  0  0  0
   21.3617   18.9658   23.6665 C   0  0  0  0  0  0  0  0  0  0  0  0
   21.1801   18.1373   24.3618 H   0  0  0  0  0  0  0  0  0  0  0  0
   22.2106   18.6784   23.0344 H   0  0  0  0  0  0  0  0  0  0  0  0
   20.1073   19.2163   22.7936 C   0  0  0  0  0  0  0  0  0  0  0  0
   19.2691   19.5121   23.4395 H   0  0  0  0  0  0  0  0  0  0  0  0
   20.3059   20.0603   22.1200 H   0  0  0  0  0  0  0  0  0  0  0  0
   19.7184   17.9632   21.9756 C   0  0  0  0  0  0  0  0  0  0  0  0
   19.5941   17.1134   22.6607 H   0  0  0  0  0  0  0  0  0  0  0  0
   20.5380   17.6966   21.2942 H   0  0  0  0  0  0  0  0  0  0  0  0
   18.4114   18.1383   21.1684 C   0  0  0  0  0  0  0  0  0  0  0  0
   18.1452   17.1736   20.7149 H   0  0  0  0  0  0  0  0  0  0  0  0
   17.5879   18.3997   21.8474 H   0  0  0  0  0  0  0  0  0  0  0  0
   18.5204   19.1990   20.0518 C   0  0  0  0  0  0  0  0  0  0  0  0
   19.3563   18.9743   19.3766 H   0  0  0  0  0  0  0  0  0  0  0  0
   17.6001   19.2226   19.4539 H   0  0  0  0  0  0  0  0  0  0  0  0
   18.6725   20.2033   20.4664 H   0  0  0  0  0  0  0  0  0  0  0  0
  1  2  1  0  0  0  0
  1  3  2  0  0  0  0
  1  4  1  0  0  0  0
  4  5  1  0  0  0  0
  4  6  1  0  0  0  0
  4  7  1  0  0  0  0
  7  8  1  0  0  0  0
  7  9  1  0  0  0  0
  7 10  1  0  0  0  0
 10 11  1  0  0  0  0
 10 12  1  0  0  0  0
 10 13  1  0  0  0  0
 13 14  1  0  0  0  0
 13 15  1  0  0  0  0
 13 16  1  0  0  0  0
 16 17  1  0  0  0  0
 16 18  1  0  0  0  0
 16 19  1  0  0  0  0
M  END
> <VConfSearch Rank>
936

> <Conf_Id>
42

> <Delta U+W>
-0.344

> <U+W>
-55.236

> <U>
7.244

> <W>
-62.479

> <W(PB)>
-64.610

> <W(SA)>
2.130

> <Valence>
7.174

> <Coulomb>
-0.669

> <VdW>
0.739

> <VdW6>
-5.969

> <VdW12>
6.708

> <Bond>
0.116

> <Angle>
2.481

> <Pdih>
4.576

> <Idih>
0.000

> <Tether>
0.000

$$$$
VeraChem MOL file


 19 18  0  0  0  0  0  0  0  0999 V2000     
   19.7849   17.9112   25.2209 C   0  0  0  0  0  0  0  0  0  0  0  0
   18.6355   18.0354   25.5946 O   0  5  0  0  0  0  0  0  0  0  0  0
   20.7476   18.0540   25.9481 O   0  0  0  0  0  0  0  0  0  0  0  0
   20.0334   17.5754   23.7546 C   0  0  0  0  0  0  0  0  0  0  0  0
   19.2003   16.9563   23.4005 H   0  0  0  0  0  0  0  0  0  0  0  0
   20.9410   16.9627   23.6946 H   0  0  0  0  0  0  0  0  0  0  0  0
   20.1782   18.8346   22.8646 C   0  0  0  0  0  0  0  0  0  0  0  0
   19.2671   19.4405   22.9553 H   0  0  0  0  0  0  0  0  0  0  0  0
   21.0099   19.4484   23.2373 H   0  0  0  0  0  0  0  0  0  0  0  0
   20.4256   18.4647   21.3839 C   0  0  0  0  0  0  0  0  0  0  0  0
   19.5711   17.8927   20.9971 H   0  0  0  0  0  0  0  0  0  0  0  0
   21.2985   17.8005   21.3223 H   0  0  0  0  0  0  0  0  0  0  0  0
   20.6781   19.6924   20.4785 C   0  0  0  0  0  0  0  0  0  0  0  0
   21.5358   20.2641   20.8590 H   0  0  0  0  0  0  0  0  0  0  0  0
   20.9601   19.3396   19.4768 H   0  0  0  0  0  0  0  0  0  0  0  0
   19.4507   20.6202   20.3510 C   0  0  0  0  0  0  0  0  0  0  0  0
   19.2008   21.0885   21.3113 H   0  0  0  0  0  0  0  0  0  0  0  0
   19.6509   21.4247   19.6316 H   0  0  0  0  0  0  0  0  0  0  0  0
   18.5721   20.0636   19.9997 H   0  0  0  0  0  0  0  0  0  0  0  0
  1  2  1  0  0  0  0
  1  3  2  0  0  0  0
  1  4  1  0  0  0  0
  4  5  1  0  0  0  0
  4  6  1  0  0  0  0
  4  7  1  0  0  0  0
  7  8  1  0  0  0  0
  7  9  1  0  0  0  0
  7 10  1  0  0  0  0
 10 11  1  0  0  0  0
 10 12  1  0  0  0  0
 10 13  1  0  0  0  0
 13 14  1  0  0  0  0
 13 15  1  0  0  0  0
 13 16  1  0  0  0  0
 16 17  1  0  0  0  0
 16 18  1  0  0  0  0
 16 19  1  0  0  0  0
M  END
> <VConfSearch Rank>
937

> <Conf_Id>
41

> <Delta U+W>
-0.361

> <U+W>
-55.252

> <U>
7.244

> <W>
-62.496

> <W(PB)>
-64.596

> <W(SA)>
2.099

> <Valence>
7.174

> <Coulomb>
-0.669

> <VdW>
0.739

> <VdW6>
-5.969

> <VdW12>
6.708

> <Bond>
0.116

> <Angle>
2.481

> <Pdih>
4.576

> <Idih>
0.000

> <Tether>
0.000

$$$$
VeraChem MOL file


 19 18  0  0  0  0  0  0  0  0999 V2000     
   21.4841   21.0937   21.3405 C   0  0  0  0  0  0  0  0  0  0  0  0
   20.7516   21.5446   20.4821 O   0  5  0  0  0  0  0  0  0  0  0  0
   22.0157   21.7743   22.1954 O   0  0  0  0  0  0  0  0  0  0  0  0
   21.7710   19.5947   21.3330 C   0  0  0  0  0  0  0  0  0  0  0  0
   22.8529   19.4673   21.4571 H   0  0  0  0  0  0  0  0  0  0  0  0
   21.5156   19.1940   20.3445 H   0  0  0  0  0  0  0  0  0  0  0  0
   21.0264   18.8038   22.4398 C   0  0  0  0  0  0  0  0  0  0  0  0
   21.3958   17.7693   22.4482 H   0  0  0  0  0  0  0  0  0  0  0  0
   21.2696   19.2345   23.4211 H   0  0  0  0  0  0  0  0  0  0  0  0
   19.4948   18.7960   22.2366 C   0  0  0  0  0  0  0  0  0  0  0  0
   19.2575   18.3767   21.2492 H   0  0  0  0  0  0  0  0  0  0  0  0
   19.1150   19.8271   22.2440 H   0  0  0  0  0  0  0  0  0  0  0  0
   18.7776   17.9777   23.3305 C   0  0  0  0  0  0  0  0  0  0  0  0
   19.1504   16.9441   23.3250 H   0  0  0  0  0  0  0  0  0  0  0  0
   19.0112   18.3966   24.3191 H   0  0  0  0  0  0  0  0  0  0  0  0
   17.2496   17.9718   23.1249 C   0  0  0  0  0  0  0  0  0  0  0  0
   16.9855   17.5288   22.1557 H   0  0  0  0  0  0  0  0  0  0  0  0
   16.7557   17.3863   23.9112 H   0  0  0  0  0  0  0  0  0  0  0  0
   16.8452   18.9921   23.1572 H   0  0  0  0  0  0  0  0  0  0  0  0
  1  2  1  0  0  0  0
  1  3  2  0  0  0  0
  1  4  1  0  0  0  0
  4  5  1  0  0  0  0
  4  6  1  0  0  0  0
  4  7  1  0  0  0  0
  7  8  1  0  0  0  0
  7  9  1  0  0  0  0
  7 10  1  0  0  0  0
 10 11  1  0  0  0  0
 10 12  1  0  0  0  0
 10 13  1  0  0  0  0
 13 14  1  0  0  0  0
 13 15  1  0  0  0  0
 13 16  1  0  0  0  0
 16 17  1  0  0  0  0
 16 18  1  0  0  0  0
 16 19  1  0  0  0  0
M  END
> <VConfSearch Rank>
938

> <Conf_Id>
36

> <Delta U+W>
-0.079

> <U+W>
-54.971

> <U>
8.266

> <W>
-63.237

> <W(PB)>
-65.340

> <W(SA)>
2.103

> <Valence>
6.935

> <Coulomb>
0.874

> <VdW>
0.457

> <VdW6>
-6.205

> <VdW12>
6.662

> <Bond>
0.107

> <Angle>
2.420

> <Pdih>
4.407

> <Idih>
0.001

> <Tether>
0.000

$$$$
VeraChem MOL file


 19 18  0  0  0  0  0  0  0  0999 V2000     
   18.4371   19.4210   24.5977 C   0  0  0  0  0  0  0  0  0  0  0  0
   19.2703   19.7149   25.4319 O   0  5  0  0  0  0  0  0  0  0  0  0
   17.5803   18.5771   24.7722 O   0  0  0  0  0  0  0  0  0  0  0  0
   18.4524   20.1658   23.2657 C   0  0  0  0  0  0  0  0  0  0  0  0
   19.0304   21.0900   23.3876 H   0  0  0  0  0  0  0  0  0  0  0  0
   17.4206   20.4638   23.0447 H   0  0  0  0  0  0  0  0  0  0  0  0
   19.0154   19.3345   22.0837 C   0  0  0  0  0  0  0  0  0  0  0  0
   18.4452   18.3996   21.9922 H   0  0  0  0  0  0  0  0  0  0  0  0
   18.8603   19.8922   21.1502 H   0  0  0  0  0  0  0  0  0  0  0  0
   20.5191   19.0170   22.2435 C   0  0  0  0  0  0  0  0  0  0  0  0
   20.6804   18.4441   23.1672 H   0  0  0  0  0  0  0  0  0  0  0  0
   21.0831   19.9541   22.3477 H   0  0  0  0  0  0  0  0  0  0  0  0
   21.0648   18.2172   21.0423 C   0  0  0  0  0  0  0  0  0  0  0  0
   20.5039   17.2781   20.9372 H   0  0  0  0  0  0  0  0  0  0  0  0
   20.9099   18.7873   20.1158 H   0  0  0  0  0  0  0  0  0  0  0  0
   22.5652   17.9020   21.2047 C   0  0  0  0  0  0  0  0  0  0  0  0
   22.7454   17.3049   22.1083 H   0  0  0  0  0  0  0  0  0  0  0  0
   22.9366   17.3328   20.3426 H   0  0  0  0  0  0  0  0  0  0  0  0
   23.1544   18.8253   21.2808 H   0  0  0  0  0  0  0  0  0  0  0  0
  1  2  1  0  0  0  0
  1  3  2  0  0  0  0
  1  4  1  0  0  0  0
  4  5  1  0  0  0  0
  4  6  1  0  0  0  0
  4  7  1  0  0  0  0
  7  8  1  0  0  0  0
  7  9  1  0  0  0  0
  7 10  1  0  0  0  0
 10 11  1  0  0  0  0
 10 12  1  0  0  0  0
 10 13  1  0  0  0  0
 13 14  1  0  0  0  0
 13 15  1  0  0  0  0
 13 16  1  0  0  0  0
 16 17  1  0  0  0  0
 16 18  1  0  0  0  0
 16 19  1  0  0  0  0
M  END
> <VConfSearch Rank>
939

> <Conf_Id>
35

> <Delta U+W>
-0.030

> <U+W>
-54.921

> <U>
8.267

> <W>
-63.188

> <W(PB)>
-65.294

> <W(SA)>
2.106

> <Valence>
6.935

> <Coulomb>
0.875

> <VdW>
0.457

> <VdW6>
-6.205

> <VdW12>
6.662

> <Bond>
0.107

> <Angle>
2.420

> <Pdih>
4.407

> <Idih>
0.001

> <Tether>
0.000

$$$$
VeraChem MOL file


 19 18  0  0  0  0  0  0  0  0999 V2000     
   19.1758   19.2965   19.5551 C   0  0  0  0  0  0  0  0  0  0  0  0
   19.8931   18.7699   18.7275 O   0  5  0  0  0  0  0  0  0  0  0  0
   18.7883   20.4454   19.4744 O   0  0  0  0  0  0  0  0  0  0  0  0
   18.7205   18.4611   20.7486 C   0  0  0  0  0  0  0  0  0  0  0  0
   18.3914   17.4896   20.3613 H   0  0  0  0  0  0  0  0  0  0  0  0
   17.8405   18.9390   21.1960 H   0  0  0  0  0  0  0  0  0  0  0  0
   19.8164   18.2443   21.8245 C   0  0  0  0  0  0  0  0  0  0  0  0
   19.4471   17.5136   22.5553 H   0  0  0  0  0  0  0  0  0  0  0  0
   20.7055   17.8018   21.3544 H   0  0  0  0  0  0  0  0  0  0  0  0
   20.2040   19.5551   22.5500 C   0  0  0  0  0  0  0  0  0  0  0  0
   19.3218   19.9757   23.0515 H   0  0  0  0  0  0  0  0  0  0  0  0
   20.5214   20.2990   21.8064 H   0  0  0  0  0  0  0  0  0  0  0  0
   21.3462   19.3743   23.5765 C   0  0  0  0  0  0  0  0  0  0  0  0
   22.2309   18.9556   23.0773 H   0  0  0  0  0  0  0  0  0  0  0  0
   21.6413   20.3636   23.9525 H   0  0  0  0  0  0  0  0  0  0  0  0
   20.9560   18.4838   24.7760 C   0  0  0  0  0  0  0  0  0  0  0  0
   20.7656   17.4498   24.4628 H   0  0  0  0  0  0  0  0  0  0  0  0
   21.7656   18.4622   25.5169 H   0  0  0  0  0  0  0  0  0  0  0  0
   20.0542   18.8658   25.2720 H   0  0  0  0  0  0  0  0  0  0  0  0
  1  2  1  0  0  0  0
  1  3  2  0  0  0  0
  1  4  1  0  0  0  0
  4  5  1  0  0  0  0
  4  6  1  0  0  0  0
  4  7  1  0  0  0  0
  7  8  1  0  0  0  0
  7  9  1  0  0  0  0
  7 10  1  0  0  0  0
 10 11  1  0  0  0  0
 10 12  1  0  0  0  0
 10 13  1  0  0  0  0
 13 14  1  0  0  0  0
 13 15  1  0  0  0  0
 13 16  1  0  0  0  0
 16 17  1  0  0  0  0
 16 18  1  0  0  0  0
 16 19  1  0  0  0  0
M  END
> <VConfSearch Rank>
940

> <Conf_Id>
74

> <Delta U+W>
0.797

> <U+W>
-54.095

> <U>
8.869

> <W>
-62.964

> <W(PB)>
-65.046

> <W(SA)>
2.082

> <Valence>
7.469

> <Coulomb>
0.762

> <VdW>
0.639

> <VdW6>
-6.782

> <VdW12>
7.421

> <Bond>
0.141

> <Angle>
2.667

> <Pdih>
4.660

> <Idih>
0.001

> <Tether>
0.000

$$$$
VeraChem MOL file


 19 18  0  0  0  0  0  0  0  0999 V2000     
   21.5161   17.3538   20.3653 C   0  0  0  0  0  0  0  0  0  0  0  0
   21.9648   17.6860   19.2860 O   0  5  0  0  0  0  0  0  0  0  0  0
   21.9525   16.4265   21.0179 O   0  0  0  0  0  0  0  0  0  0  0  0
   20.3544   18.1565   20.9400 C   0  0  0  0  0  0  0  0  0  0  0  0
   19.7324   17.4705   21.5262 H   0  0  0  0  0  0  0  0  0  0  0  0
   19.7432   18.5180   20.1044 H   0  0  0  0  0  0  0  0  0  0  0  0
   20.8224   19.3480   21.8151 C   0  0  0  0  0  0  0  0  0  0  0  0
   21.4009   18.9715   22.6692 H   0  0  0  0  0  0  0  0  0  0  0  0
   21.5155   19.9659   21.2278 H   0  0  0  0  0  0  0  0  0  0  0  0
   19.6611   20.2459   22.3111 C   0  0  0  0  0  0  0  0  0  0  0  0
   19.1606   20.6928   21.4413 H   0  0  0  0  0  0  0  0  0  0  0  0
   20.0828   21.0843   22.8820 H   0  0  0  0  0  0  0  0  0  0  0  0
   18.6000   19.5306   23.1830 C   0  0  0  0  0  0  0  0  0  0  0  0
   17.8258   20.2595   23.4595 H   0  0  0  0  0  0  0  0  0  0  0  0
   18.0897   18.7538   22.5983 H   0  0  0  0  0  0  0  0  0  0  0  0
   19.1832   18.9130   24.4721 C   0  0  0  0  0  0  0  0  0  0  0  0
   19.7186   19.6682   25.0622 H   0  0  0  0  0  0  0  0  0  0  0  0
   18.3810   18.5005   25.0975 H   0  0  0  0  0  0  0  0  0  0  0  0
   19.8797   18.0964   24.2432 H   0  0  0  0  0  0  0  0  0  0  0  0
  1  2  1  0  0  0  0
  1  3  2  0  0  0  0
  1  4  1  0  0  0  0
  4  5  1  0  0  0  0
  4  6  1  0  0  0  0
  4  7  1  0  0  0  0
  7  8  1  0  0  0  0
  7  9  1  0  0  0  0
  7 10  1  0  0  0  0
 10 11  1  0  0  0  0
 10 12  1  0  0  0  0
 10 13  1  0  0  0  0
 13 14  1  0  0  0  0
 13 15  1  0  0  0  0
 13 16  1  0  0  0  0
 16 17  1  0  0  0  0
 16 18  1  0  0  0  0
 16 19  1  0  0  0  0
M  END
> <VConfSearch Rank>
941

> <Conf_Id>
67

> <Delta U+W>
0.308

> <U+W>
-54.583

> <U>
8.219

> <W>
-62.802

> <W(PB)>
-64.859

> <W(SA)>
2.057

> <Valence>
7.609

> <Coulomb>
-0.089

> <VdW>
0.699

> <VdW6>
-6.924

> <VdW12>
7.623

> <Bond>
0.163

> <Angle>
2.870

> <Pdih>
4.576

> <Idih>
0.001

> <Tether>
0.000

$$$$
VeraChem MOL file


 19 18  0  0  0  0  0  0  0  0999 V2000     
   20.9136   17.0815   20.2235 C   0  0  0  0  0  0  0  0  0  0  0  0
   21.1171   15.8855   20.2922 O   0  5  0  0  0  0  0  0  0  0  0  0
   21.4286   17.8042   19.3936 O   0  0  0  0  0  0  0  0  0  0  0  0
   19.9761   17.7122   21.2470 C   0  0  0  0  0  0  0  0  0  0  0  0
   19.2112   16.9721   21.5106 H   0  0  0  0  0  0  0  0  0  0  0  0
   19.4648   18.5501   20.7594 H   0  0  0  0  0  0  0  0  0  0  0  0
   20.7155   18.1946   22.5218 C   0  0  0  0  0  0  0  0  0  0  0  0
   21.2908   17.3545   22.9346 H   0  0  0  0  0  0  0  0  0  0  0  0
   21.4520   18.9626   22.2507 H   0  0  0  0  0  0  0  0  0  0  0  0
   19.7662   18.7302   23.6230 C   0  0  0  0  0  0  0  0  0  0  0  0
   20.3656   19.0067   24.5011 H   0  0  0  0  0  0  0  0  0  0  0  0
   19.1063   17.9155   23.9509 H   0  0  0  0  0  0  0  0  0  0  0  0
   18.8945   19.9418   23.2107 C   0  0  0  0  0  0  0  0  0  0  0  0
   18.2101   19.6583   22.4003 H   0  0  0  0  0  0  0  0  0  0  0  0
   18.2578   20.2200   24.0618 H   0  0  0  0  0  0  0  0  0  0  0  0
   19.7219   21.1741   22.7863 C   0  0  0  0  0  0  0  0  0  0  0  0
   20.2885   20.9767   21.8675 H   0  0  0  0  0  0  0  0  0  0  0  0
   19.0635   22.0310   22.5934 H   0  0  0  0  0  0  0  0  0  0  0  0
   20.4304   21.4619   23.5739 H   0  0  0  0  0  0  0  0  0  0  0  0
  1  2  1  0  0  0  0
  1  3  2  0  0  0  0
  1  4  1  0  0  0  0
  4  5  1  0  0  0  0
  4  6  1  0  0  0  0
  4  7  1  0  0  0  0
  7  8  1  0  0  0  0
  7  9  1  0  0  0  0
  7 10  1  0  0  0  0
 10 11  1  0  0  0  0
 10 12  1  0  0  0  0
 10 13  1  0  0  0  0
 13 14  1  0  0  0  0
 13 15  1  0  0  0  0
 13 16  1  0  0  0  0
 16 17  1  0  0  0  0
 16 18  1  0  0  0  0
 16 19  1  0  0  0  0
M  END
> <VConfSearch Rank>
942

> <Conf_Id>
21

> <Delta U+W>
0.319

> <U+W>
-54.572

> <U>
8.220

> <W>
-62.792

> <W(PB)>
-64.830

> <W(SA)>
2.038

> <Valence>
7.609

> <Coulomb>
-0.088

> <VdW>
0.699

> <VdW6>
-6.924

> <VdW12>
7.623

> <Bond>
0.163

> <Angle>
2.870

> <Pdih>
4.576

> <Idih>
0.000

> <Tether>
0.000

$$$$
VeraChem MOL file


 19 18  0  0  0  0  0  0  0  0999 V2000     
   19.8678   16.3373   23.6213 C   0  0  0  0  0  0  0  0  0  0  0  0
   19.3508   15.2975   23.2635 O   0  5  0  0  0  0  0  0  0  0  0  0
   20.7728   16.3946   24.4299 O   0  0  0  0  0  0  0  0  0  0  0  0
   19.3652   17.6394   23.0080 C   0  0  0  0  0  0  0  0  0  0  0  0
   19.4696   18.4272   23.7605 H   0  0  0  0  0  0  0  0  0  0  0  0
   18.2926   17.5278   22.8096 H   0  0  0  0  0  0  0  0  0  0  0  0
   20.1111   18.0145   21.7001 C   0  0  0  0  0  0  0  0  0  0  0  0
   21.1930   18.0695   21.8840 H   0  0  0  0  0  0  0  0  0  0  0  0
   19.9644   17.1965   20.9813 H   0  0  0  0  0  0  0  0  0  0  0  0
   19.6080   19.3331   21.0596 C   0  0  0  0  0  0  0  0  0  0  0  0
   18.5466   19.4904   21.2954 H   0  0  0  0  0  0  0  0  0  0  0  0
   19.6582   19.2230   19.9677 H   0  0  0  0  0  0  0  0  0  0  0  0
   20.4291   20.5902   21.4384 C   0  0  0  0  0  0  0  0  0  0  0  0
   21.4719   20.4592   21.1179 H   0  0  0  0  0  0  0  0  0  0  0  0
   20.0384   21.4455   20.8702 H   0  0  0  0  0  0  0  0  0  0  0  0
   20.3959   20.9389   22.9407 C   0  0  0  0  0  0  0  0  0  0  0  0
   20.8836   21.9057   23.1208 H   0  0  0  0  0  0  0  0  0  0  0  0
   19.3634   21.0068   23.3072 H   0  0  0  0  0  0  0  0  0  0  0  0
   20.9292   20.1852   23.5335 H   0  0  0  0  0  0  0  0  0  0  0  0
  1  2  1  0  0  0  0
  1  3  2  0  0  0  0
  1  4  1  0  0  0  0
  4  5  1  0  0  0  0
  4  6  1  0  0  0  0
  4  7  1  0  0  0  0
  7  8  1  0  0  0  0
  7  9  1  0  0  0  0
  7 10  1  0  0  0  0
 10 11  1  0  0  0  0
 10 12  1  0  0  0  0
 10 13  1  0  0  0  0
 13 14  1  0  0  0  0
 13 15  1  0  0  0  0
 13 16  1  0  0  0  0
 16 17  1  0  0  0  0
 16 18  1  0  0  0  0
 16 19  1  0  0  0  0
M  END
> <VConfSearch Rank>
943

> <Conf_Id>
24

> <Delta U+W>
2.477

> <U+W>
-52.414

> <U>
10.422

> <W>
-62.836

> <W(PB)>
-64.906

> <W(SA)>
2.070

> <Valence>
9.628

> <Coulomb>
0.101

> <VdW>
0.693

> <VdW6>
-6.927

> <VdW12>
7.620

> <Bond>
0.173

> <Angle>
2.989

> <Pdih>
6.465

> <Idih>
0.001

> <Tether>
0.000

$$$$
VeraChem MOL file


 19 18  0  0  0  0  0  0  0  0999 V2000     
   22.3196   18.6914   21.5694 C   0  0  0  0  0  0  0  0  0  0  0  0
   22.2659   19.4953   20.6597 O   0  5  0  0  0  0  0  0  0  0  0  0
   23.3386   18.4384   22.1815 O   0  0  0  0  0  0  0  0  0  0  0  0
   21.0477   17.9363   21.9466 C   0  0  0  0  0  0  0  0  0  0  0  0
   21.3081   16.8730   22.0054 H   0  0  0  0  0  0  0  0  0  0  0  0
   20.3297   18.0381   21.1266 H   0  0  0  0  0  0  0  0  0  0  0  0
   20.4224   18.3871   23.2959 C   0  0  0  0  0  0  0  0  0  0  0  0
   19.6439   17.6752   23.6014 H   0  0  0  0  0  0  0  0  0  0  0  0
   21.2028   18.3304   24.0675 H   0  0  0  0  0  0  0  0  0  0  0  0
   19.8404   19.8246   23.2788 C   0  0  0  0  0  0  0  0  0  0  0  0
   20.3940   20.4557   22.5703 H   0  0  0  0  0  0  0  0  0  0  0  0
   20.0075   20.2714   24.2684 H   0  0  0  0  0  0  0  0  0  0  0  0
   18.3225   19.9032   22.9830 C   0  0  0  0  0  0  0  0  0  0  0  0
   17.7677   19.3432   23.7484 H   0  0  0  0  0  0  0  0  0  0  0  0
   18.0035   20.9504   23.0771 H   0  0  0  0  0  0  0  0  0  0  0  0
   17.9247   19.3902   21.5837 C   0  0  0  0  0  0  0  0  0  0  0  0
   18.0699   18.3058   21.5040 H   0  0  0  0  0  0  0  0  0  0  0  0
   16.8651   19.5972   21.3857 H   0  0  0  0  0  0  0  0  0  0  0  0
   18.5185   19.8809   20.8012 H   0  0  0  0  0  0  0  0  0  0  0  0
  1  2  1  0  0  0  0
  1  3  2  0  0  0  0
  1  4  1  0  0  0  0
  4  5  1  0  0  0  0
  4  6  1  0  0  0  0
  4  7  1  0  0  0  0
  7  8  1  0  0  0  0
  7  9  1  0  0  0  0
  7 10  1  0  0  0  0
 10 11  1  0  0  0  0
 10 12  1  0  0  0  0
 10 13  1  0  0  0  0
 13 14  1  0  0  0  0
 13 15  1  0  0  0  0
 13 16  1  0  0  0  0
 16 17  1  0  0  0  0
 16 18  1  0  0  0  0
 16 19  1  0  0  0  0
M  END
> <VConfSearch Rank>
944

> <Conf_Id>
4

> <Delta U+W>
3.753

> <U+W>
-51.138

> <U>
12.334

> <W>
-63.472

> <W(PB)>
-65.500

> <W(SA)>
2.028

> <Valence>
9.984

> <Coulomb>
1.767

> <VdW>
0.583

> <VdW6>
-7.767

> <VdW12>
8.349

> <Bond>
0.203

> <Angle>
3.191

> <Pdih>
6.589

> <Idih>
0.001

> <Tether>
0.000

$$$$
VeraChem MOL file


 19 18  0  0  0  0  0  0  0  0999 V2000     
   19.1446   17.7109   24.6026 C   0  0  0  0  0  0  0  0  0  0  0  0
   18.0735   17.7258   25.1767 O   0  5  0  0  0  0  0  0  0  0  0  0
   19.8106   16.7058   24.4515 O   0  0  0  0  0  0  0  0  0  0  0  0
   19.6934   19.0319   24.0698 C   0  0  0  0  0  0  0  0  0  0  0  0
   20.7637   18.9082   23.8763 H   0  0  0  0  0  0  0  0  0  0  0  0
   19.6036   19.7686   24.8766 H   0  0  0  0  0  0  0  0  0  0  0  0
   18.9550   19.5595   22.8083 C   0  0  0  0  0  0  0  0  0  0  0  0
   17.8806   19.5990   23.0355 H   0  0  0  0  0  0  0  0  0  0  0  0
   19.2587   20.5953   22.6055 H   0  0  0  0  0  0  0  0  0  0  0  0
   19.1655   18.6936   21.5390 C   0  0  0  0  0  0  0  0  0  0  0  0
   18.2345   18.7117   20.9561 H   0  0  0  0  0  0  0  0  0  0  0  0
   19.3246   17.6416   21.8125 H   0  0  0  0  0  0  0  0  0  0  0  0
   20.3059   19.1767   20.6095 C   0  0  0  0  0  0  0  0  0  0  0  0
   20.3116   18.5465   19.7095 H   0  0  0  0  0  0  0  0  0  0  0  0
   20.0950   20.1992   20.2672 H   0  0  0  0  0  0  0  0  0  0  0  0
   21.7071   19.1304   21.2530 C   0  0  0  0  0  0  0  0  0  0  0  0
   21.9153   18.1369   21.6714 H   0  0  0  0  0  0  0  0  0  0  0  0
   22.4801   19.3531   20.5063 H   0  0  0  0  0  0  0  0  0  0  0  0
   21.7987   19.8734   22.0549 H   0  0  0  0  0  0  0  0  0  0  0  0
  1  2  1  0  0  0  0
  1  3  2  0  0  0  0
  1  4  1  0  0  0  0
  4  5  1  0  0  0  0
  4  6  1  0  0  0  0
  4  7  1  0  0  0  0
  7  8  1  0  0  0  0
  7  9  1  0  0  0  0
  7 10  1  0  0  0  0
 10 11  1  0  0  0  0
 10 12  1  0  0  0  0
 10 13  1  0  0  0  0
 13 14  1  0  0  0  0
 13 15  1  0  0  0  0
 13 16  1  0  0  0  0
 16 17  1  0  0  0  0
 16 18  1  0  0  0  0
 16 19  1  0  0  0  0
M  END
> <VConfSearch Rank>
945

> <Conf_Id>
73

> <Delta U+W>
3.707

> <U+W>
-51.184

> <U>
12.334

> <W>
-63.519

> <W(PB)>
-65.541

> <W(SA)>
2.022

> <Valence>
9.984

> <Coulomb>
1.768

> <VdW>
0.583

> <VdW6>
-7.767

> <VdW12>
8.350

> <Bond>
0.203

> <Angle>
3.192

> <Pdih>
6.589

> <Idih>
0.001

> <Tether>
0.000

$$$$
VeraChem MOL file


 19 18  0  0  0  0  0  0  0  0999 V2000     
   18.7405   19.9391   24.5431 C   0  0  0  0  0  0  0  0  0  0  0  0
   19.5679   20.7982   24.7754 O   0  5  0  0  0  0  0  0  0  0  0  0
   17.5571   20.0626   24.7913 O   0  0  0  0  0  0  0  0  0  0  0  0
   19.2144   18.6210   23.9370 C   0  0  0  0  0  0  0  0  0  0  0  0
   18.8008   17.8122   24.5505 H   0  0  0  0  0  0  0  0  0  0  0  0
   20.3042   18.5597   24.0366 H   0  0  0  0  0  0  0  0  0  0  0  0
   18.7889   18.4129   22.4579 C   0  0  0  0  0  0  0  0  0  0  0  0
   19.1052   17.4150   22.1276 H   0  0  0  0  0  0  0  0  0  0  0  0
   17.6915   18.4143   22.4042 H   0  0  0  0  0  0  0  0  0  0  0  0
   19.3343   19.4834   21.4777 C   0  0  0  0  0  0  0  0  0  0  0  0
   18.9134   20.4622   21.7458 H   0  0  0  0  0  0  0  0  0  0  0  0
   18.9608   19.2605   20.4690 H   0  0  0  0  0  0  0  0  0  0  0  0
   20.8770   19.6043   21.4251 C   0  0  0  0  0  0  0  0  0  0  0  0
   21.1410   20.3997   20.7149 H   0  0  0  0  0  0  0  0  0  0  0  0
   21.2634   19.9293   22.4005 H   0  0  0  0  0  0  0  0  0  0  0  0
   21.5789   18.2989   20.9928 C   0  0  0  0  0  0  0  0  0  0  0  0
   21.4354   17.5041   21.7355 H   0  0  0  0  0  0  0  0  0  0  0  0
   21.1909   17.9450   20.0288 H   0  0  0  0  0  0  0  0  0  0  0  0
   22.6590   18.4616   20.8840 H   0  0  0  0  0  0  0  0  0  0  0  0
  1  2  1  0  0  0  0
  1  3  2  0  0  0  0
  1  4  1  0  0  0  0
  4  5  1  0  0  0  0
  4  6  1  0  0  0  0
  4  7  1  0  0  0  0
  7  8  1  0  0  0  0
  7  9  1  0  0  0  0
  7 10  1  0  0  0  0
 10 11  1  0  0  0  0
 10 12  1  0  0  0  0
 10 13  1  0  0  0  0
 13 14  1  0  0  0  0
 13 15  1  0  0  0  0
 13 16  1  0  0  0  0
 16 17  1  0  0  0  0
 16 18  1  0  0  0  0
 16 19  1  0  0  0  0
M  END
> <VConfSearch Rank>
946

> <Conf_Id>
56

> <Delta U+W>
1.735

> <U+W>
-53.156

> <U>
10.214

> <W>
-63.370

> <W(PB)>
-65.388

> <W(SA)>
2.018

> <Valence>
7.868

> <Coulomb>
1.968

> <VdW>
0.378

> <VdW6>
-8.067

> <VdW12>
8.445

> <Bond>
0.191

> <Angle>
3.117

> <Pdih>
4.559

> <Idih>
0.001

> <Tether>
0.000

$$$$
VeraChem MOL file


 19 18  0  0  0  0  0  0  0  0999 V2000     
   20.5512   17.4173   19.8590 C   0  0  0  0  0  0  0  0  0  0  0  0
   19.8664   17.4741   18.8569 O   0  5  0  0  0  0  0  0  0  0  0  0
   21.4216   16.5874   20.0320 O   0  0  0  0  0  0  0  0  0  0  0  0
   20.2893   18.4293   20.9687 C   0  0  0  0  0  0  0  0  0  0  0  0
   19.9404   19.3604   20.5064 H   0  0  0  0  0  0  0  0  0  0  0  0
   21.2471   18.6413   21.4567 H   0  0  0  0  0  0  0  0  0  0  0  0
   19.2559   17.9269   22.0083 C   0  0  0  0  0  0  0  0  0  0  0  0
   18.3570   17.5881   21.4749 H   0  0  0  0  0  0  0  0  0  0  0  0
   19.6598   17.0435   22.5218 H   0  0  0  0  0  0  0  0  0  0  0  0
   18.8341   18.9889   23.0547 C   0  0  0  0  0  0  0  0  0  0  0  0
   18.0667   18.5340   23.6958 H   0  0  0  0  0  0  0  0  0  0  0  0
   18.3427   19.8356   22.5560 H   0  0  0  0  0  0  0  0  0  0  0  0
   19.9827   19.4944   23.9626 C   0  0  0  0  0  0  0  0  0  0  0  0
   19.5801   19.6759   24.9688 H   0  0  0  0  0  0  0  0  0  0  0  0
   20.7495   18.7158   24.0766 H   0  0  0  0  0  0  0  0  0  0  0  0
   20.6229   20.8083   23.4620 C   0  0  0  0  0  0  0  0  0  0  0  0
   21.4169   21.1331   24.1468 H   0  0  0  0  0  0  0  0  0  0  0  0
   21.0664   20.6939   22.4666 H   0  0  0  0  0  0  0  0  0  0  0  0
   19.8760   21.6111   23.4098 H   0  0  0  0  0  0  0  0  0  0  0  0
  1  2  1  0  0  0  0
  1  3  2  0  0  0  0
  1  4  1  0  0  0  0
  4  5  1  0  0  0  0
  4  6  1  0  0  0  0
  4  7  1  0  0  0  0
  7  8  1  0  0  0  0
  7  9  1  0  0  0  0
  7 10  1  0  0  0  0
 10 11  1  0  0  0  0
 10 12  1  0  0  0  0
 10 13  1  0  0  0  0
 13 14  1  0  0  0  0
 13 15  1  0  0  0  0
 13 16  1  0  0  0  0
 16 17  1  0  0  0  0
 16 18  1  0  0  0  0
 16 19  1  0  0  0  0
M  END
> <VConfSearch Rank>
947

> <Conf_Id>
53

> <Delta U+W>
2.279

> <U+W>
-52.612

> <U>
10.231

> <W>
-62.843

> <W(PB)>
-64.893

> <W(SA)>
2.050

> <Valence>
9.644

> <Coulomb>
-0.164

> <VdW>
0.751

> <VdW6>
-6.881

> <VdW12>
7.631

> <Bond>
0.163

> <Angle>
2.998

> <Pdih>
6.482

> <Idih>
0.001

> <Tether>
0.000

$$$$
VeraChem MOL file


 19 18  0  0  0  0  0  0  0  0999 V2000     
   18.7154   20.6503   23.3411 C   0  0  0  0  0  0  0  0  0  0  0  0
   18.9089   21.5713   22.5721 O   0  5  0  0  0  0  0  0  0  0  0  0
   18.8740   20.7370   24.5430 O   0  0  0  0  0  0  0  0  0  0  0  0
   18.1779   19.3382   22.7728 C   0  0  0  0  0  0  0  0  0  0  0  0
   18.0412   19.4477   21.6901 H   0  0  0  0  0  0  0  0  0  0  0  0
   17.1787   19.2024   23.2027 H   0  0  0  0  0  0  0  0  0  0  0  0
   19.0364   18.0795   23.0822 C   0  0  0  0  0  0  0  0  0  0  0  0
   19.3451   18.0864   24.1368 H   0  0  0  0  0  0  0  0  0  0  0  0
   18.3966   17.1949   22.9607 H   0  0  0  0  0  0  0  0  0  0  0  0
   20.2730   17.8957   22.1680 C   0  0  0  0  0  0  0  0  0  0  0  0
   19.9565   17.8824   21.1160 H   0  0  0  0  0  0  0  0  0  0  0  0
   20.7056   16.9068   22.3725 H   0  0  0  0  0  0  0  0  0  0  0  0
   21.3682   18.9664   22.3671 C   0  0  0  0  0  0  0  0  0  0  0  0
   20.9995   19.9476   22.0419 H   0  0  0  0  0  0  0  0  0  0  0  0
   21.6149   19.0529   23.4343 H   0  0  0  0  0  0  0  0  0  0  0  0
   22.6438   18.6254   21.5704 C   0  0  0  0  0  0  0  0  0  0  0  0
   22.4288   18.5585   20.4959 H   0  0  0  0  0  0  0  0  0  0  0  0
   23.4083   19.3996   21.7157 H   0  0  0  0  0  0  0  0  0  0  0  0
   23.0668   17.6662   21.8964 H   0  0  0  0  0  0  0  0  0  0  0  0
  1  2  1  0  0  0  0
  1  3  2  0  0  0  0
  1  4  1  0  0  0  0
  4  5  1  0  0  0  0
  4  6  1  0  0  0  0
  4  7  1  0  0  0  0
  7  8  1  0  0  0  0
  7  9  1  0  0  0  0
  7 10  1  0  0  0  0
 10 11  1  0  0  0  0
 10 12  1  0  0  0  0
 10 13  1  0  0  0  0
 13 14  1  0  0  0  0
 13 15  1  0  0  0  0
 13 16  1  0  0  0  0
 16 17  1  0  0  0  0
 16 18  1  0  0  0  0
 16 19  1  0  0  0  0
M  END
> <VConfSearch Rank>
948

> <Conf_Id>
25

> <Delta U+W>
2.065

> <U+W>
-52.826

> <U>
10.967

> <W>
-63.794

> <W(PB)>
-65.830

> <W(SA)>
2.036

> <Valence>
8.609

> <Coulomb>
1.892

> <VdW>
0.467

> <VdW6>
-7.569

> <VdW12>
8.036

> <Bond>
0.170

> <Angle>
3.195

> <Pdih>
5.237

> <Idih>
0.007

> <Tether>
0.000

$$$$
VeraChem MOL file


 19 18  0  0  0  0  0  0  0  0999 V2000     
   18.9630   20.7161   23.5239 C   0  0  0  0  0  0  0  0  0  0  0  0
   19.0224   21.6655   22.7674 O   0  5  0  0  0  0  0  0  0  0  0  0
   19.4047   20.7335   24.6560 O   0  0  0  0  0  0  0  0  0  0  0  0
   18.2338   19.4586   23.0544 C   0  0  0  0  0  0  0  0  0  0  0  0
   17.1917   19.7523   22.8832 H   0  0  0  0  0  0  0  0  0  0  0  0
   18.2231   18.7264   23.8710 H   0  0  0  0  0  0  0  0  0  0  0  0
   18.7955   18.8103   21.7577 C   0  0  0  0  0  0  0  0  0  0  0  0
   18.0087   18.1758   21.3280 H   0  0  0  0  0  0  0  0  0  0  0  0
   18.9996   19.5876   21.0083 H   0  0  0  0  0  0  0  0  0  0  0  0
   20.0519   17.9284   21.9640 C   0  0  0  0  0  0  0  0  0  0  0  0
   20.2608   17.4048   21.0210 H   0  0  0  0  0  0  0  0  0  0  0  0
   19.8387   17.1494   22.7087 H   0  0  0  0  0  0  0  0  0  0  0  0
   21.3126   18.7161   22.3831 C   0  0  0  0  0  0  0  0  0  0  0  0
   21.4706   19.5591   21.6962 H   0  0  0  0  0  0  0  0  0  0  0  0
   21.1758   19.1402   23.3860 H   0  0  0  0  0  0  0  0  0  0  0  0
   22.5651   17.8166   22.3900 C   0  0  0  0  0  0  0  0  0  0  0  0
   23.4498   18.3889   22.6980 H   0  0  0  0  0  0  0  0  0  0  0  0
   22.4426   16.9792   23.0894 H   0  0  0  0  0  0  0  0  0  0  0  0
   22.7592   17.4043   21.3912 H   0  0  0  0  0  0  0  0  0  0  0  0
  1  2  1  0  0  0  0
  1  3  2  0  0  0  0
  1  4  1  0  0  0  0
  4  5  1  0  0  0  0
  4  6  1  0  0  0  0
  4  7  1  0  0  0  0
  7  8  1  0  0  0  0
  7  9  1  0  0  0  0
  7 10  1  0  0  0  0
 10 11  1  0  0  0  0
 10 12  1  0  0  0  0
 10 13  1  0  0  0  0
 13 14  1  0  0  0  0
 13 15  1  0  0  0  0
 13 16  1  0  0  0  0
 16 17  1  0  0  0  0
 16 18  1  0  0  0  0
 16 19  1  0  0  0  0
M  END
> <VConfSearch Rank>
949

> <Conf_Id>
52

> <Delta U+W>
2.070

> <U+W>
-52.822

> <U>
10.967

> <W>
-63.789

> <W(PB)>
-65.837

> <W(SA)>
2.048

> <Valence>
8.609

> <Coulomb>
1.892

> <VdW>
0.467

> <VdW6>
-7.569

> <VdW12>
8.035

> <Bond>
0.170

> <Angle>
3.196

> <Pdih>
5.237

> <Idih>
0.007

> <Tether>
0.000

$$$$
VeraChem MOL file


 19 18  0  0  0  0  0  0  0  0999 V2000     
   21.9659   18.6181   22.4549 C   0  0  0  0  0  0  0  0  0  0  0  0
   22.4992   19.5536   23.0193 O   0  5  0  0  0  0  0  0  0  0  0  0
   22.2368   17.4571   22.6905 O   0  0  0  0  0  0  0  0  0  0  0  0
   21.0003   18.9082   21.3047 C   0  0  0  0  0  0  0  0  0  0  0  0
   20.5006   17.9765   21.0139 H   0  0  0  0  0  0  0  0  0  0  0  0
   21.6239   19.2066   20.4541 H   0  0  0  0  0  0  0  0  0  0  0  0
   19.9477   20.0221   21.5705 C   0  0  0  0  0  0  0  0  0  0  0  0
   20.4139   20.8586   22.1092 H   0  0  0  0  0  0  0  0  0  0  0  0
   19.6366   20.4306   20.5996 H   0  0  0  0  0  0  0  0  0  0  0  0
   18.6673   19.5632   22.3143 C   0  0  0  0  0  0  0  0  0  0  0  0
   18.1459   18.7961   21.7255 H   0  0  0  0  0  0  0  0  0  0  0  0
   17.9832   20.4219   22.3529 H   0  0  0  0  0  0  0  0  0  0  0  0
   18.8945   19.0672   23.7629 C   0  0  0  0  0  0  0  0  0  0  0  0
   19.8305   19.4769   24.1670 H   0  0  0  0  0  0  0  0  0  0  0  0
   18.0907   19.4582   24.4017 H   0  0  0  0  0  0  0  0  0  0  0  0
   18.8902   17.5275   23.8747 C   0  0  0  0  0  0  0  0  0  0  0  0
   17.9206   17.1154   23.5663 H   0  0  0  0  0  0  0  0  0  0  0  0
   19.6655   17.0767   23.2444 H   0  0  0  0  0  0  0  0  0  0  0  0
   19.0756   17.2160   24.9106 H   0  0  0  0  0  0  0  0  0  0  0  0
  1  2  1  0  0  0  0
  1  3  2  0  0  0  0
  1  4  1  0  0  0  0
  4  5  1  0  0  0  0
  4  6  1  0  0  0  0
  4  7  1  0  0  0  0
  7  8  1  0  0  0  0
  7  9  1  0  0  0  0
  7 10  1  0  0  0  0
 10 11  1  0  0  0  0
 10 12  1  0  0  0  0
 10 13  1  0  0  0  0
 13 14  1  0  0  0  0
 13 15  1  0  0  0  0
 13 16  1  0  0  0  0
 16 17  1  0  0  0  0
 16 18  1  0  0  0  0
 16 19  1  0  0  0  0
M  END
> <VConfSearch Rank>
950

> <Conf_Id>
66

> <Delta U+W>
5.819

> <U+W>
-49.072

> <U>
15.324

> <W>
-64.396

> <W(PB)>
-66.382

> <W(SA)>
1.986

> <Valence>
11.748

> <Coulomb>
3.201

> <VdW>
0.375

> <VdW6>
-8.854

> <VdW12>
9.229

> <Bond>
0.216

> <Angle>
3.812

> <Pdih>
7.699

> <Idih>
0.022

> <Tether>
0.000

$$$$
VeraChem MOL file


 19 18  0  0  0  0  0  0  0  0999 V2000     
   20.0116   19.7344   18.8138 C   0  0  0  0  0  0  0  0  0  0  0  0
   19.3150   20.2365   17.9545 O   0  5  0  0  0  0  0  0  0  0  0  0
   21.1379   19.3286   18.6016 O   0  0  0  0  0  0  0  0  0  0  0  0
   19.4156   19.6214   20.2180 C   0  0  0  0  0  0  0  0  0  0  0  0
   18.4879   19.0433   20.1341 H   0  0  0  0  0  0  0  0  0  0  0  0
   19.1358   20.6324   20.5369 H   0  0  0  0  0  0  0  0  0  0  0  0
   20.3421   18.9740   21.2814 C   0  0  0  0  0  0  0  0  0  0  0  0
   20.6234   17.9638   20.9532 H   0  0  0  0  0  0  0  0  0  0  0  0
   21.2721   19.5546   21.3564 H   0  0  0  0  0  0  0  0  0  0  0  0
   19.6628   18.9000   22.6661 C   0  0  0  0  0  0  0  0  0  0  0  0
   18.7332   18.3194   22.5888 H   0  0  0  0  0  0  0  0  0  0  0  0
   19.3823   19.9110   22.9923 H   0  0  0  0  0  0  0  0  0  0  0  0
   20.5855   18.2561   23.7218 C   0  0  0  0  0  0  0  0  0  0  0  0
   20.8668   17.2438   23.4000 H   0  0  0  0  0  0  0  0  0  0  0  0
   21.5157   18.8353   23.8036 H   0  0  0  0  0  0  0  0  0  0  0  0
   19.9040   18.1838   25.1028 C   0  0  0  0  0  0  0  0  0  0  0  0
   18.9862   17.5831   25.0570 H   0  0  0  0  0  0  0  0  0  0  0  0
   20.5737   17.7235   25.8410 H   0  0  0  0  0  0  0  0  0  0  0  0
   19.6400   19.1865   25.4636 H   0  0  0  0  0  0  0  0  0  0  0  0
  1  2  1  0  0  0  0
  1  3  2  0  0  0  0
  1  4  1  0  0  0  0
  4  5  1  0  0  0  0
  4  6  1  0  0  0  0
  4  7  1  0  0  0  0
  7  8  1  0  0  0  0
  7  9  1  0  0  0  0
  7 10  1  0  0  0  0
 10 11  1  0  0  0  0
 10 12  1  0  0  0  0
 10 13  1  0  0  0  0
 13 14  1  0  0  0  0
 13 15  1  0  0  0  0
 13 16  1  0  0  0  0
 16 17  1  0  0  0  0
 16 18  1  0  0  0  0
 16 19  1  0  0  0  0
M  END
> <VConfSearch Rank>
951

> <Conf_Id>
0

> <Delta U+W>
0.000

> <U+W>
-54.891

> <U>
6.966

> <W>
-61.857

> <W(PB)>
-63.965

> <W(SA)>
2.108

> <Valence>
7.175

> <Coulomb>
-1.360

> <VdW>
1.151

> <VdW6>
-5.641

> <VdW12>
6.792

> <Bond>
0.119

> <Angle>
2.715

> <Pdih>
4.340

> <Idih>
0.000

> <Tether>
0.000

$$$$
VeraChem MOL file


 19 18  0  0  0  0  0  0  0  0999 V2000     
   19.2467   21.2618   19.7708 C   0  0  0  0  0  0  0  0  0  0  0  0
   20.1450   21.4631   18.9778 O   0  5  0  0  0  0  0  0  0  0  0  0
   18.0693   21.3912   19.5005 O   0  0  0  0  0  0  0  0  0  0  0  0
   19.6166   20.8017   21.1764 C   0  0  0  0  0  0  0  0  0  0  0  0
   18.8677   21.1978   21.8729 H   0  0  0  0  0  0  0  0  0  0  0  0
   20.5786   21.2566   21.4419 H   0  0  0  0  0  0  0  0  0  0  0  0
   19.7015   19.2606   21.3028 C   0  0  0  0  0  0  0  0  0  0  0  0
   18.7350   18.8198   21.0216 H   0  0  0  0  0  0  0  0  0  0  0  0
   20.4459   18.8786   20.5905 H   0  0  0  0  0  0  0  0  0  0  0  0
   20.0773   18.8212   22.7344 C   0  0  0  0  0  0  0  0  0  0  0  0
   19.3321   19.2058   23.4442 H   0  0  0  0  0  0  0  0  0  0  0  0
   21.0433   19.2645   23.0130 H   0  0  0  0  0  0  0  0  0  0  0  0
   20.1610   17.2856   22.8573 C   0  0  0  0  0  0  0  0  0  0  0  0
   19.1959   16.8385   22.5812 H   0  0  0  0  0  0  0  0  0  0  0  0
   20.9070   16.8972   22.1501 H   0  0  0  0  0  0  0  0  0  0  0  0
   20.5364   16.8504   24.2879 C   0  0  0  0  0  0  0  0  0  0  0  0
   20.5915   15.7562   24.3575 H   0  0  0  0  0  0  0  0  0  0  0  0
   21.5134   17.2581   24.5789 H   0  0  0  0  0  0  0  0  0  0  0  0
   19.7895   17.1990   25.0133 H   0  0  0  0  0  0  0  0  0  0  0  0
  1  2  1  0  0  0  0
  1  3  2  0  0  0  0
  1  4  1  0  0  0  0
  4  5  1  0  0  0  0
  4  6  1  0  0  0  0
  4  7  1  0  0  0  0
  7  8  1  0  0  0  0
  7  9  1  0  0  0  0
  7 10  1  0  0  0  0
 10 11  1  0  0  0  0
 10 12  1  0  0  0  0
 10 13  1  0  0  0  0
 13 14  1  0  0  0  0
 13 15  1  0  0  0  0
 13 16  1  0  0  0  0
 16 17  1  0  0  0  0
 16 18  1  0  0  0  0
 16 19  1  0  0  0  0
M  END
> <VConfSearch Rank>
952

> <Conf_Id>
18

> <Delta U+W>
-1.199

> <U+W>
-56.090

> <U>
5.975

> <W>
-62.066

> <W(PB)>
-64.219

> <W(SA)>
2.153

> <Valence>
6.673

> <Coulomb>
-1.307

> <VdW>
0.610

> <VdW6>
-5.351

> <VdW12>
5.961

> <Bond>
0.086

> <Angle>
2.253

> <Pdih>
4.333

> <Idih>
0.001

> <Tether>
0.000

$$$$
VeraChem MOL file


 19 18  0  0  0  0  0  0  0  0999 V2000     
   17.6488   18.4674   24.3439 C   0  0  0  0  0  0  0  0  0  0  0  0
   17.7791   18.6854   25.5321 O   0  5  0  0  0  0  0  0  0  0  0  0
   16.5705   18.3671   23.7931 O   0  0  0  0  0  0  0  0  0  0  0  0
   18.9074   18.3335   23.4940 C   0  0  0  0  0  0  0  0  0  0  0  0
   18.6937   17.6175   22.6923 H   0  0  0  0  0  0  0  0  0  0  0  0
   19.6954   17.8967   24.1191 H   0  0  0  0  0  0  0  0  0  0  0  0
   19.3811   19.6879   22.9054 C   0  0  0  0  0  0  0  0  0  0  0  0
   18.6016   20.0941   22.2460 H   0  0  0  0  0  0  0  0  0  0  0  0
   19.4980   20.4077   23.7273 H   0  0  0  0  0  0  0  0  0  0  0  0
   20.7198   19.5927   22.1357 C   0  0  0  0  0  0  0  0  0  0  0  0
   21.4988   19.1943   22.8001 H   0  0  0  0  0  0  0  0  0  0  0  0
   21.0362   20.6080   21.8598 H   0  0  0  0  0  0  0  0  0  0  0  0
   20.6336   18.7289   20.8575 C   0  0  0  0  0  0  0  0  0  0  0  0
   20.3924   17.6900   21.1180 H   0  0  0  0  0  0  0  0  0  0  0  0
   19.8206   19.0961   20.2160 H   0  0  0  0  0  0  0  0  0  0  0  0
   21.9583   18.7531   20.0690 C   0  0  0  0  0  0  0  0  0  0  0  0
   21.8823   18.1331   19.1662 H   0  0  0  0  0  0  0  0  0  0  0  0
   22.2122   19.7749   19.7578 H   0  0  0  0  0  0  0  0  0  0  0  0
   22.7849   18.3647   20.6784 H   0  0  0  0  0  0  0  0  0  0  0  0
  1  2  1  0  0  0  0
  1  3  2  0  0  0  0
  1  4  1  0  0  0  0
  4  5  1  0  0  0  0
  4  6  1  0  0  0  0
  4  7  1  0  0  0  0
  7  8  1  0  0  0  0
  7  9  1  0  0  0  0
  7 10  1  0  0  0  0
 10 11  1  0  0  0  0
 10 12  1  0  0  0  0
 10 13  1  0  0  0  0
 13 14  1  0  0  0  0
 13 15  1  0  0  0  0
 13 16  1  0  0  0  0
 16 17  1  0  0  0  0
 16 18  1  0  0  0  0
 16 19  1  0  0  0  0
M  END
> <VConfSearch Rank>
953

> <Conf_Id>
34

> <Delta U+W>
-0.563

> <U+W>
-55.455

> <U>
6.914

> <W>
-62.369

> <W(PB)>
-64.446

> <W(SA)>
2.077

> <Valence>
7.196

> <Coulomb>
-1.020

> <VdW>
0.738

> <VdW6>
-6.010

> <VdW12>
6.748

> <Bond>
0.126

> <Angle>
2.499

> <Pdih>
4.570

> <Idih>
0.001

> <Tether>
0.000

$$$$
VeraChem MOL file


 19 18  0  0  0  0  0  0  0  0999 V2000     
   20.2452   16.4486   24.2185 C   0  0  0  0  0  0  0  0  0  0  0  0
   21.3096   15.9797   24.5699 O   0  5  0  0  0  0  0  0  0  0  0  0
   19.1852   15.8644   24.3251 O   0  0  0  0  0  0  0  0  0  0  0  0
   20.2425   17.8373   23.5892 C   0  0  0  0  0  0  0  0  0  0  0  0
   21.0534   18.4186   24.0441 H   0  0  0  0  0  0  0  0  0  0  0  0
   19.2998   18.3250   23.8617 H   0  0  0  0  0  0  0  0  0  0  0  0
   20.4122   17.7981   22.0481 C   0  0  0  0  0  0  0  0  0  0  0  0
   21.3179   17.2243   21.8078 H   0  0  0  0  0  0  0  0  0  0  0  0
   19.5708   17.2516   21.6001 H   0  0  0  0  0  0  0  0  0  0  0  0
   20.5279   19.1998   21.4035 C   0  0  0  0  0  0  0  0  0  0  0  0
   20.7632   19.0749   20.3376 H   0  0  0  0  0  0  0  0  0  0  0  0
   21.3751   19.7404   21.8475 H   0  0  0  0  0  0  0  0  0  0  0  0
   19.2420   20.0459   21.5379 C   0  0  0  0  0  0  0  0  0  0  0  0
   18.3855   19.4844   21.1401 H   0  0  0  0  0  0  0  0  0  0  0  0
   19.0301   20.2473   22.5962 H   0  0  0  0  0  0  0  0  0  0  0  0
   19.3675   21.3873   20.7880 C   0  0  0  0  0  0  0  0  0  0  0  0
   20.2007   21.9821   21.1846 H   0  0  0  0  0  0  0  0  0  0  0  0
   19.5421   21.2239   19.7165 H   0  0  0  0  0  0  0  0  0  0  0  0
   18.4483   21.9777   20.8952 H   0  0  0  0  0  0  0  0  0  0  0  0
  1  2  1  0  0  0  0
  1  3  2  0  0  0  0
  1  4  1  0  0  0  0
  4  5  1  0  0  0  0
  4  6  1  0  0  0  0
  4  7  1  0  0  0  0
  7  8  1  0  0  0  0
  7  9  1  0  0  0  0
  7 10  1  0  0  0  0
 10 11  1  0  0  0  0
 10 12  1  0  0  0  0
 10 13  1  0  0  0  0
 13 14  1  0  0  0  0
 13 15  1  0  0  0  0
 13 16  1  0  0  0  0
 16 17  1  0  0  0  0
 16 18  1  0  0  0  0
 16 19  1  0  0  0  0
M  END
> <VConfSearch Rank>
954

> <Conf_Id>
33

> <Delta U+W>
-0.526

> <U+W>
-55.418

> <U>
6.914

> <W>
-62.332

> <W(PB)>
-64.421

> <W(SA)>
2.090

> <Valence>
7.196

> <Coulomb>
-1.020

> <VdW>
0.738

> <VdW6>
-6.010

> <VdW12>
6.748

> <Bond>
0.126

> <Angle>
2.499

> <Pdih>
4.570

> <Idih>
0.001

> <Tether>
0.000

$$$$
VeraChem MOL file


 19 18  0  0  0  0  0  0  0  0999 V2000     
   18.8196   18.1904   25.1140 C   0  0  0  0  0  0  0  0  0  0  0  0
   19.7051   17.6689   25.7622 O   0  5  0  0  0  0  0  0  0  0  0  0
   17.9684   18.9111   25.5961 O   0  0  0  0  0  0  0  0  0  0  0  0
   18.7850   17.9411   23.6103 C   0  0  0  0  0  0  0  0  0  0  0  0
   17.7369   17.9499   23.2877 H   0  0  0  0  0  0  0  0  0  0  0  0
   19.1735   16.9328   23.4228 H   0  0  0  0  0  0  0  0  0  0  0  0
   19.6005   18.9848   22.8079 C   0  0  0  0  0  0  0  0  0  0  0  0
   19.2058   19.9894   23.0134 H   0  0  0  0  0  0  0  0  0  0  0  0
   20.6402   18.9708   23.1605 H   0  0  0  0  0  0  0  0  0  0  0  0
   19.5507   18.7058   21.2879 C   0  0  0  0  0  0  0  0  0  0  0  0
   18.5009   18.6529   20.9683 H   0  0  0  0  0  0  0  0  0  0  0  0
   19.9904   17.7213   21.0773 H   0  0  0  0  0  0  0  0  0  0  0  0
   20.2674   19.7836   20.4421 C   0  0  0  0  0  0  0  0  0  0  0  0
   20.0852   19.5761   19.3787 H   0  0  0  0  0  0  0  0  0  0  0  0
   19.8266   20.7693   20.6459 H   0  0  0  0  0  0  0  0  0  0  0  0
   21.7914   19.8363   20.6839 C   0  0  0  0  0  0  0  0  0  0  0  0
   22.2503   18.8535   20.5145 H   0  0  0  0  0  0  0  0  0  0  0  0
   22.2640   20.5524   19.9992 H   0  0  0  0  0  0  0  0  0  0  0  0
   22.0240   20.1534   21.7081 H   0  0  0  0  0  0  0  0  0  0  0  0
  1  2  1  0  0  0  0
  1  3  2  0  0  0  0
  1  4  1  0  0  0  0
  4  5  1  0  0  0  0
  4  6  1  0  0  0  0
  4  7  1  0  0  0  0
  7  8  1  0  0  0  0
  7  9  1  0  0  0  0
  7 10  1  0  0  0  0
 10 11  1  0  0  0  0
 10 12  1  0  0  0  0
 10 13  1  0  0  0  0
 13 14  1  0  0  0  0
 13 15  1  0  0  0  0
 13 16  1  0  0  0  0
 16 17  1  0  0  0  0
 16 18  1  0  0  0  0
 16 19  1  0  0  0  0
M  END
> <VConfSearch Rank>
955

> <Conf_Id>
42

> <Delta U+W>
-0.344

> <U+W>
-55.236

> <U>
7.244

> <W>
-62.479

> <W(PB)>
-64.610

> <W(SA)>
2.130

> <Valence>
7.174

> <Coulomb>
-0.669

> <VdW>
0.739

> <VdW6>
-5.969

> <VdW12>
6.708

> <Bond>
0.116

> <Angle>
2.481

> <Pdih>
4.576

> <Idih>
0.000

> <Tether>
0.000

$$$$
VeraChem MOL file


 19 18  0  0  0  0  0  0  0  0999 V2000     
   22.5323   20.7143   23.1232 C   0  0  0  0  0  0  0  0  0  0  0  0
   22.9460   21.3482   22.1729 O   0  5  0  0  0  0  0  0  0  0  0  0
   23.2484   20.2699   23.9984 O   0  0  0  0  0  0  0  0  0  0  0  0
   21.0341   20.4461   23.2131 C   0  0  0  0  0  0  0  0  0  0  0  0
   20.5078   21.2970   22.7641 H   0  0  0  0  0  0  0  0  0  0  0  0
   20.7566   20.4162   24.2737 H   0  0  0  0  0  0  0  0  0  0  0  0
   20.6149   19.1298   22.5132 C   0  0  0  0  0  0  0  0  0  0  0  0
   20.9192   19.1753   21.4592 H   0  0  0  0  0  0  0  0  0  0  0  0
   21.1570   18.2889   22.9673 H   0  0  0  0  0  0  0  0  0  0  0  0
   19.0917   18.8853   22.6167 C   0  0  0  0  0  0  0  0  0  0  0  0
   18.5507   19.7019   22.1193 H   0  0  0  0  0  0  0  0  0  0  0  0
   18.7959   18.9147   23.6744 H   0  0  0  0  0  0  0  0  0  0  0  0
   18.6455   17.5306   22.0198 C   0  0  0  0  0  0  0  0  0  0  0  0
   19.1804   16.7107   22.5188 H   0  0  0  0  0  0  0  0  0  0  0  0
   17.5788   17.3833   22.2383 H   0  0  0  0  0  0  0  0  0  0  0  0
   18.8576   17.4360   20.4934 C   0  0  0  0  0  0  0  0  0  0  0  0
   19.9234   17.4631   20.2345 H   0  0  0  0  0  0  0  0  0  0  0  0
   18.4457   16.4950   20.1064 H   0  0  0  0  0  0  0  0  0  0  0  0
   18.3555   18.2632   19.9750 H   0  0  0  0  0  0  0  0  0  0  0  0
  1  2  1  0  0  0  0
  1  3  2  0  0  0  0
  1  4  1  0  0  0  0
  4  5  1  0  0  0  0
  4  6  1  0  0  0  0
  4  7  1  0  0  0  0
  7  8  1  0  0  0  0
  7  9  1  0  0  0  0
  7 10  1  0  0  0  0
 10 11  1  0  0  0  0
 10 12  1  0  0  0  0
 10 13  1  0  0  0  0
 13 14  1  0  0  0  0
 13 15  1  0  0  0  0
 13 16  1  0  0  0  0
 16 17  1  0  0  0  0
 16 18  1  0  0  0  0
 16 19  1  0  0  0  0
M  END
> <VConfSearch Rank>
956

> <Conf_Id>
41

> <Delta U+W>
-0.361

> <U+W>
-55.252

> <U>
7.244

> <W>
-62.496

> <W(PB)>
-64.596

> <W(SA)>
2.099

> <Valence>
7.174

> <Coulomb>
-0.669

> <VdW>
0.739

> <VdW6>
-5.969

> <VdW12>
6.708

> <Bond>
0.116

> <Angle>
2.481

> <Pdih>
4.576

> <Idih>
0.000

> <Tether>
0.000

$$$$
VeraChem MOL file


 19 18  0  0  0  0  0  0  0  0999 V2000     
   19.4095   20.9171   24.4138 C   0  0  0  0  0  0  0  0  0  0  0  0
   19.0937   20.1805   25.3271 O   0  5  0  0  0  0  0  0  0  0  0  0
   20.2763   21.7640   24.5028 O   0  0  0  0  0  0  0  0  0  0  0  0
   18.6632   20.7881   23.0887 C   0  0  0  0  0  0  0  0  0  0  0  0
   18.3935   21.8001   22.7644 H   0  0  0  0  0  0  0  0  0  0  0  0
   17.7237   20.2509   23.2665 H   0  0  0  0  0  0  0  0  0  0  0  0
   19.4777   20.0863   21.9710 C   0  0  0  0  0  0  0  0  0  0  0  0
   18.9236   20.1618   21.0255 H   0  0  0  0  0  0  0  0  0  0  0  0
   20.4278   20.6186   21.8242 H   0  0  0  0  0  0  0  0  0  0  0  0
   19.7540   18.5983   22.2820 C   0  0  0  0  0  0  0  0  0  0  0  0
   18.8019   18.0735   22.4407 H   0  0  0  0  0  0  0  0  0  0  0  0
   20.3231   18.5151   23.2182 H   0  0  0  0  0  0  0  0  0  0  0  0
   20.5374   17.9127   21.1432 C   0  0  0  0  0  0  0  0  0  0  0  0
   19.9709   17.9891   20.2048 H   0  0  0  0  0  0  0  0  0  0  0  0
   21.4914   18.4342   20.9840 H   0  0  0  0  0  0  0  0  0  0  0  0
   20.8114   16.4282   21.4565 C   0  0  0  0  0  0  0  0  0  0  0  0
   19.8724   15.8751   21.5897 H   0  0  0  0  0  0  0  0  0  0  0  0
   21.3694   15.9564   20.6371 H   0  0  0  0  0  0  0  0  0  0  0  0
   21.4042   16.3236   22.3747 H   0  0  0  0  0  0  0  0  0  0  0  0
  1  2  1  0  0  0  0
  1  3  2  0  0  0  0
  1  4  1  0  0  0  0
  4  5  1  0  0  0  0
  4  6  1  0  0  0  0
  4  7  1  0  0  0  0
  7  8  1  0  0  0  0
  7  9  1  0  0  0  0
  7 10  1  0  0  0  0
 10 11  1  0  0  0  0
 10 12  1  0  0  0  0
 10 13  1  0  0  0  0
 13 14  1  0  0  0  0
 13 15  1  0  0  0  0
 13 16  1  0  0  0  0
 16 17  1  0  0  0  0
 16 18  1  0  0  0  0
 16 19  1  0  0  0  0
M  END
> <VConfSearch Rank>
957

> <Conf_Id>
36

> <Delta U+W>
-0.079

> <U+W>
-54.971

> <U>
8.266

> <W>
-63.237

> <W(PB)>
-65.340

> <W(SA)>
2.103

> <Valence>
6.935

> <Coulomb>
0.874

> <VdW>
0.457

> <VdW6>
-6.205

> <VdW12>
6.662

> <Bond>
0.107

> <Angle>
2.420

> <Pdih>
4.407

> <Idih>
0.001

> <Tether>
0.000

$$$$
VeraChem MOL file


 19 18  0  0  0  0  0  0  0  0999 V2000     
   21.0775   19.6948   19.7395 C   0  0  0  0  0  0  0  0  0  0  0  0
   21.6538   20.7295   20.0113 O   0  5  0  0  0  0  0  0  0  0  0  0
   20.2505   19.5990   18.8543 O   0  0  0  0  0  0  0  0  0  0  0  0
   21.4253   18.4414   20.5378 C   0  0  0  0  0  0  0  0  0  0  0  0
   22.3892   18.5997   21.0365 H   0  0  0  0  0  0  0  0  0  0  0  0
   21.5697   17.6251   19.8201 H   0  0  0  0  0  0  0  0  0  0  0  0
   20.3467   18.0338   21.5749 C   0  0  0  0  0  0  0  0  0  0  0  0
   19.3814   17.9067   21.0653 H   0  0  0  0  0  0  0  0  0  0  0  0
   20.6117   17.0557   21.9988 H   0  0  0  0  0  0  0  0  0  0  0  0
   20.2034   19.0626   22.7187 C   0  0  0  0  0  0  0  0  0  0  0  0
   19.9215   20.0404   22.3041 H   0  0  0  0  0  0  0  0  0  0  0  0
   21.1737   19.1958   23.2165 H   0  0  0  0  0  0  0  0  0  0  0  0
   19.1483   18.6218   23.7546 C   0  0  0  0  0  0  0  0  0  0  0  0
   18.1761   18.4901   23.2598 H   0  0  0  0  0  0  0  0  0  0  0  0
   19.4272   17.6460   24.1760 H   0  0  0  0  0  0  0  0  0  0  0  0
   19.0076   19.6503   24.8945 C   0  0  0  0  0  0  0  0  0  0  0  0
   18.6986   20.6289   24.5043 H   0  0  0  0  0  0  0  0  0  0  0  0
   18.2535   19.3216   25.6214 H   0  0  0  0  0  0  0  0  0  0  0  0
   19.9590   19.7786   25.4273 H   0  0  0  0  0  0  0  0  0  0  0  0
  1  2  1  0  0  0  0
  1  3  2  0  0  0  0
  1  4  1  0  0  0  0
  4  5  1  0  0  0  0
  4  6  1  0  0  0  0
  4  7  1  0  0  0  0
  7  8  1  0  0  0  0
  7  9  1  0  0  0  0
  7 10  1  0  0  0  0
 10 11  1  0  0  0  0
 10 12  1  0  0  0  0
 10 13  1  0  0  0  0
 13 14  1  0  0  0  0
 13 15  1  0  0  0  0
 13 16  1  0  0  0  0
 16 17  1  0  0  0  0
 16 18  1  0  0  0  0
 16 19  1  0  0  0  0
M  END
> <VConfSearch Rank>
958

> <Conf_Id>
35

> <Delta U+W>
-0.030

> <U+W>
-54.921

> <U>
8.267

> <W>
-63.188

> <W(PB)>
-65.294

> <W(SA)>
2.106

> <Valence>
6.935

> <Coulomb>
0.875

> <VdW>
0.457

> <VdW6>
-6.205

> <VdW12>
6.662

> <Bond>
0.107

> <Angle>
2.420

> <Pdih>
4.407

> <Idih>
0.001

> <Tether>
0.000

$$$$
VeraChem MOL file


 19 18  0  0  0  0  0  0  0  0999 V2000     
   21.9601   19.0789   24.5456 C   0  0  0  0  0  0  0  0  0  0  0  0
   21.8624   20.1200   25.1647 O   0  5  0  0  0  0  0  0  0  0  0  0
   23.0196   18.6194   24.1673 O   0  0  0  0  0  0  0  0  0  0  0  0
   20.6840   18.2969   24.2468 C   0  0  0  0  0  0  0  0  0  0  0  0
   20.0963   18.2639   25.1719 H   0  0  0  0  0  0  0  0  0  0  0  0
   20.9551   17.2617   24.0062 H   0  0  0  0  0  0  0  0  0  0  0  0
   19.8222   18.9025   23.1083 C   0  0  0  0  0  0  0  0  0  0  0  0
   18.8648   18.3672   23.0740 H   0  0  0  0  0  0  0  0  0  0  0  0
   19.5918   19.9506   23.3444 H   0  0  0  0  0  0  0  0  0  0  0  0
   20.5162   18.8160   21.7279 C   0  0  0  0  0  0  0  0  0  0  0  0
   20.7110   17.7645   21.4765 H   0  0  0  0  0  0  0  0  0  0  0  0
   21.4972   19.3073   21.7856 H   0  0  0  0  0  0  0  0  0  0  0  0
   19.7055   19.4789   20.5902 C   0  0  0  0  0  0  0  0  0  0  0  0
   19.5109   20.5315   20.8380 H   0  0  0  0  0  0  0  0  0  0  0  0
   20.3179   19.4830   19.6780 H   0  0  0  0  0  0  0  0  0  0  0  0
   18.3722   18.7605   20.2896 C   0  0  0  0  0  0  0  0  0  0  0  0
   17.6780   18.8328   21.1360 H   0  0  0  0  0  0  0  0  0  0  0  0
   17.8811   19.2125   19.4182 H   0  0  0  0  0  0  0  0  0  0  0  0
   18.5393   17.6979   20.0700 H   0  0  0  0  0  0  0  0  0  0  0  0
  1  2  1  0  0  0  0
  1  3  2  0  0  0  0
  1  4  1  0  0  0  0
  4  5  1  0  0  0  0
  4  6  1  0  0  0  0
  4  7  1  0  0  0  0
  7  8  1  0  0  0  0
  7  9  1  0  0  0  0
  7 10  1  0  0  0  0
 10 11  1  0  0  0  0
 10 12  1  0  0  0  0
 10 13  1  0  0  0  0
 13 14  1  0  0  0  0
 13 15  1  0  0  0  0
 13 16  1  0  0  0  0
 16 17  1  0  0  0  0
 16 18  1  0  0  0  0
 16 19  1  0  0  0  0
M  END
> <VConfSearch Rank>
959

> <Conf_Id>
74

> <Delta U+W>
0.797

> <U+W>
-54.095

> <U>
8.869

> <W>
-62.964

> <W(PB)>
-65.046

> <W(SA)>
2.082

> <Valence>
7.469

> <Coulomb>
0.762

> <VdW>
0.639

> <VdW6>
-6.782

> <VdW12>
7.421

> <Bond>
0.141

> <Angle>
2.667

> <Pdih>
4.660

> <Idih>
0.001

> <Tether>
0.000

$$$$
VeraChem MOL file


 19 18  0  0  0  0  0  0  0  0999 V2000     
   18.1310   16.6625   22.5045 C   0  0  0  0  0  0  0  0  0  0  0  0
   17.0634   16.4876   21.9512 O   0  5  0  0  0  0  0  0  0  0  0  0
   18.8161   15.7602   22.9436 O   0  0  0  0  0  0  0  0  0  0  0  0
   18.6472   18.0907   22.6381 C   0  0  0  0  0  0  0  0  0  0  0  0
   19.2220   18.1521   23.5692 H   0  0  0  0  0  0  0  0  0  0  0  0
   17.7830   18.7574   22.7436 H   0  0  0  0  0  0  0  0  0  0  0  0
   19.5176   18.5301   21.4323 C   0  0  0  0  0  0  0  0  0  0  0  0
   20.3993   17.8797   21.3595 H   0  0  0  0  0  0  0  0  0  0  0  0
   18.9455   18.3704   20.5080 H   0  0  0  0  0  0  0  0  0  0  0  0
   19.9534   20.0158   21.4918 C   0  0  0  0  0  0  0  0  0  0  0  0
   19.0576   20.6508   21.4604 H   0  0  0  0  0  0  0  0  0  0  0  0
   20.5245   20.2522   20.5836 H   0  0  0  0  0  0  0  0  0  0  0  0
   20.7978   20.4067   22.7295 C   0  0  0  0  0  0  0  0  0  0  0  0
   21.0320   21.4784   22.6685 H   0  0  0  0  0  0  0  0  0  0  0  0
   20.2086   20.2771   23.6470 H   0  0  0  0  0  0  0  0  0  0  0  0
   22.1188   19.6158   22.8431 C   0  0  0  0  0  0  0  0  0  0  0  0
   22.7148   19.7126   21.9263 H   0  0  0  0  0  0  0  0  0  0  0  0
   22.7211   19.9921   23.6800 H   0  0  0  0  0  0  0  0  0  0  0  0
   21.9309   18.5495   23.0217 H   0  0  0  0  0  0  0  0  0  0  0  0
  1  2  1  0  0  0  0
  1  3  2  0  0  0  0
  1  4  1  0  0  0  0
  4  5  1  0  0  0  0
  4  6  1  0  0  0  0
  4  7  1  0  0  0  0
  7  8  1  0  0  0  0
  7  9  1  0  0  0  0
  7 10  1  0  0  0  0
 10 11  1  0  0  0  0
 10 12  1  0  0  0  0
 10 13  1  0  0  0  0
 13 14  1  0  0  0  0
 13 15  1  0  0  0  0
 13 16  1  0  0  0  0
 16 17  1  0  0  0  0
 16 18  1  0  0  0  0
 16 19  1  0  0  0  0
M  END
> <VConfSearch Rank>
960

> <Conf_Id>
67

> <Delta U+W>
0.308

> <U+W>
-54.583

> <U>
8.219

> <W>
-62.802

> <W(PB)>
-64.859

> <W(SA)>
2.057

> <Valence>
7.609

> <Coulomb>
-0.089

> <VdW>
0.699

> <VdW6>
-6.924

> <VdW12>
7.623

> <Bond>
0.163

> <Angle>
2.870

> <Pdih>
4.576

> <Idih>
0.001

> <Tether>
0.000

$$$$
VeraChem MOL file


 19 18  0  0  0  0  0  0  0  0999 V2000     
   21.8157   18.5828   20.0396 C   0  0  0  0  0  0  0  0  0  0  0  0
   22.9267   18.0913   20.0178 O   0  5  0  0  0  0  0  0  0  0  0  0
   21.4144   19.3740   19.2093 O   0  0  0  0  0  0  0  0  0  0  0  0
   20.8814   18.2002   21.1820 C   0  0  0  0  0  0  0  0  0  0  0  0
   21.1026   17.1660   21.4717 H   0  0  0  0  0  0  0  0  0  0  0  0
   19.8562   18.2183   20.7950 H   0  0  0  0  0  0  0  0  0  0  0  0
   21.0160   19.1397   22.4082 C   0  0  0  0  0  0  0  0  0  0  0  0
   22.0707   19.1702   22.7148 H   0  0  0  0  0  0  0  0  0  0  0  0
   20.7554   20.1655   22.1154 H   0  0  0  0  0  0  0  0  0  0  0  0
   20.1622   18.6981   23.6234 C   0  0  0  0  0  0  0  0  0  0  0  0
   20.3505   19.3892   24.4563 H   0  0  0  0  0  0  0  0  0  0  0  0
   20.5093   17.7127   23.9628 H   0  0  0  0  0  0  0  0  0  0  0  0
   18.6366   18.6275   23.3672 C   0  0  0  0  0  0  0  0  0  0  0  0
   18.4142   17.8651   22.6091 H   0  0  0  0  0  0  0  0  0  0  0  0
   18.1426   18.2915   24.2892 H   0  0  0  0  0  0  0  0  0  0  0  0
   18.0250   19.9795   22.9410 C   0  0  0  0  0  0  0  0  0  0  0  0
   18.4067   20.2991   21.9631 H   0  0  0  0  0  0  0  0  0  0  0  0
   16.9332   19.8992   22.8618 H   0  0  0  0  0  0  0  0  0  0  0  0
   18.2548   20.7633   23.6744 H   0  0  0  0  0  0  0  0  0  0  0  0
  1  2  1  0  0  0  0
  1  3  2  0  0  0  0
  1  4  1  0  0  0  0
  4  5  1  0  0  0  0
  4  6  1  0  0  0  0
  4  7  1  0  0  0  0
  7  8  1  0  0  0  0
  7  9  1  0  0  0  0
  7 10  1  0  0  0  0
 10 11  1  0  0  0  0
 10 12  1  0  0  0  0
 10 13  1  0  0  0  0
 13 14  1  0  0  0  0
 13 15  1  0  0  0  0
 13 16  1  0  0  0  0
 16 17  1  0  0  0  0
 16 18  1  0  0  0  0
 16 19  1  0  0  0  0
M  END
> <VConfSearch Rank>
961

> <Conf_Id>
21

> <Delta U+W>
0.319

> <U+W>
-54.572

> <U>
8.220

> <W>
-62.792

> <W(PB)>
-64.830

> <W(SA)>
2.038

> <Valence>
7.609

> <Coulomb>
-0.088

> <VdW>
0.699

> <VdW6>
-6.924

> <VdW12>
7.623

> <Bond>
0.163

> <Angle>
2.870

> <Pdih>
4.576

> <Idih>
0.000

> <Tether>
0.000

$$$$
VeraChem MOL file


 19 18  0  0  0  0  0  0  0  0999 V2000     
   21.0960   21.5791   22.0587 C   0  0  0  0  0  0  0  0  0  0  0  0
   21.6189   22.3002   22.8851 O   0  5  0  0  0  0  0  0  0  0  0  0
   21.2814   21.6831   20.8624 O   0  0  0  0  0  0  0  0  0  0  0  0
   20.1713   20.4718   22.5515 C   0  0  0  0  0  0  0  0  0  0  0  0
   19.3975   20.3182   21.7929 H   0  0  0  0  0  0  0  0  0  0  0  0
   19.6650   20.8313   23.4553 H   0  0  0  0  0  0  0  0  0  0  0  0
   20.9253   19.1502   22.8552 C   0  0  0  0  0  0  0  0  0  0  0  0
   21.4811   18.8190   21.9671 H   0  0  0  0  0  0  0  0  0  0  0  0
   21.6791   19.3611   23.6264 H   0  0  0  0  0  0  0  0  0  0  0  0
   20.0005   18.0152   23.3636 C   0  0  0  0  0  0  0  0  0  0  0  0
   19.1415   18.4367   23.9033 H   0  0  0  0  0  0  0  0  0  0  0  0
   20.5586   17.4262   24.1042 H   0  0  0  0  0  0  0  0  0  0  0  0
   19.5120   17.0387   22.2655 C   0  0  0  0  0  0  0  0  0  0  0  0
   20.3772   16.5549   21.7915 H   0  0  0  0  0  0  0  0  0  0  0  0
   18.9357   16.2355   22.7451 H   0  0  0  0  0  0  0  0  0  0  0  0
   18.6347   17.6950   21.1796 C   0  0  0  0  0  0  0  0  0  0  0  0
   18.2163   16.9313   20.5114 H   0  0  0  0  0  0  0  0  0  0  0  0
   17.7988   18.2473   21.6283 H   0  0  0  0  0  0  0  0  0  0  0  0
   19.2210   18.3874   20.5626 H   0  0  0  0  0  0  0  0  0  0  0  0
  1  2  1  0  0  0  0
  1  3  2  0  0  0  0
  1  4  1  0  0  0  0
  4  5  1  0  0  0  0
  4  6  1  0  0  0  0
  4  7  1  0  0  0  0
  7  8  1  0  0  0  0
  7  9  1  0  0  0  0
  7 10  1  0  0  0  0
 10 11  1  0  0  0  0
 10 12  1  0  0  0  0
 10 13  1  0  0  0  0
 13 14  1  0  0  0  0
 13 15  1  0  0  0  0
 13 16  1  0  0  0  0
 16 17  1  0  0  0  0
 16 18  1  0  0  0  0
 16 19  1  0  0  0  0
M  END
> <VConfSearch Rank>
962

> <Conf_Id>
24

> <Delta U+W>
2.477

> <U+W>
-52.414

> <U>
10.422

> <W>
-62.836

> <W(PB)>
-64.906

> <W(SA)>
2.070

> <Valence>
9.628

> <Coulomb>
0.101

> <VdW>
0.693

> <VdW6>
-6.927

> <VdW12>
7.620

> <Bond>
0.173

> <Angle>
2.989

> <Pdih>
6.465

> <Idih>
0.001

> <Tether>
0.000

$$$$
VeraChem MOL file


 19 18  0  0  0  0  0  0  0  0999 V2000     
   21.3409   17.6226   24.0261 C   0  0  0  0  0  0  0  0  0  0  0  0
   22.3443   18.3005   23.9241 O   0  5  0  0  0  0  0  0  0  0  0  0
   21.0456   17.0089   25.0327 O   0  0  0  0  0  0  0  0  0  0  0  0
   20.4150   17.5106   22.8176 C   0  0  0  0  0  0  0  0  0  0  0  0
   20.2007   16.4454   22.6719 H   0  0  0  0  0  0  0  0  0  0  0  0
   20.9629   17.8442   21.9307 H   0  0  0  0  0  0  0  0  0  0  0  0
   19.0777   18.2868   22.9728 C   0  0  0  0  0  0  0  0  0  0  0  0
   18.3851   17.9988   22.1705 H   0  0  0  0  0  0  0  0  0  0  0  0
   18.6044   17.9638   23.9105 H   0  0  0  0  0  0  0  0  0  0  0  0
   19.2366   19.8294   22.9991 C   0  0  0  0  0  0  0  0  0  0  0  0
   20.2095   20.1090   23.4259 H   0  0  0  0  0  0  0  0  0  0  0  0
   18.4824   20.2378   23.6854 H   0  0  0  0  0  0  0  0  0  0  0  0
   19.0418   20.5221   21.6279 C   0  0  0  0  0  0  0  0  0  0  0  0
   18.0326   20.3114   21.2480 H   0  0  0  0  0  0  0  0  0  0  0  0
   19.0931   21.6094   21.7771 H   0  0  0  0  0  0  0  0  0  0  0  0
   20.0841   20.1204   20.5640 C   0  0  0  0  0  0  0  0  0  0  0  0
   19.9555   19.0743   20.2596 H   0  0  0  0  0  0  0  0  0  0  0  0
   19.9751   20.7417   19.6658 H   0  0  0  0  0  0  0  0  0  0  0  0
   21.1055   20.2506   20.9450 H   0  0  0  0  0  0  0  0  0  0  0  0
  1  2  1  0  0  0  0
  1  3  2  0  0  0  0
  1  4  1  0  0  0  0
  4  5  1  0  0  0  0
  4  6  1  0  0  0  0
  4  7  1  0  0  0  0
  7  8  1  0  0  0  0
  7  9  1  0  0  0  0
  7 10  1  0  0  0  0
 10 11  1  0  0  0  0
 10 12  1  0  0  0  0
 10 13  1  0  0  0  0
 13 14  1  0  0  0  0
 13 15  1  0  0  0  0
 13 16  1  0  0  0  0
 16 17  1  0  0  0  0
 16 18  1  0  0  0  0
 16 19  1  0  0  0  0
M  END
> <VConfSearch Rank>
963

> <Conf_Id>
4

> <Delta U+W>
3.753

> <U+W>
-51.138

> <U>
12.334

> <W>
-63.472

> <W(PB)>
-65.500

> <W(SA)>
2.028

> <Valence>
9.984

> <Coulomb>
1.767

> <VdW>
0.583

> <VdW6>
-7.767

> <VdW12>
8.349

> <Bond>
0.203

> <Angle>
3.191

> <Pdih>
6.589

> <Idih>
0.001

> <Tether>
0.000

$$$$
VeraChem MOL file


 19 18  0  0  0  0  0  0  0  0999 V2000     
   19.8762   21.4117   23.1091 C   0  0  0  0  0  0  0  0  0  0  0  0
   20.5935   22.0410   23.8618 O   0  5  0  0  0  0  0  0  0  0  0  0
   19.4895   21.8375   22.0387 O   0  0  0  0  0  0  0  0  0  0  0  0
   19.4145   20.0243   23.5477 C   0  0  0  0  0  0  0  0  0  0  0  0
   18.5545   19.7368   22.9346 H   0  0  0  0  0  0  0  0  0  0  0  0
   19.0494   20.1153   24.5774 H   0  0  0  0  0  0  0  0  0  0  0  0
   20.5276   18.9414   23.4915 C   0  0  0  0  0  0  0  0  0  0  0  0
   21.3895   19.3104   24.0646 H   0  0  0  0  0  0  0  0  0  0  0  0
   20.1890   18.0328   24.0073 H   0  0  0  0  0  0  0  0  0  0  0  0
   20.9972   18.5853   22.0569 C   0  0  0  0  0  0  0  0  0  0  0  0
   22.0730   18.3666   22.0952 H   0  0  0  0  0  0  0  0  0  0  0  0
   20.8938   19.4532   21.3914 H   0  0  0  0  0  0  0  0  0  0  0  0
   20.2939   17.3543   21.4340 C   0  0  0  0  0  0  0  0  0  0  0  0
   20.7579   17.1443   20.4605 H   0  0  0  0  0  0  0  0  0  0  0  0
   20.4769   16.4693   22.0589 H   0  0  0  0  0  0  0  0  0  0  0  0
   18.7754   17.5317   21.2288 C   0  0  0  0  0  0  0  0  0  0  0  0
   18.5587   18.4514   20.6696 H   0  0  0  0  0  0  0  0  0  0  0  0
   18.3628   16.6858   20.6640 H   0  0  0  0  0  0  0  0  0  0  0  0
   18.2488   17.5752   22.1902 H   0  0  0  0  0  0  0  0  0  0  0  0
  1  2  1  0  0  0  0
  1  3  2  0  0  0  0
  1  4  1  0  0  0  0
  4  5  1  0  0  0  0
  4  6  1  0  0  0  0
  4  7  1  0  0  0  0
  7  8  1  0  0  0  0
  7  9  1  0  0  0  0
  7 10  1  0  0  0  0
 10 11  1  0  0  0  0
 10 12  1  0  0  0  0
 10 13  1  0  0  0  0
 13 14  1  0  0  0  0
 13 15  1  0  0  0  0
 13 16  1  0  0  0  0
 16 17  1  0  0  0  0
 16 18  1  0  0  0  0
 16 19  1  0  0  0  0
M  END
> <VConfSearch Rank>
964

> <Conf_Id>
73

> <Delta U+W>
3.707

> <U+W>
-51.184

> <U>
12.334

> <W>
-63.519

> <W(PB)>
-65.541

> <W(SA)>
2.022

> <Valence>
9.984

> <Coulomb>
1.768

> <VdW>
0.583

> <VdW6>
-7.767

> <VdW12>
8.350

> <Bond>
0.203

> <Angle>
3.192

> <Pdih>
6.589

> <Idih>
0.001

> <Tether>
0.000

$$$$
VeraChem MOL file


 19 18  0  0  0  0  0  0  0  0999 V2000     
   22.3074   19.7604   22.0858 C   0  0  0  0  0  0  0  0  0  0  0  0
   22.1320   20.4276   21.0854 O   0  5  0  0  0  0  0  0  0  0  0  0
   23.1287   20.0334   22.9390 O   0  0  0  0  0  0  0  0  0  0  0  0
   21.4756   18.4937   22.2674 C   0  0  0  0  0  0  0  0  0  0  0  0
   22.1704   17.6769   22.4951 H   0  0  0  0  0  0  0  0  0  0  0  0
   21.0041   18.2422   21.3105 H   0  0  0  0  0  0  0  0  0  0  0  0
   20.4095   18.5899   23.3928 C   0  0  0  0  0  0  0  0  0  0  0  0
   19.9120   17.6178   23.5036 H   0  0  0  0  0  0  0  0  0  0  0  0
   20.9213   18.7771   24.3468 H   0  0  0  0  0  0  0  0  0  0  0  0
   19.3465   19.6975   23.1750 C   0  0  0  0  0  0  0  0  0  0  0  0
   19.8428   20.6776   23.1870 H   0  0  0  0  0  0  0  0  0  0  0  0
   18.6575   19.6977   24.0305 H   0  0  0  0  0  0  0  0  0  0  0  0
   18.5236   19.5740   21.8693 C   0  0  0  0  0  0  0  0  0  0  0  0
   17.8210   20.4170   21.8182 H   0  0  0  0  0  0  0  0  0  0  0  0
   19.1828   19.6764   20.9968 H   0  0  0  0  0  0  0  0  0  0  0  0
   17.7260   18.2558   21.7707 C   0  0  0  0  0  0  0  0  0  0  0  0
   18.3953   17.3888   21.7040 H   0  0  0  0  0  0  0  0  0  0  0  0
   17.0760   18.1236   22.6454 H   0  0  0  0  0  0  0  0  0  0  0  0
   17.0922   18.2566   20.8746 H   0  0  0  0  0  0  0  0  0  0  0  0
  1  2  1  0  0  0  0
  1  3  2  0  0  0  0
  1  4  1  0  0  0  0
  4  5  1  0  0  0  0
  4  6  1  0  0  0  0
  4  7  1  0  0  0  0
  7  8  1  0  0  0  0
  7  9  1  0  0  0  0
  7 10  1  0  0  0  0
 10 11  1  0  0  0  0
 10 12  1  0  0  0  0
 10 13  1  0  0  0  0
 13 14  1  0  0  0  0
 13 15  1  0  0  0  0
 13 16  1  0  0  0  0
 16 17  1  0  0  0  0
 16 18  1  0  0  0  0
 16 19  1  0  0  0  0
M  END
> <VConfSearch Rank>
965

> <Conf_Id>
56

> <Delta U+W>
1.735

> <U+W>
-53.156

> <U>
10.214

> <W>
-63.370

> <W(PB)>
-65.388

> <W(SA)>
2.018

> <Valence>
7.868

> <Coulomb>
1.968

> <VdW>
0.378

> <VdW6>
-8.067

> <VdW12>
8.445

> <Bond>
0.191

> <Angle>
3.117

> <Pdih>
4.559

> <Idih>
0.001

> <Tether>
0.000

$$$$
VeraChem MOL file


 19 18  0  0  0  0  0  0  0  0999 V2000     
   21.6782   16.6401   22.8438 C   0  0  0  0  0  0  0  0  0  0  0  0
   22.8807   16.6566   22.6704 O   0  5  0  0  0  0  0  0  0  0  0  0
   21.0453   15.6273   23.0673 O   0  0  0  0  0  0  0  0  0  0  0  0
   20.9194   17.9594   22.7545 C   0  0  0  0  0  0  0  0  0  0  0  0
   21.5856   18.7604   23.0966 H   0  0  0  0  0  0  0  0  0  0  0  0
   20.0791   17.9064   23.4557 H   0  0  0  0  0  0  0  0  0  0  0  0
   20.4075   18.2624   21.3237 C   0  0  0  0  0  0  0  0  0  0  0  0
   21.2481   18.1683   20.6224 H   0  0  0  0  0  0  0  0  0  0  0  0
   19.6763   17.4961   21.0315 H   0  0  0  0  0  0  0  0  0  0  0  0
   19.7820   19.6697   21.1536 C   0  0  0  0  0  0  0  0  0  0  0  0
   19.5092   19.7839   20.0955 H   0  0  0  0  0  0  0  0  0  0  0  0
   20.5354   20.4441   21.3526 H   0  0  0  0  0  0  0  0  0  0  0  0
   18.5148   19.9221   22.0077 C   0  0  0  0  0  0  0  0  0  0  0  0
   17.8224   20.5503   21.4303 H   0  0  0  0  0  0  0  0  0  0  0  0
   17.9862   18.9771   22.1943 H   0  0  0  0  0  0  0  0  0  0  0  0
   18.8118   20.6427   23.3416 C   0  0  0  0  0  0  0  0  0  0  0  0
   17.8825   20.8136   23.9002 H   0  0  0  0  0  0  0  0  0  0  0  0
   19.4835   20.0593   23.9811 H   0  0  0  0  0  0  0  0  0  0  0  0
   19.2791   21.6196   23.1616 H   0  0  0  0  0  0  0  0  0  0  0  0
  1  2  1  0  0  0  0
  1  3  2  0  0  0  0
  1  4  1  0  0  0  0
  4  5  1  0  0  0  0
  4  6  1  0  0  0  0
  4  7  1  0  0  0  0
  7  8  1  0  0  0  0
  7  9  1  0  0  0  0
  7 10  1  0  0  0  0
 10 11  1  0  0  0  0
 10 12  1  0  0  0  0
 10 13  1  0  0  0  0
 13 14  1  0  0  0  0
 13 15  1  0  0  0  0
 13 16  1  0  0  0  0
 16 17  1  0  0  0  0
 16 18  1  0  0  0  0
 16 19  1  0  0  0  0
M  END
> <VConfSearch Rank>
966

> <Conf_Id>
53

> <Delta U+W>
2.279

> <U+W>
-52.612

> <U>
10.231

> <W>
-62.843

> <W(PB)>
-64.893

> <W(SA)>
2.050

> <Valence>
9.644

> <Coulomb>
-0.164

> <VdW>
0.751

> <VdW6>
-6.881

> <VdW12>
7.631

> <Bond>
0.163

> <Angle>
2.998

> <Pdih>
6.482

> <Idih>
0.001

> <Tether>
0.000

$$$$
VeraChem MOL file


 19 18  0  0  0  0  0  0  0  0999 V2000     
   21.8543   18.3211   24.1298 C   0  0  0  0  0  0  0  0  0  0  0  0
   22.3868   17.3429   23.6436 O   0  5  0  0  0  0  0  0  0  0  0  0
   21.3440   18.3268   25.2329 O   0  0  0  0  0  0  0  0  0  0  0  0
   21.8917   19.6285   23.3407 C   0  0  0  0  0  0  0  0  0  0  0  0
   22.4323   19.4627   22.4009 H   0  0  0  0  0  0  0  0  0  0  0  0
   22.4957   20.3275   23.9306 H   0  0  0  0  0  0  0  0  0  0  0  0
   20.5055   20.2730   23.0575 C   0  0  0  0  0  0  0  0  0  0  0  0
   19.8874   20.2466   23.9658 H   0  0  0  0  0  0  0  0  0  0  0  0
   20.6659   21.3361   22.8324 H   0  0  0  0  0  0  0  0  0  0  0  0
   19.7305   19.6514   21.8694 C   0  0  0  0  0  0  0  0  0  0  0  0
   20.3511   19.6876   20.9636 H   0  0  0  0  0  0  0  0  0  0  0  0
   18.8526   20.2802   21.6672 H   0  0  0  0  0  0  0  0  0  0  0  0
   19.2559   18.2024   22.1159 C   0  0  0  0  0  0  0  0  0  0  0  0
   20.1203   17.5302   22.1892 H   0  0  0  0  0  0  0  0  0  0  0  0
   18.7206   18.1437   23.0737 H   0  0  0  0  0  0  0  0  0  0  0  0
   18.3360   17.7080   20.9814 C   0  0  0  0  0  0  0  0  0  0  0  0
   18.8570   17.7325   20.0153 H   0  0  0  0  0  0  0  0  0  0  0  0
   18.0148   16.6749   21.1672 H   0  0  0  0  0  0  0  0  0  0  0  0
   17.4370   18.3333   20.9027 H   0  0  0  0  0  0  0  0  0  0  0  0
  1  2  1  0  0  0  0
  1  3  2  0  0  0  0
  1  4  1  0  0  0  0
  4  5  1  0  0  0  0
  4  6  1  0  0  0  0
  4  7  1  0  0  0  0
  7  8  1  0  0  0  0
  7  9  1  0  0  0  0
  7 10  1  0  0  0  0
 10 11  1  0  0  0  0
 10 12  1  0  0  0  0
 10 13  1  0  0  0  0
 13 14  1  0  0  0  0
 13 15  1  0  0  0  0
 13 16  1  0  0  0  0
 16 17  1  0  0  0  0
 16 18  1  0  0  0  0
 16 19  1  0  0  0  0
M  END
> <VConfSearch Rank>
967

> <Conf_Id>
25

> <Delta U+W>
2.065

> <U+W>
-52.826

> <U>
10.967

> <W>
-63.794

> <W(PB)>
-65.830

> <W(SA)>
2.036

> <Valence>
8.609

> <Coulomb>
1.892

> <VdW>
0.467

> <VdW6>
-7.569

> <VdW12>
8.036

> <Bond>
0.170

> <Angle>
3.195

> <Pdih>
5.237

> <Idih>
0.007

> <Tether>
0.000

$$$$
VeraChem MOL file


 19 18  0  0  0  0  0  0  0  0999 V2000     
   18.0450   19.7067   23.4183 C   0  0  0  0  0  0  0  0  0  0  0  0
   18.2821   20.7487   23.9974 O   0  5  0  0  0  0  0  0  0  0  0  0
   17.5539   18.7363   23.9605 O   0  0  0  0  0  0  0  0  0  0  0  0
   18.3121   19.6343   21.9161 C   0  0  0  0  0  0  0  0  0  0  0  0
   17.6532   20.3758   21.4497 H   0  0  0  0  0  0  0  0  0  0  0  0
   17.9931   18.6532   21.5438 H   0  0  0  0  0  0  0  0  0  0  0  0
   19.7788   19.9214   21.4878 C   0  0  0  0  0  0  0  0  0  0  0  0
   19.7729   20.2019   20.4259 H   0  0  0  0  0  0  0  0  0  0  0  0
   20.1627   20.7971   22.0294 H   0  0  0  0  0  0  0  0  0  0  0  0
   20.7499   18.7264   21.6541 C   0  0  0  0  0  0  0  0  0  0  0  0
   21.7043   18.9925   21.1795 H   0  0  0  0  0  0  0  0  0  0  0  0
   20.3640   17.8569   21.1046 H   0  0  0  0  0  0  0  0  0  0  0  0
   21.0199   18.3338   23.1234 C   0  0  0  0  0  0  0  0  0  0  0  0
   21.3091   19.2236   23.6995 H   0  0  0  0  0  0  0  0  0  0  0  0
   20.1048   17.9377   23.5817 H   0  0  0  0  0  0  0  0  0  0  0  0
   22.1303   17.2691   23.2293 C   0  0  0  0  0  0  0  0  0  0  0  0
   22.3038   16.9952   24.2781 H   0  0  0  0  0  0  0  0  0  0  0  0
   21.8538   16.3583   22.6822 H   0  0  0  0  0  0  0  0  0  0  0  0
   23.0759   17.6441   22.8163 H   0  0  0  0  0  0  0  0  0  0  0  0
  1  2  1  0  0  0  0
  1  3  2  0  0  0  0
  1  4  1  0  0  0  0
  4  5  1  0  0  0  0
  4  6  1  0  0  0  0
  4  7  1  0  0  0  0
  7  8  1  0  0  0  0
  7  9  1  0  0  0  0
  7 10  1  0  0  0  0
 10 11  1  0  0  0  0
 10 12  1  0  0  0  0
 10 13  1  0  0  0  0
 13 14  1  0  0  0  0
 13 15  1  0  0  0  0
 13 16  1  0  0  0  0
 16 17  1  0  0  0  0
 16 18  1  0  0  0  0
 16 19  1  0  0  0  0
M  END
> <VConfSearch Rank>
968

> <Conf_Id>
52

> <Delta U+W>
2.070

> <U+W>
-52.822

> <U>
10.967

> <W>
-63.789

> <W(PB)>
-65.837

> <W(SA)>
2.048

> <Valence>
8.609

> <Coulomb>
1.892

> <VdW>
0.467

> <VdW6>
-7.569

> <VdW12>
8.035

> <Bond>
0.170

> <Angle>
3.196

> <Pdih>
5.237

> <Idih>
0.007

> <Tether>
0.000

$$$$
VeraChem MOL file


 19 18  0  0  0  0  0  0  0  0999 V2000     
   18.4204   20.3910   23.1620 C   0  0  0  0  0  0  0  0  0  0  0  0
   17.3343   20.0578   22.7291 O   0  5  0  0  0  0  0  0  0  0  0  0
   18.6074   20.7009   24.3220 O   0  0  0  0  0  0  0  0  0  0  0  0
   19.5834   20.5527   22.1818 C   0  0  0  0  0  0  0  0  0  0  0  0
   20.5098   20.7053   22.7484 H   0  0  0  0  0  0  0  0  0  0  0  0
   19.3932   21.4849   21.6377 H   0  0  0  0  0  0  0  0  0  0  0  0
   19.7662   19.3998   21.1538 C   0  0  0  0  0  0  0  0  0  0  0  0
   18.7866   19.0703   20.7809 H   0  0  0  0  0  0  0  0  0  0  0  0
   20.2946   19.8069   20.2812 H   0  0  0  0  0  0  0  0  0  0  0  0
   20.5760   18.1790   21.6607 C   0  0  0  0  0  0  0  0  0  0  0  0
   21.5915   18.4920   21.9397 H   0  0  0  0  0  0  0  0  0  0  0  0
   20.7011   17.4917   20.8128 H   0  0  0  0  0  0  0  0  0  0  0  0
   19.9178   17.3931   22.8204 C   0  0  0  0  0  0  0  0  0  0  0  0
   18.8336   17.5708   22.8383 H   0  0  0  0  0  0  0  0  0  0  0  0
   20.0464   16.3173   22.6378 H   0  0  0  0  0  0  0  0  0  0  0  0
   20.5387   17.7241   24.1945 C   0  0  0  0  0  0  0  0  0  0  0  0
   21.6028   17.4560   24.2179 H   0  0  0  0  0  0  0  0  0  0  0  0
   20.4535   18.7920   24.4272 H   0  0  0  0  0  0  0  0  0  0  0  0
   20.0316   17.1648   24.9911 H   0  0  0  0  0  0  0  0  0  0  0  0
  1  2  1  0  0  0  0
  1  3  2  0  0  0  0
  1  4  1  0  0  0  0
  4  5  1  0  0  0  0
  4  6  1  0  0  0  0
  4  7  1  0  0  0  0
  7  8  1  0  0  0  0
  7  9  1  0  0  0  0
  7 10  1  0  0  0  0
 10 11  1  0  0  0  0
 10 12  1  0  0  0  0
 10 13  1  0  0  0  0
 13 14  1  0  0  0  0
 13 15  1  0  0  0  0
 13 16  1  0  0  0  0
 16 17  1  0  0  0  0
 16 18  1  0  0  0  0
 16 19  1  0  0  0  0
M  END
> <VConfSearch Rank>
969

> <Conf_Id>
66

> <Delta U+W>
5.819

> <U+W>
-49.072

> <U>
15.324

> <W>
-64.396

> <W(PB)>
-66.382

> <W(SA)>
1.986

> <Valence>
11.748

> <Coulomb>
3.201

> <VdW>
0.375

> <VdW6>
-8.854

> <VdW12>
9.229

> <Bond>
0.216

> <Angle>
3.812

> <Pdih>
7.699

> <Idih>
0.022

> <Tether>
0.000

$$$$
VeraChem MOL file


 19 18  0  0  0  0  0  0  0  0999 V2000     
   19.7923   16.4428   24.4936 C   0  0  0  0  0  0  0  0  0  0  0  0
   19.0285   15.6076   24.9348 O   0  5  0  0  0  0  0  0  0  0  0  0
   20.9211   16.5992   24.9172 O   0  0  0  0  0  0  0  0  0  0  0  0
   19.2805   17.3235   23.3524 C   0  0  0  0  0  0  0  0  0  0  0  0
   18.3747   17.8278   23.7093 H   0  0  0  0  0  0  0  0  0  0  0  0
   18.9765   16.6575   22.5363 H   0  0  0  0  0  0  0  0  0  0  0  0
   20.2912   18.3750   22.8219 C   0  0  0  0  0  0  0  0  0  0  0  0
   20.5961   19.0353   23.6456 H   0  0  0  0  0  0  0  0  0  0  0  0
   21.1986   17.8639   22.4714 H   0  0  0  0  0  0  0  0  0  0  0  0
   19.6936   19.2178   21.6744 C   0  0  0  0  0  0  0  0  0  0  0  0
   18.7865   19.7278   22.0270 H   0  0  0  0  0  0  0  0  0  0  0  0
   19.3893   18.5557   20.8522 H   0  0  0  0  0  0  0  0  0  0  0  0
   20.6999   20.2625   21.1486 C   0  0  0  0  0  0  0  0  0  0  0  0
   21.0053   20.9280   21.9679 H   0  0  0  0  0  0  0  0  0  0  0  0
   21.6080   19.7561   20.7931 H   0  0  0  0  0  0  0  0  0  0  0  0
   20.0999   21.1022   20.0032 C   0  0  0  0  0  0  0  0  0  0  0  0
   19.2070   21.6450   20.3401 H   0  0  0  0  0  0  0  0  0  0  0  0
   20.8284   21.8394   19.6414 H   0  0  0  0  0  0  0  0  0  0  0  0
   19.8142   20.4643   19.1565 H   0  0  0  0  0  0  0  0  0  0  0  0
  1  2  1  0  0  0  0
  1  3  2  0  0  0  0
  1  4  1  0  0  0  0
  4  5  1  0  0  0  0
  4  6  1  0  0  0  0
  4  7  1  0  0  0  0
  7  8  1  0  0  0  0
  7  9  1  0  0  0  0
  7 10  1  0  0  0  0
 10 11  1  0  0  0  0
 10 12  1  0  0  0  0
 10 13  1  0  0  0  0
 13 14  1  0  0  0  0
 13 15  1  0  0  0  0
 13 16  1  0  0  0  0
 16 17  1  0  0  0  0
 16 18  1  0  0  0  0
 16 19  1  0  0  0  0
M  END
> <VConfSearch Rank>
970

> <Conf_Id>
0

> <Delta U+W>
0.000

> <U+W>
-54.891

> <U>
6.966

> <W>
-61.857

> <W(PB)>
-63.965

> <W(SA)>
2.108

> <Valence>
7.175

> <Coulomb>
-1.360

> <VdW>
1.151

> <VdW6>
-5.641

> <VdW12>
6.792

> <Bond>
0.119

> <Angle>
2.715

> <Pdih>
4.340

> <Idih>
0.000

> <Tether>
0.000

$$$$
VeraChem MOL file


 19 18  0  0  0  0  0  0  0  0999 V2000     
   16.6879   18.8684   23.1543 C   0  0  0  0  0  0  0  0  0  0  0  0
   16.2690   19.9184   23.5994 O   0  5  0  0  0  0  0  0  0  0  0  0
   15.9892   18.0512   22.5883 O   0  0  0  0  0  0  0  0  0  0  0  0
   18.1761   18.5689   23.2955 C   0  0  0  0  0  0  0  0  0  0  0  0
   18.2973   17.4836   23.3967 H   0  0  0  0  0  0  0  0  0  0  0  0
   18.5280   19.0228   24.2297 H   0  0  0  0  0  0  0  0  0  0  0  0
   19.0113   19.0905   22.1003 C   0  0  0  0  0  0  0  0  0  0  0  0
   18.6386   18.6367   21.1716 H   0  0  0  0  0  0  0  0  0  0  0  0
   18.8691   20.1760   22.0046 H   0  0  0  0  0  0  0  0  0  0  0  0
   20.5134   18.7750   22.2677 C   0  0  0  0  0  0  0  0  0  0  0  0
   20.6521   17.6894   22.3645 H   0  0  0  0  0  0  0  0  0  0  0  0
   20.8827   19.2290   23.1975 H   0  0  0  0  0  0  0  0  0  0  0  0
   21.3430   19.2957   21.0756 C   0  0  0  0  0  0  0  0  0  0  0  0
   20.9777   18.8424   20.1436 H   0  0  0  0  0  0  0  0  0  0  0  0
   21.2084   20.3818   20.9766 H   0  0  0  0  0  0  0  0  0  0  0  0
   22.8421   18.9789   21.2460 C   0  0  0  0  0  0  0  0  0  0  0  0
   23.4169   19.3559   20.3900 H   0  0  0  0  0  0  0  0  0  0  0  0
   23.2417   19.4470   22.1552 H   0  0  0  0  0  0  0  0  0  0  0  0
   23.0093   17.8960   21.3160 H   0  0  0  0  0  0  0  0  0  0  0  0
  1  2  1  0  0  0  0
  1  3  2  0  0  0  0
  1  4  1  0  0  0  0
  4  5  1  0  0  0  0
  4  6  1  0  0  0  0
  4  7  1  0  0  0  0
  7  8  1  0  0  0  0
  7  9  1  0  0  0  0
  7 10  1  0  0  0  0
 10 11  1  0  0  0  0
 10 12  1  0  0  0  0
 10 13  1  0  0  0  0
 13 14  1  0  0  0  0
 13 15  1  0  0  0  0
 13 16  1  0  0  0  0
 16 17  1  0  0  0  0
 16 18  1  0  0  0  0
 16 19  1  0  0  0  0
M  END
> <VConfSearch Rank>
971

> <Conf_Id>
18

> <Delta U+W>
-1.199

> <U+W>
-56.090

> <U>
5.975

> <W>
-62.066

> <W(PB)>
-64.219

> <W(SA)>
2.153

> <Valence>
6.673

> <Coulomb>
-1.307

> <VdW>
0.610

> <VdW6>
-5.351

> <VdW12>
5.961

> <Bond>
0.086

> <Angle>
2.253

> <Pdih>
4.333

> <Idih>
0.001

> <Tether>
0.000

$$$$
VeraChem MOL file


 19 18  0  0  0  0  0  0  0  0999 V2000     
   19.8819   21.5996   20.4135 C   0  0  0  0  0  0  0  0  0  0  0  0
   19.6151   21.6126   19.2282 O   0  5  0  0  0  0  0  0  0  0  0  0
   19.8255   22.5820   21.1261 O   0  0  0  0  0  0  0  0  0  0  0  0
   20.2889   20.2732   21.0455 C   0  0  0  0  0  0  0  0  0  0  0  0
   21.0055   20.4912   21.8454 H   0  0  0  0  0  0  0  0  0  0  0  0
   20.8170   19.6828   20.2872 H   0  0  0  0  0  0  0  0  0  0  0  0
   19.0793   19.4752   21.5977 C   0  0  0  0  0  0  0  0  0  0  0  0
   18.5849   20.0578   22.3874 H   0  0  0  0  0  0  0  0  0  0  0  0
   18.3405   19.3536   20.7934 H   0  0  0  0  0  0  0  0  0  0  0  0
   19.4573   18.0760   22.1391 C   0  0  0  0  0  0  0  0  0  0  0  0
   19.9436   17.4931   21.3449 H   0  0  0  0  0  0  0  0  0  0  0  0
   18.5332   17.5404   22.3962 H   0  0  0  0  0  0  0  0  0  0  0  0
   20.3719   18.1252   23.3835 C   0  0  0  0  0  0  0  0  0  0  0  0
   21.3334   18.5899   23.1287 H   0  0  0  0  0  0  0  0  0  0  0  0
   19.9088   18.7503   24.1594 H   0  0  0  0  0  0  0  0  0  0  0  0
   20.6315   16.7149   23.9499 C   0  0  0  0  0  0  0  0  0  0  0  0
   21.2844   16.7661   24.8308 H   0  0  0  0  0  0  0  0  0  0  0  0
   19.6922   16.2334   24.2520 H   0  0  0  0  0  0  0  0  0  0  0  0
   21.1197   16.0757   23.2026 H   0  0  0  0  0  0  0  0  0  0  0  0
  1  2  1  0  0  0  0
  1  3  2  0  0  0  0
  1  4  1  0  0  0  0
  4  5  1  0  0  0  0
  4  6  1  0  0  0  0
  4  7  1  0  0  0  0
  7  8  1  0  0  0  0
  7  9  1  0  0  0  0
  7 10  1  0  0  0  0
 10 11  1  0  0  0  0
 10 12  1  0  0  0  0
 10 13  1  0  0  0  0
 13 14  1  0  0  0  0
 13 15  1  0  0  0  0
 13 16  1  0  0  0  0
 16 17  1  0  0  0  0
 16 18  1  0  0  0  0
 16 19  1  0  0  0  0
M  END
> <VConfSearch Rank>
972

> <Conf_Id>
34

> <Delta U+W>
-0.563

> <U+W>
-55.455

> <U>
6.914

> <W>
-62.369

> <W(PB)>
-64.446

> <W(SA)>
2.077

> <Valence>
7.196

> <Coulomb>
-1.020

> <VdW>
0.738

> <VdW6>
-6.010

> <VdW12>
6.748

> <Bond>
0.126

> <Angle>
2.499

> <Pdih>
4.570

> <Idih>
0.001

> <Tether>
0.000

$$$$
VeraChem MOL file


 19 18  0  0  0  0  0  0  0  0999 V2000     
   20.8112   21.8635   23.1701 C   0  0  0  0  0  0  0  0  0  0  0  0
   20.7030   22.8595   22.4827 O   0  5  0  0  0  0  0  0  0  0  0  0
   21.5217   21.7994   24.1536 O   0  0  0  0  0  0  0  0  0  0  0  0
   20.0295   20.6193   22.7635 C   0  0  0  0  0  0  0  0  0  0  0  0
   19.0955   20.9440   22.2895 H   0  0  0  0  0  0  0  0  0  0  0  0
   19.7598   20.0811   23.6792 H   0  0  0  0  0  0  0  0  0  0  0  0
   20.8249   19.6982   21.8022 C   0  0  0  0  0  0  0  0  0  0  0  0
   21.1572   20.2922   20.9395 H   0  0  0  0  0  0  0  0  0  0  0  0
   21.7359   19.3435   22.3038 H   0  0  0  0  0  0  0  0  0  0  0  0
   20.0076   18.4900   21.2868 C   0  0  0  0  0  0  0  0  0  0  0  0
   20.6030   17.9647   20.5274 H   0  0  0  0  0  0  0  0  0  0  0  0
   19.1019   18.8482   20.7784 H   0  0  0  0  0  0  0  0  0  0  0  0
   19.6196   17.4910   22.3998 C   0  0  0  0  0  0  0  0  0  0  0  0
   20.5204   17.1715   22.9418 H   0  0  0  0  0  0  0  0  0  0  0  0
   18.9602   17.9763   23.1313 H   0  0  0  0  0  0  0  0  0  0  0  0
   18.9033   16.2532   21.8233 C   0  0  0  0  0  0  0  0  0  0  0  0
   17.9830   16.5414   21.2986 H   0  0  0  0  0  0  0  0  0  0  0  0
   19.5497   15.7195   21.1143 H   0  0  0  0  0  0  0  0  0  0  0  0
   18.6317   15.5550   22.6257 H   0  0  0  0  0  0  0  0  0  0  0  0
  1  2  1  0  0  0  0
  1  3  2  0  0  0  0
  1  4  1  0  0  0  0
  4  5  1  0  0  0  0
  4  6  1  0  0  0  0
  4  7  1  0  0  0  0
  7  8  1  0  0  0  0
  7  9  1  0  0  0  0
  7 10  1  0  0  0  0
 10 11  1  0  0  0  0
 10 12  1  0  0  0  0
 10 13  1  0  0  0  0
 13 14  1  0  0  0  0
 13 15  1  0  0  0  0
 13 16  1  0  0  0  0
 16 17  1  0  0  0  0
 16 18  1  0  0  0  0
 16 19  1  0  0  0  0
M  END
> <VConfSearch Rank>
973

> <Conf_Id>
33

> <Delta U+W>
-0.526

> <U+W>
-55.418

> <U>
6.914

> <W>
-62.332

> <W(PB)>
-64.421

> <W(SA)>
2.090

> <Valence>
7.196

> <Coulomb>
-1.020

> <VdW>
0.738

> <VdW6>
-6.010

> <VdW12>
6.748

> <Bond>
0.126

> <Angle>
2.499

> <Pdih>
4.570

> <Idih>
0.001

> <Tether>
0.000

$$$$
VeraChem MOL file


 19 18  0  0  0  0  0  0  0  0999 V2000     
   17.1157   20.0006   23.3195 C   0  0  0  0  0  0  0  0  0  0  0  0
   17.2277   20.3437   24.4797 O   0  5  0  0  0  0  0  0  0  0  0  0
   16.3817   20.5514   22.5232 O   0  0  0  0  0  0  0  0  0  0  0  0
   17.9554   18.8254   22.8315 C   0  0  0  0  0  0  0  0  0  0  0  0
   17.3845   18.2965   22.0589 H   0  0  0  0  0  0  0  0  0  0  0  0
   18.0886   18.1302   23.6692 H   0  0  0  0  0  0  0  0  0  0  0  0
   19.3337   19.2601   22.2748 C   0  0  0  0  0  0  0  0  0  0  0  0
   19.1838   19.9628   21.4435 H   0  0  0  0  0  0  0  0  0  0  0  0
   19.8784   19.8028   23.0586 H   0  0  0  0  0  0  0  0  0  0  0  0
   20.1644   18.0492   21.7909 C   0  0  0  0  0  0  0  0  0  0  0  0
   19.5738   17.4795   21.0604 H   0  0  0  0  0  0  0  0  0  0  0  0
   20.3560   17.3708   22.6335 H   0  0  0  0  0  0  0  0  0  0  0  0
   21.5057   18.4483   21.1334 C   0  0  0  0  0  0  0  0  0  0  0  0
   21.9749   17.5474   20.7146 H   0  0  0  0  0  0  0  0  0  0  0  0
   21.3178   19.1227   20.2864 H   0  0  0  0  0  0  0  0  0  0  0  0
   22.4943   19.1120   22.1163 C   0  0  0  0  0  0  0  0  0  0  0  0
   22.6749   18.4679   22.9867 H   0  0  0  0  0  0  0  0  0  0  0  0
   23.4588   19.2949   21.6253 H   0  0  0  0  0  0  0  0  0  0  0  0
   22.1159   20.0775   22.4746 H   0  0  0  0  0  0  0  0  0  0  0  0
  1  2  1  0  0  0  0
  1  3  2  0  0  0  0
  1  4  1  0  0  0  0
  4  5  1  0  0  0  0
  4  6  1  0  0  0  0
  4  7  1  0  0  0  0
  7  8  1  0  0  0  0
  7  9  1  0  0  0  0
  7 10  1  0  0  0  0
 10 11  1  0  0  0  0
 10 12  1  0  0  0  0
 10 13  1  0  0  0  0
 13 14  1  0  0  0  0
 13 15  1  0  0  0  0
 13 16  1  0  0  0  0
 16 17  1  0  0  0  0
 16 18  1  0  0  0  0
 16 19  1  0  0  0  0
M  END
> <VConfSearch Rank>
974

> <Conf_Id>
42

> <Delta U+W>
-0.344

> <U+W>
-55.236

> <U>
7.244

> <W>
-62.479

> <W(PB)>
-64.610

> <W(SA)>
2.130

> <Valence>
7.174

> <Coulomb>
-0.669

> <VdW>
0.739

> <VdW6>
-5.969

> <VdW12>
6.708

> <Bond>
0.116

> <Angle>
2.481

> <Pdih>
4.576

> <Idih>
0.000

> <Tether>
0.000

$$$$
VeraChem MOL file


 19 18  0  0  0  0  0  0  0  0999 V2000     
   18.7938   21.0560   20.2442 C   0  0  0  0  0  0  0  0  0  0  0  0
   18.1092   20.4853   19.4185 O   0  5  0  0  0  0  0  0  0  0  0  0
   19.4469   22.0520   20.0038 O   0  0  0  0  0  0  0  0  0  0  0  0
   18.8510   20.4804   21.6548 C   0  0  0  0  0  0  0  0  0  0  0  0
   17.8818   20.0158   21.8731 H   0  0  0  0  0  0  0  0  0  0  0  0
   18.9772   21.3128   22.3575 H   0  0  0  0  0  0  0  0  0  0  0  0
   19.9908   19.4481   21.8383 C   0  0  0  0  0  0  0  0  0  0  0  0
   19.8541   18.6351   21.1130 H   0  0  0  0  0  0  0  0  0  0  0  0
   20.9531   19.9254   21.6071 H   0  0  0  0  0  0  0  0  0  0  0  0
   20.0229   18.8787   23.2754 C   0  0  0  0  0  0  0  0  0  0  0  0
   19.0790   18.3587   23.4891 H   0  0  0  0  0  0  0  0  0  0  0  0
   20.0879   19.7118   23.9887 H   0  0  0  0  0  0  0  0  0  0  0  0
   21.2098   17.9210   23.5300 C   0  0  0  0  0  0  0  0  0  0  0  0
   22.1561   18.4394   23.3227 H   0  0  0  0  0  0  0  0  0  0  0  0
   21.2275   17.6574   24.5964 H   0  0  0  0  0  0  0  0  0  0  0  0
   21.1359   16.6223   22.6983 C   0  0  0  0  0  0  0  0  0  0  0  0
   21.2306   16.8278   21.6248 H   0  0  0  0  0  0  0  0  0  0  0  0
   21.9491   15.9404   22.9788 H   0  0  0  0  0  0  0  0  0  0  0  0
   20.1846   16.1011   22.8671 H   0  0  0  0  0  0  0  0  0  0  0  0
  1  2  1  0  0  0  0
  1  3  2  0  0  0  0
  1  4  1  0  0  0  0
  4  5  1  0  0  0  0
  4  6  1  0  0  0  0
  4  7  1  0  0  0  0
  7  8  1  0  0  0  0
  7  9  1  0  0  0  0
  7 10  1  0  0  0  0
 10 11  1  0  0  0  0
 10 12  1  0  0  0  0
 10 13  1  0  0  0  0
 13 14  1  0  0  0  0
 13 15  1  0  0  0  0
 13 16  1  0  0  0  0
 16 17  1  0  0  0  0
 16 18  1  0  0  0  0
 16 19  1  0  0  0  0
M  END
> <VConfSearch Rank>
975

> <Conf_Id>
41

> <Delta U+W>
-0.361

> <U+W>
-55.252

> <U>
7.244

> <W>
-62.496

> <W(PB)>
-64.596

> <W(SA)>
2.099

> <Valence>
7.174

> <Coulomb>
-0.669

> <VdW>
0.739

> <VdW6>
-5.969

> <VdW12>
6.708

> <Bond>
0.116

> <Angle>
2.481

> <Pdih>
4.576

> <Idih>
0.000

> <Tether>
0.000

$$$$
VeraChem MOL file


 19 18  0  0  0  0  0  0  0  0999 V2000     
   17.7087   18.9311   24.2696 C   0  0  0  0  0  0  0  0  0  0  0  0
   16.9194   18.2093   23.6929 O   0  5  0  0  0  0  0  0  0  0  0  0
   18.0672   18.7533   25.4170 O   0  0  0  0  0  0  0  0  0  0  0  0
   18.2644   20.1397   23.5214 C   0  0  0  0  0  0  0  0  0  0  0  0
   18.1954   21.0023   24.1947 H   0  0  0  0  0  0  0  0  0  0  0  0
   17.6122   20.3523   22.6655 H   0  0  0  0  0  0  0  0  0  0  0  0
   19.7311   19.9693   23.0473 C   0  0  0  0  0  0  0  0  0  0  0  0
   20.0898   20.9274   22.6474 H   0  0  0  0  0  0  0  0  0  0  0  0
   20.3670   19.7288   23.9106 H   0  0  0  0  0  0  0  0  0  0  0  0
   19.8827   18.8770   21.9651 C   0  0  0  0  0  0  0  0  0  0  0  0
   19.2354   19.1150   21.1099 H   0  0  0  0  0  0  0  0  0  0  0  0
   19.5416   17.9113   22.3633 H   0  0  0  0  0  0  0  0  0  0  0  0
   21.3435   18.7465   21.4858 C   0  0  0  0  0  0  0  0  0  0  0  0
   21.6889   19.7085   21.0825 H   0  0  0  0  0  0  0  0  0  0  0  0
   21.9929   18.5060   22.3390 H   0  0  0  0  0  0  0  0  0  0  0  0
   21.4915   17.6560   20.4061 C   0  0  0  0  0  0  0  0  0  0  0  0
   20.8758   17.8876   19.5271 H   0  0  0  0  0  0  0  0  0  0  0  0
   22.5358   17.5763   20.0772 H   0  0  0  0  0  0  0  0  0  0  0  0
   21.1821   16.6761   20.7928 H   0  0  0  0  0  0  0  0  0  0  0  0
  1  2  1  0  0  0  0
  1  3  2  0  0  0  0
  1  4  1  0  0  0  0
  4  5  1  0  0  0  0
  4  6  1  0  0  0  0
  4  7  1  0  0  0  0
  7  8  1  0  0  0  0
  7  9  1  0  0  0  0
  7 10  1  0  0  0  0
 10 11  1  0  0  0  0
 10 12  1  0  0  0  0
 10 13  1  0  0  0  0
 13 14  1  0  0  0  0
 13 15  1  0  0  0  0
 13 16  1  0  0  0  0
 16 17  1  0  0  0  0
 16 18  1  0  0  0  0
 16 19  1  0  0  0  0
M  END
> <VConfSearch Rank>
976

> <Conf_Id>
36

> <Delta U+W>
-0.079

> <U+W>
-54.971

> <U>
8.266

> <W>
-63.237

> <W(PB)>
-65.340

> <W(SA)>
2.103

> <Valence>
6.935

> <Coulomb>
0.874

> <VdW>
0.457

> <VdW6>
-6.205

> <VdW12>
6.662

> <Bond>
0.107

> <Angle>
2.420

> <Pdih>
4.407

> <Idih>
0.001

> <Tether>
0.000

$$$$
VeraChem MOL file


 19 18  0  0  0  0  0  0  0  0999 V2000     
   21.2947   17.6156   24.5973 C   0  0  0  0  0  0  0  0  0  0  0  0
   21.0216   18.4106   25.4747 O   0  5  0  0  0  0  0  0  0  0  0  0
   22.4130   17.1775   24.4120 O   0  0  0  0  0  0  0  0  0  0  0  0
   20.1698   17.1228   23.6911 C   0  0  0  0  0  0  0  0  0  0  0  0
   19.2101   17.3278   24.1808 H   0  0  0  0  0  0  0  0  0  0  0  0
   20.2618   16.0327   23.6175 H   0  0  0  0  0  0  0  0  0  0  0  0
   20.1879   17.7410   22.2690 C   0  0  0  0  0  0  0  0  0  0  0  0
   21.1648   17.5522   21.8025 H   0  0  0  0  0  0  0  0  0  0  0  0
   19.4378   17.2311   21.6493 H   0  0  0  0  0  0  0  0  0  0  0  0
   19.8960   19.2582   22.2768 C   0  0  0  0  0  0  0  0  0  0  0  0
   20.6525   19.7778   22.8811 H   0  0  0  0  0  0  0  0  0  0  0  0
   18.9245   19.4427   22.7556 H   0  0  0  0  0  0  0  0  0  0  0  0
   19.8877   19.8456   20.8501 C   0  0  0  0  0  0  0  0  0  0  0  0
   20.8592   19.6645   20.3695 H   0  0  0  0  0  0  0  0  0  0  0  0
   19.1298   19.3326   20.2420 H   0  0  0  0  0  0  0  0  0  0  0  0
   19.5962   21.3595   20.8612 C   0  0  0  0  0  0  0  0  0  0  0  0
   20.3576   21.9017   21.4372 H   0  0  0  0  0  0  0  0  0  0  0  0
   19.5945   21.7608   19.8394 H   0  0  0  0  0  0  0  0  0  0  0  0
   18.6153   21.5673   21.3087 H   0  0  0  0  0  0  0  0  0  0  0  0
  1  2  1  0  0  0  0
  1  3  2  0  0  0  0
  1  4  1  0  0  0  0
  4  5  1  0  0  0  0
  4  6  1  0  0  0  0
  4  7  1  0  0  0  0
  7  8  1  0  0  0  0
  7  9  1  0  0  0  0
  7 10  1  0  0  0  0
 10 11  1  0  0  0  0
 10 12  1  0  0  0  0
 10 13  1  0  0  0  0
 13 14  1  0  0  0  0
 13 15  1  0  0  0  0
 13 16  1  0  0  0  0
 16 17  1  0  0  0  0
 16 18  1  0  0  0  0
 16 19  1  0  0  0  0
M  END
> <VConfSearch Rank>
977

> <Conf_Id>
35

> <Delta U+W>
-0.030

> <U+W>
-54.921

> <U>
8.267

> <W>
-63.188

> <W(PB)>
-65.294

> <W(SA)>
2.106

> <Valence>
6.935

> <Coulomb>
0.875

> <VdW>
0.457

> <VdW6>
-6.205

> <VdW12>
6.662

> <Bond>
0.107

> <Angle>
2.420

> <Pdih>
4.407

> <Idih>
0.001

> <Tether>
0.000

$$$$
VeraChem MOL file


 19 18  0  0  0  0  0  0  0  0999 V2000     
   20.4181   16.6094   20.4916 C   0  0  0  0  0  0  0  0  0  0  0  0
   19.3648   16.1543   20.0915 O   0  5  0  0  0  0  0  0  0  0  0  0
   21.3200   15.9259   20.9344 O   0  0  0  0  0  0  0  0  0  0  0  0
   20.6258   18.1194   20.4128 C   0  0  0  0  0  0  0  0  0  0  0  0
   20.2981   18.4432   19.4179 H   0  0  0  0  0  0  0  0  0  0  0  0
   21.7003   18.3295   20.4769 H   0  0  0  0  0  0  0  0  0  0  0  0
   19.8584   18.9214   21.4962 C   0  0  0  0  0  0  0  0  0  0  0  0
   19.9449   19.9905   21.2643 H   0  0  0  0  0  0  0  0  0  0  0  0
   18.7897   18.6709   21.4456 H   0  0  0  0  0  0  0  0  0  0  0  0
   20.3931   18.6537   22.9234 C   0  0  0  0  0  0  0  0  0  0  0  0
   21.4518   18.9409   22.9822 H   0  0  0  0  0  0  0  0  0  0  0  0
   20.3532   17.5749   23.1274 H   0  0  0  0  0  0  0  0  0  0  0  0
   19.5954   19.3879   24.0259 C   0  0  0  0  0  0  0  0  0  0  0  0
   18.5362   19.1009   23.9710 H   0  0  0  0  0  0  0  0  0  0  0  0
   19.9578   19.0501   25.0066 H   0  0  0  0  0  0  0  0  0  0  0  0
   19.7221   20.9249   23.9527 C   0  0  0  0  0  0  0  0  0  0  0  0
   19.2647   21.3220   23.0379 H   0  0  0  0  0  0  0  0  0  0  0  0
   19.2156   21.3926   24.8068 H   0  0  0  0  0  0  0  0  0  0  0  0
   20.7754   21.2338   23.9740 H   0  0  0  0  0  0  0  0  0  0  0  0
  1  2  1  0  0  0  0
  1  3  2  0  0  0  0
  1  4  1  0  0  0  0
  4  5  1  0  0  0  0
  4  6  1  0  0  0  0
  4  7  1  0  0  0  0
  7  8  1  0  0  0  0
  7  9  1  0  0  0  0
  7 10  1  0  0  0  0
 10 11  1  0  0  0  0
 10 12  1  0  0  0  0
 10 13  1  0  0  0  0
 13 14  1  0  0  0  0
 13 15  1  0  0  0  0
 13 16  1  0  0  0  0
 16 17  1  0  0  0  0
 16 18  1  0  0  0  0
 16 19  1  0  0  0  0
M  END
> <VConfSearch Rank>
978

> <Conf_Id>
74

> <Delta U+W>
0.797

> <U+W>
-54.095

> <U>
8.869

> <W>
-62.964

> <W(PB)>
-65.046

> <W(SA)>
2.082

> <Valence>
7.469

> <Coulomb>
0.762

> <VdW>
0.639

> <VdW6>
-6.782

> <VdW12>
7.421

> <Bond>
0.141

> <Angle>
2.667

> <Pdih>
4.660

> <Idih>
0.001

> <Tether>
0.000

$$$$
VeraChem MOL file


 19 18  0  0  0  0  0  0  0  0999 V2000     
   22.8098   18.8812   21.5465 C   0  0  0  0  0  0  0  0  0  0  0  0
   23.7092   19.6240   21.8868 O   0  5  0  0  0  0  0  0  0  0  0  0
   22.9896   17.7503   21.1402 O   0  0  0  0  0  0  0  0  0  0  0  0
   21.3766   19.3900   21.6530 C   0  0  0  0  0  0  0  0  0  0  0  0
   20.7973   18.9270   20.8461 H   0  0  0  0  0  0  0  0  0  0  0  0
   21.3840   20.4712   21.4705 H   0  0  0  0  0  0  0  0  0  0  0  0
   20.7315   19.0843   23.0296 C   0  0  0  0  0  0  0  0  0  0  0  0
   20.6947   17.9979   23.1848 H   0  0  0  0  0  0  0  0  0  0  0  0
   21.3827   19.4820   23.8201 H   0  0  0  0  0  0  0  0  0  0  0  0
   19.3184   19.6963   23.2009 C   0  0  0  0  0  0  0  0  0  0  0  0
   19.3954   20.7907   23.1436 H   0  0  0  0  0  0  0  0  0  0  0  0
   18.9568   19.4704   24.2133 H   0  0  0  0  0  0  0  0  0  0  0  0
   18.2629   19.2171   22.1742 C   0  0  0  0  0  0  0  0  0  0  0  0
   17.3129   19.7269   22.3857 H   0  0  0  0  0  0  0  0  0  0  0  0
   18.5525   19.5246   21.1607 H   0  0  0  0  0  0  0  0  0  0  0  0
   18.0257   17.6919   22.2077 C   0  0  0  0  0  0  0  0  0  0  0  0
   17.7567   17.3582   23.2183 H   0  0  0  0  0  0  0  0  0  0  0  0
   17.2073   17.4154   21.5306 H   0  0  0  0  0  0  0  0  0  0  0  0
   18.9206   17.1422   21.8894 H   0  0  0  0  0  0  0  0  0  0  0  0
  1  2  1  0  0  0  0
  1  3  2  0  0  0  0
  1  4  1  0  0  0  0
  4  5  1  0  0  0  0
  4  6  1  0  0  0  0
  4  7  1  0  0  0  0
  7  8  1  0  0  0  0
  7  9  1  0  0  0  0
  7 10  1  0  0  0  0
 10 11  1  0  0  0  0
 10 12  1  0  0  0  0
 10 13  1  0  0  0  0
 13 14  1  0  0  0  0
 13 15  1  0  0  0  0
 13 16  1  0  0  0  0
 16 17  1  0  0  0  0
 16 18  1  0  0  0  0
 16 19  1  0  0  0  0
M  END
> <VConfSearch Rank>
979

> <Conf_Id>
67

> <Delta U+W>
0.308

> <U+W>
-54.583

> <U>
8.219

> <W>
-62.802

> <W(PB)>
-64.859

> <W(SA)>
2.057

> <Valence>
7.609

> <Coulomb>
-0.089

> <VdW>
0.699

> <VdW6>
-6.924

> <VdW12>
7.623

> <Bond>
0.163

> <Angle>
2.870

> <Pdih>
4.576

> <Idih>
0.001

> <Tether>
0.000

$$$$
VeraChem MOL file


 19 18  0  0  0  0  0  0  0  0999 V2000     
   22.7709   19.8077   22.0964 C   0  0  0  0  0  0  0  0  0  0  0  0
   23.3211   20.7510   22.6292 O   0  5  0  0  0  0  0  0  0  0  0  0
   23.1733   19.2831   21.0770 O   0  0  0  0  0  0  0  0  0  0  0  0
   21.4953   19.2656   22.7314 C   0  0  0  0  0  0  0  0  0  0  0  0
   21.5703   19.4013   23.8169 H   0  0  0  0  0  0  0  0  0  0  0  0
   21.4590   18.1872   22.5393 H   0  0  0  0  0  0  0  0  0  0  0  0
   20.2158   19.9568   22.1931 C   0  0  0  0  0  0  0  0  0  0  0  0
   20.3232   21.0431   22.3176 H   0  0  0  0  0  0  0  0  0  0  0  0
   20.1310   19.7821   21.1124 H   0  0  0  0  0  0  0  0  0  0  0  0
   18.9191   19.5043   22.9105 C   0  0  0  0  0  0  0  0  0  0  0  0
   18.0729   20.0722   22.5003 H   0  0  0  0  0  0  0  0  0  0  0  0
   18.9843   19.7814   23.9715 H   0  0  0  0  0  0  0  0  0  0  0  0
   18.6025   17.9919   22.8094 C   0  0  0  0  0  0  0  0  0  0  0  0
   19.3865   17.4061   23.3072 H   0  0  0  0  0  0  0  0  0  0  0  0
   17.6757   17.7910   23.3643 H   0  0  0  0  0  0  0  0  0  0  0  0
   18.4277   17.4995   21.3567 C   0  0  0  0  0  0  0  0  0  0  0  0
   19.3672   17.5746   20.7946 H   0  0  0  0  0  0  0  0  0  0  0  0
   18.1150   16.4474   21.3427 H   0  0  0  0  0  0  0  0  0  0  0  0
   17.6634   18.0871   20.8319 H   0  0  0  0  0  0  0  0  0  0  0  0
  1  2  1  0  0  0  0
  1  3  2  0  0  0  0
  1  4  1  0  0  0  0
  4  5  1  0  0  0  0
  4  6  1  0  0  0  0
  4  7  1  0  0  0  0
  7  8  1  0  0  0  0
  7  9  1  0  0  0  0
  7 10  1  0  0  0  0
 10 11  1  0  0  0  0
 10 12  1  0  0  0  0
 10 13  1  0  0  0  0
 13 14  1  0  0  0  0
 13 15  1  0  0  0  0
 13 16  1  0  0  0  0
 16 17  1  0  0  0  0
 16 18  1  0  0  0  0
 16 19  1  0  0  0  0
M  END
> <VConfSearch Rank>
980

> <Conf_Id>
21

> <Delta U+W>
0.319

> <U+W>
-54.572

> <U>
8.220

> <W>
-62.792

> <W(PB)>
-64.830

> <W(SA)>
2.038

> <Valence>
7.609

> <Coulomb>
-0.088

> <VdW>
0.699

> <VdW6>
-6.924

> <VdW12>
7.623

> <Bond>
0.163

> <Angle>
2.870

> <Pdih>
4.576

> <Idih>
0.000

> <Tether>
0.000

$$$$
VeraChem MOL file


 19 18  0  0  0  0  0  0  0  0999 V2000     
   20.1413   20.4825   19.8908 C   0  0  0  0  0  0  0  0  0  0  0  0
   19.3506   20.5974   18.9753 O   0  5  0  0  0  0  0  0  0  0  0  0
   20.9969   21.3061   20.1474 O   0  0  0  0  0  0  0  0  0  0  0  0
   20.0419   19.2459   20.7769 C   0  0  0  0  0  0  0  0  0  0  0  0
   21.0505   18.9988   21.1227 H   0  0  0  0  0  0  0  0  0  0  0  0
   19.7045   18.4094   20.1534 H   0  0  0  0  0  0  0  0  0  0  0  0
   19.0737   19.4407   21.9736 C   0  0  0  0  0  0  0  0  0  0  0  0
   19.3764   20.3145   22.5670 H   0  0  0  0  0  0  0  0  0  0  0  0
   18.0796   19.6756   21.5688 H   0  0  0  0  0  0  0  0  0  0  0  0
   18.9560   18.1902   22.8816 C   0  0  0  0  0  0  0  0  0  0  0  0
   19.1221   17.2764   22.2949 H   0  0  0  0  0  0  0  0  0  0  0  0
   17.9208   18.1280   23.2443 H   0  0  0  0  0  0  0  0  0  0  0  0
   19.8832   18.2023   24.1218 C   0  0  0  0  0  0  0  0  0  0  0  0
   19.6481   19.0733   24.7489 H   0  0  0  0  0  0  0  0  0  0  0  0
   19.6607   17.3158   24.7316 H   0  0  0  0  0  0  0  0  0  0  0  0
   21.3889   18.2053   23.7863 C   0  0  0  0  0  0  0  0  0  0  0  0
   21.9854   18.0812   24.6993 H   0  0  0  0  0  0  0  0  0  0  0  0
   21.6423   17.3853   23.1020 H   0  0  0  0  0  0  0  0  0  0  0  0
   21.6889   19.1535   23.3229 H   0  0  0  0  0  0  0  0  0  0  0  0
  1  2  1  0  0  0  0
  1  3  2  0  0  0  0
  1  4  1  0  0  0  0
  4  5  1  0  0  0  0
  4  6  1  0  0  0  0
  4  7  1  0  0  0  0
  7  8  1  0  0  0  0
  7  9  1  0  0  0  0
  7 10  1  0  0  0  0
 10 11  1  0  0  0  0
 10 12  1  0  0  0  0
 10 13  1  0  0  0  0
 13 14  1  0  0  0  0
 13 15  1  0  0  0  0
 13 16  1  0  0  0  0
 16 17  1  0  0  0  0
 16 18  1  0  0  0  0
 16 19  1  0  0  0  0
M  END
> <VConfSearch Rank>
981

> <Conf_Id>
24

> <Delta U+W>
2.477

> <U+W>
-52.414

> <U>
10.422

> <W>
-62.836

> <W(PB)>
-64.906

> <W(SA)>
2.070

> <Valence>
9.628

> <Coulomb>
0.101

> <VdW>
0.693

> <VdW6>
-6.927

> <VdW12>
7.620

> <Bond>
0.173

> <Angle>
2.989

> <Pdih>
6.465

> <Idih>
0.001

> <Tether>
0.000

$$$$
VeraChem MOL file


 19 18  0  0  0  0  0  0  0  0999 V2000     
   22.0460   18.7491   23.8156 C   0  0  0  0  0  0  0  0  0  0  0  0
   22.4160   19.9034   23.7297 O   0  5  0  0  0  0  0  0  0  0  0  0
   22.2808   18.0391   24.7736 O   0  0  0  0  0  0  0  0  0  0  0  0
   21.2696   18.1472   22.6473 C   0  0  0  0  0  0  0  0  0  0  0  0
   21.7337   17.1820   22.4133 H   0  0  0  0  0  0  0  0  0  0  0  0
   21.4154   18.7858   21.7702 H   0  0  0  0  0  0  0  0  0  0  0  0
   19.7579   17.9331   22.9372 C   0  0  0  0  0  0  0  0  0  0  0  0
   19.3109   17.3172   22.1453 H   0  0  0  0  0  0  0  0  0  0  0  0
   19.6694   17.3463   23.8621 H   0  0  0  0  0  0  0  0  0  0  0  0
   18.9488   19.2463   23.0993 C   0  0  0  0  0  0  0  0  0  0  0  0
   19.5866   20.0441   23.5037 H   0  0  0  0  0  0  0  0  0  0  0  0
   18.1706   19.0756   23.8556 H   0  0  0  0  0  0  0  0  0  0  0  0
   18.2449   19.7346   21.8093 C   0  0  0  0  0  0  0  0  0  0  0  0
   17.5410   18.9668   21.4597 H   0  0  0  0  0  0  0  0  0  0  0  0
   17.6391   20.6172   22.0564 H   0  0  0  0  0  0  0  0  0  0  0  0
   19.2106   20.1039   20.6645 C   0  0  0  0  0  0  0  0  0  0  0  0
   19.7158   19.2134   20.2705 H   0  0  0  0  0  0  0  0  0  0  0  0
   18.6624   20.5673   19.8342 H   0  0  0  0  0  0  0  0  0  0  0  0
   19.9732   20.8156   21.0071 H   0  0  0  0  0  0  0  0  0  0  0  0
  1  2  1  0  0  0  0
  1  3  2  0  0  0  0
  1  4  1  0  0  0  0
  4  5  1  0  0  0  0
  4  6  1  0  0  0  0
  4  7  1  0  0  0  0
  7  8  1  0  0  0  0
  7  9  1  0  0  0  0
  7 10  1  0  0  0  0
 10 11  1  0  0  0  0
 10 12  1  0  0  0  0
 10 13  1  0  0  0  0
 13 14  1  0  0  0  0
 13 15  1  0  0  0  0
 13 16  1  0  0  0  0
 16 17  1  0  0  0  0
 16 18  1  0  0  0  0
 16 19  1  0  0  0  0
M  END
> <VConfSearch Rank>
982

> <Conf_Id>
4

> <Delta U+W>
3.753

> <U+W>
-51.138

> <U>
12.334

> <W>
-63.472

> <W(PB)>
-65.500

> <W(SA)>
2.028

> <Valence>
9.984

> <Coulomb>
1.767

> <VdW>
0.583

> <VdW6>
-7.767

> <VdW12>
8.349

> <Bond>
0.203

> <Angle>
3.191

> <Pdih>
6.589

> <Idih>
0.001

> <Tether>
0.000

$$$$
VeraChem MOL file


 19 18  0  0  0  0  0  0  0  0999 V2000     
   19.5825   18.9549   24.9999 C   0  0  0  0  0  0  0  0  0  0  0  0
   18.7610   18.4030   25.7053 O   0  5  0  0  0  0  0  0  0  0  0  0
   20.7601   19.0445   25.2861 O   0  0  0  0  0  0  0  0  0  0  0  0
   19.1011   19.5938   23.6998 C   0  0  0  0  0  0  0  0  0  0  0  0
   19.8669   20.2965   23.3562 H   0  0  0  0  0  0  0  0  0  0  0  0
   18.2137   20.1903   23.9416 H   0  0  0  0  0  0  0  0  0  0  0  0
   18.7434   18.5693   22.5874 C   0  0  0  0  0  0  0  0  0  0  0  0
   18.0259   17.8501   23.0062 H   0  0  0  0  0  0  0  0  0  0  0  0
   18.2175   19.0780   21.7683 H   0  0  0  0  0  0  0  0  0  0  0  0
   19.9607   17.7902   22.0245 C   0  0  0  0  0  0  0  0  0  0  0  0
   19.6301   16.7711   21.7818 H   0  0  0  0  0  0  0  0  0  0  0  0
   20.7347   17.6760   22.7956 H   0  0  0  0  0  0  0  0  0  0  0  0
   20.5784   18.3972   20.7408 C   0  0  0  0  0  0  0  0  0  0  0  0
   21.3724   17.7259   20.3859 H   0  0  0  0  0  0  0  0  0  0  0  0
   19.8216   18.4257   19.9448 H   0  0  0  0  0  0  0  0  0  0  0  0
   21.1737   19.8073   20.9326 C   0  0  0  0  0  0  0  0  0  0  0  0
   21.8802   19.8252   21.7729 H   0  0  0  0  0  0  0  0  0  0  0  0
   21.7121   20.1228   20.0297 H   0  0  0  0  0  0  0  0  0  0  0  0
   20.3860   20.5466   21.1228 H   0  0  0  0  0  0  0  0  0  0  0  0
  1  2  1  0  0  0  0
  1  3  2  0  0  0  0
  1  4  1  0  0  0  0
  4  5  1  0  0  0  0
  4  6  1  0  0  0  0
  4  7  1  0  0  0  0
  7  8  1  0  0  0  0
  7  9  1  0  0  0  0
  7 10  1  0  0  0  0
 10 11  1  0  0  0  0
 10 12  1  0  0  0  0
 10 13  1  0  0  0  0
 13 14  1  0  0  0  0
 13 15  1  0  0  0  0
 13 16  1  0  0  0  0
 16 17  1  0  0  0  0
 16 18  1  0  0  0  0
 16 19  1  0  0  0  0
M  END
> <VConfSearch Rank>
983

> <Conf_Id>
73

> <Delta U+W>
3.707

> <U+W>
-51.184

> <U>
12.334

> <W>
-63.519

> <W(PB)>
-65.541

> <W(SA)>
2.022

> <Valence>
9.984

> <Coulomb>
1.768

> <VdW>
0.583

> <VdW6>
-7.767

> <VdW12>
8.350

> <Bond>
0.203

> <Angle>
3.192

> <Pdih>
6.589

> <Idih>
0.001

> <Tether>
0.000

$$$$
VeraChem MOL file


 19 18  0  0  0  0  0  0  0  0999 V2000     
   19.1065   16.8091   23.5121 C   0  0  0  0  0  0  0  0  0  0  0  0
   17.9176   17.0579   23.5473 O   0  5  0  0  0  0  0  0  0  0  0  0
   19.5535   15.6908   23.3485 O   0  0  0  0  0  0  0  0  0  0  0  0
   20.0934   17.9553   23.7162 C   0  0  0  0  0  0  0  0  0  0  0  0
   20.8030   17.6411   24.4904 H   0  0  0  0  0  0  0  0  0  0  0  0
   19.5522   18.8174   24.1228 H   0  0  0  0  0  0  0  0  0  0  0  0
   20.8749   18.3561   22.4352 C   0  0  0  0  0  0  0  0  0  0  0  0
   21.6101   19.1311   22.6878 H   0  0  0  0  0  0  0  0  0  0  0  0
   21.4566   17.4892   22.0926 H   0  0  0  0  0  0  0  0  0  0  0  0
   19.9813   18.8463   21.2668 C   0  0  0  0  0  0  0  0  0  0  0  0
   19.3324   18.0215   20.9417 H   0  0  0  0  0  0  0  0  0  0  0  0
   20.6233   19.0820   20.4072 H   0  0  0  0  0  0  0  0  0  0  0  0
   19.0977   20.0774   21.5842 C   0  0  0  0  0  0  0  0  0  0  0  0
   18.5021   20.3190   20.6932 H   0  0  0  0  0  0  0  0  0  0  0  0
   18.3748   19.8296   22.3731 H   0  0  0  0  0  0  0  0  0  0  0  0
   19.9100   21.3253   21.9921 C   0  0  0  0  0  0  0  0  0  0  0  0
   20.4341   21.1667   22.9430 H   0  0  0  0  0  0  0  0  0  0  0  0
   20.6543   21.5773   21.2255 H   0  0  0  0  0  0  0  0  0  0  0  0
   19.2469   22.1909   22.1180 H   0  0  0  0  0  0  0  0  0  0  0  0
  1  2  1  0  0  0  0
  1  3  2  0  0  0  0
  1  4  1  0  0  0  0
  4  5  1  0  0  0  0
  4  6  1  0  0  0  0
  4  7  1  0  0  0  0
  7  8  1  0  0  0  0
  7  9  1  0  0  0  0
  7 10  1  0  0  0  0
 10 11  1  0  0  0  0
 10 12  1  0  0  0  0
 10 13  1  0  0  0  0
 13 14  1  0  0  0  0
 13 15  1  0  0  0  0
 13 16  1  0  0  0  0
 16 17  1  0  0  0  0
 16 18  1  0  0  0  0
 16 19  1  0  0  0  0
M  END
> <VConfSearch Rank>
984

> <Conf_Id>
56

> <Delta U+W>
1.735

> <U+W>
-53.156

> <U>
10.214

> <W>
-63.370

> <W(PB)>
-65.388

> <W(SA)>
2.018

> <Valence>
7.868

> <Coulomb>
1.968

> <VdW>
0.378

> <VdW6>
-8.067

> <VdW12>
8.445

> <Bond>
0.191

> <Angle>
3.117

> <Pdih>
4.559

> <Idih>
0.001

> <Tether>
0.000

$$$$
VeraChem MOL file


 19 18  0  0  0  0  0  0  0  0999 V2000     
   20.8262   19.5402   25.0236 C   0  0  0  0  0  0  0  0  0  0  0  0
   21.0669   20.6664   25.4108 O   0  5  0  0  0  0  0  0  0  0  0  0
   21.1088   18.5390   25.6513 O   0  0  0  0  0  0  0  0  0  0  0  0
   20.1522   19.3738   23.6663 C   0  0  0  0  0  0  0  0  0  0  0  0
   19.5016   20.2406   23.4995 H   0  0  0  0  0  0  0  0  0  0  0  0
   19.5123   18.4860   23.7207 H   0  0  0  0  0  0  0  0  0  0  0  0
   21.1677   19.2343   22.5043 C   0  0  0  0  0  0  0  0  0  0  0  0
   21.8841   20.0655   22.5619 H   0  0  0  0  0  0  0  0  0  0  0  0
   21.7523   18.3145   22.6435 H   0  0  0  0  0  0  0  0  0  0  0  0
   20.5280   19.2352   21.0931 C   0  0  0  0  0  0  0  0  0  0  0  0
   21.3450   19.1857   20.3603 H   0  0  0  0  0  0  0  0  0  0  0  0
   20.0202   20.1920   20.9095 H   0  0  0  0  0  0  0  0  0  0  0  0
   19.5632   18.0548   20.8193 C   0  0  0  0  0  0  0  0  0  0  0  0
   19.6689   17.7523   19.7682 H   0  0  0  0  0  0  0  0  0  0  0  0
   19.8508   17.1802   21.4190 H   0  0  0  0  0  0  0  0  0  0  0  0
   18.0799   18.4095   21.0657 C   0  0  0  0  0  0  0  0  0  0  0  0
   17.4374   17.5483   20.8415 H   0  0  0  0  0  0  0  0  0  0  0  0
   17.8964   18.7014   22.1058 H   0  0  0  0  0  0  0  0  0  0  0  0
   17.7649   19.2398   20.4203 H   0  0  0  0  0  0  0  0  0  0  0  0
  1  2  1  0  0  0  0
  1  3  2  0  0  0  0
  1  4  1  0  0  0  0
  4  5  1  0  0  0  0
  4  6  1  0  0  0  0
  4  7  1  0  0  0  0
  7  8  1  0  0  0  0
  7  9  1  0  0  0  0
  7 10  1  0  0  0  0
 10 11  1  0  0  0  0
 10 12  1  0  0  0  0
 10 13  1  0  0  0  0
 13 14  1  0  0  0  0
 13 15  1  0  0  0  0
 13 16  1  0  0  0  0
 16 17  1  0  0  0  0
 16 18  1  0  0  0  0
 16 19  1  0  0  0  0
M  END
> <VConfSearch Rank>
985

> <Conf_Id>
53

> <Delta U+W>
2.279

> <U+W>
-52.612

> <U>
10.231

> <W>
-62.843

> <W(PB)>
-64.893

> <W(SA)>
2.050

> <Valence>
9.644

> <Coulomb>
-0.164

> <VdW>
0.751

> <VdW6>
-6.881

> <VdW12>
7.631

> <Bond>
0.163

> <Angle>
2.998

> <Pdih>
6.482

> <Idih>
0.001

> <Tether>
0.000

$$$$
VeraChem MOL file


 19 18  0  0  0  0  0  0  0  0999 V2000     
   21.2368   20.8778   21.5948 C   0  0  0  0  0  0  0  0  0  0  0  0
   22.4194   20.6026   21.6455 O   0  5  0  0  0  0  0  0  0  0  0  0
   20.7540   21.8578   22.1276 O   0  0  0  0  0  0  0  0  0  0  0  0
   20.3239   19.9824   20.7591 C   0  0  0  0  0  0  0  0  0  0  0  0
   20.9243   19.1838   20.3067 H   0  0  0  0  0  0  0  0  0  0  0  0
   19.9549   20.6027   19.9341 H   0  0  0  0  0  0  0  0  0  0  0  0
   19.1097   19.3781   21.5191 C   0  0  0  0  0  0  0  0  0  0  0  0
   18.6332   20.1506   22.1385 H   0  0  0  0  0  0  0  0  0  0  0  0
   18.3580   19.0815   20.7752 H   0  0  0  0  0  0  0  0  0  0  0  0
   19.4368   18.1333   22.3807 C   0  0  0  0  0  0  0  0  0  0  0  0
   19.9061   17.3626   21.7540 H   0  0  0  0  0  0  0  0  0  0  0  0
   18.4897   17.7060   22.7377 H   0  0  0  0  0  0  0  0  0  0  0  0
   20.3371   18.4301   23.6000 C   0  0  0  0  0  0  0  0  0  0  0  0
   21.3372   18.7333   23.2650 H   0  0  0  0  0  0  0  0  0  0  0  0
   19.9218   19.2699   24.1741 H   0  0  0  0  0  0  0  0  0  0  0  0
   20.4721   17.1974   24.5166 C   0  0  0  0  0  0  0  0  0  0  0  0
   20.9097   16.3502   23.9725 H   0  0  0  0  0  0  0  0  0  0  0  0
   21.1213   17.4221   25.3729 H   0  0  0  0  0  0  0  0  0  0  0  0
   19.4935   16.8872   24.9057 H   0  0  0  0  0  0  0  0  0  0  0  0
  1  2  1  0  0  0  0
  1  3  2  0  0  0  0
  1  4  1  0  0  0  0
  4  5  1  0  0  0  0
  4  6  1  0  0  0  0
  4  7  1  0  0  0  0
  7  8  1  0  0  0  0
  7  9  1  0  0  0  0
  7 10  1  0  0  0  0
 10 11  1  0  0  0  0
 10 12  1  0  0  0  0
 10 13  1  0  0  0  0
 13 14  1  0  0  0  0
 13 15  1  0  0  0  0
 13 16  1  0  0  0  0
 16 17  1  0  0  0  0
 16 18  1  0  0  0  0
 16 19  1  0  0  0  0
M  END
> <VConfSearch Rank>
986

> <Conf_Id>
25

> <Delta U+W>
2.065

> <U+W>
-52.826

> <U>
10.967

> <W>
-63.794

> <W(PB)>
-65.830

> <W(SA)>
2.036

> <Valence>
8.609

> <Coulomb>
1.892

> <VdW>
0.467

> <VdW6>
-7.569

> <VdW12>
8.036

> <Bond>
0.170

> <Angle>
3.195

> <Pdih>
5.237

> <Idih>
0.007

> <Tether>
0.000

$$$$
VeraChem MOL file


 19 18  0  0  0  0  0  0  0  0999 V2000     
   21.0333   16.6113   22.4210 C   0  0  0  0  0  0  0  0  0  0  0  0
   22.0050   16.5662   23.1498 O   0  5  0  0  0  0  0  0  0  0  0  0
   21.0775   16.3702   21.2307 O   0  0  0  0  0  0  0  0  0  0  0  0
   19.6727   16.9180   23.0440 C   0  0  0  0  0  0  0  0  0  0  0  0
   19.4645   16.1028   23.7465 H   0  0  0  0  0  0  0  0  0  0  0  0
   18.9031   16.8643   22.2644 H   0  0  0  0  0  0  0  0  0  0  0  0
   19.5789   18.2731   23.8003 C   0  0  0  0  0  0  0  0  0  0  0  0
   18.7257   18.2178   24.4898 H   0  0  0  0  0  0  0  0  0  0  0  0
   20.4681   18.4127   24.4307 H   0  0  0  0  0  0  0  0  0  0  0  0
   19.3717   19.5108   22.8926 C   0  0  0  0  0  0  0  0  0  0  0  0
   19.1644   20.3764   23.5365 H   0  0  0  0  0  0  0  0  0  0  0  0
   18.4775   19.3678   22.2706 H   0  0  0  0  0  0  0  0  0  0  0  0
   20.5825   19.8416   21.9925 C   0  0  0  0  0  0  0  0  0  0  0  0
   21.4972   19.8855   22.5999 H   0  0  0  0  0  0  0  0  0  0  0  0
   20.7280   19.0471   21.2496 H   0  0  0  0  0  0  0  0  0  0  0  0
   20.3897   21.1824   21.2557 C   0  0  0  0  0  0  0  0  0  0  0  0
   21.2541   21.3985   20.6145 H   0  0  0  0  0  0  0  0  0  0  0  0
   19.4946   21.1556   20.6205 H   0  0  0  0  0  0  0  0  0  0  0  0
   20.2808   22.0109   21.9678 H   0  0  0  0  0  0  0  0  0  0  0  0
  1  2  1  0  0  0  0
  1  3  2  0  0  0  0
  1  4  1  0  0  0  0
  4  5  1  0  0  0  0
  4  6  1  0  0  0  0
  4  7  1  0  0  0  0
  7  8  1  0  0  0  0
  7  9  1  0  0  0  0
  7 10  1  0  0  0  0
 10 11  1  0  0  0  0
 10 12  1  0  0  0  0
 10 13  1  0  0  0  0
 13 14  1  0  0  0  0
 13 15  1  0  0  0  0
 13 16  1  0  0  0  0
 16 17  1  0  0  0  0
 16 18  1  0  0  0  0
 16 19  1  0  0  0  0
M  END
> <VConfSearch Rank>
987

> <Conf_Id>
52

> <Delta U+W>
2.070

> <U+W>
-52.822

> <U>
10.967

> <W>
-63.789

> <W(PB)>
-65.837

> <W(SA)>
2.048

> <Valence>
8.609

> <Coulomb>
1.892

> <VdW>
0.467

> <VdW6>
-7.569

> <VdW12>
8.035

> <Bond>
0.170

> <Angle>
3.196

> <Pdih>
5.237

> <Idih>
0.007

> <Tether>
0.000

$$$$
VeraChem MOL file


 19 18  0  0  0  0  0  0  0  0999 V2000     
   17.9456   18.1516   23.2989 C   0  0  0  0  0  0  0  0  0  0  0  0
   17.8686   18.3838   24.4898 O   0  5  0  0  0  0  0  0  0  0  0  0
   17.0858   18.4714   22.5020 O   0  0  0  0  0  0  0  0  0  0  0  0
   19.1148   17.3072   22.7896 C   0  0  0  0  0  0  0  0  0  0  0  0
   19.1159   17.3227   21.6931 H   0  0  0  0  0  0  0  0  0  0  0  0
   18.8950   16.2754   23.0869 H   0  0  0  0  0  0  0  0  0  0  0  0
   20.5185   17.6982   23.3338 C   0  0  0  0  0  0  0  0  0  0  0  0
   20.4524   17.9410   24.4033 H   0  0  0  0  0  0  0  0  0  0  0  0
   21.1638   16.8117   23.2697 H   0  0  0  0  0  0  0  0  0  0  0  0
   21.2296   18.8475   22.5745 C   0  0  0  0  0  0  0  0  0  0  0  0
   21.3865   18.5631   21.5249 H   0  0  0  0  0  0  0  0  0  0  0  0
   22.2347   18.9544   23.0051 H   0  0  0  0  0  0  0  0  0  0  0  0
   20.5241   20.2226   22.6594 C   0  0  0  0  0  0  0  0  0  0  0  0
   19.8701   20.2651   23.5413 H   0  0  0  0  0  0  0  0  0  0  0  0
   21.2838   21.0025   22.8066 H   0  0  0  0  0  0  0  0  0  0  0  0
   19.7264   20.5646   21.3827 C   0  0  0  0  0  0  0  0  0  0  0  0
   20.3901   20.6226   20.5103 H   0  0  0  0  0  0  0  0  0  0  0  0
   18.9587   19.8103   21.1744 H   0  0  0  0  0  0  0  0  0  0  0  0
   19.2244   21.5346   21.4905 H   0  0  0  0  0  0  0  0  0  0  0  0
  1  2  1  0  0  0  0
  1  3  2  0  0  0  0
  1  4  1  0  0  0  0
  4  5  1  0  0  0  0
  4  6  1  0  0  0  0
  4  7  1  0  0  0  0
  7  8  1  0  0  0  0
  7  9  1  0  0  0  0
  7 10  1  0  0  0  0
 10 11  1  0  0  0  0
 10 12  1  0  0  0  0
 10 13  1  0  0  0  0
 13 14  1  0  0  0  0
 13 15  1  0  0  0  0
 13 16  1  0  0  0  0
 16 17  1  0  0  0  0
 16 18  1  0  0  0  0
 16 19  1  0  0  0  0
M  END
> <VConfSearch Rank>
988

> <Conf_Id>
66

> <Delta U+W>
5.819

> <U+W>
-49.072

> <U>
15.324

> <W>
-64.396

> <W(PB)>
-66.382

> <W(SA)>
1.986

> <Valence>
11.748

> <Coulomb>
3.201

> <VdW>
0.375

> <VdW6>
-8.854

> <VdW12>
9.229

> <Bond>
0.216

> <Angle>
3.812

> <Pdih>
7.699

> <Idih>
0.022

> <Tether>
0.000

$$$$
