VeraChem MOL file


 26 25  0  0  0  0  0  0  0  0999 V2000     
   19.9053   19.3107   18.8162 C   0  0  0  0  0  0  0  0  0  0  0  0
   18.8108   19.3587   18.7447 H   0  0  0  0  0  0  0  0  0  0  0  0
   20.2947   20.3369   18.7942 H   0  0  0  0  0  0  0  0  0  0  0  0
   20.2786   18.7894   17.9252 H   0  0  0  0  0  0  0  0  0  0  0  0
   20.3457   18.5776   20.1010 C   0  0  0  0  0  0  0  0  0  0  0  0
   21.4427   18.5156   20.1275 H   0  0  0  0  0  0  0  0  0  0  0  0
   19.9702   17.5449   20.0784 H   0  0  0  0  0  0  0  0  0  0  0  0
   19.8327   19.2913   21.3714 C   0  0  0  0  0  0  0  0  0  0  0  0
   20.2085   20.3237   21.3883 H   0  0  0  0  0  0  0  0  0  0  0  0
   18.7361   19.3528   21.3393 H   0  0  0  0  0  0  0  0  0  0  0  0
   20.2719   18.5601   22.6602 C   0  0  0  0  0  0  0  0  0  0  0  0
   21.3686   18.4988   22.6913 H   0  0  0  0  0  0  0  0  0  0  0  0
   19.8961   17.5277   22.6421 H   0  0  0  0  0  0  0  0  0  0  0  0
   19.7583   19.2745   23.9308 C   0  0  0  0  0  0  0  0  0  0  0  0
   20.1339   20.3071   23.9492 H   0  0  0  0  0  0  0  0  0  0  0  0
   18.6614   19.3359   23.9000 H   0  0  0  0  0  0  0  0  0  0  0  0
   20.1969   18.5443   25.2193 C   0  0  0  0  0  0  0  0  0  0  0  0
   21.2929   18.4857   25.2564 H   0  0  0  0  0  0  0  0  0  0  0  0
   19.8190   17.5133   25.2071 H   0  0  0  0  0  0  0  0  0  0  0  0
   19.6802   19.2637   26.4777 C   0  0  0  0  0  0  0  0  0  0  0  0
   20.0674   20.2859   26.5026 H   0  0  0  0  0  0  0  0  0  0  0  0
   18.5881   19.3100   26.4530 H   0  0  0  0  0  0  0  0  0  0  0  0
   20.0901   18.5768   27.7644 N   0  3  0  0  0  0  0  0  0  0  0  0
   19.7358   19.0720   28.5901 H   0  0  0  0  0  0  0  0  0  0  0  0
   21.1094   18.5252   27.8622 H   0  0  0  0  0  0  0  0  0  0  0  0
   19.7329   17.6171   27.8161 H   0  0  0  0  0  0  0  0  0  0  0  0
  1  2  1  0  0  0  0
  1  3  1  0  0  0  0
  1  4  1  0  0  0  0
  1  5  1  0  0  0  0
  5  6  1  0  0  0  0
  5  7  1  0  0  0  0
  5  8  1  0  0  0  0
  8  9  1  0  0  0  0
  8 10  1  0  0  0  0
  8 11  1  0  0  0  0
 11 12  1  0  0  0  0
 11 13  1  0  0  0  0
 11 14  1  0  0  0  0
 14 15  1  0  0  0  0
 14 16  1  0  0  0  0
 14 17  1  0  0  0  0
 17 18  1  0  0  0  0
 17 19  1  0  0  0  0
 17 20  1  0  0  0  0
 20 21  1  0  0  0  0
 20 22  1  0  0  0  0
 20 23  1  0  0  0  0
 23 24  1  0  0  0  0
 23 25  1  0  0  0  0
 23 26  1  0  0  0  0
M  END
> <VConfSearch Rank>
1

> <Conf_Id>
25

> <Delta U+W>
0.000

> <U+W>
-5.552

> <U>
47.192

> <W>
-52.745

> <W(PB)>
-55.134

> <W(SA)>
2.389

> <Valence>
2.156

> <Coulomb>
44.449

> <VdW>
0.587

> <VdW6>
-5.761

> <VdW12>
6.348

> <Bond>
0.129

> <Angle>
0.393

> <Pdih>
1.634

> <Idih>
0.000

> <Tether>
0.000

$$$$
VeraChem MOL file


 26 25  0  0  0  0  0  0  0  0999 V2000     
   20.1409   19.6499   19.0008 C   0  0  0  0  0  0  0  0  0  0  0  0
   19.1348   20.0855   18.9420 H   0  0  0  0  0  0  0  0  0  0  0  0
   20.8622   20.4696   19.1149 H   0  0  0  0  0  0  0  0  0  0  0  0
   20.3477   19.1494   18.0460 H   0  0  0  0  0  0  0  0  0  0  0  0
   20.2455   18.6516   20.1733 C   0  0  0  0  0  0  0  0  0  0  0  0
   21.2509   18.2079   20.1856 H   0  0  0  0  0  0  0  0  0  0  0  0
   19.5369   17.8267   20.0140 H   0  0  0  0  0  0  0  0  0  0  0  0
   19.9586   19.3310   21.5306 C   0  0  0  0  0  0  0  0  0  0  0  0
   20.6677   20.1562   21.6841 H   0  0  0  0  0  0  0  0  0  0  0  0
   18.9535   19.7749   21.5127 H   0  0  0  0  0  0  0  0  0  0  0  0
   20.0625   18.3343   22.7072 C   0  0  0  0  0  0  0  0  0  0  0  0
   21.0678   17.8910   22.7245 H   0  0  0  0  0  0  0  0  0  0  0  0
   19.3537   17.5091   22.5519 H   0  0  0  0  0  0  0  0  0  0  0  0
   19.7748   19.0142   24.0649 C   0  0  0  0  0  0  0  0  0  0  0  0
   20.4825   19.8409   24.2124 H   0  0  0  0  0  0  0  0  0  0  0  0
   18.7682   19.4550   24.0484 H   0  0  0  0  0  0  0  0  0  0  0  0
   19.8802   18.0151   25.2413 C   0  0  0  0  0  0  0  0  0  0  0  0
   20.8925   17.5916   25.2861 H   0  0  0  0  0  0  0  0  0  0  0  0
   19.1961   17.1740   25.0665 H   0  0  0  0  0  0  0  0  0  0  0  0
   19.5296   18.6544   26.5987 C   0  0  0  0  0  0  0  0  0  0  0  0
   18.5244   19.0824   26.5554 H   0  0  0  0  0  0  0  0  0  0  0  0
   19.5392   17.8847   27.3753 H   0  0  0  0  0  0  0  0  0  0  0  0
   20.4890   19.7485   27.0243 N   0  3  0  0  0  0  0  0  0  0  0  0
   20.5018   20.5239   26.3546 H   0  0  0  0  0  0  0  0  0  0  0  0
   21.4504   19.4016   27.1052 H   0  0  0  0  0  0  0  0  0  0  0  0
   20.2354   20.1437   27.9363 H   0  0  0  0  0  0  0  0  0  0  0  0
  1  2  1  0  0  0  0
  1  3  1  0  0  0  0
  1  4  1  0  0  0  0
  1  5  1  0  0  0  0
  5  6  1  0  0  0  0
  5  7  1  0  0  0  0
  5  8  1  0  0  0  0
  8  9  1  0  0  0  0
  8 10  1  0  0  0  0
  8 11  1  0  0  0  0
 11 12  1  0  0  0  0
 11 13  1  0  0  0  0
 11 14  1  0  0  0  0
 14 15  1  0  0  0  0
 14 16  1  0  0  0  0
 14 17  1  0  0  0  0
 17 18  1  0  0  0  0
 17 19  1  0  0  0  0
 17 20  1  0  0  0  0
 20 21  1  0  0  0  0
 20 22  1  0  0  0  0
 20 23  1  0  0  0  0
 23 24  1  0  0  0  0
 23 25  1  0  0  0  0
 23 26  1  0  0  0  0
M  END
> <VConfSearch Rank>
2

> <Conf_Id>
20

> <Delta U+W>
0.150

> <U+W>
-5.403

> <U>
47.845

> <W>
-53.248

> <W(PB)>
-55.599

> <W(SA)>
2.351

> <Valence>
2.258

> <Coulomb>
44.893

> <VdW>
0.694

> <VdW6>
-6.285

> <VdW12>
6.979

> <Bond>
0.149

> <Angle>
0.434

> <Pdih>
1.675

> <Idih>
0.000

> <Tether>
0.000

$$$$
VeraChem MOL file


 26 25  0  0  0  0  0  0  0  0999 V2000     
   19.4925   19.2224   18.9792 C   0  0  0  0  0  0  0  0  0  0  0  0
   18.4512   18.8791   19.0343 H   0  0  0  0  0  0  0  0  0  0  0  0
   19.4899   20.3199   18.9541 H   0  0  0  0  0  0  0  0  0  0  0  0
   19.9156   18.8646   18.0315 H   0  0  0  0  0  0  0  0  0  0  0  0
   20.3140   18.6968   20.1755 C   0  0  0  0  0  0  0  0  0  0  0  0
   21.3572   19.0277   20.0749 H   0  0  0  0  0  0  0  0  0  0  0  0
   20.3265   17.5980   20.1546 H   0  0  0  0  0  0  0  0  0  0  0  0
   19.7392   19.1863   21.5233 C   0  0  0  0  0  0  0  0  0  0  0  0
   19.7267   20.2849   21.5386 H   0  0  0  0  0  0  0  0  0  0  0  0
   18.6958   18.8552   21.6182 H   0  0  0  0  0  0  0  0  0  0  0  0
   20.5592   18.6619   22.7237 C   0  0  0  0  0  0  0  0  0  0  0  0
   21.6027   18.9926   22.6271 H   0  0  0  0  0  0  0  0  0  0  0  0
   20.5711   17.5633   22.7079 H   0  0  0  0  0  0  0  0  0  0  0  0
   19.9845   19.1524   24.0719 C   0  0  0  0  0  0  0  0  0  0  0  0
   19.9755   20.2512   24.0888 H   0  0  0  0  0  0  0  0  0  0  0  0
   18.9405   18.8235   24.1609 H   0  0  0  0  0  0  0  0  0  0  0  0
   20.8061   18.6257   25.2722 C   0  0  0  0  0  0  0  0  0  0  0  0
   21.8554   18.9279   25.1553 H   0  0  0  0  0  0  0  0  0  0  0  0
   20.7956   17.5276   25.2829 H   0  0  0  0  0  0  0  0  0  0  0  0
   20.2935   19.1582   26.6243 C   0  0  0  0  0  0  0  0  0  0  0  0
   20.9605   18.8221   27.4228 H   0  0  0  0  0  0  0  0  0  0  0  0
   20.2971   20.2515   26.6146 H   0  0  0  0  0  0  0  0  0  0  0  0
   18.8919   18.6953   26.9709 N   0  3  0  0  0  0  0  0  0  0  0  0
   18.8292   17.6731   27.0177 H   0  0  0  0  0  0  0  0  0  0  0  0
   18.2059   19.0098   26.2778 H   0  0  0  0  0  0  0  0  0  0  0  0
   18.5861   19.0561   27.8812 H   0  0  0  0  0  0  0  0  0  0  0  0
  1  2  1  0  0  0  0
  1  3  1  0  0  0  0
  1  4  1  0  0  0  0
  1  5  1  0  0  0  0
  5  6  1  0  0  0  0
  5  7  1  0  0  0  0
  5  8  1  0  0  0  0
  8  9  1  0  0  0  0
  8 10  1  0  0  0  0
  8 11  1  0  0  0  0
 11 12  1  0  0  0  0
 11 13  1  0  0  0  0
 11 14  1  0  0  0  0
 14 15  1  0  0  0  0
 14 16  1  0  0  0  0
 14 17  1  0  0  0  0
 17 18  1  0  0  0  0
 17 19  1  0  0  0  0
 17 20  1  0  0  0  0
 20 21  1  0  0  0  0
 20 22  1  0  0  0  0
 20 23  1  0  0  0  0
 23 24  1  0  0  0  0
 23 25  1  0  0  0  0
 23 26  1  0  0  0  0
M  END
> <VConfSearch Rank>
3

> <Conf_Id>
19

> <Delta U+W>
0.162

> <U+W>
-5.391

> <U>
47.845

> <W>
-53.235

> <W(PB)>
-55.585

> <W(SA)>
2.349

> <Valence>
2.258

> <Coulomb>
44.893

> <VdW>
0.694

> <VdW6>
-6.285

> <VdW12>
6.979

> <Bond>
0.149

> <Angle>
0.434

> <Pdih>
1.675

> <Idih>
0.000

> <Tether>
0.000

$$$$
VeraChem MOL file


 26 25  0  0  0  0  0  0  0  0999 V2000     
   20.1861   19.7829   19.1892 C   0  0  0  0  0  0  0  0  0  0  0  0
   20.2153   18.9015   18.5353 H   0  0  0  0  0  0  0  0  0  0  0  0
   19.1864   20.2305   19.1154 H   0  0  0  0  0  0  0  0  0  0  0  0
   20.9111   20.5118   18.8044 H   0  0  0  0  0  0  0  0  0  0  0  0
   20.5170   19.4032   20.6482 C   0  0  0  0  0  0  0  0  0  0  0  0
   20.5183   20.3141   21.2613 H   0  0  0  0  0  0  0  0  0  0  0  0
   21.5327   18.9860   20.6944 H   0  0  0  0  0  0  0  0  0  0  0  0
   19.5051   18.3790   21.2142 C   0  0  0  0  0  0  0  0  0  0  0  0
   18.4973   18.8166   21.2168 H   0  0  0  0  0  0  0  0  0  0  0  0
   19.4623   17.5112   20.5417 H   0  0  0  0  0  0  0  0  0  0  0  0
   19.8580   17.8796   22.6369 C   0  0  0  0  0  0  0  0  0  0  0  0
   20.8598   17.4283   22.6300 H   0  0  0  0  0  0  0  0  0  0  0  0
   19.1594   17.0751   22.9055 H   0  0  0  0  0  0  0  0  0  0  0  0
   19.7905   18.9867   23.7163 C   0  0  0  0  0  0  0  0  0  0  0  0
   20.5372   19.7635   23.5051 H   0  0  0  0  0  0  0  0  0  0  0  0
   18.8055   19.4728   23.6835 H   0  0  0  0  0  0  0  0  0  0  0  0
   20.0385   18.4225   25.1326 C   0  0  0  0  0  0  0  0  0  0  0  0
   21.0228   17.9368   25.1699 H   0  0  0  0  0  0  0  0  0  0  0  0
   19.2898   17.6521   25.3608 H   0  0  0  0  0  0  0  0  0  0  0  0
   19.9736   19.5298   26.1993 C   0  0  0  0  0  0  0  0  0  0  0  0
   20.7286   20.2913   25.9859 H   0  0  0  0  0  0  0  0  0  0  0  0
   18.9893   20.0054   26.1767 H   0  0  0  0  0  0  0  0  0  0  0  0
   20.2123   19.0153   27.6042 N   0  3  0  0  0  0  0  0  0  0  0  0
   21.1352   18.5792   27.6998 H   0  0  0  0  0  0  0  0  0  0  0  0
   19.5169   18.3132   27.8774 H   0  0  0  0  0  0  0  0  0  0  0  0
   20.1647   19.7686   28.2990 H   0  0  0  0  0  0  0  0  0  0  0  0
  1  2  1  0  0  0  0
  1  3  1  0  0  0  0
  1  4  1  0  0  0  0
  1  5  1  0  0  0  0
  5  6  1  0  0  0  0
  5  7  1  0  0  0  0
  5  8  1  0  0  0  0
  8  9  1  0  0  0  0
  8 10  1  0  0  0  0
  8 11  1  0  0  0  0
 11 12  1  0  0  0  0
 11 13  1  0  0  0  0
 11 14  1  0  0  0  0
 14 15  1  0  0  0  0
 14 16  1  0  0  0  0
 14 17  1  0  0  0  0
 17 18  1  0  0  0  0
 17 19  1  0  0  0  0
 17 20  1  0  0  0  0
 20 21  1  0  0  0  0
 20 22  1  0  0  0  0
 20 23  1  0  0  0  0
 23 24  1  0  0  0  0
 23 25  1  0  0  0  0
 23 26  1  0  0  0  0
M  END
> <VConfSearch Rank>
4

> <Conf_Id>
37

> <Delta U+W>
0.565

> <U+W>
-4.988

> <U>
48.035

> <W>
-53.022

> <W(PB)>
-55.379

> <W(SA)>
2.357

> <Valence>
2.701

> <Coulomb>
44.622

> <VdW>
0.712

> <VdW6>
-6.418

> <VdW12>
7.129

> <Bond>
0.168

> <Angle>
0.659

> <Pdih>
1.875

> <Idih>
0.000

> <Tether>
0.000

$$$$
VeraChem MOL file


 26 25  0  0  0  0  0  0  0  0999 V2000     
   18.9940   18.6488   19.3718 C   0  0  0  0  0  0  0  0  0  0  0  0
   18.3164   17.8689   19.7431 H   0  0  0  0  0  0  0  0  0  0  0  0
   18.4442   19.5988   19.3529 H   0  0  0  0  0  0  0  0  0  0  0  0
   19.2650   18.3957   18.3386 H   0  0  0  0  0  0  0  0  0  0  0  0
   20.2550   18.7551   20.2554 C   0  0  0  0  0  0  0  0  0  0  0  0
   20.9280   19.5178   19.8392 H   0  0  0  0  0  0  0  0  0  0  0  0
   20.8009   17.8016   20.2281 H   0  0  0  0  0  0  0  0  0  0  0  0
   19.9015   19.1117   21.7164 C   0  0  0  0  0  0  0  0  0  0  0  0
   19.3579   20.0662   21.7386 H   0  0  0  0  0  0  0  0  0  0  0  0
   19.2223   18.3476   22.1165 H   0  0  0  0  0  0  0  0  0  0  0  0
   21.1652   19.2145   22.6041 C   0  0  0  0  0  0  0  0  0  0  0  0
   21.8664   19.9260   22.1466 H   0  0  0  0  0  0  0  0  0  0  0  0
   21.6816   18.2449   22.6277 H   0  0  0  0  0  0  0  0  0  0  0  0
   20.8697   19.6801   24.0512 C   0  0  0  0  0  0  0  0  0  0  0  0
   21.8264   19.8360   24.5690 H   0  0  0  0  0  0  0  0  0  0  0  0
   20.3689   20.6580   24.0285 H   0  0  0  0  0  0  0  0  0  0  0  0
   20.0176   18.6765   24.8631 C   0  0  0  0  0  0  0  0  0  0  0  0
   20.4928   17.6868   24.8431 H   0  0  0  0  0  0  0  0  0  0  0  0
   19.0247   18.5688   24.4088 H   0  0  0  0  0  0  0  0  0  0  0  0
   19.8528   19.1348   26.3229 C   0  0  0  0  0  0  0  0  0  0  0  0
   20.8357   19.2278   26.7927 H   0  0  0  0  0  0  0  0  0  0  0  0
   19.3652   20.1131   26.3487 H   0  0  0  0  0  0  0  0  0  0  0  0
   19.0252   18.1775   27.1560 N   0  3  0  0  0  0  0  0  0  0  0  0
   19.4454   17.2430   27.1947 H   0  0  0  0  0  0  0  0  0  0  0  0
   18.0769   18.0669   26.7824 H   0  0  0  0  0  0  0  0  0  0  0  0
   18.9285   18.5014   28.1246 H   0  0  0  0  0  0  0  0  0  0  0  0
  1  2  1  0  0  0  0
  1  3  1  0  0  0  0
  1  4  1  0  0  0  0
  1  5  1  0  0  0  0
  5  6  1  0  0  0  0
  5  7  1  0  0  0  0
  5  8  1  0  0  0  0
  8  9  1  0  0  0  0
  8 10  1  0  0  0  0
  8 11  1  0  0  0  0
 11 12  1  0  0  0  0
 11 13  1  0  0  0  0
 11 14  1  0  0  0  0
 14 15  1  0  0  0  0
 14 16  1  0  0  0  0
 14 17  1  0  0  0  0
 17 18  1  0  0  0  0
 17 19  1  0  0  0  0
 17 20  1  0  0  0  0
 20 21  1  0  0  0  0
 20 22  1  0  0  0  0
 20 23  1  0  0  0  0
 23 24  1  0  0  0  0
 23 25  1  0  0  0  0
 23 26  1  0  0  0  0
M  END
> <VConfSearch Rank>
5

> <Conf_Id>
35

> <Delta U+W>
0.587

> <U+W>
-4.965

> <U>
48.214

> <W>
-53.179

> <W(PB)>
-55.527

> <W(SA)>
2.348

> <Valence>
2.697

> <Coulomb>
44.819

> <VdW>
0.699

> <VdW6>
-6.437

> <VdW12>
7.136

> <Bond>
0.168

> <Angle>
0.657

> <Pdih>
1.872

> <Idih>
0.000

> <Tether>
0.000

$$$$
VeraChem MOL file


 26 25  0  0  0  0  0  0  0  0999 V2000     
   20.8452   19.8697   19.4337 C   0  0  0  0  0  0  0  0  0  0  0  0
   20.1892   20.7497   19.4111 H   0  0  0  0  0  0  0  0  0  0  0  0
   21.8103   20.1734   19.8599 H   0  0  0  0  0  0  0  0  0  0  0  0
   21.0195   19.5526   18.3972 H   0  0  0  0  0  0  0  0  0  0  0  0
   20.2113   18.7262   20.2540 C   0  0  0  0  0  0  0  0  0  0  0  0
   20.8741   17.8498   20.2307 H   0  0  0  0  0  0  0  0  0  0  0  0
   19.2660   18.4214   19.7836 H   0  0  0  0  0  0  0  0  0  0  0  0
   19.9544   19.1467   21.7182 C   0  0  0  0  0  0  0  0  0  0  0  0
   20.9042   19.4572   22.1728 H   0  0  0  0  0  0  0  0  0  0  0  0
   19.2900   20.0215   21.7362 H   0  0  0  0  0  0  0  0  0  0  0  0
   19.3226   17.9993   22.5426 C   0  0  0  0  0  0  0  0  0  0  0  0
   20.0092   17.1420   22.5718 H   0  0  0  0  0  0  0  0  0  0  0  0
   18.4149   17.6498   22.0313 H   0  0  0  0  0  0  0  0  0  0  0  0
   18.9436   18.4098   23.9868 C   0  0  0  0  0  0  0  0  0  0  0  0
   18.2432   19.2561   23.9575 H   0  0  0  0  0  0  0  0  0  0  0  0
   18.4006   17.5767   24.4545 H   0  0  0  0  0  0  0  0  0  0  0  0
   20.1622   18.7719   24.8680 C   0  0  0  0  0  0  0  0  0  0  0  0
   20.6723   19.6553   24.4638 H   0  0  0  0  0  0  0  0  0  0  0  0
   20.8855   17.9457   24.8563 H   0  0  0  0  0  0  0  0  0  0  0  0
   19.7381   19.0592   26.3190 C   0  0  0  0  0  0  0  0  0  0  0  0
   19.0299   19.8920   26.3375 H   0  0  0  0  0  0  0  0  0  0  0  0
   19.2447   18.1787   26.7396 H   0  0  0  0  0  0  0  0  0  0  0  0
   20.9036   19.4162   27.2188 N   0  3  0  0  0  0  0  0  0  0  0  0
   21.3950   20.2551   26.8932 H   0  0  0  0  0  0  0  0  0  0  0  0
   21.5950   18.6606   27.2666 H   0  0  0  0  0  0  0  0  0  0  0  0
   20.5990   19.6032   28.1804 H   0  0  0  0  0  0  0  0  0  0  0  0
  1  2  1  0  0  0  0
  1  3  1  0  0  0  0
  1  4  1  0  0  0  0
  1  5  1  0  0  0  0
  5  6  1  0  0  0  0
  5  7  1  0  0  0  0
  5  8  1  0  0  0  0
  8  9  1  0  0  0  0
  8 10  1  0  0  0  0
  8 11  1  0  0  0  0
 11 12  1  0  0  0  0
 11 13  1  0  0  0  0
 11 14  1  0  0  0  0
 14 15  1  0  0  0  0
 14 16  1  0  0  0  0
 14 17  1  0  0  0  0
 17 18  1  0  0  0  0
 17 19  1  0  0  0  0
 17 20  1  0  0  0  0
 20 21  1  0  0  0  0
 20 22  1  0  0  0  0
 20 23  1  0  0  0  0
 23 24  1  0  0  0  0
 23 25  1  0  0  0  0
 23 26  1  0  0  0  0
M  END
> <VConfSearch Rank>
6

> <Conf_Id>
36

> <Delta U+W>
0.565

> <U+W>
-4.987

> <U>
48.214

> <W>
-53.201

> <W(PB)>
-55.543

> <W(SA)>
2.342

> <Valence>
2.697

> <Coulomb>
44.819

> <VdW>
0.698

> <VdW6>
-6.437

> <VdW12>
7.136

> <Bond>
0.168

> <Angle>
0.657

> <Pdih>
1.872

> <Idih>
0.000

> <Tether>
0.000

$$$$
VeraChem MOL file


 26 25  0  0  0  0  0  0  0  0999 V2000     
   19.7684   18.8534   18.9897 C   0  0  0  0  0  0  0  0  0  0  0  0
   20.5471   19.5752   18.7103 H   0  0  0  0  0  0  0  0  0  0  0  0
   19.7775   18.0441   18.2482 H   0  0  0  0  0  0  0  0  0  0  0  0
   18.7956   19.3581   18.9258 H   0  0  0  0  0  0  0  0  0  0  0  0
   20.0121   18.2958   20.4081 C   0  0  0  0  0  0  0  0  0  0  0  0
   20.9759   17.7681   20.4317 H   0  0  0  0  0  0  0  0  0  0  0  0
   19.2379   17.5527   20.6455 H   0  0  0  0  0  0  0  0  0  0  0  0
   20.0043   19.4156   21.4722 C   0  0  0  0  0  0  0  0  0  0  0  0
   20.7778   20.1571   21.2287 H   0  0  0  0  0  0  0  0  0  0  0  0
   19.0398   19.9414   21.4435 H   0  0  0  0  0  0  0  0  0  0  0  0
   20.2483   18.8612   22.8940 C   0  0  0  0  0  0  0  0  0  0  0  0
   21.2141   18.3380   22.9220 H   0  0  0  0  0  0  0  0  0  0  0  0
   19.4756   18.1167   23.1279 H   0  0  0  0  0  0  0  0  0  0  0  0
   20.2386   19.9852   23.9578 C   0  0  0  0  0  0  0  0  0  0  0  0
   20.9819   20.7471   23.6851 H   0  0  0  0  0  0  0  0  0  0  0  0
   19.2621   20.4893   23.9558 H   0  0  0  0  0  0  0  0  0  0  0  0
   20.5523   19.4744   25.3837 C   0  0  0  0  0  0  0  0  0  0  0  0
   20.6150   20.3340   26.0643 H   0  0  0  0  0  0  0  0  0  0  0  0
   21.5389   18.9923   25.3944 H   0  0  0  0  0  0  0  0  0  0  0  0
   19.4900   18.4917   25.9111 C   0  0  0  0  0  0  0  0  0  0  0  0
   18.5078   18.9719   25.9016 H   0  0  0  0  0  0  0  0  0  0  0  0
   19.4487   17.6099   25.2666 H   0  0  0  0  0  0  0  0  0  0  0  0
   19.7672   18.0215   27.3244 N   0  3  0  0  0  0  0  0  0  0  0  0
   19.0490   17.3686   27.6565 H   0  0  0  0  0  0  0  0  0  0  0  0
   19.7911   18.8018   27.9890 H   0  0  0  0  0  0  0  0  0  0  0  0
   20.6676   17.5364   27.3960 H   0  0  0  0  0  0  0  0  0  0  0  0
  1  2  1  0  0  0  0
  1  3  1  0  0  0  0
  1  4  1  0  0  0  0
  1  5  1  0  0  0  0
  5  6  1  0  0  0  0
  5  7  1  0  0  0  0
  5  8  1  0  0  0  0
  8  9  1  0  0  0  0
  8 10  1  0  0  0  0
  8 11  1  0  0  0  0
 11 12  1  0  0  0  0
 11 13  1  0  0  0  0
 11 14  1  0  0  0  0
 14 15  1  0  0  0  0
 14 16  1  0  0  0  0
 14 17  1  0  0  0  0
 17 18  1  0  0  0  0
 17 19  1  0  0  0  0
 17 20  1  0  0  0  0
 20 21  1  0  0  0  0
 20 22  1  0  0  0  0
 20 23  1  0  0  0  0
 23 24  1  0  0  0  0
 23 25  1  0  0  0  0
 23 26  1  0  0  0  0
M  END
> <VConfSearch Rank>
7

> <Conf_Id>
44

> <Delta U+W>
0.371

> <U+W>
-5.181

> <U>
48.002

> <W>
-53.183

> <W(PB)>
-55.533

> <W(SA)>
2.350

> <Valence>
2.459

> <Coulomb>
44.901

> <VdW>
0.643

> <VdW6>
-6.362

> <VdW12>
7.005

> <Bond>
0.151

> <Angle>
0.519

> <Pdih>
1.789

> <Idih>
0.000

> <Tether>
0.000

$$$$
VeraChem MOL file


 26 25  0  0  0  0  0  0  0  0999 V2000     
   19.4648   18.8449   19.4138 C   0  0  0  0  0  0  0  0  0  0  0  0
   18.8666   19.7653   19.4127 H   0  0  0  0  0  0  0  0  0  0  0  0
   19.7352   18.6196   18.3740 H   0  0  0  0  0  0  0  0  0  0  0  0
   18.8331   18.0239   19.7743 H   0  0  0  0  0  0  0  0  0  0  0  0
   20.7353   19.0085   20.2789 C   0  0  0  0  0  0  0  0  0  0  0  0
   21.3918   19.7506   19.8033 H   0  0  0  0  0  0  0  0  0  0  0  0
   21.2981   18.0647   20.2926 H   0  0  0  0  0  0  0  0  0  0  0  0
   20.4418   19.4646   21.7289 C   0  0  0  0  0  0  0  0  0  0  0  0
   21.4011   19.6841   22.2144 H   0  0  0  0  0  0  0  0  0  0  0  0
   19.8805   20.4089   21.7094 H   0  0  0  0  0  0  0  0  0  0  0  0
   19.6666   18.4117   22.5616 C   0  0  0  0  0  0  0  0  0  0  0  0
   20.2295   17.4685   22.5846 H   0  0  0  0  0  0  0  0  0  0  0  0
   18.7118   18.1893   22.0682 H   0  0  0  0  0  0  0  0  0  0  0  0
   19.3595   18.8684   24.0094 C   0  0  0  0  0  0  0  0  0  0  0  0
   18.8090   19.8191   23.9863 H   0  0  0  0  0  0  0  0  0  0  0  0
   18.6829   18.1316   24.4619 H   0  0  0  0  0  0  0  0  0  0  0  0
   20.6218   19.0165   24.8958 C   0  0  0  0  0  0  0  0  0  0  0  0
   21.2832   19.7851   24.4778 H   0  0  0  0  0  0  0  0  0  0  0  0
   21.1921   18.0781   24.8992 H   0  0  0  0  0  0  0  0  0  0  0  0
   20.2858   19.4186   26.3451 C   0  0  0  0  0  0  0  0  0  0  0  0
   21.2135   19.6037   26.8935 H   0  0  0  0  0  0  0  0  0  0  0  0
   19.7002   20.3419   26.3447 H   0  0  0  0  0  0  0  0  0  0  0  0
   19.5053   18.3657   27.1076 N   0  3  0  0  0  0  0  0  0  0  0  0
   18.6014   18.1693   26.6670 H   0  0  0  0  0  0  0  0  0  0  0  0
   19.3119   18.6591   28.0714 H   0  0  0  0  0  0  0  0  0  0  0  0
   20.0156   17.4782   27.1616 H   0  0  0  0  0  0  0  0  0  0  0  0
  1  2  1  0  0  0  0
  1  3  1  0  0  0  0
  1  4  1  0  0  0  0
  1  5  1  0  0  0  0
  5  6  1  0  0  0  0
  5  7  1  0  0  0  0
  5  8  1  0  0  0  0
  8  9  1  0  0  0  0
  8 10  1  0  0  0  0
  8 11  1  0  0  0  0
 11 12  1  0  0  0  0
 11 13  1  0  0  0  0
 11 14  1  0  0  0  0
 14 15  1  0  0  0  0
 14 16  1  0  0  0  0
 14 17  1  0  0  0  0
 17 18  1  0  0  0  0
 17 19  1  0  0  0  0
 17 20  1  0  0  0  0
 20 21  1  0  0  0  0
 20 22  1  0  0  0  0
 20 23  1  0  0  0  0
 23 24  1  0  0  0  0
 23 25  1  0  0  0  0
 23 26  1  0  0  0  0
M  END
> <VConfSearch Rank>
8

> <Conf_Id>
112

> <Delta U+W>
1.422

> <U+W>
-4.130

> <U>
49.323

> <W>
-53.453

> <W(PB)>
-55.749

> <W(SA)>
2.296

> <Valence>
3.408

> <Coulomb>
44.893

> <VdW>
1.021

> <VdW6>
-7.481

> <VdW12>
8.503

> <Bond>
0.239

> <Angle>
1.013

> <Pdih>
2.156

> <Idih>
0.000

> <Tether>
0.000

$$$$
VeraChem MOL file


 26 25  0  0  0  0  0  0  0  0999 V2000     
   19.3376   18.2962   19.7042 C   0  0  0  0  0  0  0  0  0  0  0  0
   19.3790   18.2081   18.6109 H   0  0  0  0  0  0  0  0  0  0  0  0
   19.6114   17.3205   20.1245 H   0  0  0  0  0  0  0  0  0  0  0  0
   18.2985   18.5124   19.9846 H   0  0  0  0  0  0  0  0  0  0  0  0
   20.2889   19.4117   20.1935 C   0  0  0  0  0  0  0  0  0  0  0  0
   20.0496   20.3417   19.6590 H   0  0  0  0  0  0  0  0  0  0  0  0
   21.3238   19.1595   19.9233 H   0  0  0  0  0  0  0  0  0  0  0  0
   20.1940   19.6745   21.7158 C   0  0  0  0  0  0  0  0  0  0  0  0
   20.8224   20.5420   21.9602 H   0  0  0  0  0  0  0  0  0  0  0  0
   19.1630   19.9561   21.9666 H   0  0  0  0  0  0  0  0  0  0  0  0
   20.6416   18.4654   22.5758 C   0  0  0  0  0  0  0  0  0  0  0  0
   21.6216   18.1181   22.2208 H   0  0  0  0  0  0  0  0  0  0  0  0
   19.9467   17.6266   22.4371 H   0  0  0  0  0  0  0  0  0  0  0  0
   20.7537   18.7888   24.0861 C   0  0  0  0  0  0  0  0  0  0  0  0
   21.1896   17.9165   24.5908 H   0  0  0  0  0  0  0  0  0  0  0  0
   21.4613   19.6164   24.2337 H   0  0  0  0  0  0  0  0  0  0  0  0
   19.3958   19.1396   24.7446 C   0  0  0  0  0  0  0  0  0  0  0  0
   18.6760   18.3268   24.5797 H   0  0  0  0  0  0  0  0  0  0  0  0
   18.9735   20.0346   24.2713 H   0  0  0  0  0  0  0  0  0  0  0  0
   19.5220   19.4159   26.2554 C   0  0  0  0  0  0  0  0  0  0  0  0
   20.2520   20.2122   26.4243 H   0  0  0  0  0  0  0  0  0  0  0  0
   18.5564   19.7509   26.6439 H   0  0  0  0  0  0  0  0  0  0  0  0
   19.9474   18.2069   27.0655 N   0  3  0  0  0  0  0  0  0  0  0  0
   20.8681   17.8614   26.7776 H   0  0  0  0  0  0  0  0  0  0  0  0
   19.2867   17.4296   26.9650 H   0  0  0  0  0  0  0  0  0  0  0  0
   20.0072   18.4216   28.0668 H   0  0  0  0  0  0  0  0  0  0  0  0
  1  2  1  0  0  0  0
  1  3  1  0  0  0  0
  1  4  1  0  0  0  0
  1  5  1  0  0  0  0
  5  6  1  0  0  0  0
  5  7  1  0  0  0  0
  5  8  1  0  0  0  0
  8  9  1  0  0  0  0
  8 10  1  0  0  0  0
  8 11  1  0  0  0  0
 11 12  1  0  0  0  0
 11 13  1  0  0  0  0
 11 14  1  0  0  0  0
 14 15  1  0  0  0  0
 14 16  1  0  0  0  0
 14 17  1  0  0  0  0
 17 18  1  0  0  0  0
 17 19  1  0  0  0  0
 17 20  1  0  0  0  0
 20 21  1  0  0  0  0
 20 22  1  0  0  0  0
 20 23  1  0  0  0  0
 23 24  1  0  0  0  0
 23 25  1  0  0  0  0
 23 26  1  0  0  0  0
M  END
> <VConfSearch Rank>
9

> <Conf_Id>
130

> <Delta U+W>
1.282

> <U+W>
-4.270

> <U>
49.153

> <W>
-53.422

> <W(PB)>
-55.725

> <W(SA)>
2.303

> <Valence>
3.298

> <Coulomb>
44.907

> <VdW>
0.948

> <VdW6>
-7.574

> <VdW12>
8.522

> <Bond>
0.229

> <Angle>
0.912

> <Pdih>
2.157

> <Idih>
0.000

> <Tether>
0.000

$$$$
VeraChem MOL file


 26 25  0  0  0  0  0  0  0  0999 V2000     
   20.3379   17.9520   20.0145 C   0  0  0  0  0  0  0  0  0  0  0  0
   19.3510   17.6231   19.6642 H   0  0  0  0  0  0  0  0  0  0  0  0
   21.0576   17.7774   19.2043 H   0  0  0  0  0  0  0  0  0  0  0  0
   20.6323   17.3178   20.8600 H   0  0  0  0  0  0  0  0  0  0  0  0
   20.3178   19.4462   20.4082 C   0  0  0  0  0  0  0  0  0  0  0  0
   20.1373   20.0470   19.5059 H   0  0  0  0  0  0  0  0  0  0  0  0
   21.3086   19.7467   20.7742 H   0  0  0  0  0  0  0  0  0  0  0  0
   19.2301   19.7936   21.4566 C   0  0  0  0  0  0  0  0  0  0  0  0
   19.2669   20.8726   21.6604 H   0  0  0  0  0  0  0  0  0  0  0  0
   18.2415   19.6053   21.0157 H   0  0  0  0  0  0  0  0  0  0  0  0
   19.3287   19.0235   22.7991 C   0  0  0  0  0  0  0  0  0  0  0  0
   19.1884   17.9486   22.6247 H   0  0  0  0  0  0  0  0  0  0  0  0
   18.4880   19.3387   23.4309 H   0  0  0  0  0  0  0  0  0  0  0  0
   20.6610   19.2628   23.5537 C   0  0  0  0  0  0  0  0  0  0  0  0
   21.5005   18.9202   22.9350 H   0  0  0  0  0  0  0  0  0  0  0  0
   20.8092   20.3398   23.7132 H   0  0  0  0  0  0  0  0  0  0  0  0
   20.7299   18.5254   24.9118 C   0  0  0  0  0  0  0  0  0  0  0  0
   21.7349   18.6538   25.3353 H   0  0  0  0  0  0  0  0  0  0  0  0
   20.5907   17.4475   24.7539 H   0  0  0  0  0  0  0  0  0  0  0  0
   19.6896   19.0400   25.9245 C   0  0  0  0  0  0  0  0  0  0  0  0
   19.8277   20.1133   26.0803 H   0  0  0  0  0  0  0  0  0  0  0  0
   18.6812   18.8750   25.5367 H   0  0  0  0  0  0  0  0  0  0  0  0
   19.7860   18.3555   27.2726 N   0  3  0  0  0  0  0  0  0  0  0  0
   19.6385   17.3436   27.1988 H   0  0  0  0  0  0  0  0  0  0  0  0
   19.0857   18.7121   27.9320 H   0  0  0  0  0  0  0  0  0  0  0  0
   20.7038   18.4957   27.7075 H   0  0  0  0  0  0  0  0  0  0  0  0
  1  2  1  0  0  0  0
  1  3  1  0  0  0  0
  1  4  1  0  0  0  0
  1  5  1  0  0  0  0
  5  6  1  0  0  0  0
  5  7  1  0  0  0  0
  5  8  1  0  0  0  0
  8  9  1  0  0  0  0
  8 10  1  0  0  0  0
  8 11  1  0  0  0  0
 11 12  1  0  0  0  0
 11 13  1  0  0  0  0
 11 14  1  0  0  0  0
 14 15  1  0  0  0  0
 14 16  1  0  0  0  0
 14 17  1  0  0  0  0
 17 18  1  0  0  0  0
 17 19  1  0  0  0  0
 17 20  1  0  0  0  0
 20 21  1  0  0  0  0
 20 22  1  0  0  0  0
 20 23  1  0  0  0  0
 23 24  1  0  0  0  0
 23 25  1  0  0  0  0
 23 26  1  0  0  0  0
M  END
> <VConfSearch Rank>
10

> <Conf_Id>
111

> <Delta U+W>
1.290

> <U+W>
-4.262

> <U>
49.209

> <W>
-53.471

> <W(PB)>
-55.745

> <W(SA)>
2.274

> <Valence>
3.465

> <Coulomb>
44.958

> <VdW>
0.786

> <VdW6>
-7.903

> <VdW12>
8.689

> <Bond>
0.237

> <Angle>
1.212

> <Pdih>
2.015

> <Idih>
0.000

> <Tether>
0.000

$$$$
VeraChem MOL file


 26 25  0  0  0  0  0  0  0  0999 V2000     
   19.5016   19.7818   19.3854 C   0  0  0  0  0  0  0  0  0  0  0  0
   19.8936   20.8017   19.4919 H   0  0  0  0  0  0  0  0  0  0  0  0
   20.1442   19.2405   18.6788 H   0  0  0  0  0  0  0  0  0  0  0  0
   18.4989   19.8505   18.9439 H   0  0  0  0  0  0  0  0  0  0  0  0
   19.4481   19.0631   20.7503 C   0  0  0  0  0  0  0  0  0  0  0  0
   19.0251   18.0578   20.6161 H   0  0  0  0  0  0  0  0  0  0  0  0
   18.7656   19.6103   21.4140 H   0  0  0  0  0  0  0  0  0  0  0  0
   20.8507   18.9581   21.3945 C   0  0  0  0  0  0  0  0  0  0  0  0
   21.5357   18.4792   20.6812 H   0  0  0  0  0  0  0  0  0  0  0  0
   21.2509   19.9650   21.5769 H   0  0  0  0  0  0  0  0  0  0  0  0
   20.8688   18.1453   22.7124 C   0  0  0  0  0  0  0  0  0  0  0  0
   21.9132   18.0246   23.0316 H   0  0  0  0  0  0  0  0  0  0  0  0
   20.4847   17.1331   22.5249 H   0  0  0  0  0  0  0  0  0  0  0  0
   20.0652   18.8059   23.8584 C   0  0  0  0  0  0  0  0  0  0  0  0
   20.4153   19.8374   23.9976 H   0  0  0  0  0  0  0  0  0  0  0  0
   19.0026   18.8613   23.5877 H   0  0  0  0  0  0  0  0  0  0  0  0
   20.2069   18.0193   25.1830 C   0  0  0  0  0  0  0  0  0  0  0  0
   21.2606   17.9855   25.4905 H   0  0  0  0  0  0  0  0  0  0  0  0
   19.8936   16.9790   25.0230 H   0  0  0  0  0  0  0  0  0  0  0  0
   19.3578   18.6146   26.3227 C   0  0  0  0  0  0  0  0  0  0  0  0
   18.3086   18.6545   26.0180 H   0  0  0  0  0  0  0  0  0  0  0  0
   19.4326   17.9720   27.2043 H   0  0  0  0  0  0  0  0  0  0  0  0
   19.7818   20.0108   26.7344 N   0  3  0  0  0  0  0  0  0  0  0  0
   19.2059   20.3726   27.5024 H   0  0  0  0  0  0  0  0  0  0  0  0
   19.7008   20.6762   25.9595 H   0  0  0  0  0  0  0  0  0  0  0  0
   20.7557   20.0342   27.0539 H   0  0  0  0  0  0  0  0  0  0  0  0
  1  2  1  0  0  0  0
  1  3  1  0  0  0  0
  1  4  1  0  0  0  0
  1  5  1  0  0  0  0
  5  6  1  0  0  0  0
  5  7  1  0  0  0  0
  5  8  1  0  0  0  0
  8  9  1  0  0  0  0
  8 10  1  0  0  0  0
  8 11  1  0  0  0  0
 11 12  1  0  0  0  0
 11 13  1  0  0  0  0
 11 14  1  0  0  0  0
 14 15  1  0  0  0  0
 14 16  1  0  0  0  0
 14 17  1  0  0  0  0
 17 18  1  0  0  0  0
 17 19  1  0  0  0  0
 17 20  1  0  0  0  0
 20 21  1  0  0  0  0
 20 22  1  0  0  0  0
 20 23  1  0  0  0  0
 23 24  1  0  0  0  0
 23 25  1  0  0  0  0
 23 26  1  0  0  0  0
M  END
> <VConfSearch Rank>
11

> <Conf_Id>
105

> <Delta U+W>
0.736

> <U+W>
-4.817

> <U>
48.735

> <W>
-53.552

> <W(PB)>
-55.889

> <W(SA)>
2.337

> <Valence>
2.803

> <Coulomb>
45.123

> <VdW>
0.809

> <VdW6>
-6.953

> <VdW12>
7.761

> <Bond>
0.188

> <Angle>
0.699

> <Pdih>
1.917

> <Idih>
0.000

> <Tether>
0.000

$$$$
VeraChem MOL file


 26 25  0  0  0  0  0  0  0  0999 V2000     
   19.6024   20.0066   19.7417 C   0  0  0  0  0  0  0  0  0  0  0  0
   19.6405   19.2719   18.9268 H   0  0  0  0  0  0  0  0  0  0  0  0
   18.5481   20.2002   19.9787 H   0  0  0  0  0  0  0  0  0  0  0  0
   20.0422   20.9421   19.3723 H   0  0  0  0  0  0  0  0  0  0  0  0
   20.3655   19.4988   20.9834 C   0  0  0  0  0  0  0  0  0  0  0  0
   20.3391   20.2751   21.7596 H   0  0  0  0  0  0  0  0  0  0  0  0
   21.4219   19.3426   20.7238 H   0  0  0  0  0  0  0  0  0  0  0  0
   19.7610   18.1822   21.5254 C   0  0  0  0  0  0  0  0  0  0  0  0
   18.7174   18.3475   21.8238 H   0  0  0  0  0  0  0  0  0  0  0  0
   19.7269   17.4445   20.7118 H   0  0  0  0  0  0  0  0  0  0  0  0
   20.5610   17.5694   22.7042 C   0  0  0  0  0  0  0  0  0  0  0  0
   21.5627   17.2932   22.3470 H   0  0  0  0  0  0  0  0  0  0  0  0
   20.0802   16.6283   23.0046 H   0  0  0  0  0  0  0  0  0  0  0  0
   20.7119   18.4770   23.9527 C   0  0  0  0  0  0  0  0  0  0  0  0
   21.3068   17.9318   24.6972 H   0  0  0  0  0  0  0  0  0  0  0  0
   21.2952   19.3719   23.6982 H   0  0  0  0  0  0  0  0  0  0  0  0
   19.3593   18.8954   24.5816 C   0  0  0  0  0  0  0  0  0  0  0  0
   18.7633   18.0046   24.8203 H   0  0  0  0  0  0  0  0  0  0  0  0
   18.7780   19.4784   23.8563 H   0  0  0  0  0  0  0  0  0  0  0  0
   19.5336   19.7534   25.8496 C   0  0  0  0  0  0  0  0  0  0  0  0
   20.1429   20.6315   25.6192 H   0  0  0  0  0  0  0  0  0  0  0  0
   18.5537   20.0985   26.1905 H   0  0  0  0  0  0  0  0  0  0  0  0
   20.1862   19.0162   27.0026 N   0  3  0  0  0  0  0  0  0  0  0  0
   21.1294   18.6952   26.7632 H   0  0  0  0  0  0  0  0  0  0  0  0
   19.6463   18.1902   27.2806 H   0  0  0  0  0  0  0  0  0  0  0  0
   20.2735   19.6107   27.8339 H   0  0  0  0  0  0  0  0  0  0  0  0
  1  2  1  0  0  0  0
  1  3  1  0  0  0  0
  1  4  1  0  0  0  0
  1  5  1  0  0  0  0
  5  6  1  0  0  0  0
  5  7  1  0  0  0  0
  5  8  1  0  0  0  0
  8  9  1  0  0  0  0
  8 10  1  0  0  0  0
  8 11  1  0  0  0  0
 11 12  1  0  0  0  0
 11 13  1  0  0  0  0
 11 14  1  0  0  0  0
 14 15  1  0  0  0  0
 14 16  1  0  0  0  0
 14 17  1  0  0  0  0
 17 18  1  0  0  0  0
 17 19  1  0  0  0  0
 17 20  1  0  0  0  0
 20 21  1  0  0  0  0
 20 22  1  0  0  0  0
 20 23  1  0  0  0  0
 23 24  1  0  0  0  0
 23 25  1  0  0  0  0
 23 26  1  0  0  0  0
M  END
> <VConfSearch Rank>
12

> <Conf_Id>
144

> <Delta U+W>
1.073

> <U+W>
-4.479

> <U>
49.231

> <W>
-53.710

> <W(PB)>
-55.983

> <W(SA)>
2.273

> <Valence>
3.276

> <Coulomb>
45.175

> <VdW>
0.779

> <VdW6>
-7.944

> <VdW12>
8.723

> <Bond>
0.239

> <Angle>
1.155

> <Pdih>
1.883

> <Idih>
0.000

> <Tether>
0.000

$$$$
VeraChem MOL file


 26 25  0  0  0  0  0  0  0  0999 V2000     
   19.5911   19.1549   19.6441 C   0  0  0  0  0  0  0  0  0  0  0  0
   20.4893   19.7841   19.6273 H   0  0  0  0  0  0  0  0  0  0  0  0
   19.4972   18.6901   18.6541 H   0  0  0  0  0  0  0  0  0  0  0  0
   18.7186   19.8040   19.7937 H   0  0  0  0  0  0  0  0  0  0  0  0
   19.6730   18.0712   20.7435 C   0  0  0  0  0  0  0  0  0  0  0  0
   20.5714   17.4565   20.5928 H   0  0  0  0  0  0  0  0  0  0  0  0
   18.8151   17.3934   20.6322 H   0  0  0  0  0  0  0  0  0  0  0  0
   19.6651   18.6459   22.1809 C   0  0  0  0  0  0  0  0  0  0  0  0
   18.7762   19.2764   22.3198 H   0  0  0  0  0  0  0  0  0  0  0  0
   19.5684   17.8025   22.8760 H   0  0  0  0  0  0  0  0  0  0  0  0
   20.9426   19.4483   22.5324 C   0  0  0  0  0  0  0  0  0  0  0  0
   21.1023   20.2313   21.7805 H   0  0  0  0  0  0  0  0  0  0  0  0
   21.8164   18.7851   22.4727 H   0  0  0  0  0  0  0  0  0  0  0  0
   20.9097   20.1332   23.9237 C   0  0  0  0  0  0  0  0  0  0  0  0
   21.8459   20.6975   24.0365 H   0  0  0  0  0  0  0  0  0  0  0  0
   20.1062   20.8821   23.9565 H   0  0  0  0  0  0  0  0  0  0  0  0
   20.7828   19.1655   25.1273 C   0  0  0  0  0  0  0  0  0  0  0  0
   21.2674   19.6259   25.9987 H   0  0  0  0  0  0  0  0  0  0  0  0
   21.3298   18.2353   24.9239 H   0  0  0  0  0  0  0  0  0  0  0  0
   19.3197   18.8578   25.5019 C   0  0  0  0  0  0  0  0  0  0  0  0
   18.8034   19.7882   25.7535 H   0  0  0  0  0  0  0  0  0  0  0  0
   18.8007   18.3982   24.6588 H   0  0  0  0  0  0  0  0  0  0  0  0
   19.1970   17.9222   26.6871 N   0  3  0  0  0  0  0  0  0  0  0  0
   19.6372   18.3109   27.5276 H   0  0  0  0  0  0  0  0  0  0  0  0
   19.6404   17.0157   26.5062 H   0  0  0  0  0  0  0  0  0  0  0  0
   18.2168   17.7335   26.9240 H   0  0  0  0  0  0  0  0  0  0  0  0
  1  2  1  0  0  0  0
  1  3  1  0  0  0  0
  1  4  1  0  0  0  0
  1  5  1  0  0  0  0
  5  6  1  0  0  0  0
  5  7  1  0  0  0  0
  5  8  1  0  0  0  0
  8  9  1  0  0  0  0
  8 10  1  0  0  0  0
  8 11  1  0  0  0  0
 11 12  1  0  0  0  0
 11 13  1  0  0  0  0
 11 14  1  0  0  0  0
 14 15  1  0  0  0  0
 14 16  1  0  0  0  0
 14 17  1  0  0  0  0
 17 18  1  0  0  0  0
 17 19  1  0  0  0  0
 17 20  1  0  0  0  0
 20 21  1  0  0  0  0
 20 22  1  0  0  0  0
 20 23  1  0  0  0  0
 23 24  1  0  0  0  0
 23 25  1  0  0  0  0
 23 26  1  0  0  0  0
M  END
> <VConfSearch Rank>
13

> <Conf_Id>
93

> <Delta U+W>
3.253

> <U+W>
-2.300

> <U>
51.609

> <W>
-53.909

> <W(PB)>
-56.178

> <W(SA)>
2.270

> <Valence>
5.204

> <Coulomb>
45.645

> <VdW>
0.760

> <VdW6>
-7.997

> <VdW12>
8.758

> <Bond>
0.240

> <Angle>
1.456

> <Pdih>
3.507

> <Idih>
0.000

> <Tether>
0.000

$$$$
VeraChem MOL file


 26 25  0  0  0  0  0  0  0  0999 V2000     
   20.1331   19.5127   19.6623 C   0  0  0  0  0  0  0  0  0  0  0  0
   19.2031   18.9365   19.5844 H   0  0  0  0  0  0  0  0  0  0  0  0
   19.8728   20.5654   19.8327 H   0  0  0  0  0  0  0  0  0  0  0  0
   20.6428   19.4463   18.6924 H   0  0  0  0  0  0  0  0  0  0  0  0
   21.0451   18.9761   20.7892 C   0  0  0  0  0  0  0  0  0  0  0  0
   22.0099   19.5001   20.7389 H   0  0  0  0  0  0  0  0  0  0  0  0
   21.2638   17.9132   20.6156 H   0  0  0  0  0  0  0  0  0  0  0  0
   20.4537   19.1656   22.2073 C   0  0  0  0  0  0  0  0  0  0  0  0
   21.2341   18.9005   22.9315 H   0  0  0  0  0  0  0  0  0  0  0  0
   20.2174   20.2264   22.3681 H   0  0  0  0  0  0  0  0  0  0  0  0
   19.1986   18.2980   22.4742 C   0  0  0  0  0  0  0  0  0  0  0  0
   19.4674   17.2357   22.3943 H   0  0  0  0  0  0  0  0  0  0  0  0
   18.4518   18.4831   21.6919 H   0  0  0  0  0  0  0  0  0  0  0  0
   18.5177   18.5556   23.8437 C   0  0  0  0  0  0  0  0  0  0  0  0
   18.1439   19.5879   23.8908 H   0  0  0  0  0  0  0  0  0  0  0  0
   17.6265   17.9148   23.8955 H   0  0  0  0  0  0  0  0  0  0  0  0
   19.4003   18.2538   25.0812 C   0  0  0  0  0  0  0  0  0  0  0  0
   20.0492   17.3908   24.8813 H   0  0  0  0  0  0  0  0  0  0  0  0
   18.7465   17.9637   25.9145 H   0  0  0  0  0  0  0  0  0  0  0  0
   20.2401   19.4648   25.5326 C   0  0  0  0  0  0  0  0  0  0  0  0
   20.9054   19.7860   24.7291 H   0  0  0  0  0  0  0  0  0  0  0  0
   19.5767   20.2982   25.7790 H   0  0  0  0  0  0  0  0  0  0  0  0
   21.0924   19.1724   26.7505 N   0  3  0  0  0  0  0  0  0  0  0  0
   20.5233   18.8956   27.5572 H   0  0  0  0  0  0  0  0  0  0  0  0
   21.6396   19.9910   27.0383 H   0  0  0  0  0  0  0  0  0  0  0  0
   21.7592   18.4132   26.5771 H   0  0  0  0  0  0  0  0  0  0  0  0
  1  2  1  0  0  0  0
  1  3  1  0  0  0  0
  1  4  1  0  0  0  0
  1  5  1  0  0  0  0
  5  6  1  0  0  0  0
  5  7  1  0  0  0  0
  5  8  1  0  0  0  0
  8  9  1  0  0  0  0
  8 10  1  0  0  0  0
  8 11  1  0  0  0  0
 11 12  1  0  0  0  0
 11 13  1  0  0  0  0
 11 14  1  0  0  0  0
 14 15  1  0  0  0  0
 14 16  1  0  0  0  0
 14 17  1  0  0  0  0
 17 18  1  0  0  0  0
 17 19  1  0  0  0  0
 17 20  1  0  0  0  0
 20 21  1  0  0  0  0
 20 22  1  0  0  0  0
 20 23  1  0  0  0  0
 23 24  1  0  0  0  0
 23 25  1  0  0  0  0
 23 26  1  0  0  0  0
M  END
> <VConfSearch Rank>
14

> <Conf_Id>
94

> <Delta U+W>
3.247

> <U+W>
-2.305

> <U>
51.609

> <W>
-53.914

> <W(PB)>
-56.221

> <W(SA)>
2.307

> <Valence>
5.204

> <Coulomb>
45.645

> <VdW>
0.760

> <VdW6>
-7.997

> <VdW12>
8.757

> <Bond>
0.240

> <Angle>
1.456

> <Pdih>
3.508

> <Idih>
0.000

> <Tether>
0.000

$$$$
VeraChem MOL file


 26 25  0  0  0  0  0  0  0  0999 V2000     
   20.5615   19.3875   19.2124 C   0  0  0  0  0  0  0  0  0  0  0  0
   19.5329   19.4827   18.8408 H   0  0  0  0  0  0  0  0  0  0  0  0
   20.9779   20.3966   19.3287 H   0  0  0  0  0  0  0  0  0  0  0  0
   21.1498   18.8664   18.4460 H   0  0  0  0  0  0  0  0  0  0  0  0
   20.5995   18.6145   20.5478 C   0  0  0  0  0  0  0  0  0  0  0  0
   21.6426   18.5059   20.8765 H   0  0  0  0  0  0  0  0  0  0  0  0
   20.2087   17.5991   20.3925 H   0  0  0  0  0  0  0  0  0  0  0  0
   19.7782   19.3272   21.6450 C   0  0  0  0  0  0  0  0  0  0  0  0
   20.1712   20.3423   21.7952 H   0  0  0  0  0  0  0  0  0  0  0  0
   18.7372   19.4358   21.3103 H   0  0  0  0  0  0  0  0  0  0  0  0
   19.8135   18.5558   22.9836 C   0  0  0  0  0  0  0  0  0  0  0  0
   20.8568   18.4446   23.3077 H   0  0  0  0  0  0  0  0  0  0  0  0
   19.4170   17.5422   22.8326 H   0  0  0  0  0  0  0  0  0  0  0  0
   18.9917   19.2731   24.0813 C   0  0  0  0  0  0  0  0  0  0  0  0
   19.3994   20.2782   24.2536 H   0  0  0  0  0  0  0  0  0  0  0  0
   17.9631   19.4188   23.7234 H   0  0  0  0  0  0  0  0  0  0  0  0
   18.9417   18.4884   25.4163 C   0  0  0  0  0  0  0  0  0  0  0  0
   18.4524   17.5198   25.2484 H   0  0  0  0  0  0  0  0  0  0  0  0
   18.3098   19.0303   26.1324 H   0  0  0  0  0  0  0  0  0  0  0  0
   20.3250   18.2400   26.0515 C   0  0  0  0  0  0  0  0  0  0  0  0
   20.2033   17.6607   26.9707 H   0  0  0  0  0  0  0  0  0  0  0  0
   20.9485   17.6606   25.3658 H   0  0  0  0  0  0  0  0  0  0  0  0
   21.0700   19.5125   26.4032 N   0  3  0  0  0  0  0  0  0  0  0  0
   20.5454   20.0884   27.0695 H   0  0  0  0  0  0  0  0  0  0  0  0
   21.2437   20.0894   25.5744 H   0  0  0  0  0  0  0  0  0  0  0  0
   21.9815   19.3150   26.8301 H   0  0  0  0  0  0  0  0  0  0  0  0
  1  2  1  0  0  0  0
  1  3  1  0  0  0  0
  1  4  1  0  0  0  0
  1  5  1  0  0  0  0
  5  6  1  0  0  0  0
  5  7  1  0  0  0  0
  5  8  1  0  0  0  0
  8  9  1  0  0  0  0
  8 10  1  0  0  0  0
  8 11  1  0  0  0  0
 11 12  1  0  0  0  0
 11 13  1  0  0  0  0
 11 14  1  0  0  0  0
 14 15  1  0  0  0  0
 14 16  1  0  0  0  0
 14 17  1  0  0  0  0
 17 18  1  0  0  0  0
 17 19  1  0  0  0  0
 17 20  1  0  0  0  0
 20 21  1  0  0  0  0
 20 22  1  0  0  0  0
 20 23  1  0  0  0  0
 23 24  1  0  0  0  0
 23 25  1  0  0  0  0
 23 26  1  0  0  0  0
M  END
> <VConfSearch Rank>
15

> <Conf_Id>
83

> <Delta U+W>
0.559

> <U+W>
-4.994

> <U>
48.668

> <W>
-53.661

> <W(PB)>
-55.972

> <W(SA)>
2.311

> <Valence>
2.543

> <Coulomb>
45.478

> <VdW>
0.646

> <VdW6>
-7.096

> <VdW12>
7.742

> <Bond>
0.176

> <Angle>
0.630

> <Pdih>
1.738

> <Idih>
0.000

> <Tether>
0.000

$$$$
VeraChem MOL file


 26 25  0  0  0  0  0  0  0  0999 V2000     
   20.7701   19.7659   19.4727 C   0  0  0  0  0  0  0  0  0  0  0  0
   20.4256   19.0386   18.7260 H   0  0  0  0  0  0  0  0  0  0  0  0
   20.1263   20.6528   19.4087 H   0  0  0  0  0  0  0  0  0  0  0  0
   21.7897   20.0692   19.2018 H   0  0  0  0  0  0  0  0  0  0  0  0
   20.7407   19.1608   20.8924 C   0  0  0  0  0  0  0  0  0  0  0  0
   21.1299   19.9019   21.6029 H   0  0  0  0  0  0  0  0  0  0  0  0
   21.4156   18.2945   20.9330 H   0  0  0  0  0  0  0  0  0  0  0  0
   19.3116   18.7294   21.2985 C   0  0  0  0  0  0  0  0  0  0  0  0
   18.6492   19.6059   21.3103 H   0  0  0  0  0  0  0  0  0  0  0  0
   18.9122   18.0521   20.5309 H   0  0  0  0  0  0  0  0  0  0  0  0
   19.2458   18.0103   22.6683 C   0  0  0  0  0  0  0  0  0  0  0  0
   19.8974   17.1256   22.6508 H   0  0  0  0  0  0  0  0  0  0  0  0
   18.2229   17.6367   22.8150 H   0  0  0  0  0  0  0  0  0  0  0  0
   19.6277   18.9171   23.8630 C   0  0  0  0  0  0  0  0  0  0  0  0
   20.6720   19.2384   23.7641 H   0  0  0  0  0  0  0  0  0  0  0  0
   19.0093   19.8252   23.8467 H   0  0  0  0  0  0  0  0  0  0  0  0
   19.4387   18.1903   25.2157 C   0  0  0  0  0  0  0  0  0  0  0  0
   20.0735   17.2950   25.2538 H   0  0  0  0  0  0  0  0  0  0  0  0
   18.4006   17.8422   25.3001 H   0  0  0  0  0  0  0  0  0  0  0  0
   19.7487   19.0929   26.4256 C   0  0  0  0  0  0  0  0  0  0  0  0
   19.1238   19.9892   26.3860 H   0  0  0  0  0  0  0  0  0  0  0  0
   19.5149   18.5550   27.3484 H   0  0  0  0  0  0  0  0  0  0  0  0
   21.1977   19.5324   26.5047 N   0  3  0  0  0  0  0  0  0  0  0  0
   21.4744   20.0783   25.6830 H   0  0  0  0  0  0  0  0  0  0  0  0
   21.8354   18.7321   26.5665 H   0  0  0  0  0  0  0  0  0  0  0  0
   21.3728   20.1191   27.3278 H   0  0  0  0  0  0  0  0  0  0  0  0
  1  2  1  0  0  0  0
  1  3  1  0  0  0  0
  1  4  1  0  0  0  0
  1  5  1  0  0  0  0
  5  6  1  0  0  0  0
  5  7  1  0  0  0  0
  5  8  1  0  0  0  0
  8  9  1  0  0  0  0
  8 10  1  0  0  0  0
  8 11  1  0  0  0  0
 11 12  1  0  0  0  0
 11 13  1  0  0  0  0
 11 14  1  0  0  0  0
 14 15  1  0  0  0  0
 14 16  1  0  0  0  0
 14 17  1  0  0  0  0
 17 18  1  0  0  0  0
 17 19  1  0  0  0  0
 17 20  1  0  0  0  0
 20 21  1  0  0  0  0
 20 22  1  0  0  0  0
 20 23  1  0  0  0  0
 23 24  1  0  0  0  0
 23 25  1  0  0  0  0
 23 26  1  0  0  0  0
M  END
> <VConfSearch Rank>
16

> <Conf_Id>
18

> <Delta U+W>
0.759

> <U+W>
-4.793

> <U>
48.945

> <W>
-53.738

> <W(PB)>
-56.051

> <W(SA)>
2.313

> <Valence>
2.802

> <Coulomb>
45.335

> <VdW>
0.807

> <VdW6>
-6.962

> <VdW12>
7.769

> <Bond>
0.189

> <Angle>
0.696

> <Pdih>
1.917

> <Idih>
0.000

> <Tether>
0.000

$$$$
VeraChem MOL file


 26 25  0  0  0  0  0  0  0  0999 V2000     
   19.1170   18.6756   19.4175 C   0  0  0  0  0  0  0  0  0  0  0  0
   18.5582   19.6186   19.3563 H   0  0  0  0  0  0  0  0  0  0  0  0
   19.9550   18.7281   18.7103 H   0  0  0  0  0  0  0  0  0  0  0  0
   18.4505   17.8671   19.0903 H   0  0  0  0  0  0  0  0  0  0  0  0
   19.6182   18.4205   20.8549 C   0  0  0  0  0  0  0  0  0  0  0  0
   20.1470   17.4578   20.8906 H   0  0  0  0  0  0  0  0  0  0  0  0
   18.7516   18.3335   21.5234 H   0  0  0  0  0  0  0  0  0  0  0  0
   20.5568   19.5506   21.3401 C   0  0  0  0  0  0  0  0  0  0  0  0
   21.3714   19.6740   20.6131 H   0  0  0  0  0  0  0  0  0  0  0  0
   20.0113   20.5042   21.3558 H   0  0  0  0  0  0  0  0  0  0  0  0
   21.1794   19.2855   22.7329 C   0  0  0  0  0  0  0  0  0  0  0  0
   21.9173   20.0733   22.9385 H   0  0  0  0  0  0  0  0  0  0  0  0
   21.7370   18.3389   22.7123 H   0  0  0  0  0  0  0  0  0  0  0  0
   20.1409   19.2555   23.8802 C   0  0  0  0  0  0  0  0  0  0  0  0
   19.5503   20.1820   23.8647 H   0  0  0  0  0  0  0  0  0  0  0  0
   19.4405   18.4260   23.7229 H   0  0  0  0  0  0  0  0  0  0  0  0
   20.8197   19.1012   25.2619 C   0  0  0  0  0  0  0  0  0  0  0  0
   21.5431   19.9149   25.4051 H   0  0  0  0  0  0  0  0  0  0  0  0
   21.3911   18.1641   25.2979 H   0  0  0  0  0  0  0  0  0  0  0  0
   19.8126   19.1351   26.4277 C   0  0  0  0  0  0  0  0  0  0  0  0
   20.3555   19.1095   27.3765 H   0  0  0  0  0  0  0  0  0  0  0  0
   19.2365   20.0636   26.3897 H   0  0  0  0  0  0  0  0  0  0  0  0
   18.8364   17.9750   26.4258 N   0  3  0  0  0  0  0  0  0  0  0  0
   19.3182   17.0719   26.4824 H   0  0  0  0  0  0  0  0  0  0  0  0
   18.2645   17.9612   25.5757 H   0  0  0  0  0  0  0  0  0  0  0  0
   18.1904   18.0201   27.2214 H   0  0  0  0  0  0  0  0  0  0  0  0
  1  2  1  0  0  0  0
  1  3  1  0  0  0  0
  1  4  1  0  0  0  0
  1  5  1  0  0  0  0
  5  6  1  0  0  0  0
  5  7  1  0  0  0  0
  5  8  1  0  0  0  0
  8  9  1  0  0  0  0
  8 10  1  0  0  0  0
  8 11  1  0  0  0  0
 11 12  1  0  0  0  0
 11 13  1  0  0  0  0
 11 14  1  0  0  0  0
 14 15  1  0  0  0  0
 14 16  1  0  0  0  0
 14 17  1  0  0  0  0
 17 18  1  0  0  0  0
 17 19  1  0  0  0  0
 17 20  1  0  0  0  0
 20 21  1  0  0  0  0
 20 22  1  0  0  0  0
 20 23  1  0  0  0  0
 23 24  1  0  0  0  0
 23 25  1  0  0  0  0
 23 26  1  0  0  0  0
M  END
> <VConfSearch Rank>
17

> <Conf_Id>
17

> <Delta U+W>
0.843

> <U+W>
-4.709

> <U>
48.945

> <W>
-53.653

> <W(PB)>
-55.991

> <W(SA)>
2.338

> <Valence>
2.802

> <Coulomb>
45.335

> <VdW>
0.807

> <VdW6>
-6.962

> <VdW12>
7.769

> <Bond>
0.189

> <Angle>
0.696

> <Pdih>
1.917

> <Idih>
0.000

> <Tether>
0.000

$$$$
VeraChem MOL file


 26 25  0  0  0  0  0  0  0  0999 V2000     
   18.6972   18.5160   20.0988 C   0  0  0  0  0  0  0  0  0  0  0  0
   18.3368   17.9025   20.9337 H   0  0  0  0  0  0  0  0  0  0  0  0
   18.1643   19.4754   20.1208 H   0  0  0  0  0  0  0  0  0  0  0  0
   18.4228   18.0010   19.1690 H   0  0  0  0  0  0  0  0  0  0  0  0
   20.2266   18.7280   20.1681 C   0  0  0  0  0  0  0  0  0  0  0  0
   20.5550   19.2380   19.2517 H   0  0  0  0  0  0  0  0  0  0  0  0
   20.7349   17.7536   20.1764 H   0  0  0  0  0  0  0  0  0  0  0  0
   20.6777   19.5642   21.3900 C   0  0  0  0  0  0  0  0  0  0  0  0
   21.7552   19.7596   21.2994 H   0  0  0  0  0  0  0  0  0  0  0  0
   20.1828   20.5449   21.3663 H   0  0  0  0  0  0  0  0  0  0  0  0
   20.4013   18.8728   22.7467 C   0  0  0  0  0  0  0  0  0  0  0  0
   20.8565   17.8729   22.7474 H   0  0  0  0  0  0  0  0  0  0  0  0
   19.3206   18.7326   22.8738 H   0  0  0  0  0  0  0  0  0  0  0  0
   20.9602   19.6956   23.9325 C   0  0  0  0  0  0  0  0  0  0  0  0
   22.0342   19.8690   23.7780 H   0  0  0  0  0  0  0  0  0  0  0  0
   20.4853   20.6864   23.9525 H   0  0  0  0  0  0  0  0  0  0  0  0
   20.7627   19.0011   25.3005 C   0  0  0  0  0  0  0  0  0  0  0  0
   21.2607   19.5965   26.0773 H   0  0  0  0  0  0  0  0  0  0  0  0
   21.2565   18.0203   25.2911 H   0  0  0  0  0  0  0  0  0  0  0  0
   19.2779   18.8299   25.6726 C   0  0  0  0  0  0  0  0  0  0  0  0
   18.7862   19.8064   25.6826 H   0  0  0  0  0  0  0  0  0  0  0  0
   18.7800   18.2009   24.9302 H   0  0  0  0  0  0  0  0  0  0  0  0
   19.0774   18.1914   27.0318 N   0  3  0  0  0  0  0  0  0  0  0  0
   18.0829   18.0865   27.2607 H   0  0  0  0  0  0  0  0  0  0  0  0
   19.4988   18.7491   27.7819 H   0  0  0  0  0  0  0  0  0  0  0  0
   19.4950   17.2563   27.0801 H   0  0  0  0  0  0  0  0  0  0  0  0
  1  2  1  0  0  0  0
  1  3  1  0  0  0  0
  1  4  1  0  0  0  0
  1  5  1  0  0  0  0
  5  6  1  0  0  0  0
  5  7  1  0  0  0  0
  5  8  1  0  0  0  0
  8  9  1  0  0  0  0
  8 10  1  0  0  0  0
  8 11  1  0  0  0  0
 11 12  1  0  0  0  0
 11 13  1  0  0  0  0
 11 14  1  0  0  0  0
 14 15  1  0  0  0  0
 14 16  1  0  0  0  0
 14 17  1  0  0  0  0
 17 18  1  0  0  0  0
 17 19  1  0  0  0  0
 17 20  1  0  0  0  0
 20 21  1  0  0  0  0
 20 22  1  0  0  0  0
 20 23  1  0  0  0  0
 23 24  1  0  0  0  0
 23 25  1  0  0  0  0
 23 26  1  0  0  0  0
M  END
> <VConfSearch Rank>
18

> <Conf_Id>
96

> <Delta U+W>
0.912

> <U+W>
-4.640

> <U>
48.723

> <W>
-53.364

> <W(PB)>
-55.683

> <W(SA)>
2.320

> <Valence>
2.962

> <Coulomb>
44.993

> <VdW>
0.768

> <VdW6>
-7.008

> <VdW12>
7.776

> <Bond>
0.188

> <Angle>
0.757

> <Pdih>
2.018

> <Idih>
0.000

> <Tether>
0.000

$$$$
VeraChem MOL file


 26 25  0  0  0  0  0  0  0  0999 V2000     
   21.0497   20.0677   20.1773 C   0  0  0  0  0  0  0  0  0  0  0  0
   21.6738   20.1453   19.2776 H   0  0  0  0  0  0  0  0  0  0  0  0
   20.3766   20.9347   20.1946 H   0  0  0  0  0  0  0  0  0  0  0  0
   21.7158   20.1315   21.0466 H   0  0  0  0  0  0  0  0  0  0  0  0
   20.2514   18.7442   20.1690 C   0  0  0  0  0  0  0  0  0  0  0  0
   20.9466   17.8932   20.1837 H   0  0  0  0  0  0  0  0  0  0  0  0
   19.6968   18.6716   19.2230 H   0  0  0  0  0  0  0  0  0  0  0  0
   19.2494   18.6220   21.3423 C   0  0  0  0  0  0  0  0  0  0  0  0
   18.5440   19.4640   21.3115 H   0  0  0  0  0  0  0  0  0  0  0  0
   18.6510   17.7122   21.1957 H   0  0  0  0  0  0  0  0  0  0  0  0
   19.9298   18.5618   22.7310 C   0  0  0  0  0  0  0  0  0  0  0  0
   20.4770   19.4953   22.9124 H   0  0  0  0  0  0  0  0  0  0  0  0
   20.6694   17.7494   22.7412 H   0  0  0  0  0  0  0  0  0  0  0  0
   18.8994   18.3364   23.8636 C   0  0  0  0  0  0  0  0  0  0  0  0
   18.1749   19.1626   23.8753 H   0  0  0  0  0  0  0  0  0  0  0  0
   18.3256   17.4231   23.6541 H   0  0  0  0  0  0  0  0  0  0  0  0
   19.5511   18.2021   25.2600 C   0  0  0  0  0  0  0  0  0  0  0  0
   20.2585   17.3621   25.2578 H   0  0  0  0  0  0  0  0  0  0  0  0
   18.7726   17.9556   25.9942 H   0  0  0  0  0  0  0  0  0  0  0  0
   20.2741   19.4870   25.7059 C   0  0  0  0  0  0  0  0  0  0  0  0
   21.0819   19.7190   25.0071 H   0  0  0  0  0  0  0  0  0  0  0  0
   19.5698   20.3232   25.7087 H   0  0  0  0  0  0  0  0  0  0  0  0
   20.8761   19.3777   27.0919 N   0  3  0  0  0  0  0  0  0  0  0  0
   21.5688   18.6240   27.1494 H   0  0  0  0  0  0  0  0  0  0  0  0
   20.1634   19.1875   27.8041 H   0  0  0  0  0  0  0  0  0  0  0  0
   21.3523   20.2428   27.3699 H   0  0  0  0  0  0  0  0  0  0  0  0
  1  2  1  0  0  0  0
  1  3  1  0  0  0  0
  1  4  1  0  0  0  0
  1  5  1  0  0  0  0
  5  6  1  0  0  0  0
  5  7  1  0  0  0  0
  5  8  1  0  0  0  0
  8  9  1  0  0  0  0
  8 10  1  0  0  0  0
  8 11  1  0  0  0  0
 11 12  1  0  0  0  0
 11 13  1  0  0  0  0
 11 14  1  0  0  0  0
 14 15  1  0  0  0  0
 14 16  1  0  0  0  0
 14 17  1  0  0  0  0
 17 18  1  0  0  0  0
 17 19  1  0  0  0  0
 17 20  1  0  0  0  0
 20 21  1  0  0  0  0
 20 22  1  0  0  0  0
 20 23  1  0  0  0  0
 23 24  1  0  0  0  0
 23 25  1  0  0  0  0
 23 26  1  0  0  0  0
M  END
> <VConfSearch Rank>
19

> <Conf_Id>
133

> <Delta U+W>
0.844

> <U+W>
-4.708

> <U>
48.723

> <W>
-53.431

> <W(PB)>
-55.776

> <W(SA)>
2.344

> <Valence>
2.962

> <Coulomb>
44.993

> <VdW>
0.768

> <VdW6>
-7.008

> <VdW12>
7.776

> <Bond>
0.188

> <Angle>
0.756

> <Pdih>
2.018

> <Idih>
0.000

> <Tether>
0.000

$$$$
VeraChem MOL file


 26 25  0  0  0  0  0  0  0  0999 V2000     
   18.7882   18.6801   20.1776 C   0  0  0  0  0  0  0  0  0  0  0  0
   19.1696   17.8621   19.5528 H   0  0  0  0  0  0  0  0  0  0  0  0
   18.3569   18.2457   21.0881 H   0  0  0  0  0  0  0  0  0  0  0  0
   17.9746   19.1714   19.6284 H   0  0  0  0  0  0  0  0  0  0  0  0
   19.9068   19.6936   20.5091 C   0  0  0  0  0  0  0  0  0  0  0  0
   19.5069   20.4905   21.1503 H   0  0  0  0  0  0  0  0  0  0  0  0
   20.2234   20.1872   19.5797 H   0  0  0  0  0  0  0  0  0  0  0  0
   21.1496   19.0457   21.1711 C   0  0  0  0  0  0  0  0  0  0  0  0
   21.6031   18.3413   20.4602 H   0  0  0  0  0  0  0  0  0  0  0  0
   21.9045   19.8248   21.3447 H   0  0  0  0  0  0  0  0  0  0  0  0
   20.8785   18.3009   22.5038 C   0  0  0  0  0  0  0  0  0  0  0  0
   21.8264   17.8736   22.8590 H   0  0  0  0  0  0  0  0  0  0  0  0
   20.2107   17.4474   22.3266 H   0  0  0  0  0  0  0  0  0  0  0  0
   20.2884   19.2074   23.6106 C   0  0  0  0  0  0  0  0  0  0  0  0
   20.9367   20.0831   23.7529 H   0  0  0  0  0  0  0  0  0  0  0  0
   19.3049   19.5845   23.3002 H   0  0  0  0  0  0  0  0  0  0  0  0
   20.1388   18.4537   24.9504 C   0  0  0  0  0  0  0  0  0  0  0  0
   21.1188   18.0809   25.2771 H   0  0  0  0  0  0  0  0  0  0  0  0
   19.4905   17.5782   24.8115 H   0  0  0  0  0  0  0  0  0  0  0  0
   19.5467   19.3608   26.0434 C   0  0  0  0  0  0  0  0  0  0  0  0
   20.1976   20.2259   26.1963 H   0  0  0  0  0  0  0  0  0  0  0  0
   18.5632   19.7212   25.7298 H   0  0  0  0  0  0  0  0  0  0  0  0
   19.3840   18.6568   27.3751 N   0  3  0  0  0  0  0  0  0  0  0  0
   18.9884   19.2785   28.0888 H   0  0  0  0  0  0  0  0  0  0  0  0
   20.2800   18.3165   27.7394 H   0  0  0  0  0  0  0  0  0  0  0  0
   18.7593   17.8469   27.3055 H   0  0  0  0  0  0  0  0  0  0  0  0
  1  2  1  0  0  0  0
  1  3  1  0  0  0  0
  1  4  1  0  0  0  0
  1  5  1  0  0  0  0
  5  6  1  0  0  0  0
  5  7  1  0  0  0  0
  5  8  1  0  0  0  0
  8  9  1  0  0  0  0
  8 10  1  0  0  0  0
  8 11  1  0  0  0  0
 11 12  1  0  0  0  0
 11 13  1  0  0  0  0
 11 14  1  0  0  0  0
 14 15  1  0  0  0  0
 14 16  1  0  0  0  0
 14 17  1  0  0  0  0
 17 18  1  0  0  0  0
 17 19  1  0  0  0  0
 17 20  1  0  0  0  0
 20 21  1  0  0  0  0
 20 22  1  0  0  0  0
 20 23  1  0  0  0  0
 23 24  1  0  0  0  0
 23 25  1  0  0  0  0
 23 26  1  0  0  0  0
M  END
> <VConfSearch Rank>
20

> <Conf_Id>
106

> <Delta U+W>
0.767

> <U+W>
-4.785

> <U>
48.494

> <W>
-53.279

> <W(PB)>
-55.569

> <W(SA)>
2.290

> <Valence>
3.117

> <Coulomb>
44.693

> <VdW>
0.684

> <VdW6>
-7.347

> <VdW12>
8.030

> <Bond>
0.208

> <Angle>
1.039

> <Pdih>
1.870

> <Idih>
0.000

> <Tether>
0.000

$$$$
VeraChem MOL file


 26 25  0  0  0  0  0  0  0  0999 V2000     
   21.5992   23.0856   23.9029 C   0  0  0  0  0  0  0  0  0  0  0  0
   20.6268   23.5826   23.7903 H   0  0  0  0  0  0  0  0  0  0  0  0
   21.7974   22.9611   24.9755 H   0  0  0  0  0  0  0  0  0  0  0  0
   22.3683   23.7533   23.4933 H   0  0  0  0  0  0  0  0  0  0  0  0
   21.6145   21.7250   23.1743 C   0  0  0  0  0  0  0  0  0  0  0  0
   22.6090   21.2683   23.2760 H   0  0  0  0  0  0  0  0  0  0  0  0
   21.4475   21.8850   22.0998 H   0  0  0  0  0  0  0  0  0  0  0  0
   20.5402   20.7653   23.7319 C   0  0  0  0  0  0  0  0  0  0  0  0
   20.7098   20.6104   24.8065 H   0  0  0  0  0  0  0  0  0  0  0  0
   19.5483   21.2271   23.6301 H   0  0  0  0  0  0  0  0  0  0  0  0
   20.5525   19.4016   23.0049 C   0  0  0  0  0  0  0  0  0  0  0  0
   21.5448   18.9407   23.1069 H   0  0  0  0  0  0  0  0  0  0  0  0
   20.3833   19.5575   21.9304 H   0  0  0  0  0  0  0  0  0  0  0  0
   19.4774   18.4419   23.5631 C   0  0  0  0  0  0  0  0  0  0  0  0
   19.6462   18.2857   24.6377 H   0  0  0  0  0  0  0  0  0  0  0  0
   18.4848   18.9025   23.4610 H   0  0  0  0  0  0  0  0  0  0  0  0
   19.4891   17.0787   22.8369 C   0  0  0  0  0  0  0  0  0  0  0  0
   20.4780   16.6125   22.9412 H   0  0  0  0  0  0  0  0  0  0  0  0
   19.3155   17.2300   21.7631 H   0  0  0  0  0  0  0  0  0  0  0  0
   18.4152   16.1314   23.4002 C   0  0  0  0  0  0  0  0  0  0  0  0
   18.5937   15.9646   24.4660 H   0  0  0  0  0  0  0  0  0  0  0  0
   17.4269   16.5845   23.2837 H   0  0  0  0  0  0  0  0  0  0  0  0
   18.3947   14.7815   22.7126 N   0  3  0  0  0  0  0  0  0  0  0  0
   17.6725   14.1662   23.1028 H   0  0  0  0  0  0  0  0  0  0  0  0
   19.2893   14.2899   22.8090 H   0  0  0  0  0  0  0  0  0  0  0  0
   18.2036   14.8666   21.7089 H   0  0  0  0  0  0  0  0  0  0  0  0
  1  2  1  0  0  0  0
  1  3  1  0  0  0  0
  1  4  1  0  0  0  0
  1  5  1  0  0  0  0
  5  6  1  0  0  0  0
  5  7  1  0  0  0  0
  5  8  1  0  0  0  0
  8  9  1  0  0  0  0
  8 10  1  0  0  0  0
  8 11  1  0  0  0  0
 11 12  1  0  0  0  0
 11 13  1  0  0  0  0
 11 14  1  0  0  0  0
 14 15  1  0  0  0  0
 14 16  1  0  0  0  0
 14 17  1  0  0  0  0
 17 18  1  0  0  0  0
 17 19  1  0  0  0  0
 17 20  1  0  0  0  0
 20 21  1  0  0  0  0
 20 22  1  0  0  0  0
 20 23  1  0  0  0  0
 23 24  1  0  0  0  0
 23 25  1  0  0  0  0
 23 26  1  0  0  0  0
M  END
> <VConfSearch Rank>
21

> <Conf_Id>
25

> <Delta U+W>
0.000

> <U+W>
-5.552

> <U>
47.192

> <W>
-52.745

> <W(PB)>
-55.134

> <W(SA)>
2.389

> <Valence>
2.156

> <Coulomb>
44.449

> <VdW>
0.587

> <VdW6>
-5.761

> <VdW12>
6.348

> <Bond>
0.129

> <Angle>
0.393

> <Pdih>
1.634

> <Idih>
0.000

> <Tether>
0.000

$$$$
VeraChem MOL file


 26 25  0  0  0  0  0  0  0  0999 V2000     
   16.3904   18.4103   25.5297 C   0  0  0  0  0  0  0  0  0  0  0  0
   16.0084   19.4260   25.3630 H   0  0  0  0  0  0  0  0  0  0  0  0
   15.9736   17.7564   24.7525 H   0  0  0  0  0  0  0  0  0  0  0  0
   16.0125   18.0633   26.5002 H   0  0  0  0  0  0  0  0  0  0  0  0
   17.9334   18.3870   25.5057 C   0  0  0  0  0  0  0  0  0  0  0  0
   18.2857   17.3659   25.7087 H   0  0  0  0  0  0  0  0  0  0  0  0
   18.3202   19.0225   26.3146 H   0  0  0  0  0  0  0  0  0  0  0  0
   18.4919   18.8713   24.1493 C   0  0  0  0  0  0  0  0  0  0  0  0
   18.1006   18.2345   23.3438 H   0  0  0  0  0  0  0  0  0  0  0  0
   18.1353   19.8913   23.9497 H   0  0  0  0  0  0  0  0  0  0  0  0
   20.0370   18.8492   24.1214 C   0  0  0  0  0  0  0  0  0  0  0  0
   20.3928   17.8289   24.3209 H   0  0  0  0  0  0  0  0  0  0  0  0
   20.4271   19.4855   24.9280 H   0  0  0  0  0  0  0  0  0  0  0  0
   20.5954   19.3344   22.7645 C   0  0  0  0  0  0  0  0  0  0  0  0
   20.1985   18.6984   21.9620 H   0  0  0  0  0  0  0  0  0  0  0  0
   20.2419   20.3559   22.5665 H   0  0  0  0  0  0  0  0  0  0  0  0
   22.1420   19.3107   22.7384 C   0  0  0  0  0  0  0  0  0  0  0  0
   22.5058   18.2879   22.9044 H   0  0  0  0  0  0  0  0  0  0  0  0
   22.5291   19.9192   23.5666 H   0  0  0  0  0  0  0  0  0  0  0  0
   22.7238   19.8559   21.4198 C   0  0  0  0  0  0  0  0  0  0  0  0
   22.3585   20.8721   21.2486 H   0  0  0  0  0  0  0  0  0  0  0  0
   23.8141   19.8933   21.4926 H   0  0  0  0  0  0  0  0  0  0  0  0
   22.3727   19.0187   20.2055 N   0  3  0  0  0  0  0  0  0  0  0  0
   21.3600   18.9721   20.0563 H   0  0  0  0  0  0  0  0  0  0  0  0
   22.7107   18.0551   20.2966 H   0  0  0  0  0  0  0  0  0  0  0  0
   22.7853   19.4009   19.3475 H   0  0  0  0  0  0  0  0  0  0  0  0
  1  2  1  0  0  0  0
  1  3  1  0  0  0  0
  1  4  1  0  0  0  0
  1  5  1  0  0  0  0
  5  6  1  0  0  0  0
  5  7  1  0  0  0  0
  5  8  1  0  0  0  0
  8  9  1  0  0  0  0
  8 10  1  0  0  0  0
  8 11  1  0  0  0  0
 11 12  1  0  0  0  0
 11 13  1  0  0  0  0
 11 14  1  0  0  0  0
 14 15  1  0  0  0  0
 14 16  1  0  0  0  0
 14 17  1  0  0  0  0
 17 18  1  0  0  0  0
 17 19  1  0  0  0  0
 17 20  1  0  0  0  0
 20 21  1  0  0  0  0
 20 22  1  0  0  0  0
 20 23  1  0  0  0  0
 23 24  1  0  0  0  0
 23 25  1  0  0  0  0
 23 26  1  0  0  0  0
M  END
> <VConfSearch Rank>
22

> <Conf_Id>
20

> <Delta U+W>
0.150

> <U+W>
-5.403

> <U>
47.845

> <W>
-53.248

> <W(PB)>
-55.599

> <W(SA)>
2.351

> <Valence>
2.258

> <Coulomb>
44.893

> <VdW>
0.694

> <VdW6>
-6.285

> <VdW12>
6.979

> <Bond>
0.149

> <Angle>
0.434

> <Pdih>
1.675

> <Idih>
0.000

> <Tether>
0.000

$$$$
VeraChem MOL file


 26 25  0  0  0  0  0  0  0  0999 V2000     
   19.3996   14.7587   24.2732 C   0  0  0  0  0  0  0  0  0  0  0  0
   20.4830   14.5813   24.2659 H   0  0  0  0  0  0  0  0  0  0  0  0
   19.0908   14.9455   25.3100 H   0  0  0  0  0  0  0  0  0  0  0  0
   18.9052   13.8388   23.9349 H   0  0  0  0  0  0  0  0  0  0  0  0
   19.0256   15.9457   23.3605 C   0  0  0  0  0  0  0  0  0  0  0  0
   17.9344   16.0769   23.3618 H   0  0  0  0  0  0  0  0  0  0  0  0
   19.3160   15.7155   22.3258 H   0  0  0  0  0  0  0  0  0  0  0  0
   19.7089   17.2545   23.8151 C   0  0  0  0  0  0  0  0  0  0  0  0
   19.4174   17.4791   24.8505 H   0  0  0  0  0  0  0  0  0  0  0  0
   20.7991   17.1176   23.8144 H   0  0  0  0  0  0  0  0  0  0  0  0
   19.3367   18.4455   22.9033 C   0  0  0  0  0  0  0  0  0  0  0  0
   18.2462   18.5806   22.9038 H   0  0  0  0  0  0  0  0  0  0  0  0
   19.6287   18.2202   21.8682 H   0  0  0  0  0  0  0  0  0  0  0  0
   20.0198   19.7548   23.3589 C   0  0  0  0  0  0  0  0  0  0  0  0
   19.7254   19.9816   24.3931 H   0  0  0  0  0  0  0  0  0  0  0  0
   21.1088   19.6126   23.3612 H   0  0  0  0  0  0  0  0  0  0  0  0
   19.6468   20.9456   22.4444 C   0  0  0  0  0  0  0  0  0  0  0  0
   18.5545   21.0564   22.4191 H   0  0  0  0  0  0  0  0  0  0  0  0
   19.9651   20.7426   21.4131 H   0  0  0  0  0  0  0  0  0  0  0  0
   20.2608   22.2766   22.9196 C   0  0  0  0  0  0  0  0  0  0  0  0
   19.8957   23.0905   22.2873 H   0  0  0  0  0  0  0  0  0  0  0  0
   19.9504   22.4786   23.9484 H   0  0  0  0  0  0  0  0  0  0  0  0
   21.7760   22.3015   22.8717 N   0  3  0  0  0  0  0  0  0  0  0  0
   22.1296   22.1398   21.9231 H   0  0  0  0  0  0  0  0  0  0  0  0
   22.1869   21.5825   23.4751 H   0  0  0  0  0  0  0  0  0  0  0  0
   22.1518   23.2042   23.1816 H   0  0  0  0  0  0  0  0  0  0  0  0
  1  2  1  0  0  0  0
  1  3  1  0  0  0  0
  1  4  1  0  0  0  0
  1  5  1  0  0  0  0
  5  6  1  0  0  0  0
  5  7  1  0  0  0  0
  5  8  1  0  0  0  0
  8  9  1  0  0  0  0
  8 10  1  0  0  0  0
  8 11  1  0  0  0  0
 11 12  1  0  0  0  0
 11 13  1  0  0  0  0
 11 14  1  0  0  0  0
 14 15  1  0  0  0  0
 14 16  1  0  0  0  0
 14 17  1  0  0  0  0
 17 18  1  0  0  0  0
 17 19  1  0  0  0  0
 17 20  1  0  0  0  0
 20 21  1  0  0  0  0
 20 22  1  0  0  0  0
 20 23  1  0  0  0  0
 23 24  1  0  0  0  0
 23 25  1  0  0  0  0
 23 26  1  0  0  0  0
M  END
> <VConfSearch Rank>
23

> <Conf_Id>
19

> <Delta U+W>
0.162

> <U+W>
-5.391

> <U>
47.845

> <W>
-53.235

> <W(PB)>
-55.585

> <W(SA)>
2.349

> <Valence>
2.258

> <Coulomb>
44.893

> <VdW>
0.694

> <VdW6>
-6.285

> <VdW12>
6.979

> <Bond>
0.149

> <Angle>
0.434

> <Pdih>
1.675

> <Idih>
0.000

> <Tether>
0.000

$$$$
VeraChem MOL file


 26 25  0  0  0  0  0  0  0  0999 V2000     
   21.3404   16.7430   19.9904 C   0  0  0  0  0  0  0  0  0  0  0  0
   22.3299   17.0201   19.6039 H   0  0  0  0  0  0  0  0  0  0  0  0
   21.4350   15.7840   20.5163 H   0  0  0  0  0  0  0  0  0  0  0  0
   20.6737   16.5921   19.1314 H   0  0  0  0  0  0  0  0  0  0  0  0
   20.7837   17.8363   20.9268 C   0  0  0  0  0  0  0  0  0  0  0  0
   19.7791   17.5427   21.2587 H   0  0  0  0  0  0  0  0  0  0  0  0
   20.6728   18.7746   20.3655 H   0  0  0  0  0  0  0  0  0  0  0  0
   21.7052   18.0640   22.1484 C   0  0  0  0  0  0  0  0  0  0  0  0
   21.7734   17.1396   22.7385 H   0  0  0  0  0  0  0  0  0  0  0  0
   22.7226   18.2777   21.7925 H   0  0  0  0  0  0  0  0  0  0  0  0
   21.2500   19.2298   23.0603 C   0  0  0  0  0  0  0  0  0  0  0  0
   21.1970   20.1568   22.4728 H   0  0  0  0  0  0  0  0  0  0  0  0
   22.0213   19.3935   23.8255 H   0  0  0  0  0  0  0  0  0  0  0  0
   19.8927   18.9754   23.7594 C   0  0  0  0  0  0  0  0  0  0  0  0
   19.0952   18.8854   23.0101 H   0  0  0  0  0  0  0  0  0  0  0  0
   19.9316   18.0202   24.3013 H   0  0  0  0  0  0  0  0  0  0  0  0
   19.5330   20.1105   24.7432 C   0  0  0  0  0  0  0  0  0  0  0  0
   19.4920   21.0669   24.2050 H   0  0  0  0  0  0  0  0  0  0  0  0
   20.3181   20.2027   25.5056 H   0  0  0  0  0  0  0  0  0  0  0  0
   18.1809   19.8520   25.4310 C   0  0  0  0  0  0  0  0  0  0  0  0
   17.3928   19.7760   24.6770 H   0  0  0  0  0  0  0  0  0  0  0  0
   18.2224   18.9083   25.9817 H   0  0  0  0  0  0  0  0  0  0  0  0
   17.7920   20.9452   26.4053 N   0  3  0  0  0  0  0  0  0  0  0  0
   17.7089   21.8569   25.9435 H   0  0  0  0  0  0  0  0  0  0  0  0
   18.4809   21.0496   27.1575 H   0  0  0  0  0  0  0  0  0  0  0  0
   16.8887   20.7536   26.8522 H   0  0  0  0  0  0  0  0  0  0  0  0
  1  2  1  0  0  0  0
  1  3  1  0  0  0  0
  1  4  1  0  0  0  0
  1  5  1  0  0  0  0
  5  6  1  0  0  0  0
  5  7  1  0  0  0  0
  5  8  1  0  0  0  0
  8  9  1  0  0  0  0
  8 10  1  0  0  0  0
  8 11  1  0  0  0  0
 11 12  1  0  0  0  0
 11 13  1  0  0  0  0
 11 14  1  0  0  0  0
 14 15  1  0  0  0  0
 14 16  1  0  0  0  0
 14 17  1  0  0  0  0
 17 18  1  0  0  0  0
 17 19  1  0  0  0  0
 17 20  1  0  0  0  0
 20 21  1  0  0  0  0
 20 22  1  0  0  0  0
 20 23  1  0  0  0  0
 23 24  1  0  0  0  0
 23 25  1  0  0  0  0
 23 26  1  0  0  0  0
M  END
> <VConfSearch Rank>
24

> <Conf_Id>
37

> <Delta U+W>
0.565

> <U+W>
-4.988

> <U>
48.035

> <W>
-53.022

> <W(PB)>
-55.379

> <W(SA)>
2.357

> <Valence>
2.701

> <Coulomb>
44.622

> <VdW>
0.712

> <VdW6>
-6.418

> <VdW12>
7.129

> <Bond>
0.168

> <Angle>
0.659

> <Pdih>
1.875

> <Idih>
0.000

> <Tether>
0.000

$$$$
VeraChem MOL file


 26 25  0  0  0  0  0  0  0  0999 V2000     
   20.6230   17.9916   19.4143 C   0  0  0  0  0  0  0  0  0  0  0  0
   19.9209   18.8214   19.2608 H   0  0  0  0  0  0  0  0  0  0  0  0
   21.6421   18.3999   19.4064 H   0  0  0  0  0  0  0  0  0  0  0  0
   20.5276   17.3073   18.5612 H   0  0  0  0  0  0  0  0  0  0  0  0
   20.3309   17.2550   20.7388 C   0  0  0  0  0  0  0  0  0  0  0  0
   21.0258   16.4105   20.8467 H   0  0  0  0  0  0  0  0  0  0  0  0
   19.3180   16.8297   20.7038 H   0  0  0  0  0  0  0  0  0  0  0  0
   20.4592   18.1961   21.9572 C   0  0  0  0  0  0  0  0  0  0  0  0
   21.4736   18.6170   21.9889 H   0  0  0  0  0  0  0  0  0  0  0  0
   19.7671   19.0390   21.8322 H   0  0  0  0  0  0  0  0  0  0  0  0
   20.1623   17.4593   23.2855 C   0  0  0  0  0  0  0  0  0  0  0  0
   20.8108   16.5751   23.3563 H   0  0  0  0  0  0  0  0  0  0  0  0
   19.1296   17.0843   23.2787 H   0  0  0  0  0  0  0  0  0  0  0  0
   20.3883   18.3341   24.5432 C   0  0  0  0  0  0  0  0  0  0  0  0
   20.2683   17.7013   25.4337 H   0  0  0  0  0  0  0  0  0  0  0  0
   21.4261   18.6950   24.5594 H   0  0  0  0  0  0  0  0  0  0  0  0
   19.4173   19.5338   24.6460 C   0  0  0  0  0  0  0  0  0  0  0  0
   18.3808   19.1775   24.5788 H   0  0  0  0  0  0  0  0  0  0  0  0
   19.5781   20.2236   23.8080 H   0  0  0  0  0  0  0  0  0  0  0  0
   19.6102   20.2983   25.9674 C   0  0  0  0  0  0  0  0  0  0  0  0
   19.4341   19.6256   26.8111 H   0  0  0  0  0  0  0  0  0  0  0  0
   20.6368   20.6692   26.0316 H   0  0  0  0  0  0  0  0  0  0  0  0
   18.6755   21.4821   26.1106 N   0  3  0  0  0  0  0  0  0  0  0  0
   17.6910   21.1969   26.0856 H   0  0  0  0  0  0  0  0  0  0  0  0
   18.8102   22.1685   25.3609 H   0  0  0  0  0  0  0  0  0  0  0  0
   18.8204   21.9767   26.9976 H   0  0  0  0  0  0  0  0  0  0  0  0
  1  2  1  0  0  0  0
  1  3  1  0  0  0  0
  1  4  1  0  0  0  0
  1  5  1  0  0  0  0
  5  6  1  0  0  0  0
  5  7  1  0  0  0  0
  5  8  1  0  0  0  0
  8  9  1  0  0  0  0
  8 10  1  0  0  0  0
  8 11  1  0  0  0  0
 11 12  1  0  0  0  0
 11 13  1  0  0  0  0
 11 14  1  0  0  0  0
 14 15  1  0  0  0  0
 14 16  1  0  0  0  0
 14 17  1  0  0  0  0
 17 18  1  0  0  0  0
 17 19  1  0  0  0  0
 17 20  1  0  0  0  0
 20 21  1  0  0  0  0
 20 22  1  0  0  0  0
 20 23  1  0  0  0  0
 23 24  1  0  0  0  0
 23 25  1  0  0  0  0
 23 26  1  0  0  0  0
M  END
> <VConfSearch Rank>
25

> <Conf_Id>
35

> <Delta U+W>
0.587

> <U+W>
-4.965

> <U>
48.214

> <W>
-53.179

> <W(PB)>
-55.527

> <W(SA)>
2.348

> <Valence>
2.697

> <Coulomb>
44.819

> <VdW>
0.699

> <VdW6>
-6.437

> <VdW12>
7.136

> <Bond>
0.168

> <Angle>
0.657

> <Pdih>
1.872

> <Idih>
0.000

> <Tether>
0.000

$$$$
VeraChem MOL file


 26 25  0  0  0  0  0  0  0  0999 V2000     
   19.7349   22.0898   25.8466 C   0  0  0  0  0  0  0  0  0  0  0  0
   20.7253   21.9454   26.2977 H   0  0  0  0  0  0  0  0  0  0  0  0
   19.8621   22.6619   24.9183 H   0  0  0  0  0  0  0  0  0  0  0  0
   19.1354   22.6971   26.5372 H   0  0  0  0  0  0  0  0  0  0  0  0
   19.0467   20.7355   25.5740 C   0  0  0  0  0  0  0  0  0  0  0  0
   18.0464   20.9127   25.1544 H   0  0  0  0  0  0  0  0  0  0  0  0
   18.9021   20.2028   26.5243 H   0  0  0  0  0  0  0  0  0  0  0  0
   19.8709   19.8597   24.6044 C   0  0  0  0  0  0  0  0  0  0  0  0
   20.0157   20.4068   23.6637 H   0  0  0  0  0  0  0  0  0  0  0  0
   20.8689   19.6838   25.0290 H   0  0  0  0  0  0  0  0  0  0  0  0
   19.1795   18.5030   24.3273 C   0  0  0  0  0  0  0  0  0  0  0  0
   18.2036   18.6744   23.8523 H   0  0  0  0  0  0  0  0  0  0  0  0
   18.9730   18.0050   25.2847 H   0  0  0  0  0  0  0  0  0  0  0  0
   20.0227   17.5457   23.4494 C   0  0  0  0  0  0  0  0  0  0  0  0
   20.9920   17.3603   23.9327 H   0  0  0  0  0  0  0  0  0  0  0  0
   19.5109   16.5743   23.4028 H   0  0  0  0  0  0  0  0  0  0  0  0
   20.2485   18.0631   22.0093 C   0  0  0  0  0  0  0  0  0  0  0  0
   20.8318   18.9923   22.0282 H   0  0  0  0  0  0  0  0  0  0  0  0
   19.2815   18.2963   21.5441 H   0  0  0  0  0  0  0  0  0  0  0  0
   20.9910   17.0237   21.1511 C   0  0  0  0  0  0  0  0  0  0  0  0
   21.9618   16.8003   21.6016 H   0  0  0  0  0  0  0  0  0  0  0  0
   20.4100   16.0984   21.1090 H   0  0  0  0  0  0  0  0  0  0  0  0
   21.2312   17.4898   19.7296 N   0  3  0  0  0  0  0  0  0  0  0  0
   21.7976   18.3438   19.6978 H   0  0  0  0  0  0  0  0  0  0  0  0
   20.3532   17.6913   19.2399 H   0  0  0  0  0  0  0  0  0  0  0  0
   21.7264   16.7825   19.1755 H   0  0  0  0  0  0  0  0  0  0  0  0
  1  2  1  0  0  0  0
  1  3  1  0  0  0  0
  1  4  1  0  0  0  0
  1  5  1  0  0  0  0
  5  6  1  0  0  0  0
  5  7  1  0  0  0  0
  5  8  1  0  0  0  0
  8  9  1  0  0  0  0
  8 10  1  0  0  0  0
  8 11  1  0  0  0  0
 11 12  1  0  0  0  0
 11 13  1  0  0  0  0
 11 14  1  0  0  0  0
 14 15  1  0  0  0  0
 14 16  1  0  0  0  0
 14 17  1  0  0  0  0
 17 18  1  0  0  0  0
 17 19  1  0  0  0  0
 17 20  1  0  0  0  0
 20 21  1  0  0  0  0
 20 22  1  0  0  0  0
 20 23  1  0  0  0  0
 23 24  1  0  0  0  0
 23 25  1  0  0  0  0
 23 26  1  0  0  0  0
M  END
> <VConfSearch Rank>
26

> <Conf_Id>
36

> <Delta U+W>
0.565

> <U+W>
-4.987

> <U>
48.214

> <W>
-53.201

> <W(PB)>
-55.543

> <W(SA)>
2.342

> <Valence>
2.697

> <Coulomb>
44.819

> <VdW>
0.698

> <VdW6>
-6.437

> <VdW12>
7.136

> <Bond>
0.168

> <Angle>
0.657

> <Pdih>
1.872

> <Idih>
0.000

> <Tether>
0.000

$$$$
VeraChem MOL file


 26 25  0  0  0  0  0  0  0  0999 V2000     
   21.2887   14.7942   23.1102 C   0  0  0  0  0  0  0  0  0  0  0  0
   21.4950   14.6602   22.0403 H   0  0  0  0  0  0  0  0  0  0  0  0
   22.0405   14.2249   23.6722 H   0  0  0  0  0  0  0  0  0  0  0  0
   20.3048   14.3578   23.3261 H   0  0  0  0  0  0  0  0  0  0  0  0
   21.3313   16.2868   23.5007 C   0  0  0  0  0  0  0  0  0  0  0  0
   22.3364   16.6862   23.3051 H   0  0  0  0  0  0  0  0  0  0  0  0
   21.1554   16.3860   24.5810 H   0  0  0  0  0  0  0  0  0  0  0  0
   20.2818   17.1117   22.7232 C   0  0  0  0  0  0  0  0  0  0  0  0
   20.4603   17.0068   21.6441 H   0  0  0  0  0  0  0  0  0  0  0  0
   19.2792   16.7076   22.9203 H   0  0  0  0  0  0  0  0  0  0  0  0
   20.3215   18.6071   23.1113 C   0  0  0  0  0  0  0  0  0  0  0  0
   21.3239   19.0105   22.9113 H   0  0  0  0  0  0  0  0  0  0  0  0
   20.1488   18.7037   24.1915 H   0  0  0  0  0  0  0  0  0  0  0  0
   19.2683   19.4305   22.3318 C   0  0  0  0  0  0  0  0  0  0  0  0
   19.4224   19.2858   21.2535 H   0  0  0  0  0  0  0  0  0  0  0  0
   18.2614   19.0512   22.5552 H   0  0  0  0  0  0  0  0  0  0  0  0
   19.3296   20.9445   22.6425 C   0  0  0  0  0  0  0  0  0  0  0  0
   18.6187   21.4709   21.9918 H   0  0  0  0  0  0  0  0  0  0  0  0
   20.3273   21.3317   22.3963 H   0  0  0  0  0  0  0  0  0  0  0  0
   18.9981   21.2643   24.1123 C   0  0  0  0  0  0  0  0  0  0  0  0
   18.0044   20.8799   24.3573 H   0  0  0  0  0  0  0  0  0  0  0  0
   19.7260   20.7818   24.7696 H   0  0  0  0  0  0  0  0  0  0  0  0
   19.0127   22.7490   24.4137 N   0  3  0  0  0  0  0  0  0  0  0  0
   18.7897   22.9406   25.3965 H   0  0  0  0  0  0  0  0  0  0  0  0
   18.3281   23.2606   23.8473 H   0  0  0  0  0  0  0  0  0  0  0  0
   19.9302   23.1675   24.2288 H   0  0  0  0  0  0  0  0  0  0  0  0
  1  2  1  0  0  0  0
  1  3  1  0  0  0  0
  1  4  1  0  0  0  0
  1  5  1  0  0  0  0
  5  6  1  0  0  0  0
  5  7  1  0  0  0  0
  5  8  1  0  0  0  0
  8  9  1  0  0  0  0
  8 10  1  0  0  0  0
  8 11  1  0  0  0  0
 11 12  1  0  0  0  0
 11 13  1  0  0  0  0
 11 14  1  0  0  0  0
 14 15  1  0  0  0  0
 14 16  1  0  0  0  0
 14 17  1  0  0  0  0
 17 18  1  0  0  0  0
 17 19  1  0  0  0  0
 17 20  1  0  0  0  0
 20 21  1  0  0  0  0
 20 22  1  0  0  0  0
 20 23  1  0  0  0  0
 23 24  1  0  0  0  0
 23 25  1  0  0  0  0
 23 26  1  0  0  0  0
M  END
> <VConfSearch Rank>
27

> <Conf_Id>
44

> <Delta U+W>
0.371

> <U+W>
-5.181

> <U>
48.002

> <W>
-53.183

> <W(PB)>
-55.533

> <W(SA)>
2.350

> <Valence>
2.459

> <Coulomb>
44.901

> <VdW>
0.643

> <VdW6>
-6.362

> <VdW12>
7.005

> <Bond>
0.151

> <Angle>
0.519

> <Pdih>
1.789

> <Idih>
0.000

> <Tether>
0.000

$$$$
VeraChem MOL file


 26 25  0  0  0  0  0  0  0  0999 V2000     
   18.2216   21.9796   24.9483 C   0  0  0  0  0  0  0  0  0  0  0  0
   18.3230   21.5732   25.9630 H   0  0  0  0  0  0  0  0  0  0  0  0
   17.9264   23.0331   25.0370 H   0  0  0  0  0  0  0  0  0  0  0  0
   17.4030   21.4502   24.4455 H   0  0  0  0  0  0  0  0  0  0  0  0
   19.5478   21.8544   24.1642 C   0  0  0  0  0  0  0  0  0  0  0  0
   20.2983   22.5040   24.6358 H   0  0  0  0  0  0  0  0  0  0  0  0
   19.4111   22.2349   23.1423 H   0  0  0  0  0  0  0  0  0  0  0  0
   20.1037   20.4104   24.1155 C   0  0  0  0  0  0  0  0  0  0  0  0
   21.1031   20.4484   23.6639 H   0  0  0  0  0  0  0  0  0  0  0  0
   20.2397   20.0356   25.1392 H   0  0  0  0  0  0  0  0  0  0  0  0
   19.2081   19.4314   23.3141 C   0  0  0  0  0  0  0  0  0  0  0  0
   19.0751   19.8038   22.2891 H   0  0  0  0  0  0  0  0  0  0  0  0
   18.2076   19.4026   23.7643 H   0  0  0  0  0  0  0  0  0  0  0  0
   19.7537   17.9823   23.2731 C   0  0  0  0  0  0  0  0  0  0  0  0
   19.9001   17.6152   24.2984 H   0  0  0  0  0  0  0  0  0  0  0  0
   18.9835   17.3417   22.8236 H   0  0  0  0  0  0  0  0  0  0  0  0
   21.0722   17.8366   22.4721 C   0  0  0  0  0  0  0  0  0  0  0  0
   21.8618   18.4363   22.9410 H   0  0  0  0  0  0  0  0  0  0  0  0
   20.9406   18.2291   21.4550 H   0  0  0  0  0  0  0  0  0  0  0  0
   21.5651   16.3783   22.4001 C   0  0  0  0  0  0  0  0  0  0  0  0
   22.5430   16.3506   21.9118 H   0  0  0  0  0  0  0  0  0  0  0  0
   21.6777   15.9774   23.4110 H   0  0  0  0  0  0  0  0  0  0  0  0
   20.6413   15.4568   21.6278 N   0  3  0  0  0  0  0  0  0  0  0  0
   19.7115   15.4052   22.0553 H   0  0  0  0  0  0  0  0  0  0  0  0
   21.0062   14.4990   21.5868 H   0  0  0  0  0  0  0  0  0  0  0  0
   20.5132   15.7699   20.6600 H   0  0  0  0  0  0  0  0  0  0  0  0
  1  2  1  0  0  0  0
  1  3  1  0  0  0  0
  1  4  1  0  0  0  0
  1  5  1  0  0  0  0
  5  6  1  0  0  0  0
  5  7  1  0  0  0  0
  5  8  1  0  0  0  0
  8  9  1  0  0  0  0
  8 10  1  0  0  0  0
  8 11  1  0  0  0  0
 11 12  1  0  0  0  0
 11 13  1  0  0  0  0
 11 14  1  0  0  0  0
 14 15  1  0  0  0  0
 14 16  1  0  0  0  0
 14 17  1  0  0  0  0
 17 18  1  0  0  0  0
 17 19  1  0  0  0  0
 17 20  1  0  0  0  0
 20 21  1  0  0  0  0
 20 22  1  0  0  0  0
 20 23  1  0  0  0  0
 23 24  1  0  0  0  0
 23 25  1  0  0  0  0
 23 26  1  0  0  0  0
M  END
> <VConfSearch Rank>
28

> <Conf_Id>
112

> <Delta U+W>
1.422

> <U+W>
-4.130

> <U>
49.323

> <W>
-53.453

> <W(PB)>
-55.749

> <W(SA)>
2.296

> <Valence>
3.408

> <Coulomb>
44.893

> <VdW>
1.021

> <VdW6>
-7.481

> <VdW12>
8.503

> <Bond>
0.239

> <Angle>
1.013

> <Pdih>
2.156

> <Idih>
0.000

> <Tether>
0.000

$$$$
VeraChem MOL file


 26 25  0  0  0  0  0  0  0  0999 V2000     
   19.5103   17.3486   19.9642 C   0  0  0  0  0  0  0  0  0  0  0  0
   19.5355   16.7295   19.0582 H   0  0  0  0  0  0  0  0  0  0  0  0
   18.6726   16.9984   20.5800 H   0  0  0  0  0  0  0  0  0  0  0  0
   19.3044   18.3827   19.6587 H   0  0  0  0  0  0  0  0  0  0  0  0
   20.8526   17.2505   20.7240 C   0  0  0  0  0  0  0  0  0  0  0  0
   21.6703   17.4992   20.0332 H   0  0  0  0  0  0  0  0  0  0  0  0
   21.0229   16.2120   21.0406 H   0  0  0  0  0  0  0  0  0  0  0  0
   20.9336   18.1919   21.9499 C   0  0  0  0  0  0  0  0  0  0  0  0
   21.9478   18.1337   22.3683 H   0  0  0  0  0  0  0  0  0  0  0  0
   20.7936   19.2280   21.6151 H   0  0  0  0  0  0  0  0  0  0  0  0
   19.9070   17.8454   23.0579 C   0  0  0  0  0  0  0  0  0  0  0  0
   19.9760   16.7728   23.2858 H   0  0  0  0  0  0  0  0  0  0  0  0
   18.8860   18.0196   22.6934 H   0  0  0  0  0  0  0  0  0  0  0  0
   20.1213   18.6401   24.3696 C   0  0  0  0  0  0  0  0  0  0  0  0
   19.4319   18.2428   25.1263 H   0  0  0  0  0  0  0  0  0  0  0  0
   21.1358   18.4565   24.7496 H   0  0  0  0  0  0  0  0  0  0  0  0
   19.8908   20.1642   24.2125 C   0  0  0  0  0  0  0  0  0  0  0  0
   18.8870   20.3539   23.8099 H   0  0  0  0  0  0  0  0  0  0  0  0
   20.6037   20.5749   23.4868 H   0  0  0  0  0  0  0  0  0  0  0  0
   20.0668   20.9313   25.5374 C   0  0  0  0  0  0  0  0  0  0  0  0
   21.0588   20.7297   25.9506 H   0  0  0  0  0  0  0  0  0  0  0  0
   19.9888   22.0051   25.3469 H   0  0  0  0  0  0  0  0  0  0  0  0
   19.0363   20.5769   26.5916 N   0  3  0  0  0  0  0  0  0  0  0  0
   19.0795   19.5856   26.8472 H   0  0  0  0  0  0  0  0  0  0  0  0
   18.0815   20.7657   26.2694 H   0  0  0  0  0  0  0  0  0  0  0  0
   19.1733   21.1153   27.4540 H   0  0  0  0  0  0  0  0  0  0  0  0
  1  2  1  0  0  0  0
  1  3  1  0  0  0  0
  1  4  1  0  0  0  0
  1  5  1  0  0  0  0
  5  6  1  0  0  0  0
  5  7  1  0  0  0  0
  5  8  1  0  0  0  0
  8  9  1  0  0  0  0
  8 10  1  0  0  0  0
  8 11  1  0  0  0  0
 11 12  1  0  0  0  0
 11 13  1  0  0  0  0
 11 14  1  0  0  0  0
 14 15  1  0  0  0  0
 14 16  1  0  0  0  0
 14 17  1  0  0  0  0
 17 18  1  0  0  0  0
 17 19  1  0  0  0  0
 17 20  1  0  0  0  0
 20 21  1  0  0  0  0
 20 22  1  0  0  0  0
 20 23  1  0  0  0  0
 23 24  1  0  0  0  0
 23 25  1  0  0  0  0
 23 26  1  0  0  0  0
M  END
> <VConfSearch Rank>
29

> <Conf_Id>
130

> <Delta U+W>
1.282

> <U+W>
-4.270

> <U>
49.153

> <W>
-53.422

> <W(PB)>
-55.725

> <W(SA)>
2.303

> <Valence>
3.298

> <Coulomb>
44.907

> <VdW>
0.948

> <VdW6>
-7.574

> <VdW12>
8.522

> <Bond>
0.229

> <Angle>
0.912

> <Pdih>
2.157

> <Idih>
0.000

> <Tether>
0.000

$$$$
VeraChem MOL file


 26 25  0  0  0  0  0  0  0  0999 V2000     
   17.5740   19.7661   21.0581 C   0  0  0  0  0  0  0  0  0  0  0  0
   17.1985   20.7546   21.3527 H   0  0  0  0  0  0  0  0  0  0  0  0
   16.9669   19.4135   20.2144 H   0  0  0  0  0  0  0  0  0  0  0  0
   17.4126   19.0733   21.8934 H   0  0  0  0  0  0  0  0  0  0  0  0
   19.0658   19.8348   20.6602 C   0  0  0  0  0  0  0  0  0  0  0  0
   19.1609   20.4425   19.7495 H   0  0  0  0  0  0  0  0  0  0  0  0
   19.4240   18.8327   20.3897 H   0  0  0  0  0  0  0  0  0  0  0  0
   19.9698   20.4499   21.7591 C   0  0  0  0  0  0  0  0  0  0  0  0
   21.0034   20.4851   21.3881 H   0  0  0  0  0  0  0  0  0  0  0  0
   19.6721   21.4956   21.9172 H   0  0  0  0  0  0  0  0  0  0  0  0
   19.9497   19.7170   23.1256 C   0  0  0  0  0  0  0  0  0  0  0  0
   18.9425   19.7642   23.5604 H   0  0  0  0  0  0  0  0  0  0  0  0
   20.6016   20.2701   23.8143 H   0  0  0  0  0  0  0  0  0  0  0  0
   20.4168   18.2415   23.0439 C   0  0  0  0  0  0  0  0  0  0  0  0
   19.7475   17.6804   22.3789 H   0  0  0  0  0  0  0  0  0  0  0  0
   21.4177   18.1933   22.5932 H   0  0  0  0  0  0  0  0  0  0  0  0
   20.4350   17.5339   24.4193 C   0  0  0  0  0  0  0  0  0  0  0  0
   20.6709   16.4719   24.2695 H   0  0  0  0  0  0  0  0  0  0  0  0
   19.4334   17.5731   24.8678 H   0  0  0  0  0  0  0  0  0  0  0  0
   21.4630   18.1434   25.3911 C   0  0  0  0  0  0  0  0  0  0  0  0
   22.4598   18.1053   24.9436 H   0  0  0  0  0  0  0  0  0  0  0  0
   21.2131   19.1891   25.5875 H   0  0  0  0  0  0  0  0  0  0  0  0
   21.5200   17.4221   26.7222 N   0  3  0  0  0  0  0  0  0  0  0  0
   20.6174   17.4446   27.2080 H   0  0  0  0  0  0  0  0  0  0  0  0
   22.2099   17.8428   27.3543 H   0  0  0  0  0  0  0  0  0  0  0  0
   21.7789   16.4362   26.6118 H   0  0  0  0  0  0  0  0  0  0  0  0
  1  2  1  0  0  0  0
  1  3  1  0  0  0  0
  1  4  1  0  0  0  0
  1  5  1  0  0  0  0
  5  6  1  0  0  0  0
  5  7  1  0  0  0  0
  5  8  1  0  0  0  0
  8  9  1  0  0  0  0
  8 10  1  0  0  0  0
  8 11  1  0  0  0  0
 11 12  1  0  0  0  0
 11 13  1  0  0  0  0
 11 14  1  0  0  0  0
 14 15  1  0  0  0  0
 14 16  1  0  0  0  0
 14 17  1  0  0  0  0
 17 18  1  0  0  0  0
 17 19  1  0  0  0  0
 17 20  1  0  0  0  0
 20 21  1  0  0  0  0
 20 22  1  0  0  0  0
 20 23  1  0  0  0  0
 23 24  1  0  0  0  0
 23 25  1  0  0  0  0
 23 26  1  0  0  0  0
M  END
> <VConfSearch Rank>
30

> <Conf_Id>
111

> <Delta U+W>
1.290

> <U+W>
-4.262

> <U>
49.209

> <W>
-53.471

> <W(PB)>
-55.745

> <W(SA)>
2.274

> <Valence>
3.465

> <Coulomb>
44.958

> <VdW>
0.786

> <VdW6>
-7.903

> <VdW12>
8.689

> <Bond>
0.237

> <Angle>
1.212

> <Pdih>
2.015

> <Idih>
0.000

> <Tether>
0.000

$$$$
VeraChem MOL file


 26 25  0  0  0  0  0  0  0  0999 V2000     
   16.4434   17.7311   21.9190 C   0  0  0  0  0  0  0  0  0  0  0  0
   16.6752   18.0306   20.8886 H   0  0  0  0  0  0  0  0  0  0  0  0
   16.2584   16.6490   21.9273 H   0  0  0  0  0  0  0  0  0  0  0  0
   15.5135   18.2339   22.2151 H   0  0  0  0  0  0  0  0  0  0  0  0
   17.5941   18.1053   22.8772 C   0  0  0  0  0  0  0  0  0  0  0  0
   17.3210   17.8204   23.9029 H   0  0  0  0  0  0  0  0  0  0  0  0
   17.7209   19.1959   22.8722 H   0  0  0  0  0  0  0  0  0  0  0  0
   18.9175   17.4112   22.4770 C   0  0  0  0  0  0  0  0  0  0  0  0
   18.7461   16.3279   22.4108 H   0  0  0  0  0  0  0  0  0  0  0  0
   19.2176   17.7374   21.4717 H   0  0  0  0  0  0  0  0  0  0  0  0
   20.0763   17.6640   23.4726 C   0  0  0  0  0  0  0  0  0  0  0  0
   20.9324   17.0432   23.1740 H   0  0  0  0  0  0  0  0  0  0  0  0
   19.7815   17.3213   24.4741 H   0  0  0  0  0  0  0  0  0  0  0  0
   20.5256   19.1437   23.5371 C   0  0  0  0  0  0  0  0  0  0  0  0
   20.7602   19.4948   22.5235 H   0  0  0  0  0  0  0  0  0  0  0  0
   19.7043   19.7688   23.9114 H   0  0  0  0  0  0  0  0  0  0  0  0
   21.7571   19.3275   24.4553 C   0  0  0  0  0  0  0  0  0  0  0  0
   22.6022   18.7383   24.0751 H   0  0  0  0  0  0  0  0  0  0  0  0
   21.5265   18.9358   25.4550 H   0  0  0  0  0  0  0  0  0  0  0  0
   22.1806   20.8024   24.5952 C   0  0  0  0  0  0  0  0  0  0  0  0
   21.3397   21.3930   24.9689 H   0  0  0  0  0  0  0  0  0  0  0  0
   22.9979   20.8781   25.3175 H   0  0  0  0  0  0  0  0  0  0  0  0
   22.6546   21.4270   23.2976 N   0  3  0  0  0  0  0  0  0  0  0  0
   22.9407   22.4035   23.4274 H   0  0  0  0  0  0  0  0  0  0  0  0
   21.9201   21.4220   22.5832 H   0  0  0  0  0  0  0  0  0  0  0  0
   23.4608   20.9282   22.9073 H   0  0  0  0  0  0  0  0  0  0  0  0
  1  2  1  0  0  0  0
  1  3  1  0  0  0  0
  1  4  1  0  0  0  0
  1  5  1  0  0  0  0
  5  6  1  0  0  0  0
  5  7  1  0  0  0  0
  5  8  1  0  0  0  0
  8  9  1  0  0  0  0
  8 10  1  0  0  0  0
  8 11  1  0  0  0  0
 11 12  1  0  0  0  0
 11 13  1  0  0  0  0
 11 14  1  0  0  0  0
 14 15  1  0  0  0  0
 14 16  1  0  0  0  0
 14 17  1  0  0  0  0
 17 18  1  0  0  0  0
 17 19  1  0  0  0  0
 17 20  1  0  0  0  0
 20 21  1  0  0  0  0
 20 22  1  0  0  0  0
 20 23  1  0  0  0  0
 23 24  1  0  0  0  0
 23 25  1  0  0  0  0
 23 26  1  0  0  0  0
M  END
> <VConfSearch Rank>
31

> <Conf_Id>
105

> <Delta U+W>
0.736

> <U+W>
-4.817

> <U>
48.735

> <W>
-53.552

> <W(PB)>
-55.889

> <W(SA)>
2.337

> <Valence>
2.803

> <Coulomb>
45.123

> <VdW>
0.809

> <VdW6>
-6.953

> <VdW12>
7.761

> <Bond>
0.188

> <Angle>
0.699

> <Pdih>
1.917

> <Idih>
0.000

> <Tether>
0.000

$$$$
VeraChem MOL file


 26 25  0  0  0  0  0  0  0  0999 V2000     
   22.6482   21.4712   24.0827 C   0  0  0  0  0  0  0  0  0  0  0  0
   23.3599   21.8056   23.3166 H   0  0  0  0  0  0  0  0  0  0  0  0
   21.8425   22.2140   24.1487 H   0  0  0  0  0  0  0  0  0  0  0  0
   23.1733   21.4569   25.0466 H   0  0  0  0  0  0  0  0  0  0  0  0
   22.0871   20.0731   23.7471 C   0  0  0  0  0  0  0  0  0  0  0  0
   21.4124   19.7572   24.5538 H   0  0  0  0  0  0  0  0  0  0  0  0
   22.9113   19.3468   23.7172 H   0  0  0  0  0  0  0  0  0  0  0  0
   21.3383   20.0690   22.3936 C   0  0  0  0  0  0  0  0  0  0  0  0
   20.4895   20.7640   22.4362 H   0  0  0  0  0  0  0  0  0  0  0  0
   22.0075   20.4605   21.6151 H   0  0  0  0  0  0  0  0  0  0  0  0
   20.8532   18.6626   21.9555 C   0  0  0  0  0  0  0  0  0  0  0  0
   21.7295   18.0198   21.7943 H   0  0  0  0  0  0  0  0  0  0  0  0
   20.3611   18.7488   20.9769 H   0  0  0  0  0  0  0  0  0  0  0  0
   19.8899   17.9511   22.9409 C   0  0  0  0  0  0  0  0  0  0  0  0
   19.6400   16.9686   22.5193 H   0  0  0  0  0  0  0  0  0  0  0  0
   20.4047   17.7494   23.8896 H   0  0  0  0  0  0  0  0  0  0  0  0
   18.5852   18.7415   23.2112 C   0  0  0  0  0  0  0  0  0  0  0  0
   18.0759   18.9631   22.2640 H   0  0  0  0  0  0  0  0  0  0  0  0
   18.8259   19.7073   23.6730 H   0  0  0  0  0  0  0  0  0  0  0  0
   17.6209   17.9931   24.1517 C   0  0  0  0  0  0  0  0  0  0  0  0
   18.1316   17.7542   25.0885 H   0  0  0  0  0  0  0  0  0  0  0  0
   16.7682   18.6372   24.3830 H   0  0  0  0  0  0  0  0  0  0  0  0
   17.0762   16.7033   23.5697 N   0  3  0  0  0  0  0  0  0  0  0  0
   17.8240   16.0340   23.3629 H   0  0  0  0  0  0  0  0  0  0  0  0
   16.5649   16.8660   22.6961 H   0  0  0  0  0  0  0  0  0  0  0  0
   16.4275   16.2389   24.2144 H   0  0  0  0  0  0  0  0  0  0  0  0
  1  2  1  0  0  0  0
  1  3  1  0  0  0  0
  1  4  1  0  0  0  0
  1  5  1  0  0  0  0
  5  6  1  0  0  0  0
  5  7  1  0  0  0  0
  5  8  1  0  0  0  0
  8  9  1  0  0  0  0
  8 10  1  0  0  0  0
  8 11  1  0  0  0  0
 11 12  1  0  0  0  0
 11 13  1  0  0  0  0
 11 14  1  0  0  0  0
 14 15  1  0  0  0  0
 14 16  1  0  0  0  0
 14 17  1  0  0  0  0
 17 18  1  0  0  0  0
 17 19  1  0  0  0  0
 17 20  1  0  0  0  0
 20 21  1  0  0  0  0
 20 22  1  0  0  0  0
 20 23  1  0  0  0  0
 23 24  1  0  0  0  0
 23 25  1  0  0  0  0
 23 26  1  0  0  0  0
M  END
> <VConfSearch Rank>
32

> <Conf_Id>
144

> <Delta U+W>
1.073

> <U+W>
-4.479

> <U>
49.231

> <W>
-53.710

> <W(PB)>
-55.983

> <W(SA)>
2.273

> <Valence>
3.276

> <Coulomb>
45.175

> <VdW>
0.779

> <VdW6>
-7.944

> <VdW12>
8.723

> <Bond>
0.239

> <Angle>
1.155

> <Pdih>
1.883

> <Idih>
0.000

> <Tether>
0.000

$$$$
VeraChem MOL file


 26 25  0  0  0  0  0  0  0  0999 V2000     
   21.4671   16.0472   25.0379 C   0  0  0  0  0  0  0  0  0  0  0  0
   20.7636   15.3912   24.5110 H   0  0  0  0  0  0  0  0  0  0  0  0
   22.3405   15.4408   25.3105 H   0  0  0  0  0  0  0  0  0  0  0  0
   20.9916   16.3866   25.9673 H   0  0  0  0  0  0  0  0  0  0  0  0
   21.8951   17.2470   24.1622 C   0  0  0  0  0  0  0  0  0  0  0  0
   22.3365   16.8831   23.2239 H   0  0  0  0  0  0  0  0  0  0  0  0
   22.6920   17.7953   24.6839 H   0  0  0  0  0  0  0  0  0  0  0  0
   20.7403   18.2305   23.8524 C   0  0  0  0  0  0  0  0  0  0  0  0
   20.2889   18.5751   24.7928 H   0  0  0  0  0  0  0  0  0  0  0  0
   21.1758   19.1127   23.3668 H   0  0  0  0  0  0  0  0  0  0  0  0
   19.6492   17.6313   22.9306 C   0  0  0  0  0  0  0  0  0  0  0  0
   19.2809   16.6916   23.3611 H   0  0  0  0  0  0  0  0  0  0  0  0
   20.0958   17.3687   21.9618 H   0  0  0  0  0  0  0  0  0  0  0  0
   18.4240   18.5540   22.6999 C   0  0  0  0  0  0  0  0  0  0  0  0
   17.7111   18.0053   22.0689 H   0  0  0  0  0  0  0  0  0  0  0  0
   17.9023   18.7328   23.6504 H   0  0  0  0  0  0  0  0  0  0  0  0
   18.7413   19.9032   22.0068 C   0  0  0  0  0  0  0  0  0  0  0  0
   17.8550   20.2236   21.4432 H   0  0  0  0  0  0  0  0  0  0  0  0
   19.5453   19.7702   21.2708 H   0  0  0  0  0  0  0  0  0  0  0  0
   19.1039   21.0221   23.0028 C   0  0  0  0  0  0  0  0  0  0  0  0
   18.2723   21.1790   23.6950 H   0  0  0  0  0  0  0  0  0  0  0  0
   19.9830   20.7412   23.5857 H   0  0  0  0  0  0  0  0  0  0  0  0
   19.4009   22.3440   22.3248 N   0  3  0  0  0  0  0  0  0  0  0  0
   18.5992   22.6842   21.7838 H   0  0  0  0  0  0  0  0  0  0  0  0
   20.1928   22.2722   21.6776 H   0  0  0  0  0  0  0  0  0  0  0  0
   19.6351   23.0765   23.0036 H   0  0  0  0  0  0  0  0  0  0  0  0
  1  2  1  0  0  0  0
  1  3  1  0  0  0  0
  1  4  1  0  0  0  0
  1  5  1  0  0  0  0
  5  6  1  0  0  0  0
  5  7  1  0  0  0  0
  5  8  1  0  0  0  0
  8  9  1  0  0  0  0
  8 10  1  0  0  0  0
  8 11  1  0  0  0  0
 11 12  1  0  0  0  0
 11 13  1  0  0  0  0
 11 14  1  0  0  0  0
 14 15  1  0  0  0  0
 14 16  1  0  0  0  0
 14 17  1  0  0  0  0
 17 18  1  0  0  0  0
 17 19  1  0  0  0  0
 17 20  1  0  0  0  0
 20 21  1  0  0  0  0
 20 22  1  0  0  0  0
 20 23  1  0  0  0  0
 23 24  1  0  0  0  0
 23 25  1  0  0  0  0
 23 26  1  0  0  0  0
M  END
> <VConfSearch Rank>
33

> <Conf_Id>
93

> <Delta U+W>
3.253

> <U+W>
-2.300

> <U>
51.609

> <W>
-53.909

> <W(PB)>
-56.178

> <W(SA)>
2.270

> <Valence>
5.204

> <Coulomb>
45.645

> <VdW>
0.760

> <VdW6>
-7.997

> <VdW12>
8.758

> <Bond>
0.240

> <Angle>
1.456

> <Pdih>
3.507

> <Idih>
0.000

> <Tether>
0.000

$$$$
VeraChem MOL file


 26 25  0  0  0  0  0  0  0  0999 V2000     
   22.9233   20.9911   22.2479 C   0  0  0  0  0  0  0  0  0  0  0  0
   22.2594   21.5159   21.5503 H   0  0  0  0  0  0  0  0  0  0  0  0
   22.8870   21.5102   23.2145 H   0  0  0  0  0  0  0  0  0  0  0  0
   23.9456   21.0798   21.8581 H   0  0  0  0  0  0  0  0  0  0  0  0
   22.5311   19.5037   22.4007 C   0  0  0  0  0  0  0  0  0  0  0  0
   23.2993   18.9986   23.0029 H   0  0  0  0  0  0  0  0  0  0  0  0
   22.5413   19.0140   21.4169 H   0  0  0  0  0  0  0  0  0  0  0  0
   21.1551   19.2927   23.0779 C   0  0  0  0  0  0  0  0  0  0  0  0
   21.0439   18.2198   23.2787 H   0  0  0  0  0  0  0  0  0  0  0  0
   21.1428   19.8017   24.0514 H   0  0  0  0  0  0  0  0  0  0  0  0
   19.9617   19.7731   22.2151 C   0  0  0  0  0  0  0  0  0  0  0  0
   19.9340   19.1969   21.2801 H   0  0  0  0  0  0  0  0  0  0  0  0
   20.1176   20.8194   21.9238 H   0  0  0  0  0  0  0  0  0  0  0  0
   18.5819   19.6819   22.9175 C   0  0  0  0  0  0  0  0  0  0  0  0
   18.5609   20.3435   23.7947 H   0  0  0  0  0  0  0  0  0  0  0  0
   17.8308   20.0848   22.2241 H   0  0  0  0  0  0  0  0  0  0  0  0
   18.1458   18.2509   23.3215 C   0  0  0  0  0  0  0  0  0  0  0  0
   18.4933   17.5247   22.5746 H   0  0  0  0  0  0  0  0  0  0  0  0
   17.0487   18.2040   23.3124 H   0  0  0  0  0  0  0  0  0  0  0  0
   18.6291   17.8478   24.7285 C   0  0  0  0  0  0  0  0  0  0  0  0
   19.7188   17.8825   24.7799 H   0  0  0  0  0  0  0  0  0  0  0  0
   18.2309   18.5493   25.4666 H   0  0  0  0  0  0  0  0  0  0  0  0
   18.1907   16.4536   25.1275 N   0  3  0  0  0  0  0  0  0  0  0  0
   17.1696   16.3613   25.1327 H   0  0  0  0  0  0  0  0  0  0  0  0
   18.5173   16.2058   26.0679 H   0  0  0  0  0  0  0  0  0  0  0  0
   18.5547   15.7405   24.4872 H   0  0  0  0  0  0  0  0  0  0  0  0
  1  2  1  0  0  0  0
  1  3  1  0  0  0  0
  1  4  1  0  0  0  0
  1  5  1  0  0  0  0
  5  6  1  0  0  0  0
  5  7  1  0  0  0  0
  5  8  1  0  0  0  0
  8  9  1  0  0  0  0
  8 10  1  0  0  0  0
  8 11  1  0  0  0  0
 11 12  1  0  0  0  0
 11 13  1  0  0  0  0
 11 14  1  0  0  0  0
 14 15  1  0  0  0  0
 14 16  1  0  0  0  0
 14 17  1  0  0  0  0
 17 18  1  0  0  0  0
 17 19  1  0  0  0  0
 17 20  1  0  0  0  0
 20 21  1  0  0  0  0
 20 22  1  0  0  0  0
 20 23  1  0  0  0  0
 23 24  1  0  0  0  0
 23 25  1  0  0  0  0
 23 26  1  0  0  0  0
M  END
> <VConfSearch Rank>
34

> <Conf_Id>
94

> <Delta U+W>
3.247

> <U+W>
-2.305

> <U>
51.609

> <W>
-53.914

> <W(PB)>
-56.221

> <W(SA)>
2.307

> <Valence>
5.204

> <Coulomb>
45.645

> <VdW>
0.760

> <VdW6>
-7.997

> <VdW12>
8.757

> <Bond>
0.240

> <Angle>
1.456

> <Pdih>
3.508

> <Idih>
0.000

> <Tether>
0.000

$$$$
VeraChem MOL file


 26 25  0  0  0  0  0  0  0  0999 V2000     
   23.7883   19.6313   21.6754 C   0  0  0  0  0  0  0  0  0  0  0  0
   23.8395   20.7254   21.6011 H   0  0  0  0  0  0  0  0  0  0  0  0
   24.2823   19.3284   22.6079 H   0  0  0  0  0  0  0  0  0  0  0  0
   24.3601   19.2096   20.8387 H   0  0  0  0  0  0  0  0  0  0  0  0
   22.3254   19.1406   21.6379 C   0  0  0  0  0  0  0  0  0  0  0  0
   22.3081   18.0425   21.6795 H   0  0  0  0  0  0  0  0  0  0  0  0
   21.8687   19.4288   20.6807 H   0  0  0  0  0  0  0  0  0  0  0  0
   21.4974   19.7202   22.8062 C   0  0  0  0  0  0  0  0  0  0  0  0
   21.9589   19.4313   23.7607 H   0  0  0  0  0  0  0  0  0  0  0  0
   21.5203   20.8178   22.7616 H   0  0  0  0  0  0  0  0  0  0  0  0
   20.0318   19.2314   22.7717 C   0  0  0  0  0  0  0  0  0  0  0  0
   20.0172   18.1340   22.8088 H   0  0  0  0  0  0  0  0  0  0  0  0
   19.5706   19.5241   21.8182 H   0  0  0  0  0  0  0  0  0  0  0  0
   19.2053   19.8118   23.9442 C   0  0  0  0  0  0  0  0  0  0  0  0
   19.6480   19.5017   24.9002 H   0  0  0  0  0  0  0  0  0  0  0  0
   19.2684   20.9086   23.9208 H   0  0  0  0  0  0  0  0  0  0  0  0
   17.7114   19.4038   23.8980 C   0  0  0  0  0  0  0  0  0  0  0  0
   17.2578   19.7953   22.9777 H   0  0  0  0  0  0  0  0  0  0  0  0
   17.1783   19.8832   24.7297 H   0  0  0  0  0  0  0  0  0  0  0  0
   17.4736   17.8812   23.9574 C   0  0  0  0  0  0  0  0  0  0  0  0
   16.4011   17.6787   23.8931 H   0  0  0  0  0  0  0  0  0  0  0  0
   17.9614   17.3969   23.1076 H   0  0  0  0  0  0  0  0  0  0  0  0
   17.9900   17.2341   25.2272 N   0  3  0  0  0  0  0  0  0  0  0  0
   17.5460   17.6286   26.0628 H   0  0  0  0  0  0  0  0  0  0  0  0
   19.0013   17.3623   25.3317 H   0  0  0  0  0  0  0  0  0  0  0  0
   17.8107   16.2242   25.2407 H   0  0  0  0  0  0  0  0  0  0  0  0
  1  2  1  0  0  0  0
  1  3  1  0  0  0  0
  1  4  1  0  0  0  0
  1  5  1  0  0  0  0
  5  6  1  0  0  0  0
  5  7  1  0  0  0  0
  5  8  1  0  0  0  0
  8  9  1  0  0  0  0
  8 10  1  0  0  0  0
  8 11  1  0  0  0  0
 11 12  1  0  0  0  0
 11 13  1  0  0  0  0
 11 14  1  0  0  0  0
 14 15  1  0  0  0  0
 14 16  1  0  0  0  0
 14 17  1  0  0  0  0
 17 18  1  0  0  0  0
 17 19  1  0  0  0  0
 17 20  1  0  0  0  0
 20 21  1  0  0  0  0
 20 22  1  0  0  0  0
 20 23  1  0  0  0  0
 23 24  1  0  0  0  0
 23 25  1  0  0  0  0
 23 26  1  0  0  0  0
M  END
> <VConfSearch Rank>
35

> <Conf_Id>
83

> <Delta U+W>
0.559

> <U+W>
-4.994

> <U>
48.668

> <W>
-53.661

> <W(PB)>
-55.972

> <W(SA)>
2.311

> <Valence>
2.543

> <Coulomb>
45.478

> <VdW>
0.646

> <VdW6>
-7.096

> <VdW12>
7.742

> <Bond>
0.176

> <Angle>
0.630

> <Pdih>
1.738

> <Idih>
0.000

> <Tether>
0.000

$$$$
VeraChem MOL file


 26 25  0  0  0  0  0  0  0  0999 V2000     
   22.9864   20.8846   21.4152 C   0  0  0  0  0  0  0  0  0  0  0  0
   23.1566   20.6564   20.3550 H   0  0  0  0  0  0  0  0  0  0  0  0
   22.5432   21.8868   21.4825 H   0  0  0  0  0  0  0  0  0  0  0  0
   23.9637   20.9141   21.9143 H   0  0  0  0  0  0  0  0  0  0  0  0
   22.0712   19.8287   22.0707 C   0  0  0  0  0  0  0  0  0  0  0  0
   21.9588   20.0679   23.1364 H   0  0  0  0  0  0  0  0  0  0  0  0
   22.5539   18.8430   22.0140 H   0  0  0  0  0  0  0  0  0  0  0  0
   20.6851   19.7720   21.3861 C   0  0  0  0  0  0  0  0  0  0  0  0
   20.1802   20.7423   21.4906 H   0  0  0  0  0  0  0  0  0  0  0  0
   20.8263   19.6131   20.3080 H   0  0  0  0  0  0  0  0  0  0  0  0
   19.7690   18.6486   21.9308 C   0  0  0  0  0  0  0  0  0  0  0  0
   20.2686   17.6771   21.8126 H   0  0  0  0  0  0  0  0  0  0  0  0
   18.8639   18.6073   21.3091 H   0  0  0  0  0  0  0  0  0  0  0  0
   19.3565   18.8478   23.4092 C   0  0  0  0  0  0  0  0  0  0  0  0
   20.2476   18.8187   24.0485 H   0  0  0  0  0  0  0  0  0  0  0  0
   18.9045   19.8417   23.5332 H   0  0  0  0  0  0  0  0  0  0  0  0
   18.3539   17.7651   23.8739 C   0  0  0  0  0  0  0  0  0  0  0  0
   18.8057   16.7686   23.7799 H   0  0  0  0  0  0  0  0  0  0  0  0
   17.4760   17.7746   23.2142 H   0  0  0  0  0  0  0  0  0  0  0  0
   17.8755   17.9786   25.3231 C   0  0  0  0  0  0  0  0  0  0  0  0
   17.4324   18.9732   25.4218 H   0  0  0  0  0  0  0  0  0  0  0  0
   17.1079   17.2381   25.5641 H   0  0  0  0  0  0  0  0  0  0  0  0
   18.9781   17.8498   26.3558 N   0  3  0  0  0  0  0  0  0  0  0  0
   19.7174   18.5443   26.2108 H   0  0  0  0  0  0  0  0  0  0  0  0
   19.4201   16.9253   26.3275 H   0  0  0  0  0  0  0  0  0  0  0  0
   18.6238   17.9833   27.3093 H   0  0  0  0  0  0  0  0  0  0  0  0
  1  2  1  0  0  0  0
  1  3  1  0  0  0  0
  1  4  1  0  0  0  0
  1  5  1  0  0  0  0
  5  6  1  0  0  0  0
  5  7  1  0  0  0  0
  5  8  1  0  0  0  0
  8  9  1  0  0  0  0
  8 10  1  0  0  0  0
  8 11  1  0  0  0  0
 11 12  1  0  0  0  0
 11 13  1  0  0  0  0
 11 14  1  0  0  0  0
 14 15  1  0  0  0  0
 14 16  1  0  0  0  0
 14 17  1  0  0  0  0
 17 18  1  0  0  0  0
 17 19  1  0  0  0  0
 17 20  1  0  0  0  0
 20 21  1  0  0  0  0
 20 22  1  0  0  0  0
 20 23  1  0  0  0  0
 23 24  1  0  0  0  0
 23 25  1  0  0  0  0
 23 26  1  0  0  0  0
M  END
> <VConfSearch Rank>
36

> <Conf_Id>
18

> <Delta U+W>
0.759

> <U+W>
-4.793

> <U>
48.945

> <W>
-53.738

> <W(PB)>
-56.051

> <W(SA)>
2.313

> <Valence>
2.802

> <Coulomb>
45.335

> <VdW>
0.807

> <VdW6>
-6.962

> <VdW12>
7.769

> <Bond>
0.189

> <Angle>
0.696

> <Pdih>
1.917

> <Idih>
0.000

> <Tether>
0.000

$$$$
VeraChem MOL file


 26 25  0  0  0  0  0  0  0  0999 V2000     
   17.1268   16.2840   24.2038 C   0  0  0  0  0  0  0  0  0  0  0  0
   17.2943   16.3037   25.2886 H   0  0  0  0  0  0  0  0  0  0  0  0
   16.0824   16.5641   24.0140 H   0  0  0  0  0  0  0  0  0  0  0  0
   17.2660   15.2508   23.8599 H   0  0  0  0  0  0  0  0  0  0  0  0
   18.0986   17.2365   23.4754 C   0  0  0  0  0  0  0  0  0  0  0  0
   17.9268   17.1730   22.3918 H   0  0  0  0  0  0  0  0  0  0  0  0
   19.1281   16.8999   23.6554 H   0  0  0  0  0  0  0  0  0  0  0  0
   17.9237   18.6993   23.9474 C   0  0  0  0  0  0  0  0  0  0  0  0
   16.8693   18.9869   23.8338 H   0  0  0  0  0  0  0  0  0  0  0  0
   18.1486   18.7718   25.0205 H   0  0  0  0  0  0  0  0  0  0  0  0
   18.7948   19.7127   23.1648 C   0  0  0  0  0  0  0  0  0  0  0  0
   18.5165   20.7270   23.4826 H   0  0  0  0  0  0  0  0  0  0  0  0
   18.5589   19.6498   22.0934 H   0  0  0  0  0  0  0  0  0  0  0  0
   20.3152   19.5168   23.3775 C   0  0  0  0  0  0  0  0  0  0  0  0
   20.5396   19.5281   24.4532 H   0  0  0  0  0  0  0  0  0  0  0  0
   20.6179   18.5333   22.9972 H   0  0  0  0  0  0  0  0  0  0  0  0
   21.1383   20.6185   22.6687 C   0  0  0  0  0  0  0  0  0  0  0  0
   20.8130   21.6039   23.0277 H   0  0  0  0  0  0  0  0  0  0  0  0
   20.9423   20.5983   21.5883 H   0  0  0  0  0  0  0  0  0  0  0  0
   22.6529   20.4852   22.9196 C   0  0  0  0  0  0  0  0  0  0  0  0
   23.1711   21.3359   22.4686 H   0  0  0  0  0  0  0  0  0  0  0  0
   22.8504   20.4969   23.9949 H   0  0  0  0  0  0  0  0  0  0  0  0
   23.2588   19.2204   22.3434 N   0  3  0  0  0  0  0  0  0  0  0  0
   23.1247   19.1621   21.3287 H   0  0  0  0  0  0  0  0  0  0  0  0
   22.8424   18.3788   22.7534 H   0  0  0  0  0  0  0  0  0  0  0  0
   24.2688   19.1699   22.5153 H   0  0  0  0  0  0  0  0  0  0  0  0
  1  2  1  0  0  0  0
  1  3  1  0  0  0  0
  1  4  1  0  0  0  0
  1  5  1  0  0  0  0
  5  6  1  0  0  0  0
  5  7  1  0  0  0  0
  5  8  1  0  0  0  0
  8  9  1  0  0  0  0
  8 10  1  0  0  0  0
  8 11  1  0  0  0  0
 11 12  1  0  0  0  0
 11 13  1  0  0  0  0
 11 14  1  0  0  0  0
 14 15  1  0  0  0  0
 14 16  1  0  0  0  0
 14 17  1  0  0  0  0
 17 18  1  0  0  0  0
 17 19  1  0  0  0  0
 17 20  1  0  0  0  0
 20 21  1  0  0  0  0
 20 22  1  0  0  0  0
 20 23  1  0  0  0  0
 23 24  1  0  0  0  0
 23 25  1  0  0  0  0
 23 26  1  0  0  0  0
M  END
> <VConfSearch Rank>
37

> <Conf_Id>
17

> <Delta U+W>
0.843

> <U+W>
-4.709

> <U>
48.945

> <W>
-53.653

> <W(PB)>
-55.991

> <W(SA)>
2.338

> <Valence>
2.802

> <Coulomb>
45.335

> <VdW>
0.807

> <VdW6>
-6.962

> <VdW12>
7.769

> <Bond>
0.189

> <Angle>
0.696

> <Pdih>
1.917

> <Idih>
0.000

> <Tether>
0.000

$$$$
VeraChem MOL file


 26 25  0  0  0  0  0  0  0  0999 V2000     
   22.5381   18.2323   21.1377 C   0  0  0  0  0  0  0  0  0  0  0  0
   21.7707   17.4826   21.3670 H   0  0  0  0  0  0  0  0  0  0  0  0
   22.1458   18.9003   20.3599 H   0  0  0  0  0  0  0  0  0  0  0  0
   23.4028   17.7013   20.7192 H   0  0  0  0  0  0  0  0  0  0  0  0
   22.9499   19.0276   22.3974 C   0  0  0  0  0  0  0  0  0  0  0  0
   23.8020   19.6741   22.1447 H   0  0  0  0  0  0  0  0  0  0  0  0
   23.3089   18.3346   23.1711 H   0  0  0  0  0  0  0  0  0  0  0  0
   21.8122   19.9074   22.9696 C   0  0  0  0  0  0  0  0  0  0  0  0
   22.2214   20.5173   23.7869 H   0  0  0  0  0  0  0  0  0  0  0  0
   21.4707   20.6122   22.1991 H   0  0  0  0  0  0  0  0  0  0  0  0
   20.6091   19.0916   23.5007 C   0  0  0  0  0  0  0  0  0  0  0  0
   20.9623   18.3545   24.2350 H   0  0  0  0  0  0  0  0  0  0  0  0
   20.1543   18.5290   22.6758 H   0  0  0  0  0  0  0  0  0  0  0  0
   19.5439   20.0036   24.1556 C   0  0  0  0  0  0  0  0  0  0  0  0
   20.0150   20.5954   24.9525 H   0  0  0  0  0  0  0  0  0  0  0  0
   19.1668   20.7233   23.4157 H   0  0  0  0  0  0  0  0  0  0  0  0
   18.3577   19.2155   24.7595 C   0  0  0  0  0  0  0  0  0  0  0  0
   17.6932   19.9167   25.2816 H   0  0  0  0  0  0  0  0  0  0  0  0
   18.7293   18.5118   25.5163 H   0  0  0  0  0  0  0  0  0  0  0  0
   17.5469   18.4517   23.6958 C   0  0  0  0  0  0  0  0  0  0  0  0
   17.1763   19.1522   22.9426 H   0  0  0  0  0  0  0  0  0  0  0  0
   18.1865   17.7178   23.1988 H   0  0  0  0  0  0  0  0  0  0  0  0
   16.3566   17.7142   24.2744 N   0  3  0  0  0  0  0  0  0  0  0  0
   15.8304   17.2127   23.5506 H   0  0  0  0  0  0  0  0  0  0  0  0
   15.6983   18.3521   24.7337 H   0  0  0  0  0  0  0  0  0  0  0  0
   16.6403   17.0192   24.9727 H   0  0  0  0  0  0  0  0  0  0  0  0
  1  2  1  0  0  0  0
  1  3  1  0  0  0  0
  1  4  1  0  0  0  0
  1  5  1  0  0  0  0
  5  6  1  0  0  0  0
  5  7  1  0  0  0  0
  5  8  1  0  0  0  0
  8  9  1  0  0  0  0
  8 10  1  0  0  0  0
  8 11  1  0  0  0  0
 11 12  1  0  0  0  0
 11 13  1  0  0  0  0
 11 14  1  0  0  0  0
 14 15  1  0  0  0  0
 14 16  1  0  0  0  0
 14 17  1  0  0  0  0
 17 18  1  0  0  0  0
 17 19  1  0  0  0  0
 17 20  1  0  0  0  0
 20 21  1  0  0  0  0
 20 22  1  0  0  0  0
 20 23  1  0  0  0  0
 23 24  1  0  0  0  0
 23 25  1  0  0  0  0
 23 26  1  0  0  0  0
M  END
> <VConfSearch Rank>
38

> <Conf_Id>
96

> <Delta U+W>
0.912

> <U+W>
-4.640

> <U>
48.723

> <W>
-53.364

> <W(PB)>
-55.683

> <W(SA)>
2.320

> <Valence>
2.962

> <Coulomb>
44.993

> <VdW>
0.768

> <VdW6>
-7.008

> <VdW12>
7.776

> <Bond>
0.188

> <Angle>
0.757

> <Pdih>
2.018

> <Idih>
0.000

> <Tether>
0.000

$$$$
VeraChem MOL file


 26 25  0  0  0  0  0  0  0  0999 V2000     
   17.7663   17.6086   21.1443 C   0  0  0  0  0  0  0  0  0  0  0  0
   16.8382   17.5343   20.5629 H   0  0  0  0  0  0  0  0  0  0  0  0
   18.2052   16.6043   21.2057 H   0  0  0  0  0  0  0  0  0  0  0  0
   17.4951   17.9285   22.1580 H   0  0  0  0  0  0  0  0  0  0  0  0
   18.7439   18.6027   20.4773 C   0  0  0  0  0  0  0  0  0  0  0  0
   18.2946   19.6054   20.4565 H   0  0  0  0  0  0  0  0  0  0  0  0
   18.8868   18.3082   19.4281 H   0  0  0  0  0  0  0  0  0  0  0  0
   20.1276   18.6633   21.1684 C   0  0  0  0  0  0  0  0  0  0  0  0
   20.5815   17.6627   21.1686 H   0  0  0  0  0  0  0  0  0  0  0  0
   20.7891   19.3025   20.5675 H   0  0  0  0  0  0  0  0  0  0  0  0
   20.0713   19.2112   22.6146 C   0  0  0  0  0  0  0  0  0  0  0  0
   19.4647   18.5420   23.2374 H   0  0  0  0  0  0  0  0  0  0  0  0
   19.5726   20.1901   22.6159 H   0  0  0  0  0  0  0  0  0  0  0  0
   21.4851   19.3509   23.2288 C   0  0  0  0  0  0  0  0  0  0  0  0
   21.9760   18.3682   23.2562 H   0  0  0  0  0  0  0  0  0  0  0  0
   22.1006   19.9877   22.5784 H   0  0  0  0  0  0  0  0  0  0  0  0
   21.4723   19.9610   24.6502 C   0  0  0  0  0  0  0  0  0  0  0  0
   21.0032   20.9535   24.6216 H   0  0  0  0  0  0  0  0  0  0  0  0
   22.5081   20.1123   24.9821 H   0  0  0  0  0  0  0  0  0  0  0  0
   20.7412   19.0717   25.6735 C   0  0  0  0  0  0  0  0  0  0  0  0
   19.6958   18.9500   25.3784 H   0  0  0  0  0  0  0  0  0  0  0  0
   21.2085   18.0837   25.7024 H   0  0  0  0  0  0  0  0  0  0  0  0
   20.7642   19.6414   27.0771 N   0  3  0  0  0  0  0  0  0  0  0  0
   20.3144   20.5616   27.1235 H   0  0  0  0  0  0  0  0  0  0  0  0
   21.7209   19.7552   27.4276 H   0  0  0  0  0  0  0  0  0  0  0  0
   20.2727   19.0349   27.7427 H   0  0  0  0  0  0  0  0  0  0  0  0
  1  2  1  0  0  0  0
  1  3  1  0  0  0  0
  1  4  1  0  0  0  0
  1  5  1  0  0  0  0
  5  6  1  0  0  0  0
  5  7  1  0  0  0  0
  5  8  1  0  0  0  0
  8  9  1  0  0  0  0
  8 10  1  0  0  0  0
  8 11  1  0  0  0  0
 11 12  1  0  0  0  0
 11 13  1  0  0  0  0
 11 14  1  0  0  0  0
 14 15  1  0  0  0  0
 14 16  1  0  0  0  0
 14 17  1  0  0  0  0
 17 18  1  0  0  0  0
 17 19  1  0  0  0  0
 17 20  1  0  0  0  0
 20 21  1  0  0  0  0
 20 22  1  0  0  0  0
 20 23  1  0  0  0  0
 23 24  1  0  0  0  0
 23 25  1  0  0  0  0
 23 26  1  0  0  0  0
M  END
> <VConfSearch Rank>
39

> <Conf_Id>
133

> <Delta U+W>
0.844

> <U+W>
-4.708

> <U>
48.723

> <W>
-53.431

> <W(PB)>
-55.776

> <W(SA)>
2.344

> <Valence>
2.962

> <Coulomb>
44.993

> <VdW>
0.768

> <VdW6>
-7.008

> <VdW12>
7.776

> <Bond>
0.188

> <Angle>
0.756

> <Pdih>
2.018

> <Idih>
0.000

> <Tether>
0.000

$$$$
VeraChem MOL file


 26 25  0  0  0  0  0  0  0  0999 V2000     
   19.3653   16.5997   20.9499 C   0  0  0  0  0  0  0  0  0  0  0  0
   18.4402   16.6904   20.3659 H   0  0  0  0  0  0  0  0  0  0  0  0
   19.9238   17.5396   20.8585 H   0  0  0  0  0  0  0  0  0  0  0  0
   19.9740   15.8079   20.4944 H   0  0  0  0  0  0  0  0  0  0  0  0
   19.0588   16.2648   22.4271 C   0  0  0  0  0  0  0  0  0  0  0  0
   19.9966   16.1989   22.9946 H   0  0  0  0  0  0  0  0  0  0  0  0
   18.6075   15.2640   22.4765 H   0  0  0  0  0  0  0  0  0  0  0  0
   18.0942   17.2740   23.1008 C   0  0  0  0  0  0  0  0  0  0  0  0
   17.1224   17.2307   22.5900 H   0  0  0  0  0  0  0  0  0  0  0  0
   17.9056   16.9481   24.1329 H   0  0  0  0  0  0  0  0  0  0  0  0
   18.5810   18.7462   23.1183 C   0  0  0  0  0  0  0  0  0  0  0  0
   17.8075   19.3593   23.6010 H   0  0  0  0  0  0  0  0  0  0  0  0
   18.6675   19.1241   22.0909 H   0  0  0  0  0  0  0  0  0  0  0  0
   19.9215   18.9461   23.8651 C   0  0  0  0  0  0  0  0  0  0  0  0
   19.8444   18.5260   24.8776 H   0  0  0  0  0  0  0  0  0  0  0  0
   20.7215   18.3970   23.3511 H   0  0  0  0  0  0  0  0  0  0  0  0
   20.3116   20.4378   23.9546 C   0  0  0  0  0  0  0  0  0  0  0  0
   19.5234   20.9961   24.4771 H   0  0  0  0  0  0  0  0  0  0  0  0
   20.3904   20.8604   22.9439 H   0  0  0  0  0  0  0  0  0  0  0  0
   21.6479   20.6268   24.6939 C   0  0  0  0  0  0  0  0  0  0  0  0
   21.5689   20.2218   25.7064 H   0  0  0  0  0  0  0  0  0  0  0  0
   22.4394   20.0862   24.1678 H   0  0  0  0  0  0  0  0  0  0  0  0
   22.0659   22.0790   24.8025 N   0  3  0  0  0  0  0  0  0  0  0  0
   22.9581   22.1826   25.2982 H   0  0  0  0  0  0  0  0  0  0  0  0
   21.3745   22.6386   25.3125 H   0  0  0  0  0  0  0  0  0  0  0  0
   22.1845   22.5126   23.8809 H   0  0  0  0  0  0  0  0  0  0  0  0
  1  2  1  0  0  0  0
  1  3  1  0  0  0  0
  1  4  1  0  0  0  0
  1  5  1  0  0  0  0
  5  6  1  0  0  0  0
  5  7  1  0  0  0  0
  5  8  1  0  0  0  0
  8  9  1  0  0  0  0
  8 10  1  0  0  0  0
  8 11  1  0  0  0  0
 11 12  1  0  0  0  0
 11 13  1  0  0  0  0
 11 14  1  0  0  0  0
 14 15  1  0  0  0  0
 14 16  1  0  0  0  0
 14 17  1  0  0  0  0
 17 18  1  0  0  0  0
 17 19  1  0  0  0  0
 17 20  1  0  0  0  0
 20 21  1  0  0  0  0
 20 22  1  0  0  0  0
 20 23  1  0  0  0  0
 23 24  1  0  0  0  0
 23 25  1  0  0  0  0
 23 26  1  0  0  0  0
M  END
> <VConfSearch Rank>
40

> <Conf_Id>
106

> <Delta U+W>
0.767

> <U+W>
-4.785

> <U>
48.494

> <W>
-53.279

> <W(PB)>
-55.569

> <W(SA)>
2.290

> <Valence>
3.117

> <Coulomb>
44.693

> <VdW>
0.684

> <VdW6>
-7.347

> <VdW12>
8.030

> <Bond>
0.208

> <Angle>
1.039

> <Pdih>
1.870

> <Idih>
0.000

> <Tether>
0.000

$$$$
VeraChem MOL file


 26 25  0  0  0  0  0  0  0  0999 V2000     
   17.7706   15.9315   25.7854 C   0  0  0  0  0  0  0  0  0  0  0  0
   18.3569   15.0652   25.4522 H   0  0  0  0  0  0  0  0  0  0  0  0
   18.1802   16.2730   26.7450 H   0  0  0  0  0  0  0  0  0  0  0  0
   16.7405   15.5942   25.9597 H   0  0  0  0  0  0  0  0  0  0  0  0
   17.8037   17.0613   24.7344 C   0  0  0  0  0  0  0  0  0  0  0  0
   17.1818   17.8990   25.0801 H   0  0  0  0  0  0  0  0  0  0  0  0
   17.3571   16.7005   23.7973 H   0  0  0  0  0  0  0  0  0  0  0  0
   19.2434   17.5547   24.4701 C   0  0  0  0  0  0  0  0  0  0  0  0
   19.6864   17.9120   25.4101 H   0  0  0  0  0  0  0  0  0  0  0  0
   19.8616   16.7135   24.1270 H   0  0  0  0  0  0  0  0  0  0  0  0
   19.2807   18.6863   23.4182 C   0  0  0  0  0  0  0  0  0  0  0  0
   18.6620   19.5269   23.7619 H   0  0  0  0  0  0  0  0  0  0  0  0
   18.8370   18.3283   22.4787 H   0  0  0  0  0  0  0  0  0  0  0  0
   20.7213   19.1795   23.1540 C   0  0  0  0  0  0  0  0  0  0  0  0
   21.1654   19.5376   24.0933 H   0  0  0  0  0  0  0  0  0  0  0  0
   21.3403   18.3391   22.8100 H   0  0  0  0  0  0  0  0  0  0  0  0
   20.7593   20.3105   22.1028 C   0  0  0  0  0  0  0  0  0  0  0  0
   20.1461   21.1548   22.4453 H   0  0  0  0  0  0  0  0  0  0  0  0
   20.3210   19.9549   21.1607 H   0  0  0  0  0  0  0  0  0  0  0  0
   22.1979   20.7937   21.8474 C   0  0  0  0  0  0  0  0  0  0  0  0
   22.6328   21.1642   22.7796 H   0  0  0  0  0  0  0  0  0  0  0  0
   22.8084   19.9598   21.4904 H   0  0  0  0  0  0  0  0  0  0  0  0
   22.2773   21.9047   20.8203 N   0  3  0  0  0  0  0  0  0  0  0  0
   23.2438   22.2117   20.6652 H   0  0  0  0  0  0  0  0  0  0  0  0
   21.7446   22.7316   21.1097 H   0  0  0  0  0  0  0  0  0  0  0  0
   21.9079   21.6110   19.9101 H   0  0  0  0  0  0  0  0  0  0  0  0
  1  2  1  0  0  0  0
  1  3  1  0  0  0  0
  1  4  1  0  0  0  0
  1  5  1  0  0  0  0
  5  6  1  0  0  0  0
  5  7  1  0  0  0  0
  5  8  1  0  0  0  0
  8  9  1  0  0  0  0
  8 10  1  0  0  0  0
  8 11  1  0  0  0  0
 11 12  1  0  0  0  0
 11 13  1  0  0  0  0
 11 14  1  0  0  0  0
 14 15  1  0  0  0  0
 14 16  1  0  0  0  0
 14 17  1  0  0  0  0
 17 18  1  0  0  0  0
 17 19  1  0  0  0  0
 17 20  1  0  0  0  0
 20 21  1  0  0  0  0
 20 22  1  0  0  0  0
 20 23  1  0  0  0  0
 23 24  1  0  0  0  0
 23 25  1  0  0  0  0
 23 26  1  0  0  0  0
M  END
> <VConfSearch Rank>
41

> <Conf_Id>
25

> <Delta U+W>
0.000

> <U+W>
-5.552

> <U>
47.192

> <W>
-52.745

> <W(PB)>
-55.134

> <W(SA)>
2.389

> <Valence>
2.156

> <Coulomb>
44.449

> <VdW>
0.587

> <VdW6>
-5.761

> <VdW12>
6.348

> <Bond>
0.129

> <Angle>
0.393

> <Pdih>
1.634

> <Idih>
0.000

> <Tether>
0.000

$$$$
VeraChem MOL file


 26 25  0  0  0  0  0  0  0  0999 V2000     
   20.3111   23.0639   21.8694 C   0  0  0  0  0  0  0  0  0  0  0  0
   21.2981   23.2541   22.3108 H   0  0  0  0  0  0  0  0  0  0  0  0
   20.4581   22.7315   20.8334 H   0  0  0  0  0  0  0  0  0  0  0  0
   19.7644   24.0154   21.8437 H   0  0  0  0  0  0  0  0  0  0  0  0
   19.5325   22.0099   22.6849 C   0  0  0  0  0  0  0  0  0  0  0  0
   18.5381   21.8660   22.2396 H   0  0  0  0  0  0  0  0  0  0  0  0
   19.3716   22.3847   23.7055 H   0  0  0  0  0  0  0  0  0  0  0  0
   20.2809   20.6595   22.7371 C   0  0  0  0  0  0  0  0  0  0  0  0
   20.4415   20.2903   21.7147 H   0  0  0  0  0  0  0  0  0  0  0  0
   21.2750   20.8088   23.1809 H   0  0  0  0  0  0  0  0  0  0  0  0
   19.5042   19.6015   23.5530 C   0  0  0  0  0  0  0  0  0  0  0  0
   18.5103   19.4527   23.1085 H   0  0  0  0  0  0  0  0  0  0  0  0
   19.3433   19.9724   24.5748 H   0  0  0  0  0  0  0  0  0  0  0  0
   20.2535   18.2508   23.6055 C   0  0  0  0  0  0  0  0  0  0  0  0
   20.4159   17.8875   22.5819 H   0  0  0  0  0  0  0  0  0  0  0  0
   21.2463   18.3992   24.0527 H   0  0  0  0  0  0  0  0  0  0  0  0
   19.4739   17.1929   24.4218 C   0  0  0  0  0  0  0  0  0  0  0  0
   18.4914   17.0138   23.9651 H   0  0  0  0  0  0  0  0  0  0  0  0
   19.2841   17.5803   25.4317 H   0  0  0  0  0  0  0  0  0  0  0  0
   20.2340   15.8584   24.5466 C   0  0  0  0  0  0  0  0  0  0  0  0
   21.2154   16.0342   24.9955 H   0  0  0  0  0  0  0  0  0  0  0  0
   19.6760   15.1830   25.2009 H   0  0  0  0  0  0  0  0  0  0  0  0
   20.4422   15.1483   23.2233 N   0  3  0  0  0  0  0  0  0  0  0  0
   20.9938   15.7145   22.5712 H   0  0  0  0  0  0  0  0  0  0  0  0
   19.5522   14.9346   22.7617 H   0  0  0  0  0  0  0  0  0  0  0  0
   20.9389   14.2587   23.3427 H   0  0  0  0  0  0  0  0  0  0  0  0
  1  2  1  0  0  0  0
  1  3  1  0  0  0  0
  1  4  1  0  0  0  0
  1  5  1  0  0  0  0
  5  6  1  0  0  0  0
  5  7  1  0  0  0  0
  5  8  1  0  0  0  0
  8  9  1  0  0  0  0
  8 10  1  0  0  0  0
  8 11  1  0  0  0  0
 11 12  1  0  0  0  0
 11 13  1  0  0  0  0
 11 14  1  0  0  0  0
 14 15  1  0  0  0  0
 14 16  1  0  0  0  0
 14 17  1  0  0  0  0
 17 18  1  0  0  0  0
 17 19  1  0  0  0  0
 17 20  1  0  0  0  0
 20 21  1  0  0  0  0
 20 22  1  0  0  0  0
 20 23  1  0  0  0  0
 23 24  1  0  0  0  0
 23 25  1  0  0  0  0
 23 26  1  0  0  0  0
M  END
> <VConfSearch Rank>
42

> <Conf_Id>
20

> <Delta U+W>
0.150

> <U+W>
-5.403

> <U>
47.845

> <W>
-53.248

> <W(PB)>
-55.599

> <W(SA)>
2.351

> <Valence>
2.258

> <Coulomb>
44.893

> <VdW>
0.694

> <VdW6>
-6.285

> <VdW12>
6.979

> <Bond>
0.149

> <Angle>
0.434

> <Pdih>
1.675

> <Idih>
0.000

> <Tether>
0.000

$$$$
VeraChem MOL file


 26 25  0  0  0  0  0  0  0  0999 V2000     
   20.7317   16.8677   19.5490 C   0  0  0  0  0  0  0  0  0  0  0  0
   20.3324   17.7062   18.9635 H   0  0  0  0  0  0  0  0  0  0  0  0
   21.8228   16.9768   19.6021 H   0  0  0  0  0  0  0  0  0  0  0  0
   20.5119   15.9409   19.0034 H   0  0  0  0  0  0  0  0  0  0  0  0
   20.1085   16.8301   20.9605 C   0  0  0  0  0  0  0  0  0  0  0  0
   20.5011   15.9626   21.5093 H   0  0  0  0  0  0  0  0  0  0  0  0
   19.0222   16.6865   20.8756 H   0  0  0  0  0  0  0  0  0  0  0  0
   20.4034   18.1243   21.7507 C   0  0  0  0  0  0  0  0  0  0  0  0
   21.4903   18.2647   21.8310 H   0  0  0  0  0  0  0  0  0  0  0  0
   20.0113   18.9887   21.1971 H   0  0  0  0  0  0  0  0  0  0  0  0
   19.7808   18.0903   23.1648 C   0  0  0  0  0  0  0  0  0  0  0  0
   20.1727   17.2249   23.7170 H   0  0  0  0  0  0  0  0  0  0  0  0
   18.6940   17.9502   23.0838 H   0  0  0  0  0  0  0  0  0  0  0  0
   20.0767   19.3849   23.9555 C   0  0  0  0  0  0  0  0  0  0  0  0
   21.1636   19.5233   24.0390 H   0  0  0  0  0  0  0  0  0  0  0  0
   19.6874   20.2466   23.3969 H   0  0  0  0  0  0  0  0  0  0  0  0
   19.4519   19.3492   25.3703 C   0  0  0  0  0  0  0  0  0  0  0  0
   19.8182   18.4643   25.9074 H   0  0  0  0  0  0  0  0  0  0  0  0
   18.3613   19.2425   25.2977 H   0  0  0  0  0  0  0  0  0  0  0  0
   19.7920   20.6003   26.2031 C   0  0  0  0  0  0  0  0  0  0  0  0
   19.3965   20.4805   27.2154 H   0  0  0  0  0  0  0  0  0  0  0  0
   20.8773   20.7126   26.2722 H   0  0  0  0  0  0  0  0  0  0  0  0
   19.2210   21.8851   25.6357 N   0  3  0  0  0  0  0  0  0  0  0  0
   18.1987   21.8499   25.5672 H   0  0  0  0  0  0  0  0  0  0  0  0
   19.5814   22.0786   24.6963 H   0  0  0  0  0  0  0  0  0  0  0  0
   19.4543   22.6957   26.2195 H   0  0  0  0  0  0  0  0  0  0  0  0
  1  2  1  0  0  0  0
  1  3  1  0  0  0  0
  1  4  1  0  0  0  0
  1  5  1  0  0  0  0
  5  6  1  0  0  0  0
  5  7  1  0  0  0  0
  5  8  1  0  0  0  0
  8  9  1  0  0  0  0
  8 10  1  0  0  0  0
  8 11  1  0  0  0  0
 11 12  1  0  0  0  0
 11 13  1  0  0  0  0
 11 14  1  0  0  0  0
 14 15  1  0  0  0  0
 14 16  1  0  0  0  0
 14 17  1  0  0  0  0
 17 18  1  0  0  0  0
 17 19  1  0  0  0  0
 17 20  1  0  0  0  0
 20 21  1  0  0  0  0
 20 22  1  0  0  0  0
 20 23  1  0  0  0  0
 23 24  1  0  0  0  0
 23 25  1  0  0  0  0
 23 26  1  0  0  0  0
M  END
> <VConfSearch Rank>
43

> <Conf_Id>
19

> <Delta U+W>
0.162

> <U+W>
-5.391

> <U>
47.845

> <W>
-53.235

> <W(PB)>
-55.585

> <W(SA)>
2.349

> <Valence>
2.258

> <Coulomb>
44.893

> <VdW>
0.694

> <VdW6>
-6.285

> <VdW12>
6.979

> <Bond>
0.149

> <Angle>
0.434

> <Pdih>
1.675

> <Idih>
0.000

> <Tether>
0.000

$$$$
VeraChem MOL file


 26 25  0  0  0  0  0  0  0  0999 V2000     
   19.7441   20.4427   27.2150 C   0  0  0  0  0  0  0  0  0  0  0  0
   20.3890   21.3027   27.4380 H   0  0  0  0  0  0  0  0  0  0  0  0
   18.7099   20.8024   27.1352 H   0  0  0  0  0  0  0  0  0  0  0  0
   19.7961   19.7529   28.0674 H   0  0  0  0  0  0  0  0  0  0  0  0
   20.1877   19.7377   25.9156 C   0  0  0  0  0  0  0  0  0  0  0  0
   19.5467   18.8619   25.7494 H   0  0  0  0  0  0  0  0  0  0  0  0
   21.2140   19.3637   26.0365 H   0  0  0  0  0  0  0  0  0  0  0  0
   20.1185   20.6900   24.6984 C   0  0  0  0  0  0  0  0  0  0  0  0
   19.0823   21.0219   24.5461 H   0  0  0  0  0  0  0  0  0  0  0  0
   20.7022   21.5943   24.9195 H   0  0  0  0  0  0  0  0  0  0  0  0
   20.6610   20.0645   23.3898 C   0  0  0  0  0  0  0  0  0  0  0  0
   21.7023   19.7468   23.5384 H   0  0  0  0  0  0  0  0  0  0  0  0
   20.6841   20.8442   22.6159 H   0  0  0  0  0  0  0  0  0  0  0  0
   19.8182   18.8714   22.8780 C   0  0  0  0  0  0  0  0  0  0  0  0
   19.8470   18.0509   23.6069 H   0  0  0  0  0  0  0  0  0  0  0  0
   18.7672   19.1777   22.7827 H   0  0  0  0  0  0  0  0  0  0  0  0
   20.3280   18.3521   21.5155 C   0  0  0  0  0  0  0  0  0  0  0  0
   21.3781   18.0438   21.6069 H   0  0  0  0  0  0  0  0  0  0  0  0
   20.2928   19.1613   20.7738 H   0  0  0  0  0  0  0  0  0  0  0  0
   19.4875   17.1639   21.0156 C   0  0  0  0  0  0  0  0  0  0  0  0
   19.5328   16.3489   21.7430 H   0  0  0  0  0  0  0  0  0  0  0  0
   18.4437   17.4709   20.9075 H   0  0  0  0  0  0  0  0  0  0  0  0
   19.9571   16.6251   19.6797 N   0  3  0  0  0  0  0  0  0  0  0  0
   20.9263   16.2932   19.7208 H   0  0  0  0  0  0  0  0  0  0  0  0
   19.9129   17.3373   18.9434 H   0  0  0  0  0  0  0  0  0  0  0  0
   19.3840   15.8346   19.3650 H   0  0  0  0  0  0  0  0  0  0  0  0
  1  2  1  0  0  0  0
  1  3  1  0  0  0  0
  1  4  1  0  0  0  0
  1  5  1  0  0  0  0
  5  6  1  0  0  0  0
  5  7  1  0  0  0  0
  5  8  1  0  0  0  0
  8  9  1  0  0  0  0
  8 10  1  0  0  0  0
  8 11  1  0  0  0  0
 11 12  1  0  0  0  0
 11 13  1  0  0  0  0
 11 14  1  0  0  0  0
 14 15  1  0  0  0  0
 14 16  1  0  0  0  0
 14 17  1  0  0  0  0
 17 18  1  0  0  0  0
 17 19  1  0  0  0  0
 17 20  1  0  0  0  0
 20 21  1  0  0  0  0
 20 22  1  0  0  0  0
 20 23  1  0  0  0  0
 23 24  1  0  0  0  0
 23 25  1  0  0  0  0
 23 26  1  0  0  0  0
M  END
> <VConfSearch Rank>
44

> <Conf_Id>
37

> <Delta U+W>
0.565

> <U+W>
-4.988

> <U>
48.035

> <W>
-53.022

> <W(PB)>
-55.379

> <W(SA)>
2.357

> <Valence>
2.701

> <Coulomb>
44.622

> <VdW>
0.712

> <VdW6>
-6.418

> <VdW12>
7.129

> <Bond>
0.168

> <Angle>
0.659

> <Pdih>
1.875

> <Idih>
0.000

> <Tether>
0.000

$$$$
VeraChem MOL file


 26 25  0  0  0  0  0  0  0  0999 V2000     
   17.7681   16.4316   20.9298 C   0  0  0  0  0  0  0  0  0  0  0  0
   16.9569   17.0999   21.2468 H   0  0  0  0  0  0  0  0  0  0  0  0
   18.1834   16.8195   19.9905 H   0  0  0  0  0  0  0  0  0  0  0  0
   17.3314   15.4458   20.7235 H   0  0  0  0  0  0  0  0  0  0  0  0
   18.8585   16.3278   22.0172 C   0  0  0  0  0  0  0  0  0  0  0  0
   19.6373   15.6265   21.6861 H   0  0  0  0  0  0  0  0  0  0  0  0
   18.4211   15.9063   22.9332 H   0  0  0  0  0  0  0  0  0  0  0  0
   19.4910   17.7028   22.3266 C   0  0  0  0  0  0  0  0  0  0  0  0
   19.9285   18.1189   21.4086 H   0  0  0  0  0  0  0  0  0  0  0  0
   18.7018   18.3954   22.6470 H   0  0  0  0  0  0  0  0  0  0  0  0
   20.5817   17.6002   23.4199 C   0  0  0  0  0  0  0  0  0  0  0  0
   21.3214   16.8462   23.1170 H   0  0  0  0  0  0  0  0  0  0  0  0
   20.1356   17.2358   24.3556 H   0  0  0  0  0  0  0  0  0  0  0  0
   21.3223   18.9344   23.6835 C   0  0  0  0  0  0  0  0  0  0  0  0
   22.1486   18.7419   24.3820 H   0  0  0  0  0  0  0  0  0  0  0  0
   21.7833   19.2901   22.7515 H   0  0  0  0  0  0  0  0  0  0  0  0
   20.4154   20.0406   24.2720 C   0  0  0  0  0  0  0  0  0  0  0  0
   19.9155   19.6672   25.1756 H   0  0  0  0  0  0  0  0  0  0  0  0
   19.6301   20.3079   23.5538 H   0  0  0  0  0  0  0  0  0  0  0  0
   21.2253   21.3019   24.6203 C   0  0  0  0  0  0  0  0  0  0  0  0
   22.0000   21.0520   25.3503 H   0  0  0  0  0  0  0  0  0  0  0  0
   21.7121   21.6869   23.7202 H   0  0  0  0  0  0  0  0  0  0  0  0
   20.3745   22.4118   25.2032 N   0  3  0  0  0  0  0  0  0  0  0  0
   19.9091   22.1218   26.0694 H   0  0  0  0  0  0  0  0  0  0  0  0
   19.6415   22.7134   24.5528 H   0  0  0  0  0  0  0  0  0  0  0  0
   20.9337   23.2419   25.4284 H   0  0  0  0  0  0  0  0  0  0  0  0
  1  2  1  0  0  0  0
  1  3  1  0  0  0  0
  1  4  1  0  0  0  0
  1  5  1  0  0  0  0
  5  6  1  0  0  0  0
  5  7  1  0  0  0  0
  5  8  1  0  0  0  0
  8  9  1  0  0  0  0
  8 10  1  0  0  0  0
  8 11  1  0  0  0  0
 11 12  1  0  0  0  0
 11 13  1  0  0  0  0
 11 14  1  0  0  0  0
 14 15  1  0  0  0  0
 14 16  1  0  0  0  0
 14 17  1  0  0  0  0
 17 18  1  0  0  0  0
 17 19  1  0  0  0  0
 17 20  1  0  0  0  0
 20 21  1  0  0  0  0
 20 22  1  0  0  0  0
 20 23  1  0  0  0  0
 23 24  1  0  0  0  0
 23 25  1  0  0  0  0
 23 26  1  0  0  0  0
M  END
> <VConfSearch Rank>
45

> <Conf_Id>
35

> <Delta U+W>
0.587

> <U+W>
-4.965

> <U>
48.214

> <W>
-53.179

> <W(PB)>
-55.527

> <W(SA)>
2.348

> <Valence>
2.697

> <Coulomb>
44.819

> <VdW>
0.699

> <VdW6>
-6.437

> <VdW12>
7.136

> <Bond>
0.168

> <Angle>
0.657

> <Pdih>
1.872

> <Idih>
0.000

> <Tether>
0.000

$$$$
VeraChem MOL file


 26 25  0  0  0  0  0  0  0  0999 V2000     
   23.9929   18.8257   24.2560 C   0  0  0  0  0  0  0  0  0  0  0  0
   24.3438   19.0522   23.2407 H   0  0  0  0  0  0  0  0  0  0  0  0
   23.7471   19.7735   24.7523 H   0  0  0  0  0  0  0  0  0  0  0  0
   24.8240   18.3637   24.8045 H   0  0  0  0  0  0  0  0  0  0  0  0
   22.7710   17.8833   24.2231 C   0  0  0  0  0  0  0  0  0  0  0  0
   22.4638   17.6484   25.2519 H   0  0  0  0  0  0  0  0  0  0  0  0
   23.0574   16.9321   23.7528 H   0  0  0  0  0  0  0  0  0  0  0  0
   21.5858   18.5096   23.4554 C   0  0  0  0  0  0  0  0  0  0  0  0
   21.3162   19.4623   23.9294 H   0  0  0  0  0  0  0  0  0  0  0  0
   21.8971   18.7406   22.4273 H   0  0  0  0  0  0  0  0  0  0  0  0
   20.3586   17.5669   23.4254 C   0  0  0  0  0  0  0  0  0  0  0  0
   20.0114   17.3776   24.4506 H   0  0  0  0  0  0  0  0  0  0  0  0
   20.6659   16.5931   23.0195 H   0  0  0  0  0  0  0  0  0  0  0  0
   19.1845   18.1050   22.5711 C   0  0  0  0  0  0  0  0  0  0  0  0
   19.5272   18.2779   21.5414 H   0  0  0  0  0  0  0  0  0  0  0  0
   18.4114   17.3262   22.5118 H   0  0  0  0  0  0  0  0  0  0  0  0
   18.5508   19.3989   23.1340 C   0  0  0  0  0  0  0  0  0  0  0  0
   19.2845   20.2147   23.1244 H   0  0  0  0  0  0  0  0  0  0  0  0
   18.2544   19.2410   24.1795 H   0  0  0  0  0  0  0  0  0  0  0  0
   17.3206   19.8228   22.3125 C   0  0  0  0  0  0  0  0  0  0  0  0
   17.6138   19.9970   21.2737 H   0  0  0  0  0  0  0  0  0  0  0  0
   16.5734   19.0248   22.3299 H   0  0  0  0  0  0  0  0  0  0  0  0
   16.6664   21.0868   22.8321 N   0  3  0  0  0  0  0  0  0  0  0  0
   17.3099   21.8849   22.8157 H   0  0  0  0  0  0  0  0  0  0  0  0
   16.3424   20.9799   23.7989 H   0  0  0  0  0  0  0  0  0  0  0  0
   15.8491   21.3509   22.2710 H   0  0  0  0  0  0  0  0  0  0  0  0
  1  2  1  0  0  0  0
  1  3  1  0  0  0  0
  1  4  1  0  0  0  0
  1  5  1  0  0  0  0
  5  6  1  0  0  0  0
  5  7  1  0  0  0  0
  5  8  1  0  0  0  0
  8  9  1  0  0  0  0
  8 10  1  0  0  0  0
  8 11  1  0  0  0  0
 11 12  1  0  0  0  0
 11 13  1  0  0  0  0
 11 14  1  0  0  0  0
 14 15  1  0  0  0  0
 14 16  1  0  0  0  0
 14 17  1  0  0  0  0
 17 18  1  0  0  0  0
 17 19  1  0  0  0  0
 17 20  1  0  0  0  0
 20 21  1  0  0  0  0
 20 22  1  0  0  0  0
 20 23  1  0  0  0  0
 23 24  1  0  0  0  0
 23 25  1  0  0  0  0
 23 26  1  0  0  0  0
M  END
> <VConfSearch Rank>
46

> <Conf_Id>
36

> <Delta U+W>
0.565

> <U+W>
-4.987

> <U>
48.214

> <W>
-53.201

> <W(PB)>
-55.543

> <W(SA)>
2.342

> <Valence>
2.697

> <Coulomb>
44.819

> <VdW>
0.698

> <VdW6>
-6.437

> <VdW12>
7.136

> <Bond>
0.168

> <Angle>
0.657

> <Pdih>
1.872

> <Idih>
0.000

> <Tether>
0.000

$$$$
VeraChem MOL file


 26 25  0  0  0  0  0  0  0  0999 V2000     
   21.7640   22.3912   25.0329 C   0  0  0  0  0  0  0  0  0  0  0  0
   21.6225   22.2117   26.1067 H   0  0  0  0  0  0  0  0  0  0  0  0
   22.7365   22.8825   24.8987 H   0  0  0  0  0  0  0  0  0  0  0  0
   20.9852   23.0883   24.6972 H   0  0  0  0  0  0  0  0  0  0  0  0
   21.7064   21.0701   24.2371 C   0  0  0  0  0  0  0  0  0  0  0  0
   22.5173   20.4076   24.5713 H   0  0  0  0  0  0  0  0  0  0  0  0
   21.8850   21.2776   23.1727 H   0  0  0  0  0  0  0  0  0  0  0  0
   20.3466   20.3576   24.4089 C   0  0  0  0  0  0  0  0  0  0  0  0
   20.1717   20.1550   25.4746 H   0  0  0  0  0  0  0  0  0  0  0  0
   19.5392   21.0241   24.0755 H   0  0  0  0  0  0  0  0  0  0  0  0
   20.2851   19.0338   23.6137 C   0  0  0  0  0  0  0  0  0  0  0  0
   21.0913   18.3672   23.9499 H   0  0  0  0  0  0  0  0  0  0  0  0
   20.4669   19.2431   22.5511 H   0  0  0  0  0  0  0  0  0  0  0  0
   18.9213   18.3231   23.7867 C   0  0  0  0  0  0  0  0  0  0  0  0
   18.7301   18.1640   24.8570 H   0  0  0  0  0  0  0  0  0  0  0  0
   18.1149   18.9737   23.4206 H   0  0  0  0  0  0  0  0  0  0  0  0
   18.8515   16.9582   23.0624 C   0  0  0  0  0  0  0  0  0  0  0  0
   17.8942   16.4763   23.3018 H   0  0  0  0  0  0  0  0  0  0  0  0
   19.6407   16.2969   23.4445 H   0  0  0  0  0  0  0  0  0  0  0  0
   18.9805   17.0886   21.5331 C   0  0  0  0  0  0  0  0  0  0  0  0
   18.1943   17.7462   21.1524 H   0  0  0  0  0  0  0  0  0  0  0  0
   19.9491   17.5268   21.2792 H   0  0  0  0  0  0  0  0  0  0  0  0
   18.8686   15.7602   20.8134 N   0  3  0  0  0  0  0  0  0  0  0  0
   18.9569   15.8688   19.7971 H   0  0  0  0  0  0  0  0  0  0  0  0
   17.9659   15.3062   20.9874 H   0  0  0  0  0  0  0  0  0  0  0  0
   19.5985   15.1033   21.1079 H   0  0  0  0  0  0  0  0  0  0  0  0
  1  2  1  0  0  0  0
  1  3  1  0  0  0  0
  1  4  1  0  0  0  0
  1  5  1  0  0  0  0
  5  6  1  0  0  0  0
  5  7  1  0  0  0  0
  5  8  1  0  0  0  0
  8  9  1  0  0  0  0
  8 10  1  0  0  0  0
  8 11  1  0  0  0  0
 11 12  1  0  0  0  0
 11 13  1  0  0  0  0
 11 14  1  0  0  0  0
 14 15  1  0  0  0  0
 14 16  1  0  0  0  0
 14 17  1  0  0  0  0
 17 18  1  0  0  0  0
 17 19  1  0  0  0  0
 17 20  1  0  0  0  0
 20 21  1  0  0  0  0
 20 22  1  0  0  0  0
 20 23  1  0  0  0  0
 23 24  1  0  0  0  0
 23 25  1  0  0  0  0
 23 26  1  0  0  0  0
M  END
> <VConfSearch Rank>
47

> <Conf_Id>
44

> <Delta U+W>
0.371

> <U+W>
-5.181

> <U>
48.002

> <W>
-53.183

> <W(PB)>
-55.533

> <W(SA)>
2.350

> <Valence>
2.459

> <Coulomb>
44.901

> <VdW>
0.643

> <VdW6>
-6.362

> <VdW12>
7.005

> <Bond>
0.151

> <Angle>
0.519

> <Pdih>
1.789

> <Idih>
0.000

> <Tether>
0.000

$$$$
VeraChem MOL file


 26 25  0  0  0  0  0  0  0  0999 V2000     
   17.0728   19.6136   20.7643 C   0  0  0  0  0  0  0  0  0  0  0  0
   17.3145   18.7431   20.1407 H   0  0  0  0  0  0  0  0  0  0  0  0
   16.0892   19.9873   20.4517 H   0  0  0  0  0  0  0  0  0  0  0  0
   17.8058   20.4021   20.5540 H   0  0  0  0  0  0  0  0  0  0  0  0
   17.0559   19.2364   22.2631 C   0  0  0  0  0  0  0  0  0  0  0  0
   16.2225   18.5428   22.4422 H   0  0  0  0  0  0  0  0  0  0  0  0
   16.8468   20.1301   22.8676 H   0  0  0  0  0  0  0  0  0  0  0  0
   18.3666   18.5706   22.7483 C   0  0  0  0  0  0  0  0  0  0  0  0
   18.2064   18.2184   23.7751 H   0  0  0  0  0  0  0  0  0  0  0  0
   18.5700   17.6774   22.1419 H   0  0  0  0  0  0  0  0  0  0  0  0
   19.5915   19.5199   22.7097 C   0  0  0  0  0  0  0  0  0  0  0  0
   19.3900   20.4115   23.3193 H   0  0  0  0  0  0  0  0  0  0  0  0
   19.7432   19.8760   21.6827 H   0  0  0  0  0  0  0  0  0  0  0  0
   20.9080   18.8547   23.1823 C   0  0  0  0  0  0  0  0  0  0  0  0
   21.1018   17.9550   22.5819 H   0  0  0  0  0  0  0  0  0  0  0  0
   21.7333   19.5481   22.9734 H   0  0  0  0  0  0  0  0  0  0  0  0
   20.9148   18.4899   24.6883 C   0  0  0  0  0  0  0  0  0  0  0  0
   20.1232   17.7605   24.8990 H   0  0  0  0  0  0  0  0  0  0  0  0
   20.6925   19.3794   25.2925 H   0  0  0  0  0  0  0  0  0  0  0  0
   22.2541   17.8799   25.1455 C   0  0  0  0  0  0  0  0  0  0  0  0
   22.1667   17.5532   26.1853 H   0  0  0  0  0  0  0  0  0  0  0  0
   22.4890   17.0057   24.5323 H   0  0  0  0  0  0  0  0  0  0  0  0
   23.4242   18.8408   25.0641 N   0  3  0  0  0  0  0  0  0  0  0  0
   23.5881   19.1598   24.1043 H   0  0  0  0  0  0  0  0  0  0  0  0
   24.2955   18.4079   25.3893 H   0  0  0  0  0  0  0  0  0  0  0  0
   23.2720   19.6756   25.6394 H   0  0  0  0  0  0  0  0  0  0  0  0
  1  2  1  0  0  0  0
  1  3  1  0  0  0  0
  1  4  1  0  0  0  0
  1  5  1  0  0  0  0
  5  6  1  0  0  0  0
  5  7  1  0  0  0  0
  5  8  1  0  0  0  0
  8  9  1  0  0  0  0
  8 10  1  0  0  0  0
  8 11  1  0  0  0  0
 11 12  1  0  0  0  0
 11 13  1  0  0  0  0
 11 14  1  0  0  0  0
 14 15  1  0  0  0  0
 14 16  1  0  0  0  0
 14 17  1  0  0  0  0
 17 18  1  0  0  0  0
 17 19  1  0  0  0  0
 17 20  1  0  0  0  0
 20 21  1  0  0  0  0
 20 22  1  0  0  0  0
 20 23  1  0  0  0  0
 23 24  1  0  0  0  0
 23 25  1  0  0  0  0
 23 26  1  0  0  0  0
M  END
> <VConfSearch Rank>
48

> <Conf_Id>
112

> <Delta U+W>
1.422

> <U+W>
-4.130

> <U>
49.323

> <W>
-53.453

> <W(PB)>
-55.749

> <W(SA)>
2.296

> <Valence>
3.408

> <Coulomb>
44.893

> <VdW>
1.021

> <VdW6>
-7.481

> <VdW12>
8.503

> <Bond>
0.239

> <Angle>
1.013

> <Pdih>
2.156

> <Idih>
0.000

> <Tether>
0.000

$$$$
VeraChem MOL file


 26 25  0  0  0  0  0  0  0  0999 V2000     
   17.4986   20.0624   25.7677 C   0  0  0  0  0  0  0  0  0  0  0  0
   16.6422   20.4983   26.2981 H   0  0  0  0  0  0  0  0  0  0  0  0
   17.2782   19.0006   25.6017 H   0  0  0  0  0  0  0  0  0  0  0  0
   18.3735   20.1335   26.4269 H   0  0  0  0  0  0  0  0  0  0  0  0
   17.7450   20.8056   24.4352 C   0  0  0  0  0  0  0  0  0  0  0  0
   17.8448   21.8804   24.6416 H   0  0  0  0  0  0  0  0  0  0  0  0
   16.8662   20.6980   23.7841 H   0  0  0  0  0  0  0  0  0  0  0  0
   19.0121   20.3227   23.6889 C   0  0  0  0  0  0  0  0  0  0  0  0
   19.1672   20.9660   22.8119 H   0  0  0  0  0  0  0  0  0  0  0  0
   19.8857   20.4653   24.3382 H   0  0  0  0  0  0  0  0  0  0  0  0
   18.9259   18.8461   23.2263 C   0  0  0  0  0  0  0  0  0  0  0  0
   17.9797   18.6952   22.6886 H   0  0  0  0  0  0  0  0  0  0  0  0
   18.8966   18.1792   24.0981 H   0  0  0  0  0  0  0  0  0  0  0  0
   20.0903   18.4199   22.2986 C   0  0  0  0  0  0  0  0  0  0  0  0
   19.8796   17.4078   21.9288 H   0  0  0  0  0  0  0  0  0  0  0  0
   20.1146   19.0726   21.4150 H   0  0  0  0  0  0  0  0  0  0  0  0
   21.4732   18.4356   22.9971 C   0  0  0  0  0  0  0  0  0  0  0  0
   21.4489   17.8044   23.8952 H   0  0  0  0  0  0  0  0  0  0  0  0
   21.7079   19.4530   23.3339 H   0  0  0  0  0  0  0  0  0  0  0  0
   22.6121   17.9676   22.0705 C   0  0  0  0  0  0  0  0  0  0  0  0
   22.6273   18.5823   21.1664 H   0  0  0  0  0  0  0  0  0  0  0  0
   23.5699   18.0917   22.5831 H   0  0  0  0  0  0  0  0  0  0  0  0
   22.5020   16.5148   21.6507 N   0  3  0  0  0  0  0  0  0  0  0  0
   21.6391   16.3345   21.1283 H   0  0  0  0  0  0  0  0  0  0  0  0
   22.5049   15.8838   22.4587 H   0  0  0  0  0  0  0  0  0  0  0  0
   23.2823   16.2327   21.0476 H   0  0  0  0  0  0  0  0  0  0  0  0
  1  2  1  0  0  0  0
  1  3  1  0  0  0  0
  1  4  1  0  0  0  0
  1  5  1  0  0  0  0
  5  6  1  0  0  0  0
  5  7  1  0  0  0  0
  5  8  1  0  0  0  0
  8  9  1  0  0  0  0
  8 10  1  0  0  0  0
  8 11  1  0  0  0  0
 11 12  1  0  0  0  0
 11 13  1  0  0  0  0
 11 14  1  0  0  0  0
 14 15  1  0  0  0  0
 14 16  1  0  0  0  0
 14 17  1  0  0  0  0
 17 18  1  0  0  0  0
 17 19  1  0  0  0  0
 17 20  1  0  0  0  0
 20 21  1  0  0  0  0
 20 22  1  0  0  0  0
 20 23  1  0  0  0  0
 23 24  1  0  0  0  0
 23 25  1  0  0  0  0
 23 26  1  0  0  0  0
M  END
> <VConfSearch Rank>
49

> <Conf_Id>
130

> <Delta U+W>
1.282

> <U+W>
-4.270

> <U>
49.153

> <W>
-53.422

> <W(PB)>
-55.725

> <W(SA)>
2.303

> <Valence>
3.298

> <Coulomb>
44.907

> <VdW>
0.948

> <VdW6>
-7.574

> <VdW12>
8.522

> <Bond>
0.229

> <Angle>
0.912

> <Pdih>
2.157

> <Idih>
0.000

> <Tether>
0.000

$$$$
VeraChem MOL file


 26 25  0  0  0  0  0  0  0  0999 V2000     
   19.4077   18.4368   19.9555 C   0  0  0  0  0  0  0  0  0  0  0  0
   20.3247   18.7097   19.4173 H   0  0  0  0  0  0  0  0  0  0  0  0
   18.6324   18.2189   19.2097 H   0  0  0  0  0  0  0  0  0  0  0  0
   19.0749   19.3084   20.5328 H   0  0  0  0  0  0  0  0  0  0  0  0
   19.6425   17.2108   20.8665 C   0  0  0  0  0  0  0  0  0  0  0  0
   19.8554   16.3370   20.2350 H   0  0  0  0  0  0  0  0  0  0  0  0
   18.7188   16.9696   21.4091 H   0  0  0  0  0  0  0  0  0  0  0  0
   20.8166   17.3970   21.8613 C   0  0  0  0  0  0  0  0  0  0  0  0
   20.9313   16.4762   22.4496 H   0  0  0  0  0  0  0  0  0  0  0  0
   21.7492   17.5066   21.2907 H   0  0  0  0  0  0  0  0  0  0  0  0
   20.6844   18.6007   22.8302 C   0  0  0  0  0  0  0  0  0  0  0  0
   20.6740   19.5395   22.2609 H   0  0  0  0  0  0  0  0  0  0  0  0
   21.5891   18.6346   23.4511 H   0  0  0  0  0  0  0  0  0  0  0  0
   19.4336   18.5268   23.7423 C   0  0  0  0  0  0  0  0  0  0  0  0
   18.5270   18.5233   23.1233 H   0  0  0  0  0  0  0  0  0  0  0  0
   19.4356   17.5797   24.2992 H   0  0  0  0  0  0  0  0  0  0  0  0
   19.3358   19.7094   24.7347 C   0  0  0  0  0  0  0  0  0  0  0  0
   18.3783   19.6468   25.2688 H   0  0  0  0  0  0  0  0  0  0  0  0
   19.3248   20.6569   24.1798 H   0  0  0  0  0  0  0  0  0  0  0  0
   20.4830   19.7232   25.7624 C   0  0  0  0  0  0  0  0  0  0  0  0
   20.4943   18.7792   26.3137 H   0  0  0  0  0  0  0  0  0  0  0  0
   21.4409   19.8333   25.2477 H   0  0  0  0  0  0  0  0  0  0  0  0
   20.3644   20.8505   26.7677 N   0  3  0  0  0  0  0  0  0  0  0  0
   20.3744   21.7698   26.3139 H   0  0  0  0  0  0  0  0  0  0  0  0
   21.1369   20.8421   27.4426 H   0  0  0  0  0  0  0  0  0  0  0  0
   19.4953   20.7903   27.3084 H   0  0  0  0  0  0  0  0  0  0  0  0
  1  2  1  0  0  0  0
  1  3  1  0  0  0  0
  1  4  1  0  0  0  0
  1  5  1  0  0  0  0
  5  6  1  0  0  0  0
  5  7  1  0  0  0  0
  5  8  1  0  0  0  0
  8  9  1  0  0  0  0
  8 10  1  0  0  0  0
  8 11  1  0  0  0  0
 11 12  1  0  0  0  0
 11 13  1  0  0  0  0
 11 14  1  0  0  0  0
 14 15  1  0  0  0  0
 14 16  1  0  0  0  0
 14 17  1  0  0  0  0
 17 18  1  0  0  0  0
 17 19  1  0  0  0  0
 17 20  1  0  0  0  0
 20 21  1  0  0  0  0
 20 22  1  0  0  0  0
 20 23  1  0  0  0  0
 23 24  1  0  0  0  0
 23 25  1  0  0  0  0
 23 26  1  0  0  0  0
M  END
> <VConfSearch Rank>
50

> <Conf_Id>
111

> <Delta U+W>
1.290

> <U+W>
-4.262

> <U>
49.209

> <W>
-53.471

> <W(PB)>
-55.745

> <W(SA)>
2.274

> <Valence>
3.465

> <Coulomb>
44.958

> <VdW>
0.786

> <VdW6>
-7.903

> <VdW12>
8.689

> <Bond>
0.237

> <Angle>
1.212

> <Pdih>
2.015

> <Idih>
0.000

> <Tether>
0.000

$$$$
VeraChem MOL file


 26 25  0  0  0  0  0  0  0  0999 V2000     
   18.1275   16.9656   26.1728 C   0  0  0  0  0  0  0  0  0  0  0  0
   17.1399   17.1267   25.7212 H   0  0  0  0  0  0  0  0  0  0  0  0
   18.3076   15.8839   26.2246 H   0  0  0  0  0  0  0  0  0  0  0  0
   18.0954   17.3511   27.2001 H   0  0  0  0  0  0  0  0  0  0  0  0
   19.2313   17.6741   25.3591 C   0  0  0  0  0  0  0  0  0  0  0  0
   20.2020   17.5198   25.8508 H   0  0  0  0  0  0  0  0  0  0  0  0
   19.0392   18.7552   25.3649 H   0  0  0  0  0  0  0  0  0  0  0  0
   19.2930   17.1497   23.9050 C   0  0  0  0  0  0  0  0  0  0  0  0
   19.4054   16.0569   23.9245 H   0  0  0  0  0  0  0  0  0  0  0  0
   18.3397   17.3520   23.3975 H   0  0  0  0  0  0  0  0  0  0  0  0
   20.4583   17.7476   23.0788 C   0  0  0  0  0  0  0  0  0  0  0  0
   20.4944   17.2347   22.1077 H   0  0  0  0  0  0  0  0  0  0  0  0
   21.4124   17.5295   23.5783 H   0  0  0  0  0  0  0  0  0  0  0  0
   20.3295   19.2712   22.8391 C   0  0  0  0  0  0  0  0  0  0  0  0
   19.3483   19.4857   22.3953 H   0  0  0  0  0  0  0  0  0  0  0  0
   20.3726   19.8063   23.7968 H   0  0  0  0  0  0  0  0  0  0  0  0
   21.4516   19.8011   21.9153 C   0  0  0  0  0  0  0  0  0  0  0  0
   21.4012   19.3039   20.9374 H   0  0  0  0  0  0  0  0  0  0  0  0
   22.4286   19.5455   22.3468 H   0  0  0  0  0  0  0  0  0  0  0  0
   21.3897   21.3282   21.7190 C   0  0  0  0  0  0  0  0  0  0  0  0
   21.4345   21.8265   22.6912 H   0  0  0  0  0  0  0  0  0  0  0  0
   22.2512   21.6533   21.1293 H   0  0  0  0  0  0  0  0  0  0  0  0
   20.1389   21.8016   21.0048 N   0  3  0  0  0  0  0  0  0  0  0  0
   20.1346   22.8196   20.8790 H   0  0  0  0  0  0  0  0  0  0  0  0
   19.2900   21.5601   21.5254 H   0  0  0  0  0  0  0  0  0  0  0  0
   20.0520   21.3843   20.0724 H   0  0  0  0  0  0  0  0  0  0  0  0
  1  2  1  0  0  0  0
  1  3  1  0  0  0  0
  1  4  1  0  0  0  0
  1  5  1  0  0  0  0
  5  6  1  0  0  0  0
  5  7  1  0  0  0  0
  5  8  1  0  0  0  0
  8  9  1  0  0  0  0
  8 10  1  0  0  0  0
  8 11  1  0  0  0  0
 11 12  1  0  0  0  0
 11 13  1  0  0  0  0
 11 14  1  0  0  0  0
 14 15  1  0  0  0  0
 14 16  1  0  0  0  0
 14 17  1  0  0  0  0
 17 18  1  0  0  0  0
 17 19  1  0  0  0  0
 17 20  1  0  0  0  0
 20 21  1  0  0  0  0
 20 22  1  0  0  0  0
 20 23  1  0  0  0  0
 23 24  1  0  0  0  0
 23 25  1  0  0  0  0
 23 26  1  0  0  0  0
M  END
> <VConfSearch Rank>
51

> <Conf_Id>
105

> <Delta U+W>
0.736

> <U+W>
-4.817

> <U>
48.735

> <W>
-53.552

> <W(PB)>
-55.889

> <W(SA)>
2.337

> <Valence>
2.803

> <Coulomb>
45.123

> <VdW>
0.809

> <VdW6>
-6.953

> <VdW12>
7.761

> <Bond>
0.188

> <Angle>
0.699

> <Pdih>
1.917

> <Idih>
0.000

> <Tether>
0.000

$$$$
VeraChem MOL file


 26 25  0  0  0  0  0  0  0  0999 V2000     
   20.6242   15.3061   22.9934 C   0  0  0  0  0  0  0  0  0  0  0  0
   21.5211   14.8437   23.4257 H   0  0  0  0  0  0  0  0  0  0  0  0
   19.7940   15.1666   23.6981 H   0  0  0  0  0  0  0  0  0  0  0  0
   20.3777   14.7647   22.0708 H   0  0  0  0  0  0  0  0  0  0  0  0
   20.8573   16.8034   22.7008 C   0  0  0  0  0  0  0  0  0  0  0  0
   19.9548   17.2197   22.2338 H   0  0  0  0  0  0  0  0  0  0  0  0
   21.6724   16.9100   21.9714 H   0  0  0  0  0  0  0  0  0  0  0  0
   21.2023   17.5891   23.9878 C   0  0  0  0  0  0  0  0  0  0  0  0
   20.3708   17.5175   24.7012 H   0  0  0  0  0  0  0  0  0  0  0  0
   22.0605   17.1095   24.4785 H   0  0  0  0  0  0  0  0  0  0  0  0
   21.5575   19.0768   23.7319 C   0  0  0  0  0  0  0  0  0  0  0  0
   22.4694   19.1234   23.1206 H   0  0  0  0  0  0  0  0  0  0  0  0
   21.8155   19.5473   24.6907 H   0  0  0  0  0  0  0  0  0  0  0  0
   20.4531   19.9182   23.0408 C   0  0  0  0  0  0  0  0  0  0  0  0
   20.8384   20.9375   22.9071 H   0  0  0  0  0  0  0  0  0  0  0  0
   20.2645   19.5328   22.0300 H   0  0  0  0  0  0  0  0  0  0  0  0
   19.1251   19.9708   23.8369 C   0  0  0  0  0  0  0  0  0  0  0  0
   19.3107   20.3372   24.8553 H   0  0  0  0  0  0  0  0  0  0  0  0
   18.7124   18.9591   23.9364 H   0  0  0  0  0  0  0  0  0  0  0  0
   18.0598   20.8534   23.1582 C   0  0  0  0  0  0  0  0  0  0  0  0
   17.8870   20.5024   22.1372 H   0  0  0  0  0  0  0  0  0  0  0  0
   17.1191   20.7738   23.7097 H   0  0  0  0  0  0  0  0  0  0  0  0
   18.4313   22.3220   23.0952 N   0  3  0  0  0  0  0  0  0  0  0  0
   19.2896   22.4742   22.5567 H   0  0  0  0  0  0  0  0  0  0  0  0
   18.5853   22.7160   24.0291 H   0  0  0  0  0  0  0  0  0  0  0  0
   17.6953   22.8821   22.6515 H   0  0  0  0  0  0  0  0  0  0  0  0
  1  2  1  0  0  0  0
  1  3  1  0  0  0  0
  1  4  1  0  0  0  0
  1  5  1  0  0  0  0
  5  6  1  0  0  0  0
  5  7  1  0  0  0  0
  5  8  1  0  0  0  0
  8  9  1  0  0  0  0
  8 10  1  0  0  0  0
  8 11  1  0  0  0  0
 11 12  1  0  0  0  0
 11 13  1  0  0  0  0
 11 14  1  0  0  0  0
 14 15  1  0  0  0  0
 14 16  1  0  0  0  0
 14 17  1  0  0  0  0
 17 18  1  0  0  0  0
 17 19  1  0  0  0  0
 17 20  1  0  0  0  0
 20 21  1  0  0  0  0
 20 22  1  0  0  0  0
 20 23  1  0  0  0  0
 23 24  1  0  0  0  0
 23 25  1  0  0  0  0
 23 26  1  0  0  0  0
M  END
> <VConfSearch Rank>
52

> <Conf_Id>
144

> <Delta U+W>
1.073

> <U+W>
-4.479

> <U>
49.231

> <W>
-53.710

> <W(PB)>
-55.983

> <W(SA)>
2.273

> <Valence>
3.276

> <Coulomb>
45.175

> <VdW>
0.779

> <VdW6>
-7.944

> <VdW12>
8.723

> <Bond>
0.239

> <Angle>
1.155

> <Pdih>
1.883

> <Idih>
0.000

> <Tether>
0.000

$$$$
VeraChem MOL file


 26 25  0  0  0  0  0  0  0  0999 V2000     
   22.3669   17.9992   25.9061 C   0  0  0  0  0  0  0  0  0  0  0  0
   22.7847   17.2489   25.2240 H   0  0  0  0  0  0  0  0  0  0  0  0
   23.1570   18.2725   26.6175 H   0  0  0  0  0  0  0  0  0  0  0  0
   21.5516   17.5325   26.4739 H   0  0  0  0  0  0  0  0  0  0  0  0
   21.8698   19.2495   25.1451 C   0  0  0  0  0  0  0  0  0  0  0  0
   22.6936   19.6788   24.5580 H   0  0  0  0  0  0  0  0  0  0  0  0
   21.5840   20.0161   25.8790 H   0  0  0  0  0  0  0  0  0  0  0  0
   20.6573   18.9719   24.2235 C   0  0  0  0  0  0  0  0  0  0  0  0
   19.8443   18.5236   24.8109 H   0  0  0  0  0  0  0  0  0  0  0  0
   20.2894   19.9385   23.8573 H   0  0  0  0  0  0  0  0  0  0  0  0
   20.9960   18.0669   23.0129 C   0  0  0  0  0  0  0  0  0  0  0  0
   21.4603   17.1382   23.3678 H   0  0  0  0  0  0  0  0  0  0  0  0
   21.7490   18.5646   22.3865 H   0  0  0  0  0  0  0  0  0  0  0  0
   19.7750   17.6774   22.1393 C   0  0  0  0  0  0  0  0  0  0  0  0
   20.1364   17.0092   21.3453 H   0  0  0  0  0  0  0  0  0  0  0  0
   19.0648   17.0808   22.7285 H   0  0  0  0  0  0  0  0  0  0  0  0
   19.0417   18.8674   21.4705 C   0  0  0  0  0  0  0  0  0  0  0  0
   18.5845   18.5157   20.5360 H   0  0  0  0  0  0  0  0  0  0  0  0
   19.7631   19.6459   21.1888 H   0  0  0  0  0  0  0  0  0  0  0  0
   17.9268   19.4617   22.3533 C   0  0  0  0  0  0  0  0  0  0  0  0
   17.1889   18.6877   22.5806 H   0  0  0  0  0  0  0  0  0  0  0  0
   18.3414   19.8234   23.2960 H   0  0  0  0  0  0  0  0  0  0  0  0
   17.2019   20.6165   21.6929 N   0  3  0  0  0  0  0  0  0  0  0  0
   16.7576   20.3351   20.8128 H   0  0  0  0  0  0  0  0  0  0  0  0
   17.8362   21.3922   21.4759 H   0  0  0  0  0  0  0  0  0  0  0  0
   16.4612   20.9950   22.2932 H   0  0  0  0  0  0  0  0  0  0  0  0
  1  2  1  0  0  0  0
  1  3  1  0  0  0  0
  1  4  1  0  0  0  0
  1  5  1  0  0  0  0
  5  6  1  0  0  0  0
  5  7  1  0  0  0  0
  5  8  1  0  0  0  0
  8  9  1  0  0  0  0
  8 10  1  0  0  0  0
  8 11  1  0  0  0  0
 11 12  1  0  0  0  0
 11 13  1  0  0  0  0
 11 14  1  0  0  0  0
 14 15  1  0  0  0  0
 14 16  1  0  0  0  0
 14 17  1  0  0  0  0
 17 18  1  0  0  0  0
 17 19  1  0  0  0  0
 17 20  1  0  0  0  0
 20 21  1  0  0  0  0
 20 22  1  0  0  0  0
 20 23  1  0  0  0  0
 23 24  1  0  0  0  0
 23 25  1  0  0  0  0
 23 26  1  0  0  0  0
M  END
> <VConfSearch Rank>
53

> <Conf_Id>
93

> <Delta U+W>
3.253

> <U+W>
-2.300

> <U>
51.609

> <W>
-53.909

> <W(PB)>
-56.178

> <W(SA)>
2.270

> <Valence>
5.204

> <Coulomb>
45.645

> <VdW>
0.760

> <VdW6>
-7.997

> <VdW12>
8.758

> <Bond>
0.240

> <Angle>
1.456

> <Pdih>
3.507

> <Idih>
0.000

> <Tether>
0.000

$$$$
VeraChem MOL file


 26 25  0  0  0  0  0  0  0  0999 V2000     
   18.9823   15.4652   23.6326 C   0  0  0  0  0  0  0  0  0  0  0  0
   19.7474   15.1893   22.8968 H   0  0  0  0  0  0  0  0  0  0  0  0
   19.4387   15.4386   24.6305 H   0  0  0  0  0  0  0  0  0  0  0  0
   18.2022   14.6936   23.6003 H   0  0  0  0  0  0  0  0  0  0  0  0
   18.3780   16.8564   23.3344 C   0  0  0  0  0  0  0  0  0  0  0  0
   17.5339   17.0257   24.0175 H   0  0  0  0  0  0  0  0  0  0  0  0
   17.9583   16.8691   22.3188 H   0  0  0  0  0  0  0  0  0  0  0  0
   19.3877   18.0183   23.4997 C   0  0  0  0  0  0  0  0  0  0  0  0
   18.8285   18.9589   23.4209 H   0  0  0  0  0  0  0  0  0  0  0  0
   19.8200   17.9885   24.5093 H   0  0  0  0  0  0  0  0  0  0  0  0
   20.5178   18.0101   22.4404 C   0  0  0  0  0  0  0  0  0  0  0  0
   20.0789   18.1263   21.4399 H   0  0  0  0  0  0  0  0  0  0  0  0
   21.0158   17.0324   22.4431 H   0  0  0  0  0  0  0  0  0  0  0  0
   21.6076   19.0928   22.6538 C   0  0  0  0  0  0  0  0  0  0  0  0
   22.1310   18.9188   23.6042 H   0  0  0  0  0  0  0  0  0  0  0  0
   22.3651   18.9585   21.8691 H   0  0  0  0  0  0  0  0  0  0  0  0
   21.0999   20.5553   22.5877 C   0  0  0  0  0  0  0  0  0  0  0  0
   20.2974   20.6437   21.8433 H   0  0  0  0  0  0  0  0  0  0  0  0
   21.9205   21.1948   22.2360 H   0  0  0  0  0  0  0  0  0  0  0  0
   20.6279   21.0922   23.9532 C   0  0  0  0  0  0  0  0  0  0  0  0
   19.8100   20.4810   24.3391 H   0  0  0  0  0  0  0  0  0  0  0  0
   21.4534   21.0473   24.6687 H   0  0  0  0  0  0  0  0  0  0  0  0
   20.1443   22.5265   23.8897 N   0  3  0  0  0  0  0  0  0  0  0  0
   20.8793   23.1632   23.5646 H   0  0  0  0  0  0  0  0  0  0  0  0
   19.8395   22.8670   24.8080 H   0  0  0  0  0  0  0  0  0  0  0  0
   19.3487   22.6338   23.2520 H   0  0  0  0  0  0  0  0  0  0  0  0
  1  2  1  0  0  0  0
  1  3  1  0  0  0  0
  1  4  1  0  0  0  0
  1  5  1  0  0  0  0
  5  6  1  0  0  0  0
  5  7  1  0  0  0  0
  5  8  1  0  0  0  0
  8  9  1  0  0  0  0
  8 10  1  0  0  0  0
  8 11  1  0  0  0  0
 11 12  1  0  0  0  0
 11 13  1  0  0  0  0
 11 14  1  0  0  0  0
 14 15  1  0  0  0  0
 14 16  1  0  0  0  0
 14 17  1  0  0  0  0
 17 18  1  0  0  0  0
 17 19  1  0  0  0  0
 17 20  1  0  0  0  0
 20 21  1  0  0  0  0
 20 22  1  0  0  0  0
 20 23  1  0  0  0  0
 23 24  1  0  0  0  0
 23 25  1  0  0  0  0
 23 26  1  0  0  0  0
M  END
> <VConfSearch Rank>
54

> <Conf_Id>
94

> <Delta U+W>
3.247

> <U+W>
-2.305

> <U>
51.609

> <W>
-53.914

> <W(PB)>
-56.221

> <W(SA)>
2.307

> <Valence>
5.204

> <Coulomb>
45.645

> <VdW>
0.760

> <VdW6>
-7.997

> <VdW12>
8.757

> <Bond>
0.240

> <Angle>
1.456

> <Pdih>
3.508

> <Idih>
0.000

> <Tether>
0.000

$$$$
VeraChem MOL file


 26 25  0  0  0  0  0  0  0  0999 V2000     
   16.0043   19.3071   22.9126 C   0  0  0  0  0  0  0  0  0  0  0  0
   15.7537   20.0898   23.6406 H   0  0  0  0  0  0  0  0  0  0  0  0
   16.0874   19.7747   21.9228 H   0  0  0  0  0  0  0  0  0  0  0  0
   15.1681   18.5966   22.8806 H   0  0  0  0  0  0  0  0  0  0  0  0
   17.3149   18.5893   23.2989 C   0  0  0  0  0  0  0  0  0  0  0  0
   17.5209   17.7909   22.5723 H   0  0  0  0  0  0  0  0  0  0  0  0
   17.1899   18.1036   24.2768 H   0  0  0  0  0  0  0  0  0  0  0  0
   18.5090   19.5679   23.3514 C   0  0  0  0  0  0  0  0  0  0  0  0
   18.6287   20.0524   22.3725 H   0  0  0  0  0  0  0  0  0  0  0  0
   18.2969   20.3654   24.0769 H   0  0  0  0  0  0  0  0  0  0  0  0
   19.8232   18.8528   23.7384 C   0  0  0  0  0  0  0  0  0  0  0  0
   20.0246   18.0526   23.0137 H   0  0  0  0  0  0  0  0  0  0  0  0
   19.7032   18.3718   24.7190 H   0  0  0  0  0  0  0  0  0  0  0  0
   21.0180   19.8350   23.7882 C   0  0  0  0  0  0  0  0  0  0  0  0
   21.1578   20.3004   22.8033 H   0  0  0  0  0  0  0  0  0  0  0  0
   20.7819   20.6541   24.4815 H   0  0  0  0  0  0  0  0  0  0  0  0
   22.3381   19.1665   24.2475 C   0  0  0  0  0  0  0  0  0  0  0  0
   22.2127   18.7818   25.2684 H   0  0  0  0  0  0  0  0  0  0  0  0
   23.1296   19.9258   24.3019 H   0  0  0  0  0  0  0  0  0  0  0  0
   22.8077   18.0126   23.3385 C   0  0  0  0  0  0  0  0  0  0  0  0
   23.7261   17.5808   23.7456 H   0  0  0  0  0  0  0  0  0  0  0  0
   22.0469   17.2283   23.3131 H   0  0  0  0  0  0  0  0  0  0  0  0
   23.0913   18.4390   21.9118 N   0  3  0  0  0  0  0  0  0  0  0  0
   23.8216   19.1571   21.8676 H   0  0  0  0  0  0  0  0  0  0  0  0
   22.2568   18.8267   21.4609 H   0  0  0  0  0  0  0  0  0  0  0  0
   23.4085   17.6526   21.3347 H   0  0  0  0  0  0  0  0  0  0  0  0
  1  2  1  0  0  0  0
  1  3  1  0  0  0  0
  1  4  1  0  0  0  0
  1  5  1  0  0  0  0
  5  6  1  0  0  0  0
  5  7  1  0  0  0  0
  5  8  1  0  0  0  0
  8  9  1  0  0  0  0
  8 10  1  0  0  0  0
  8 11  1  0  0  0  0
 11 12  1  0  0  0  0
 11 13  1  0  0  0  0
 11 14  1  0  0  0  0
 14 15  1  0  0  0  0
 14 16  1  0  0  0  0
 14 17  1  0  0  0  0
 17 18  1  0  0  0  0
 17 19  1  0  0  0  0
 17 20  1  0  0  0  0
 20 21  1  0  0  0  0
 20 22  1  0  0  0  0
 20 23  1  0  0  0  0
 23 24  1  0  0  0  0
 23 25  1  0  0  0  0
 23 26  1  0  0  0  0
M  END
> <VConfSearch Rank>
55

> <Conf_Id>
83

> <Delta U+W>
0.559

> <U+W>
-4.994

> <U>
48.668

> <W>
-53.661

> <W(PB)>
-55.972

> <W(SA)>
2.311

> <Valence>
2.543

> <Coulomb>
45.478

> <VdW>
0.646

> <VdW6>
-7.096

> <VdW12>
7.742

> <Bond>
0.176

> <Angle>
0.630

> <Pdih>
1.738

> <Idih>
0.000

> <Tether>
0.000

$$$$
VeraChem MOL file


 26 25  0  0  0  0  0  0  0  0999 V2000     
   16.5194   17.4439   23.9461 C   0  0  0  0  0  0  0  0  0  0  0  0
   15.6426   18.0065   23.5998 H   0  0  0  0  0  0  0  0  0  0  0  0
   16.6367   16.5629   23.3017 H   0  0  0  0  0  0  0  0  0  0  0  0
   16.3121   17.0912   24.9648 H   0  0  0  0  0  0  0  0  0  0  0  0
   17.7884   18.3221   23.9211 C   0  0  0  0  0  0  0  0  0  0  0  0
   18.6323   17.7385   24.3120 H   0  0  0  0  0  0  0  0  0  0  0  0
   17.6521   19.1782   24.5965 H   0  0  0  0  0  0  0  0  0  0  0  0
   18.1034   18.8278   22.4933 C   0  0  0  0  0  0  0  0  0  0  0  0
   18.2930   17.9722   21.8306 H   0  0  0  0  0  0  0  0  0  0  0  0
   17.2164   19.3373   22.0920 H   0  0  0  0  0  0  0  0  0  0  0  0
   19.3008   19.8078   22.4318 C   0  0  0  0  0  0  0  0  0  0  0  0
   19.1040   20.6701   23.0837 H   0  0  0  0  0  0  0  0  0  0  0  0
   19.3722   20.2042   21.4095 H   0  0  0  0  0  0  0  0  0  0  0  0
   20.6524   19.1593   22.8168 C   0  0  0  0  0  0  0  0  0  0  0  0
   20.6172   18.8236   23.8606 H   0  0  0  0  0  0  0  0  0  0  0  0
   20.8207   18.2670   22.1979 H   0  0  0  0  0  0  0  0  0  0  0  0
   21.8319   20.1434   22.6320 C   0  0  0  0  0  0  0  0  0  0  0  0
   21.6874   21.0275   23.2672 H   0  0  0  0  0  0  0  0  0  0  0  0
   21.8473   20.5025   21.5943 H   0  0  0  0  0  0  0  0  0  0  0  0
   23.1976   19.5022   22.9451 C   0  0  0  0  0  0  0  0  0  0  0  0
   23.3408   18.6169   22.3197 H   0  0  0  0  0  0  0  0  0  0  0  0
   23.9940   20.2150   22.7142 H   0  0  0  0  0  0  0  0  0  0  0  0
   23.3595   19.0862   24.3941 N   0  3  0  0  0  0  0  0  0  0  0  0
   22.6636   18.3859   24.6683 H   0  0  0  0  0  0  0  0  0  0  0  0
   23.2574   19.8820   25.0323 H   0  0  0  0  0  0  0  0  0  0  0  0
   24.2833   18.6768   24.5714 H   0  0  0  0  0  0  0  0  0  0  0  0
  1  2  1  0  0  0  0
  1  3  1  0  0  0  0
  1  4  1  0  0  0  0
  1  5  1  0  0  0  0
  5  6  1  0  0  0  0
  5  7  1  0  0  0  0
  5  8  1  0  0  0  0
  8  9  1  0  0  0  0
  8 10  1  0  0  0  0
  8 11  1  0  0  0  0
 11 12  1  0  0  0  0
 11 13  1  0  0  0  0
 11 14  1  0  0  0  0
 14 15  1  0  0  0  0
 14 16  1  0  0  0  0
 14 17  1  0  0  0  0
 17 18  1  0  0  0  0
 17 19  1  0  0  0  0
 17 20  1  0  0  0  0
 20 21  1  0  0  0  0
 20 22  1  0  0  0  0
 20 23  1  0  0  0  0
 23 24  1  0  0  0  0
 23 25  1  0  0  0  0
 23 26  1  0  0  0  0
M  END
> <VConfSearch Rank>
56

> <Conf_Id>
18

> <Delta U+W>
0.759

> <U+W>
-4.793

> <U>
48.945

> <W>
-53.738

> <W(PB)>
-56.051

> <W(SA)>
2.313

> <Valence>
2.802

> <Coulomb>
45.335

> <VdW>
0.807

> <VdW6>
-6.962

> <VdW12>
7.769

> <Bond>
0.189

> <Angle>
0.696

> <Pdih>
1.917

> <Idih>
0.000

> <Tether>
0.000

$$$$
VeraChem MOL file


 26 25  0  0  0  0  0  0  0  0999 V2000     
   18.9693   15.6550   25.3058 C   0  0  0  0  0  0  0  0  0  0  0  0
   18.4145   15.1567   24.5002 H   0  0  0  0  0  0  0  0  0  0  0  0
   19.7801   14.9877   25.6262 H   0  0  0  0  0  0  0  0  0  0  0  0
   18.2859   15.7861   26.1548 H   0  0  0  0  0  0  0  0  0  0  0  0
   19.5236   17.0171   24.8369 C   0  0  0  0  0  0  0  0  0  0  0  0
   20.0475   17.5037   25.6714 H   0  0  0  0  0  0  0  0  0  0  0  0
   18.6826   17.6685   24.5649 H   0  0  0  0  0  0  0  0  0  0  0  0
   20.4869   16.8578   23.6369 C   0  0  0  0  0  0  0  0  0  0  0  0
   21.2739   16.1392   23.9046 H   0  0  0  0  0  0  0  0  0  0  0  0
   19.9482   16.4209   22.7848 H   0  0  0  0  0  0  0  0  0  0  0  0
   21.1606   18.1823   23.2014 C   0  0  0  0  0  0  0  0  0  0  0  0
   21.9106   17.9531   22.4318 H   0  0  0  0  0  0  0  0  0  0  0  0
   21.7112   18.6111   24.0502 H   0  0  0  0  0  0  0  0  0  0  0  0
   20.1666   19.2281   22.6413 C   0  0  0  0  0  0  0  0  0  0  0  0
   19.5815   18.7786   21.8270 H   0  0  0  0  0  0  0  0  0  0  0  0
   19.4556   19.5186   23.4245 H   0  0  0  0  0  0  0  0  0  0  0  0
   20.8967   20.4869   22.1160 C   0  0  0  0  0  0  0  0  0  0  0  0
   21.6300   20.1912   21.3540 H   0  0  0  0  0  0  0  0  0  0  0  0
   21.4633   20.9601   22.9291 H   0  0  0  0  0  0  0  0  0  0  0  0
   19.9351   21.5166   21.4919 C   0  0  0  0  0  0  0  0  0  0  0  0
   20.5137   22.3394   21.0630 H   0  0  0  0  0  0  0  0  0  0  0  0
   19.3637   21.0462   20.6872 H   0  0  0  0  0  0  0  0  0  0  0  0
   18.9525   22.1128   22.4807 N   0  3  0  0  0  0  0  0  0  0  0  0
   19.4306   22.5899   23.2519 H   0  0  0  0  0  0  0  0  0  0  0  0
   18.3485   21.3963   22.8949 H   0  0  0  0  0  0  0  0  0  0  0  0
   18.3376   22.8036   22.0366 H   0  0  0  0  0  0  0  0  0  0  0  0
  1  2  1  0  0  0  0
  1  3  1  0  0  0  0
  1  4  1  0  0  0  0
  1  5  1  0  0  0  0
  5  6  1  0  0  0  0
  5  7  1  0  0  0  0
  5  8  1  0  0  0  0
  8  9  1  0  0  0  0
  8 10  1  0  0  0  0
  8 11  1  0  0  0  0
 11 12  1  0  0  0  0
 11 13  1  0  0  0  0
 11 14  1  0  0  0  0
 14 15  1  0  0  0  0
 14 16  1  0  0  0  0
 14 17  1  0  0  0  0
 17 18  1  0  0  0  0
 17 19  1  0  0  0  0
 17 20  1  0  0  0  0
 20 21  1  0  0  0  0
 20 22  1  0  0  0  0
 20 23  1  0  0  0  0
 23 24  1  0  0  0  0
 23 25  1  0  0  0  0
 23 26  1  0  0  0  0
M  END
> <VConfSearch Rank>
57

> <Conf_Id>
17

> <Delta U+W>
0.843

> <U+W>
-4.709

> <U>
48.945

> <W>
-53.653

> <W(PB)>
-55.991

> <W(SA)>
2.338

> <Valence>
2.802

> <Coulomb>
45.335

> <VdW>
0.807

> <VdW6>
-6.962

> <VdW12>
7.769

> <Bond>
0.189

> <Angle>
0.696

> <Pdih>
1.917

> <Idih>
0.000

> <Tether>
0.000

$$$$
VeraChem MOL file


 26 25  0  0  0  0  0  0  0  0999 V2000     
   18.8409   19.1973   26.5822 C   0  0  0  0  0  0  0  0  0  0  0  0
   18.4915   18.3891   25.9277 H   0  0  0  0  0  0  0  0  0  0  0  0
   19.8113   18.9044   27.0036 H   0  0  0  0  0  0  0  0  0  0  0  0
   18.1267   19.2817   27.4114 H   0  0  0  0  0  0  0  0  0  0  0  0
   18.9472   20.5386   25.8216 C   0  0  0  0  0  0  0  0  0  0  0  0
   19.1784   21.3361   26.5415 H   0  0  0  0  0  0  0  0  0  0  0  0
   17.9721   20.7933   25.3834 H   0  0  0  0  0  0  0  0  0  0  0  0
   20.0326   20.5365   24.7180 C   0  0  0  0  0  0  0  0  0  0  0  0
   20.1160   21.5533   24.3100 H   0  0  0  0  0  0  0  0  0  0  0  0
   21.0088   20.3015   25.1642 H   0  0  0  0  0  0  0  0  0  0  0  0
   19.7358   19.5505   23.5627 C   0  0  0  0  0  0  0  0  0  0  0  0
   18.7381   19.7578   23.1519 H   0  0  0  0  0  0  0  0  0  0  0  0
   19.7152   18.5248   23.9516 H   0  0  0  0  0  0  0  0  0  0  0  0
   20.7908   19.6562   22.4352 C   0  0  0  0  0  0  0  0  0  0  0  0
   20.8369   20.6948   22.0793 H   0  0  0  0  0  0  0  0  0  0  0  0
   21.7865   19.4208   22.8362 H   0  0  0  0  0  0  0  0  0  0  0  0
   20.4880   18.7333   21.2314 C   0  0  0  0  0  0  0  0  0  0  0  0
   21.2234   18.9281   20.4395 H   0  0  0  0  0  0  0  0  0  0  0  0
   19.5032   18.9823   20.8140 H   0  0  0  0  0  0  0  0  0  0  0  0
   20.5310   17.2387   21.6011 C   0  0  0  0  0  0  0  0  0  0  0  0
   21.5116   16.9905   22.0161 H   0  0  0  0  0  0  0  0  0  0  0  0
   19.7720   17.0221   22.3571 H   0  0  0  0  0  0  0  0  0  0  0  0
   20.2801   16.3278   20.4168 N   0  3  0  0  0  0  0  0  0  0  0  0
   20.3131   15.3378   20.6837 H   0  0  0  0  0  0  0  0  0  0  0  0
   20.9782   16.4608   19.6778 H   0  0  0  0  0  0  0  0  0  0  0  0
   19.3599   16.4929   19.9958 H   0  0  0  0  0  0  0  0  0  0  0  0
  1  2  1  0  0  0  0
  1  3  1  0  0  0  0
  1  4  1  0  0  0  0
  1  5  1  0  0  0  0
  5  6  1  0  0  0  0
  5  7  1  0  0  0  0
  5  8  1  0  0  0  0
  8  9  1  0  0  0  0
  8 10  1  0  0  0  0
  8 11  1  0  0  0  0
 11 12  1  0  0  0  0
 11 13  1  0  0  0  0
 11 14  1  0  0  0  0
 14 15  1  0  0  0  0
 14 16  1  0  0  0  0
 14 17  1  0  0  0  0
 17 18  1  0  0  0  0
 17 19  1  0  0  0  0
 17 20  1  0  0  0  0
 20 21  1  0  0  0  0
 20 22  1  0  0  0  0
 20 23  1  0  0  0  0
 23 24  1  0  0  0  0
 23 25  1  0  0  0  0
 23 26  1  0  0  0  0
M  END
> <VConfSearch Rank>
58

> <Conf_Id>
96

> <Delta U+W>
0.912

> <U+W>
-4.640

> <U>
48.723

> <W>
-53.364

> <W(PB)>
-55.683

> <W(SA)>
2.320

> <Valence>
2.962

> <Coulomb>
44.993

> <VdW>
0.768

> <VdW6>
-7.008

> <VdW12>
7.776

> <Bond>
0.188

> <Angle>
0.757

> <Pdih>
2.018

> <Idih>
0.000

> <Tether>
0.000

$$$$
VeraChem MOL file


 26 25  0  0  0  0  0  0  0  0999 V2000     
   22.5070   16.5850   23.8892 C   0  0  0  0  0  0  0  0  0  0  0  0
   22.9546   15.6717   24.3021 H   0  0  0  0  0  0  0  0  0  0  0  0
   23.3232   17.2295   23.5379 H   0  0  0  0  0  0  0  0  0  0  0  0
   21.9912   17.0988   24.7098 H   0  0  0  0  0  0  0  0  0  0  0  0
   21.5370   16.2384   22.7369 C   0  0  0  0  0  0  0  0  0  0  0  0
   20.7135   15.6199   23.1203 H   0  0  0  0  0  0  0  0  0  0  0  0
   22.0690   15.6197   22.0007 H   0  0  0  0  0  0  0  0  0  0  0  0
   20.9652   17.4840   22.0176 C   0  0  0  0  0  0  0  0  0  0  0  0
   21.7913   18.0886   21.6185 H   0  0  0  0  0  0  0  0  0  0  0  0
   20.3814   17.1473   21.1497 H   0  0  0  0  0  0  0  0  0  0  0  0
   20.0666   18.3607   22.9225 C   0  0  0  0  0  0  0  0  0  0  0  0
   20.6594   18.7542   23.7576 H   0  0  0  0  0  0  0  0  0  0  0  0
   19.2707   17.7412   23.3582 H   0  0  0  0  0  0  0  0  0  0  0  0
   19.4353   19.5349   22.1363 C   0  0  0  0  0  0  0  0  0  0  0  0
   20.2286   20.1735   21.7235 H   0  0  0  0  0  0  0  0  0  0  0  0
   18.8784   19.1367   21.2768 H   0  0  0  0  0  0  0  0  0  0  0  0
   18.4755   20.3934   22.9933 C   0  0  0  0  0  0  0  0  0  0  0  0
   17.6683   19.7620   23.3879 H   0  0  0  0  0  0  0  0  0  0  0  0
   18.0002   21.1459   22.3500 H   0  0  0  0  0  0  0  0  0  0  0  0
   19.1913   21.1060   24.1562 C   0  0  0  0  0  0  0  0  0  0  0  0
   19.6312   20.3659   24.8296 H   0  0  0  0  0  0  0  0  0  0  0  0
   19.9947   21.7351   23.7634 H   0  0  0  0  0  0  0  0  0  0  0  0
   18.2657   21.9846   24.9726 N   0  3  0  0  0  0  0  0  0  0  0  0
   17.5006   21.4469   25.3930 H   0  0  0  0  0  0  0  0  0  0  0  0
   17.8386   22.7226   24.4032 H   0  0  0  0  0  0  0  0  0  0  0  0
   18.7613   22.4497   25.7410 H   0  0  0  0  0  0  0  0  0  0  0  0
  1  2  1  0  0  0  0
  1  3  1  0  0  0  0
  1  4  1  0  0  0  0
  1  5  1  0  0  0  0
  5  6  1  0  0  0  0
  5  7  1  0  0  0  0
  5  8  1  0  0  0  0
  8  9  1  0  0  0  0
  8 10  1  0  0  0  0
  8 11  1  0  0  0  0
 11 12  1  0  0  0  0
 11 13  1  0  0  0  0
 11 14  1  0  0  0  0
 14 15  1  0  0  0  0
 14 16  1  0  0  0  0
 14 17  1  0  0  0  0
 17 18  1  0  0  0  0
 17 19  1  0  0  0  0
 17 20  1  0  0  0  0
 20 21  1  0  0  0  0
 20 22  1  0  0  0  0
 20 23  1  0  0  0  0
 23 24  1  0  0  0  0
 23 25  1  0  0  0  0
 23 26  1  0  0  0  0
M  END
> <VConfSearch Rank>
59

> <Conf_Id>
133

> <Delta U+W>
0.844

> <U+W>
-4.708

> <U>
48.723

> <W>
-53.431

> <W(PB)>
-55.776

> <W(SA)>
2.344

> <Valence>
2.962

> <Coulomb>
44.993

> <VdW>
0.768

> <VdW6>
-7.008

> <VdW12>
7.776

> <Bond>
0.188

> <Angle>
0.756

> <Pdih>
2.018

> <Idih>
0.000

> <Tether>
0.000

$$$$
VeraChem MOL file


 26 25  0  0  0  0  0  0  0  0999 V2000     
   19.9917   22.2180   22.7471 C   0  0  0  0  0  0  0  0  0  0  0  0
   19.9749   22.5521   21.7016 H   0  0  0  0  0  0  0  0  0  0  0  0
   19.1194   21.5747   22.9171 H   0  0  0  0  0  0  0  0  0  0  0  0
   19.8782   23.1040   23.3850 H   0  0  0  0  0  0  0  0  0  0  0  0
   21.3104   21.4813   23.0734 C   0  0  0  0  0  0  0  0  0  0  0  0
   21.2958   21.1396   24.1170 H   0  0  0  0  0  0  0  0  0  0  0  0
   22.1417   22.1968   23.0038 H   0  0  0  0  0  0  0  0  0  0  0  0
   21.6035   20.2917   22.1238 C   0  0  0  0  0  0  0  0  0  0  0  0
   21.7358   20.6770   21.1034 H   0  0  0  0  0  0  0  0  0  0  0  0
   22.5675   19.8450   22.4035 H   0  0  0  0  0  0  0  0  0  0  0  0
   20.5218   19.1810   22.0989 C   0  0  0  0  0  0  0  0  0  0  0  0
   20.8345   18.4112   21.3800 H   0  0  0  0  0  0  0  0  0  0  0  0
   19.5770   19.5871   21.7138 H   0  0  0  0  0  0  0  0  0  0  0  0
   20.2844   18.5172   23.4765 C   0  0  0  0  0  0  0  0  0  0  0  0
   21.2398   18.1523   23.8783 H   0  0  0  0  0  0  0  0  0  0  0  0
   19.9008   19.2600   24.1885 H   0  0  0  0  0  0  0  0  0  0  0  0
   19.2831   17.3448   23.3836 C   0  0  0  0  0  0  0  0  0  0  0  0
   19.6615   16.5893   22.6821 H   0  0  0  0  0  0  0  0  0  0  0  0
   18.3267   17.7066   22.9832 H   0  0  0  0  0  0  0  0  0  0  0  0
   19.0491   16.6942   24.7584 C   0  0  0  0  0  0  0  0  0  0  0  0
   19.9966   16.3182   25.1537 H   0  0  0  0  0  0  0  0  0  0  0  0
   18.6564   17.4389   25.4561 H   0  0  0  0  0  0  0  0  0  0  0  0
   18.0712   15.5381   24.7091 N   0  3  0  0  0  0  0  0  0  0  0  0
   17.9297   15.1191   25.6348 H   0  0  0  0  0  0  0  0  0  0  0  0
   18.3960   14.7889   24.0891 H   0  0  0  0  0  0  0  0  0  0  0  0
   17.1490   15.8316   24.3704 H   0  0  0  0  0  0  0  0  0  0  0  0
  1  2  1  0  0  0  0
  1  3  1  0  0  0  0
  1  4  1  0  0  0  0
  1  5  1  0  0  0  0
  5  6  1  0  0  0  0
  5  7  1  0  0  0  0
  5  8  1  0  0  0  0
  8  9  1  0  0  0  0
  8 10  1  0  0  0  0
  8 11  1  0  0  0  0
 11 12  1  0  0  0  0
 11 13  1  0  0  0  0
 11 14  1  0  0  0  0
 14 15  1  0  0  0  0
 14 16  1  0  0  0  0
 14 17  1  0  0  0  0
 17 18  1  0  0  0  0
 17 19  1  0  0  0  0
 17 20  1  0  0  0  0
 20 21  1  0  0  0  0
 20 22  1  0  0  0  0
 20 23  1  0  0  0  0
 23 24  1  0  0  0  0
 23 25  1  0  0  0  0
 23 26  1  0  0  0  0
M  END
> <VConfSearch Rank>
60

> <Conf_Id>
106

> <Delta U+W>
0.767

> <U+W>
-4.785

> <U>
48.494

> <W>
-53.279

> <W(PB)>
-55.569

> <W(SA)>
2.290

> <Valence>
3.117

> <Coulomb>
44.693

> <VdW>
0.684

> <VdW6>
-7.347

> <VdW12>
8.030

> <Bond>
0.208

> <Angle>
1.039

> <Pdih>
1.870

> <Idih>
0.000

> <Tether>
0.000

$$$$
VeraChem MOL file


 26 25  0  0  0  0  0  0  0  0999 V2000     
   19.1286   22.8010   25.3934 C   0  0  0  0  0  0  0  0  0  0  0  0
   18.1226   22.5102   25.7232 H   0  0  0  0  0  0  0  0  0  0  0  0
   19.8248   22.6255   26.2239 H   0  0  0  0  0  0  0  0  0  0  0  0
   19.1166   23.8788   25.1857 H   0  0  0  0  0  0  0  0  0  0  0  0
   19.5514   22.0088   24.1381 C   0  0  0  0  0  0  0  0  0  0  0  0
   20.5458   22.3452   23.8126 H   0  0  0  0  0  0  0  0  0  0  0  0
   18.8568   22.2308   23.3158 H   0  0  0  0  0  0  0  0  0  0  0  0
   19.5764   20.4872   24.4034 C   0  0  0  0  0  0  0  0  0  0  0  0
   20.2701   20.2705   25.2275 H   0  0  0  0  0  0  0  0  0  0  0  0
   18.5810   20.1561   24.7305 H   0  0  0  0  0  0  0  0  0  0  0  0
   19.9996   19.6904   23.1486 C   0  0  0  0  0  0  0  0  0  0  0  0
   20.9950   20.0223   22.8220 H   0  0  0  0  0  0  0  0  0  0  0  0
   19.3057   19.9081   22.3248 H   0  0  0  0  0  0  0  0  0  0  0  0
   20.0243   18.1682   23.4145 C   0  0  0  0  0  0  0  0  0  0  0  0
   20.7182   17.9501   24.2383 H   0  0  0  0  0  0  0  0  0  0  0  0
   19.0289   17.8358   23.7410 H   0  0  0  0  0  0  0  0  0  0  0  0
   20.4473   17.3712   22.1608 C   0  0  0  0  0  0  0  0  0  0  0  0
   21.4441   17.6966   21.8344 H   0  0  0  0  0  0  0  0  0  0  0  0
   19.7531   17.5825   21.3365 H   0  0  0  0  0  0  0  0  0  0  0  0
   20.4682   15.8574   22.4366 C   0  0  0  0  0  0  0  0  0  0  0  0
   21.1707   15.6403   23.2459 H   0  0  0  0  0  0  0  0  0  0  0  0
   19.4734   15.5257   22.7462 H   0  0  0  0  0  0  0  0  0  0  0  0
   20.8789   15.0397   21.2290 N   0  3  0  0  0  0  0  0  0  0  0  0
   20.8863   14.0346   21.4342 H   0  0  0  0  0  0  0  0  0  0  0  0
   21.8198   15.2847   20.9035 H   0  0  0  0  0  0  0  0  0  0  0  0
   20.2406   15.1781   20.4386 H   0  0  0  0  0  0  0  0  0  0  0  0
  1  2  1  0  0  0  0
  1  3  1  0  0  0  0
  1  4  1  0  0  0  0
  1  5  1  0  0  0  0
  5  6  1  0  0  0  0
  5  7  1  0  0  0  0
  5  8  1  0  0  0  0
  8  9  1  0  0  0  0
  8 10  1  0  0  0  0
  8 11  1  0  0  0  0
 11 12  1  0  0  0  0
 11 13  1  0  0  0  0
 11 14  1  0  0  0  0
 14 15  1  0  0  0  0
 14 16  1  0  0  0  0
 14 17  1  0  0  0  0
 17 18  1  0  0  0  0
 17 19  1  0  0  0  0
 17 20  1  0  0  0  0
 20 21  1  0  0  0  0
 20 22  1  0  0  0  0
 20 23  1  0  0  0  0
 23 24  1  0  0  0  0
 23 25  1  0  0  0  0
 23 26  1  0  0  0  0
M  END
> <VConfSearch Rank>
61

> <Conf_Id>
25

> <Delta U+W>
0.000

> <U+W>
-5.552

> <U>
47.192

> <W>
-52.745

> <W(PB)>
-55.134

> <W(SA)>
2.389

> <Valence>
2.156

> <Coulomb>
44.449

> <VdW>
0.587

> <VdW6>
-5.761

> <VdW12>
6.348

> <Bond>
0.129

> <Angle>
0.393

> <Pdih>
1.634

> <Idih>
0.000

> <Tether>
0.000

$$$$
VeraChem MOL file


 26 25  0  0  0  0  0  0  0  0999 V2000     
   22.9009   15.7483   23.2960 C   0  0  0  0  0  0  0  0  0  0  0  0
   22.4036   15.1676   22.5081 H   0  0  0  0  0  0  0  0  0  0  0  0
   23.6652   16.3799   22.8245 H   0  0  0  0  0  0  0  0  0  0  0  0
   23.4120   15.0422   23.9632 H   0  0  0  0  0  0  0  0  0  0  0  0
   21.8834   16.6020   24.0821 C   0  0  0  0  0  0  0  0  0  0  0  0
   22.4046   17.1442   24.8835 H   0  0  0  0  0  0  0  0  0  0  0  0
   21.1528   15.9413   24.5696 H   0  0  0  0  0  0  0  0  0  0  0  0
   21.1492   17.6054   23.1655 C   0  0  0  0  0  0  0  0  0  0  0  0
   21.8837   18.2618   22.6787 H   0  0  0  0  0  0  0  0  0  0  0  0
   20.6316   17.0589   22.3648 H   0  0  0  0  0  0  0  0  0  0  0  0
   20.1294   18.4622   23.9493 C   0  0  0  0  0  0  0  0  0  0  0  0
   20.6477   19.0084   24.7496 H   0  0  0  0  0  0  0  0  0  0  0  0
   19.3961   17.8045   24.4364 H   0  0  0  0  0  0  0  0  0  0  0  0
   19.3945   19.4655   23.0318 C   0  0  0  0  0  0  0  0  0  0  0  0
   20.1322   20.1166   22.5440 H   0  0  0  0  0  0  0  0  0  0  0  0
   18.8738   18.9189   22.2332 H   0  0  0  0  0  0  0  0  0  0  0  0
   18.3749   20.3227   23.8185 C   0  0  0  0  0  0  0  0  0  0  0  0
   18.8897   20.8976   24.5999 H   0  0  0  0  0  0  0  0  0  0  0  0
   17.6642   19.6619   24.3326 H   0  0  0  0  0  0  0  0  0  0  0  0
   17.5799   21.2830   22.9128 C   0  0  0  0  0  0  0  0  0  0  0  0
   17.0710   20.7141   22.1300 H   0  0  0  0  0  0  0  0  0  0  0  0
   16.8210   21.7980   23.5081 H   0  0  0  0  0  0  0  0  0  0  0  0
   18.4360   22.3411   22.2447 N   0  3  0  0  0  0  0  0  0  0  0  0
   19.1496   21.9250   21.6385 H   0  0  0  0  0  0  0  0  0  0  0  0
   18.9241   22.9253   22.9313 H   0  0  0  0  0  0  0  0  0  0  0  0
   17.8755   22.9708   21.6602 H   0  0  0  0  0  0  0  0  0  0  0  0
  1  2  1  0  0  0  0
  1  3  1  0  0  0  0
  1  4  1  0  0  0  0
  1  5  1  0  0  0  0
  5  6  1  0  0  0  0
  5  7  1  0  0  0  0
  5  8  1  0  0  0  0
  8  9  1  0  0  0  0
  8 10  1  0  0  0  0
  8 11  1  0  0  0  0
 11 12  1  0  0  0  0
 11 13  1  0  0  0  0
 11 14  1  0  0  0  0
 14 15  1  0  0  0  0
 14 16  1  0  0  0  0
 14 17  1  0  0  0  0
 17 18  1  0  0  0  0
 17 19  1  0  0  0  0
 17 20  1  0  0  0  0
 20 21  1  0  0  0  0
 20 22  1  0  0  0  0
 20 23  1  0  0  0  0
 23 24  1  0  0  0  0
 23 25  1  0  0  0  0
 23 26  1  0  0  0  0
M  END
> <VConfSearch Rank>
62

> <Conf_Id>
20

> <Delta U+W>
0.150

> <U+W>
-5.403

> <U>
47.845

> <W>
-53.248

> <W(PB)>
-55.599

> <W(SA)>
2.351

> <Valence>
2.258

> <Coulomb>
44.893

> <VdW>
0.694

> <VdW6>
-6.285

> <VdW12>
6.979

> <Bond>
0.149

> <Angle>
0.434

> <Pdih>
1.675

> <Idih>
0.000

> <Tether>
0.000

$$$$
VeraChem MOL file


 26 25  0  0  0  0  0  0  0  0999 V2000     
   22.5474   20.2212   26.4729 C   0  0  0  0  0  0  0  0  0  0  0  0
   23.1559   20.8185   25.7813 H   0  0  0  0  0  0  0  0  0  0  0  0
   21.8082   20.8856   26.9391 H   0  0  0  0  0  0  0  0  0  0  0  0
   23.2086   19.8446   27.2642 H   0  0  0  0  0  0  0  0  0  0  0  0
   21.8574   19.0528   25.7374 C   0  0  0  0  0  0  0  0  0  0  0  0
   21.2846   18.4547   26.4600 H   0  0  0  0  0  0  0  0  0  0  0  0
   22.6218   18.3882   25.3110 H   0  0  0  0  0  0  0  0  0  0  0  0
   20.9199   19.5558   24.6174 C   0  0  0  0  0  0  0  0  0  0  0  0
   20.1591   20.2213   25.0480 H   0  0  0  0  0  0  0  0  0  0  0  0
   21.4964   20.1550   23.8990 H   0  0  0  0  0  0  0  0  0  0  0  0
   20.2271   18.3885   23.8785 C   0  0  0  0  0  0  0  0  0  0  0  0
   19.6519   17.7894   24.5980 H   0  0  0  0  0  0  0  0  0  0  0  0
   20.9886   17.7235   23.4479 H   0  0  0  0  0  0  0  0  0  0  0  0
   19.2887   18.8920   22.7585 C   0  0  0  0  0  0  0  0  0  0  0  0
   18.5254   19.5547   23.1898 H   0  0  0  0  0  0  0  0  0  0  0  0
   19.8676   19.4940   22.0454 H   0  0  0  0  0  0  0  0  0  0  0  0
   18.5969   17.7221   22.0196 C   0  0  0  0  0  0  0  0  0  0  0  0
   18.0516   17.1049   22.7460 H   0  0  0  0  0  0  0  0  0  0  0  0
   19.3505   17.0702   21.5579 H   0  0  0  0  0  0  0  0  0  0  0  0
   17.6031   18.2016   20.9441 C   0  0  0  0  0  0  0  0  0  0  0  0
   17.0861   17.3378   20.5173 H   0  0  0  0  0  0  0  0  0  0  0  0
   16.8548   18.8558   21.3998 H   0  0  0  0  0  0  0  0  0  0  0  0
   18.2559   18.9566   19.8029 N   0  3  0  0  0  0  0  0  0  0  0  0
   18.9554   18.3846   19.3187 H   0  0  0  0  0  0  0  0  0  0  0  0
   18.7306   19.8036   20.1303 H   0  0  0  0  0  0  0  0  0  0  0  0
   17.5698   19.2502   19.0990 H   0  0  0  0  0  0  0  0  0  0  0  0
  1  2  1  0  0  0  0
  1  3  1  0  0  0  0
  1  4  1  0  0  0  0
  1  5  1  0  0  0  0
  5  6  1  0  0  0  0
  5  7  1  0  0  0  0
  5  8  1  0  0  0  0
  8  9  1  0  0  0  0
  8 10  1  0  0  0  0
  8 11  1  0  0  0  0
 11 12  1  0  0  0  0
 11 13  1  0  0  0  0
 11 14  1  0  0  0  0
 14 15  1  0  0  0  0
 14 16  1  0  0  0  0
 14 17  1  0  0  0  0
 17 18  1  0  0  0  0
 17 19  1  0  0  0  0
 17 20  1  0  0  0  0
 20 21  1  0  0  0  0
 20 22  1  0  0  0  0
 20 23  1  0  0  0  0
 23 24  1  0  0  0  0
 23 25  1  0  0  0  0
 23 26  1  0  0  0  0
M  END
> <VConfSearch Rank>
63

> <Conf_Id>
19

> <Delta U+W>
0.162

> <U+W>
-5.391

> <U>
47.845

> <W>
-53.235

> <W(PB)>
-55.585

> <W(SA)>
2.349

> <Valence>
2.258

> <Coulomb>
44.893

> <VdW>
0.694

> <VdW6>
-6.285

> <VdW12>
6.979

> <Bond>
0.149

> <Angle>
0.434

> <Pdih>
1.675

> <Idih>
0.000

> <Tether>
0.000

$$$$
VeraChem MOL file


 26 25  0  0  0  0  0  0  0  0999 V2000     
   16.2863   17.4730   24.4939 C   0  0  0  0  0  0  0  0  0  0  0  0
   15.9603   16.5581   23.9822 H   0  0  0  0  0  0  0  0  0  0  0  0
   16.5829   17.2057   25.5166 H   0  0  0  0  0  0  0  0  0  0  0  0
   15.4231   18.1481   24.5589 H   0  0  0  0  0  0  0  0  0  0  0  0
   17.4503   18.1479   23.7376 C   0  0  0  0  0  0  0  0  0  0  0  0
   17.7196   19.0777   24.2557 H   0  0  0  0  0  0  0  0  0  0  0  0
   17.1147   18.4298   22.7298 H   0  0  0  0  0  0  0  0  0  0  0  0
   18.6810   17.2160   23.6370 C   0  0  0  0  0  0  0  0  0  0  0  0
   19.0482   16.9771   24.6447 H   0  0  0  0  0  0  0  0  0  0  0  0
   18.3703   16.2622   23.1884 H   0  0  0  0  0  0  0  0  0  0  0  0
   19.8361   17.8031   22.7891 C   0  0  0  0  0  0  0  0  0  0  0  0
   19.4719   18.0273   21.7770 H   0  0  0  0  0  0  0  0  0  0  0  0
   20.6096   17.0311   22.6743 H   0  0  0  0  0  0  0  0  0  0  0  0
   20.4761   19.0696   23.4071 C   0  0  0  0  0  0  0  0  0  0  0  0
   19.7350   19.8781   23.4587 H   0  0  0  0  0  0  0  0  0  0  0  0
   20.7898   18.8571   24.4386 H   0  0  0  0  0  0  0  0  0  0  0  0
   21.6933   19.5543   22.5891 C   0  0  0  0  0  0  0  0  0  0  0  0
   21.3836   19.7690   21.5575 H   0  0  0  0  0  0  0  0  0  0  0  0
   22.4478   18.7578   22.5402 H   0  0  0  0  0  0  0  0  0  0  0  0
   22.3214   20.8156   23.2077 C   0  0  0  0  0  0  0  0  0  0  0  0
   21.5786   21.6172   23.2433 H   0  0  0  0  0  0  0  0  0  0  0  0
   22.6461   20.6019   24.2296 H   0  0  0  0  0  0  0  0  0  0  0  0
   23.5202   21.3230   22.4325 N   0  3  0  0  0  0  0  0  0  0  0  0
   23.2754   21.5687   21.4677 H   0  0  0  0  0  0  0  0  0  0  0  0
   24.2686   20.6239   22.3854 H   0  0  0  0  0  0  0  0  0  0  0  0
   23.9233   22.1633   22.8613 H   0  0  0  0  0  0  0  0  0  0  0  0
  1  2  1  0  0  0  0
  1  3  1  0  0  0  0
  1  4  1  0  0  0  0
  1  5  1  0  0  0  0
  5  6  1  0  0  0  0
  5  7  1  0  0  0  0
  5  8  1  0  0  0  0
  8  9  1  0  0  0  0
  8 10  1  0  0  0  0
  8 11  1  0  0  0  0
 11 12  1  0  0  0  0
 11 13  1  0  0  0  0
 11 14  1  0  0  0  0
 14 15  1  0  0  0  0
 14 16  1  0  0  0  0
 14 17  1  0  0  0  0
 17 18  1  0  0  0  0
 17 19  1  0  0  0  0
 17 20  1  0  0  0  0
 20 21  1  0  0  0  0
 20 22  1  0  0  0  0
 20 23  1  0  0  0  0
 23 24  1  0  0  0  0
 23 25  1  0  0  0  0
 23 26  1  0  0  0  0
M  END
> <VConfSearch Rank>
64

> <Conf_Id>
37

> <Delta U+W>
0.565

> <U+W>
-4.988

> <U>
48.035

> <W>
-53.022

> <W(PB)>
-55.379

> <W(SA)>
2.357

> <Valence>
2.701

> <Coulomb>
44.622

> <VdW>
0.712

> <VdW6>
-6.418

> <VdW12>
7.129

> <Bond>
0.168

> <Angle>
0.659

> <Pdih>
1.875

> <Idih>
0.000

> <Tether>
0.000

$$$$
VeraChem MOL file


 26 25  0  0  0  0  0  0  0  0999 V2000     
   17.9615   15.8867   25.1356 C   0  0  0  0  0  0  0  0  0  0  0  0
   18.9506   15.7208   25.5822 H   0  0  0  0  0  0  0  0  0  0  0  0
   17.3924   16.5487   25.8013 H   0  0  0  0  0  0  0  0  0  0  0  0
   17.4426   14.9201   25.0976 H   0  0  0  0  0  0  0  0  0  0  0  0
   18.0856   16.4946   23.7224 C   0  0  0  0  0  0  0  0  0  0  0  0
   17.0829   16.6160   23.2890 H   0  0  0  0  0  0  0  0  0  0  0  0
   18.6300   15.7961   23.0715 H   0  0  0  0  0  0  0  0  0  0  0  0
   18.8123   17.8576   23.7475 C   0  0  0  0  0  0  0  0  0  0  0  0
   18.2633   18.5528   24.3977 H   0  0  0  0  0  0  0  0  0  0  0  0
   19.8077   17.7239   24.1907 H   0  0  0  0  0  0  0  0  0  0  0  0
   18.9407   18.4660   22.3302 C   0  0  0  0  0  0  0  0  0  0  0  0
   17.9431   18.5202   21.8728 H   0  0  0  0  0  0  0  0  0  0  0  0
   19.5362   17.7981   21.6926 H   0  0  0  0  0  0  0  0  0  0  0  0
   19.5622   19.8844   22.3187 C   0  0  0  0  0  0  0  0  0  0  0  0
   19.5069   20.2805   21.2951 H   0  0  0  0  0  0  0  0  0  0  0  0
   18.9570   20.5569   22.9423 H   0  0  0  0  0  0  0  0  0  0  0  0
   21.0347   19.9194   22.7912 C   0  0  0  0  0  0  0  0  0  0  0  0
   21.6295   19.2096   22.2010 H   0  0  0  0  0  0  0  0  0  0  0  0
   21.1029   19.6059   23.8405 H   0  0  0  0  0  0  0  0  0  0  0  0
   21.6343   21.3295   22.6502 C   0  0  0  0  0  0  0  0  0  0  0  0
   21.5892   21.6460   21.6046 H   0  0  0  0  0  0  0  0  0  0  0  0
   21.0550   22.0374   23.2492 H   0  0  0  0  0  0  0  0  0  0  0  0
   23.0789   21.4083   23.1004 N   0  3  0  0  0  0  0  0  0  0  0  0
   23.6834   20.7841   22.5562 H   0  0  0  0  0  0  0  0  0  0  0  0
   23.1867   21.1491   24.0865 H   0  0  0  0  0  0  0  0  0  0  0  0
   23.4586   22.3558   22.9977 H   0  0  0  0  0  0  0  0  0  0  0  0
  1  2  1  0  0  0  0
  1  3  1  0  0  0  0
  1  4  1  0  0  0  0
  1  5  1  0  0  0  0
  5  6  1  0  0  0  0
  5  7  1  0  0  0  0
  5  8  1  0  0  0  0
  8  9  1  0  0  0  0
  8 10  1  0  0  0  0
  8 11  1  0  0  0  0
 11 12  1  0  0  0  0
 11 13  1  0  0  0  0
 11 14  1  0  0  0  0
 14 15  1  0  0  0  0
 14 16  1  0  0  0  0
 14 17  1  0  0  0  0
 17 18  1  0  0  0  0
 17 19  1  0  0  0  0
 17 20  1  0  0  0  0
 20 21  1  0  0  0  0
 20 22  1  0  0  0  0
 20 23  1  0  0  0  0
 23 24  1  0  0  0  0
 23 25  1  0  0  0  0
 23 26  1  0  0  0  0
M  END
> <VConfSearch Rank>
65

> <Conf_Id>
35

> <Delta U+W>
0.587

> <U+W>
-4.965

> <U>
48.214

> <W>
-53.179

> <W(PB)>
-55.527

> <W(SA)>
2.348

> <Valence>
2.697

> <Coulomb>
44.819

> <VdW>
0.699

> <VdW6>
-6.437

> <VdW12>
7.136

> <Bond>
0.168

> <Angle>
0.657

> <Pdih>
1.872

> <Idih>
0.000

> <Tether>
0.000

$$$$
VeraChem MOL file


 26 25  0  0  0  0  0  0  0  0999 V2000     
   20.3133   21.3142   26.5804 C   0  0  0  0  0  0  0  0  0  0  0  0
   19.5171   21.9998   26.2623 H   0  0  0  0  0  0  0  0  0  0  0  0
   19.8441   20.4376   27.0458 H   0  0  0  0  0  0  0  0  0  0  0  0
   20.9102   21.8240   27.3478 H   0  0  0  0  0  0  0  0  0  0  0  0
   21.1995   20.9009   25.3862 C   0  0  0  0  0  0  0  0  0  0  0  0
   22.0054   20.2429   25.7406 H   0  0  0  0  0  0  0  0  0  0  0  0
   21.6818   21.7940   24.9645 H   0  0  0  0  0  0  0  0  0  0  0  0
   20.3831   20.1812   24.2899 C   0  0  0  0  0  0  0  0  0  0  0  0
   19.8999   19.2974   24.7263 H   0  0  0  0  0  0  0  0  0  0  0  0
   19.5804   20.8435   23.9376 H   0  0  0  0  0  0  0  0  0  0  0  0
   21.2717   19.7628   23.0938 C   0  0  0  0  0  0  0  0  0  0  0  0
   22.0426   19.0573   23.4335 H   0  0  0  0  0  0  0  0  0  0  0  0
   21.8065   20.6467   22.7195 H   0  0  0  0  0  0  0  0  0  0  0  0
   20.4775   19.1378   21.9205 C   0  0  0  0  0  0  0  0  0  0  0  0
   19.7179   19.8500   21.5691 H   0  0  0  0  0  0  0  0  0  0  0  0
   21.1659   18.9812   21.0783 H   0  0  0  0  0  0  0  0  0  0  0  0
   19.8047   17.7910   22.2756 C   0  0  0  0  0  0  0  0  0  0  0  0
   19.0516   17.9394   23.0596 H   0  0  0  0  0  0  0  0  0  0  0  0
   20.5558   17.0962   22.6743 H   0  0  0  0  0  0  0  0  0  0  0  0
   19.1286   17.1614   21.0449 C   0  0  0  0  0  0  0  0  0  0  0  0
   18.3683   17.8429   20.6538 H   0  0  0  0  0  0  0  0  0  0  0  0
   19.8732   16.9911   20.2626 H   0  0  0  0  0  0  0  0  0  0  0  0
   18.4582   15.8370   21.3483 N   0  3  0  0  0  0  0  0  0  0  0  0
   17.7255   15.9333   22.0590 H   0  0  0  0  0  0  0  0  0  0  0  0
   19.1263   15.1411   21.6956 H   0  0  0  0  0  0  0  0  0  0  0  0
   18.0147   15.4350   20.5150 H   0  0  0  0  0  0  0  0  0  0  0  0
  1  2  1  0  0  0  0
  1  3  1  0  0  0  0
  1  4  1  0  0  0  0
  1  5  1  0  0  0  0
  5  6  1  0  0  0  0
  5  7  1  0  0  0  0
  5  8  1  0  0  0  0
  8  9  1  0  0  0  0
  8 10  1  0  0  0  0
  8 11  1  0  0  0  0
 11 12  1  0  0  0  0
 11 13  1  0  0  0  0
 11 14  1  0  0  0  0
 14 15  1  0  0  0  0
 14 16  1  0  0  0  0
 14 17  1  0  0  0  0
 17 18  1  0  0  0  0
 17 19  1  0  0  0  0
 17 20  1  0  0  0  0
 20 21  1  0  0  0  0
 20 22  1  0  0  0  0
 20 23  1  0  0  0  0
 23 24  1  0  0  0  0
 23 25  1  0  0  0  0
 23 26  1  0  0  0  0
M  END
> <VConfSearch Rank>
66

> <Conf_Id>
36

> <Delta U+W>
0.565

> <U+W>
-4.987

> <U>
48.214

> <W>
-53.201

> <W(PB)>
-55.543

> <W(SA)>
2.342

> <Valence>
2.697

> <Coulomb>
44.819

> <VdW>
0.698

> <VdW6>
-6.437

> <VdW12>
7.136

> <Bond>
0.168

> <Angle>
0.657

> <Pdih>
1.872

> <Idih>
0.000

> <Tether>
0.000

$$$$
VeraChem MOL file


 26 25  0  0  0  0  0  0  0  0999 V2000     
   23.7245   17.5615   24.9497 C   0  0  0  0  0  0  0  0  0  0  0  0
   23.7342   18.0626   25.9265 H   0  0  0  0  0  0  0  0  0  0  0  0
   24.1747   16.5684   25.0760 H   0  0  0  0  0  0  0  0  0  0  0  0
   24.3616   18.1357   24.2645 H   0  0  0  0  0  0  0  0  0  0  0  0
   22.2866   17.4423   24.4016 C   0  0  0  0  0  0  0  0  0  0  0  0
   21.6830   16.8351   25.0907 H   0  0  0  0  0  0  0  0  0  0  0  0
   22.3057   16.9076   23.4416 H   0  0  0  0  0  0  0  0  0  0  0  0
   21.6290   18.8275   24.2143 C   0  0  0  0  0  0  0  0  0  0  0  0
   21.6151   19.3589   25.1760 H   0  0  0  0  0  0  0  0  0  0  0  0
   22.2368   19.4315   23.5264 H   0  0  0  0  0  0  0  0  0  0  0  0
   20.1888   18.7124   23.6659 C   0  0  0  0  0  0  0  0  0  0  0  0
   19.5815   18.1105   24.3560 H   0  0  0  0  0  0  0  0  0  0  0  0
   20.2098   18.1750   22.7083 H   0  0  0  0  0  0  0  0  0  0  0  0
   19.5333   20.1016   23.4781 C   0  0  0  0  0  0  0  0  0  0  0  0
   19.5631   20.6469   24.4316 H   0  0  0  0  0  0  0  0  0  0  0  0
   20.1197   20.6948   22.7627 H   0  0  0  0  0  0  0  0  0  0  0  0
   18.0648   20.0205   22.9991 C   0  0  0  0  0  0  0  0  0  0  0  0
   17.6417   21.0336   22.9741 H   0  0  0  0  0  0  0  0  0  0  0  0
   17.4707   19.4496   23.7252 H   0  0  0  0  0  0  0  0  0  0  0  0
   17.9283   19.3837   21.6033 C   0  0  0  0  0  0  0  0  0  0  0  0
   18.5188   19.9526   20.8801 H   0  0  0  0  0  0  0  0  0  0  0  0
   18.3057   18.3581   21.6257 H   0  0  0  0  0  0  0  0  0  0  0  0
   16.4970   19.3413   21.1085 N   0  3  0  0  0  0  0  0  0  0  0  0
   16.4278   18.9141   20.1784 H   0  0  0  0  0  0  0  0  0  0  0  0
   16.0895   20.2794   21.0369 H   0  0  0  0  0  0  0  0  0  0  0  0
   15.8928   18.7967   21.7328 H   0  0  0  0  0  0  0  0  0  0  0  0
  1  2  1  0  0  0  0
  1  3  1  0  0  0  0
  1  4  1  0  0  0  0
  1  5  1  0  0  0  0
  5  6  1  0  0  0  0
  5  7  1  0  0  0  0
  5  8  1  0  0  0  0
  8  9  1  0  0  0  0
  8 10  1  0  0  0  0
  8 11  1  0  0  0  0
 11 12  1  0  0  0  0
 11 13  1  0  0  0  0
 11 14  1  0  0  0  0
 14 15  1  0  0  0  0
 14 16  1  0  0  0  0
 14 17  1  0  0  0  0
 17 18  1  0  0  0  0
 17 19  1  0  0  0  0
 17 20  1  0  0  0  0
 20 21  1  0  0  0  0
 20 22  1  0  0  0  0
 20 23  1  0  0  0  0
 23 24  1  0  0  0  0
 23 25  1  0  0  0  0
 23 26  1  0  0  0  0
M  END
> <VConfSearch Rank>
67

> <Conf_Id>
44

> <Delta U+W>
0.371

> <U+W>
-5.181

> <U>
48.002

> <W>
-53.183

> <W(PB)>
-55.533

> <W(SA)>
2.350

> <Valence>
2.459

> <Coulomb>
44.901

> <VdW>
0.643

> <VdW6>
-6.362

> <VdW12>
7.005

> <Bond>
0.151

> <Angle>
0.519

> <Pdih>
1.789

> <Idih>
0.000

> <Tether>
0.000

$$$$
VeraChem MOL file


 26 25  0  0  0  0  0  0  0  0999 V2000     
   20.3541   19.0638   19.4027 C   0  0  0  0  0  0  0  0  0  0  0  0
   21.2939   18.4966   19.4062 H   0  0  0  0  0  0  0  0  0  0  0  0
   19.9999   19.1194   18.3652 H   0  0  0  0  0  0  0  0  0  0  0  0
   20.5686   20.0879   19.7320 H   0  0  0  0  0  0  0  0  0  0  0  0
   19.2930   18.3872   20.3002 C   0  0  0  0  0  0  0  0  0  0  0  0
   19.0203   17.4201   19.8550 H   0  0  0  0  0  0  0  0  0  0  0  0
   18.3750   18.9913   20.3080 H   0  0  0  0  0  0  0  0  0  0  0  0
   19.7736   18.1457   21.7518 C   0  0  0  0  0  0  0  0  0  0  0  0
   19.0122   17.5438   22.2638 H   0  0  0  0  0  0  0  0  0  0  0  0
   20.6904   17.5404   21.7382 H   0  0  0  0  0  0  0  0  0  0  0  0
   20.0217   19.4542   22.5450 C   0  0  0  0  0  0  0  0  0  0  0  0
   19.1040   20.0579   22.5622 H   0  0  0  0  0  0  0  0  0  0  0  0
   20.7778   20.0566   22.0253 H   0  0  0  0  0  0  0  0  0  0  0  0
   20.5149   19.2180   23.9942 C   0  0  0  0  0  0  0  0  0  0  0  0
   21.4248   18.6021   23.9774 H   0  0  0  0  0  0  0  0  0  0  0  0
   20.8076   20.1885   24.4160 H   0  0  0  0  0  0  0  0  0  0  0  0
   19.4545   18.5596   24.9125 C   0  0  0  0  0  0  0  0  0  0  0  0
   19.1898   17.5681   24.5254 H   0  0  0  0  0  0  0  0  0  0  0  0
   18.5321   19.1552   24.9103 H   0  0  0  0  0  0  0  0  0  0  0  0
   19.9499   18.3851   26.3613 C   0  0  0  0  0  0  0  0  0  0  0  0
   19.2027   17.8297   26.9347 H   0  0  0  0  0  0  0  0  0  0  0  0
   20.8796   17.8098   26.3658 H   0  0  0  0  0  0  0  0  0  0  0  0
   20.2020   19.6939   27.0843 N   0  3  0  0  0  0  0  0  0  0  0  0
   20.9242   20.2522   26.6189 H   0  0  0  0  0  0  0  0  0  0  0  0
   20.5157   19.5415   28.0490 H   0  0  0  0  0  0  0  0  0  0  0  0
   19.3562   20.2714   27.1323 H   0  0  0  0  0  0  0  0  0  0  0  0
  1  2  1  0  0  0  0
  1  3  1  0  0  0  0
  1  4  1  0  0  0  0
  1  5  1  0  0  0  0
  5  6  1  0  0  0  0
  5  7  1  0  0  0  0
  5  8  1  0  0  0  0
  8  9  1  0  0  0  0
  8 10  1  0  0  0  0
  8 11  1  0  0  0  0
 11 12  1  0  0  0  0
 11 13  1  0  0  0  0
 11 14  1  0  0  0  0
 14 15  1  0  0  0  0
 14 16  1  0  0  0  0
 14 17  1  0  0  0  0
 17 18  1  0  0  0  0
 17 19  1  0  0  0  0
 17 20  1  0  0  0  0
 20 21  1  0  0  0  0
 20 22  1  0  0  0  0
 20 23  1  0  0  0  0
 23 24  1  0  0  0  0
 23 25  1  0  0  0  0
 23 26  1  0  0  0  0
M  END
> <VConfSearch Rank>
68

> <Conf_Id>
112

> <Delta U+W>
1.422

> <U+W>
-4.130

> <U>
49.323

> <W>
-53.453

> <W(PB)>
-55.749

> <W(SA)>
2.296

> <Valence>
3.408

> <Coulomb>
44.893

> <VdW>
1.021

> <VdW6>
-7.481

> <VdW12>
8.503

> <Bond>
0.239

> <Angle>
1.013

> <Pdih>
2.156

> <Idih>
0.000

> <Tether>
0.000

$$$$
VeraChem MOL file


 26 25  0  0  0  0  0  0  0  0999 V2000     
   18.5654   18.0062   19.9961 C   0  0  0  0  0  0  0  0  0  0  0  0
   17.9507   17.6700   19.1511 H   0  0  0  0  0  0  0  0  0  0  0  0
   18.3780   19.0783   20.1345 H   0  0  0  0  0  0  0  0  0  0  0  0
   19.6192   17.8740   19.7184 H   0  0  0  0  0  0  0  0  0  0  0  0
   18.2211   17.2012   21.2697 C   0  0  0  0  0  0  0  0  0  0  0  0
   18.3123   16.1289   21.0471 H   0  0  0  0  0  0  0  0  0  0  0  0
   17.1695   17.3704   21.5407 H   0  0  0  0  0  0  0  0  0  0  0  0
   19.1331   17.5387   22.4737 C   0  0  0  0  0  0  0  0  0  0  0  0
   18.8884   16.8561   23.2992 H   0  0  0  0  0  0  0  0  0  0  0  0
   20.1766   17.3351   22.2001 H   0  0  0  0  0  0  0  0  0  0  0  0
   18.9853   19.0013   22.9640 C   0  0  0  0  0  0  0  0  0  0  0  0
   17.9189   19.2237   23.1076 H   0  0  0  0  0  0  0  0  0  0  0  0
   19.3454   19.6953   22.1931 H   0  0  0  0  0  0  0  0  0  0  0  0
   19.7287   19.2863   24.2923 C   0  0  0  0  0  0  0  0  0  0  0  0
   19.4676   20.3015   24.6189 H   0  0  0  0  0  0  0  0  0  0  0  0
   19.3605   18.6066   25.0732 H   0  0  0  0  0  0  0  0  0  0  0  0
   21.2688   19.1625   24.1764 C   0  0  0  0  0  0  0  0  0  0  0  0
   21.6409   19.8214   23.3807 H   0  0  0  0  0  0  0  0  0  0  0  0
   21.5387   18.1388   23.8890 H   0  0  0  0  0  0  0  0  0  0  0  0
   21.9922   19.4915   25.4967 C   0  0  0  0  0  0  0  0  0  0  0  0
   21.6106   18.8498   26.2954 H   0  0  0  0  0  0  0  0  0  0  0  0
   23.0615   19.2941   25.3824 H   0  0  0  0  0  0  0  0  0  0  0  0
   21.8371   20.9342   25.9367 N   0  3  0  0  0  0  0  0  0  0  0  0
   20.8555   21.1783   26.1000 H   0  0  0  0  0  0  0  0  0  0  0  0
   22.1994   21.5875   25.2346 H   0  0  0  0  0  0  0  0  0  0  0  0
   22.3422   21.1223   26.8096 H   0  0  0  0  0  0  0  0  0  0  0  0
  1  2  1  0  0  0  0
  1  3  1  0  0  0  0
  1  4  1  0  0  0  0
  1  5  1  0  0  0  0
  5  6  1  0  0  0  0
  5  7  1  0  0  0  0
  5  8  1  0  0  0  0
  8  9  1  0  0  0  0
  8 10  1  0  0  0  0
  8 11  1  0  0  0  0
 11 12  1  0  0  0  0
 11 13  1  0  0  0  0
 11 14  1  0  0  0  0
 14 15  1  0  0  0  0
 14 16  1  0  0  0  0
 14 17  1  0  0  0  0
 17 18  1  0  0  0  0
 17 19  1  0  0  0  0
 17 20  1  0  0  0  0
 20 21  1  0  0  0  0
 20 22  1  0  0  0  0
 20 23  1  0  0  0  0
 23 24  1  0  0  0  0
 23 25  1  0  0  0  0
 23 26  1  0  0  0  0
M  END
> <VConfSearch Rank>
69

> <Conf_Id>
130

> <Delta U+W>
1.282

> <U+W>
-4.270

> <U>
49.153

> <W>
-53.422

> <W(PB)>
-55.725

> <W(SA)>
2.303

> <Valence>
3.298

> <Coulomb>
44.907

> <VdW>
0.948

> <VdW6>
-7.574

> <VdW12>
8.522

> <Bond>
0.229

> <Angle>
0.912

> <Pdih>
2.157

> <Idih>
0.000

> <Tether>
0.000

$$$$
VeraChem MOL file


 26 25  0  0  0  0  0  0  0  0999 V2000     
   18.5988   16.3618   21.4264 C   0  0  0  0  0  0  0  0  0  0  0  0
   19.3703   15.9918   20.7389 H   0  0  0  0  0  0  0  0  0  0  0  0
   17.6582   15.8513   21.1825 H   0  0  0  0  0  0  0  0  0  0  0  0
   18.4524   17.4324   21.2360 H   0  0  0  0  0  0  0  0  0  0  0  0
   18.9926   16.0974   22.8972 C   0  0  0  0  0  0  0  0  0  0  0  0
   19.0096   15.0121   23.0688 H   0  0  0  0  0  0  0  0  0  0  0  0
   18.2170   16.4938   23.5659 H   0  0  0  0  0  0  0  0  0  0  0  0
   20.3785   16.6778   23.2788 C   0  0  0  0  0  0  0  0  0  0  0  0
   20.5915   16.4252   24.3267 H   0  0  0  0  0  0  0  0  0  0  0  0
   21.1502   16.1692   22.6848 H   0  0  0  0  0  0  0  0  0  0  0  0
   20.5351   18.2088   23.0877 C   0  0  0  0  0  0  0  0  0  0  0  0
   20.4286   18.4659   22.0256 H   0  0  0  0  0  0  0  0  0  0  0  0
   21.5632   18.4792   23.3618 H   0  0  0  0  0  0  0  0  0  0  0  0
   19.5384   19.0433   23.9316 C   0  0  0  0  0  0  0  0  0  0  0  0
   18.5102   18.7955   23.6372 H   0  0  0  0  0  0  0  0  0  0  0  0
   19.6334   18.7736   24.9925 H   0  0  0  0  0  0  0  0  0  0  0  0
   19.7332   20.5690   23.7671 C   0  0  0  0  0  0  0  0  0  0  0  0
   18.9304   21.0899   24.3058 H   0  0  0  0  0  0  0  0  0  0  0  0
   19.6299   20.8422   22.7084 H   0  0  0  0  0  0  0  0  0  0  0  0
   21.0934   21.0584   24.2989 C   0  0  0  0  0  0  0  0  0  0  0  0
   21.1962   20.7850   25.3525 H   0  0  0  0  0  0  0  0  0  0  0  0
   21.9032   20.5837   23.7391 H   0  0  0  0  0  0  0  0  0  0  0  0
   21.2687   22.5590   24.1858 N   0  3  0  0  0  0  0  0  0  0  0  0
   21.2090   22.8785   23.2134 H   0  0  0  0  0  0  0  0  0  0  0  0
   22.1797   22.8644   24.5451 H   0  0  0  0  0  0  0  0  0  0  0  0
   20.5534   23.0682   24.7153 H   0  0  0  0  0  0  0  0  0  0  0  0
  1  2  1  0  0  0  0
  1  3  1  0  0  0  0
  1  4  1  0  0  0  0
  1  5  1  0  0  0  0
  5  6  1  0  0  0  0
  5  7  1  0  0  0  0
  5  8  1  0  0  0  0
  8  9  1  0  0  0  0
  8 10  1  0  0  0  0
  8 11  1  0  0  0  0
 11 12  1  0  0  0  0
 11 13  1  0  0  0  0
 11 14  1  0  0  0  0
 14 15  1  0  0  0  0
 14 16  1  0  0  0  0
 14 17  1  0  0  0  0
 17 18  1  0  0  0  0
 17 19  1  0  0  0  0
 17 20  1  0  0  0  0
 20 21  1  0  0  0  0
 20 22  1  0  0  0  0
 20 23  1  0  0  0  0
 23 24  1  0  0  0  0
 23 25  1  0  0  0  0
 23 26  1  0  0  0  0
M  END
> <VConfSearch Rank>
70

> <Conf_Id>
111

> <Delta U+W>
1.290

> <U+W>
-4.262

> <U>
49.209

> <W>
-53.471

> <W(PB)>
-55.745

> <W(SA)>
2.274

> <Valence>
3.465

> <Coulomb>
44.958

> <VdW>
0.786

> <VdW6>
-7.903

> <VdW12>
8.689

> <Bond>
0.237

> <Angle>
1.212

> <Pdih>
2.015

> <Idih>
0.000

> <Tether>
0.000

$$$$
VeraChem MOL file


 26 25  0  0  0  0  0  0  0  0999 V2000     
   18.7477   22.5595   21.9486 C   0  0  0  0  0  0  0  0  0  0  0  0
   19.5367   23.0920   22.4955 H   0  0  0  0  0  0  0  0  0  0  0  0
   18.8720   22.7695   20.8783 H   0  0  0  0  0  0  0  0  0  0  0  0
   17.7811   22.9739   22.2630 H   0  0  0  0  0  0  0  0  0  0  0  0
   18.8070   21.0425   22.2275 C   0  0  0  0  0  0  0  0  0  0  0  0
   17.9890   20.5415   21.6911 H   0  0  0  0  0  0  0  0  0  0  0  0
   18.6381   20.8709   23.2988 H   0  0  0  0  0  0  0  0  0  0  0  0
   20.1633   20.4363   21.7960 C   0  0  0  0  0  0  0  0  0  0  0  0
   20.3478   20.6889   20.7427 H   0  0  0  0  0  0  0  0  0  0  0  0
   20.9763   20.9007   22.3709 H   0  0  0  0  0  0  0  0  0  0  0  0
   20.2317   18.8969   21.9500 C   0  0  0  0  0  0  0  0  0  0  0  0
   21.1771   18.5460   21.5135 H   0  0  0  0  0  0  0  0  0  0  0  0
   19.4290   18.4328   21.3606 H   0  0  0  0  0  0  0  0  0  0  0  0
   20.1467   18.4172   23.4190 C   0  0  0  0  0  0  0  0  0  0  0  0
   20.9139   18.9320   24.0125 H   0  0  0  0  0  0  0  0  0  0  0  0
   19.1731   18.6902   23.8468 H   0  0  0  0  0  0  0  0  0  0  0  0
   20.3346   16.8857   23.5318 C   0  0  0  0  0  0  0  0  0  0  0  0
   21.3202   16.5971   23.1429 H   0  0  0  0  0  0  0  0  0  0  0  0
   19.5894   16.3809   22.9027 H   0  0  0  0  0  0  0  0  0  0  0  0
   20.1817   16.3719   24.9765 C   0  0  0  0  0  0  0  0  0  0  0  0
   19.2032   16.6620   25.3687 H   0  0  0  0  0  0  0  0  0  0  0  0
   20.2408   15.2801   24.9812 H   0  0  0  0  0  0  0  0  0  0  0  0
   21.2427   16.8938   25.9254 N   0  3  0  0  0  0  0  0  0  0  0  0
   21.1202   16.5236   26.8742 H   0  0  0  0  0  0  0  0  0  0  0  0
   21.2188   17.9157   25.9968 H   0  0  0  0  0  0  0  0  0  0  0  0
   22.1865   16.6328   25.6219 H   0  0  0  0  0  0  0  0  0  0  0  0
  1  2  1  0  0  0  0
  1  3  1  0  0  0  0
  1  4  1  0  0  0  0
  1  5  1  0  0  0  0
  5  6  1  0  0  0  0
  5  7  1  0  0  0  0
  5  8  1  0  0  0  0
  8  9  1  0  0  0  0
  8 10  1  0  0  0  0
  8 11  1  0  0  0  0
 11 12  1  0  0  0  0
 11 13  1  0  0  0  0
 11 14  1  0  0  0  0
 14 15  1  0  0  0  0
 14 16  1  0  0  0  0
 14 17  1  0  0  0  0
 17 18  1  0  0  0  0
 17 19  1  0  0  0  0
 17 20  1  0  0  0  0
 20 21  1  0  0  0  0
 20 22  1  0  0  0  0
 20 23  1  0  0  0  0
 23 24  1  0  0  0  0
 23 25  1  0  0  0  0
 23 26  1  0  0  0  0
M  END
> <VConfSearch Rank>
71

> <Conf_Id>
105

> <Delta U+W>
0.736

> <U+W>
-4.817

> <U>
48.735

> <W>
-53.552

> <W(PB)>
-55.889

> <W(SA)>
2.337

> <Valence>
2.803

> <Coulomb>
45.123

> <VdW>
0.809

> <VdW6>
-6.953

> <VdW12>
7.761

> <Bond>
0.188

> <Angle>
0.699

> <Pdih>
1.917

> <Idih>
0.000

> <Tether>
0.000

$$$$
VeraChem MOL file


 26 25  0  0  0  0  0  0  0  0999 V2000     
   21.1151   15.4179   23.0800 C   0  0  0  0  0  0  0  0  0  0  0  0
   20.4018   14.5905   23.1886 H   0  0  0  0  0  0  0  0  0  0  0  0
   21.2725   15.5953   22.0081 H   0  0  0  0  0  0  0  0  0  0  0  0
   22.0715   15.0968   23.5127 H   0  0  0  0  0  0  0  0  0  0  0  0
   20.5993   16.6916   23.7828 C   0  0  0  0  0  0  0  0  0  0  0  0
   21.3555   17.4821   23.6868 H   0  0  0  0  0  0  0  0  0  0  0  0
   20.4798   16.4926   24.8569 H   0  0  0  0  0  0  0  0  0  0  0  0
   19.2532   17.1664   23.1869 C   0  0  0  0  0  0  0  0  0  0  0  0
   19.3812   17.4051   22.1229 H   0  0  0  0  0  0  0  0  0  0  0  0
   18.5348   16.3359   23.2235 H   0  0  0  0  0  0  0  0  0  0  0  0
   18.6351   18.3772   23.9333 C   0  0  0  0  0  0  0  0  0  0  0  0
   18.3965   18.0748   24.9623 H   0  0  0  0  0  0  0  0  0  0  0  0
   17.6736   18.6268   23.4640 H   0  0  0  0  0  0  0  0  0  0  0  0
   19.5161   19.6526   23.9823 C   0  0  0  0  0  0  0  0  0  0  0  0
   18.9702   20.4191   24.5479 H   0  0  0  0  0  0  0  0  0  0  0  0
   20.4333   19.4540   24.5525 H   0  0  0  0  0  0  0  0  0  0  0  0
   19.8801   20.2081   22.5826 C   0  0  0  0  0  0  0  0  0  0  0  0
   18.9671   20.3904   22.0005 H   0  0  0  0  0  0  0  0  0  0  0  0
   20.4637   19.4625   22.0283 H   0  0  0  0  0  0  0  0  0  0  0  0
   20.7118   21.5033   22.6552 C   0  0  0  0  0  0  0  0  0  0  0  0
   21.6123   21.3299   23.2505 H   0  0  0  0  0  0  0  0  0  0  0  0
   21.0203   21.7923   21.6468 H   0  0  0  0  0  0  0  0  0  0  0  0
   19.9658   22.6767   23.2599 N   0  3  0  0  0  0  0  0  0  0  0  0
   19.6779   22.4874   24.2248 H   0  0  0  0  0  0  0  0  0  0  0  0
   19.1182   22.9030   22.7294 H   0  0  0  0  0  0  0  0  0  0  0  0
   20.5422   23.5249   23.2796 H   0  0  0  0  0  0  0  0  0  0  0  0
  1  2  1  0  0  0  0
  1  3  1  0  0  0  0
  1  4  1  0  0  0  0
  1  5  1  0  0  0  0
  5  6  1  0  0  0  0
  5  7  1  0  0  0  0
  5  8  1  0  0  0  0
  8  9  1  0  0  0  0
  8 10  1  0  0  0  0
  8 11  1  0  0  0  0
 11 12  1  0  0  0  0
 11 13  1  0  0  0  0
 11 14  1  0  0  0  0
 14 15  1  0  0  0  0
 14 16  1  0  0  0  0
 14 17  1  0  0  0  0
 17 18  1  0  0  0  0
 17 19  1  0  0  0  0
 17 20  1  0  0  0  0
 20 21  1  0  0  0  0
 20 22  1  0  0  0  0
 20 23  1  0  0  0  0
 23 24  1  0  0  0  0
 23 25  1  0  0  0  0
 23 26  1  0  0  0  0
M  END
> <VConfSearch Rank>
72

> <Conf_Id>
144

> <Delta U+W>
1.073

> <U+W>
-4.479

> <U>
49.231

> <W>
-53.710

> <W(PB)>
-55.983

> <W(SA)>
2.273

> <Valence>
3.276

> <Coulomb>
45.175

> <VdW>
0.779

> <VdW6>
-7.944

> <VdW12>
8.723

> <Bond>
0.239

> <Angle>
1.155

> <Pdih>
1.883

> <Idih>
0.000

> <Tether>
0.000

$$$$
VeraChem MOL file


 26 25  0  0  0  0  0  0  0  0999 V2000     
   17.5641   17.2534   21.0498 C   0  0  0  0  0  0  0  0  0  0  0  0
   16.8330   17.2789   21.8670 H   0  0  0  0  0  0  0  0  0  0  0  0
   17.0024   17.2139   20.1076 H   0  0  0  0  0  0  0  0  0  0  0  0
   18.1427   16.3244   21.1342 H   0  0  0  0  0  0  0  0  0  0  0  0
   18.4914   18.4900   21.0740 C   0  0  0  0  0  0  0  0  0  0  0  0
   17.8884   19.4074   21.0230 H   0  0  0  0  0  0  0  0  0  0  0  0
   19.1125   18.4803   20.1673 H   0  0  0  0  0  0  0  0  0  0  0  0
   19.4224   18.5417   22.3097 C   0  0  0  0  0  0  0  0  0  0  0  0
   20.0076   17.6137   22.3679 H   0  0  0  0  0  0  0  0  0  0  0  0
   20.1373   19.3592   22.1539 H   0  0  0  0  0  0  0  0  0  0  0  0
   18.6679   18.7753   23.6423 C   0  0  0  0  0  0  0  0  0  0  0  0
   17.8807   18.0193   23.7553 H   0  0  0  0  0  0  0  0  0  0  0  0
   18.1554   19.7463   23.6044 H   0  0  0  0  0  0  0  0  0  0  0  0
   19.5628   18.7141   24.9076 C   0  0  0  0  0  0  0  0  0  0  0  0
   18.9106   18.8539   25.7808 H   0  0  0  0  0  0  0  0  0  0  0  0
   19.9932   17.7089   25.0168 H   0  0  0  0  0  0  0  0  0  0  0  0
   20.6847   19.7812   24.9687 C   0  0  0  0  0  0  0  0  0  0  0  0
   20.8988   20.0035   26.0227 H   0  0  0  0  0  0  0  0  0  0  0  0
   20.3378   20.7207   24.5182 H   0  0  0  0  0  0  0  0  0  0  0  0
   21.9951   19.3175   24.3029 C   0  0  0  0  0  0  0  0  0  0  0  0
   22.3557   18.4116   24.7975 H   0  0  0  0  0  0  0  0  0  0  0  0
   21.8243   19.0849   23.2502 H   0  0  0  0  0  0  0  0  0  0  0  0
   23.0951   20.3566   24.3751 N   0  3  0  0  0  0  0  0  0  0  0  0
   23.3300   20.5974   25.3436 H   0  0  0  0  0  0  0  0  0  0  0  0
   22.8299   21.2276   23.9037 H   0  0  0  0  0  0  0  0  0  0  0  0
   23.9597   20.0280   23.9315 H   0  0  0  0  0  0  0  0  0  0  0  0
  1  2  1  0  0  0  0
  1  3  1  0  0  0  0
  1  4  1  0  0  0  0
  1  5  1  0  0  0  0
  5  6  1  0  0  0  0
  5  7  1  0  0  0  0
  5  8  1  0  0  0  0
  8  9  1  0  0  0  0
  8 10  1  0  0  0  0
  8 11  1  0  0  0  0
 11 12  1  0  0  0  0
 11 13  1  0  0  0  0
 11 14  1  0  0  0  0
 14 15  1  0  0  0  0
 14 16  1  0  0  0  0
 14 17  1  0  0  0  0
 17 18  1  0  0  0  0
 17 19  1  0  0  0  0
 17 20  1  0  0  0  0
 20 21  1  0  0  0  0
 20 22  1  0  0  0  0
 20 23  1  0  0  0  0
 23 24  1  0  0  0  0
 23 25  1  0  0  0  0
 23 26  1  0  0  0  0
M  END
> <VConfSearch Rank>
73

> <Conf_Id>
93

> <Delta U+W>
3.253

> <U+W>
-2.300

> <U>
51.609

> <W>
-53.909

> <W(PB)>
-56.178

> <W(SA)>
2.270

> <Valence>
5.204

> <Coulomb>
45.645

> <VdW>
0.760

> <VdW6>
-7.997

> <VdW12>
8.758

> <Bond>
0.240

> <Angle>
1.456

> <Pdih>
3.507

> <Idih>
0.000

> <Tether>
0.000

$$$$
VeraChem MOL file


 26 25  0  0  0  0  0  0  0  0999 V2000     
   16.8261   19.9274   24.7310 C   0  0  0  0  0  0  0  0  0  0  0  0
   16.5618   18.8640   24.7783 H   0  0  0  0  0  0  0  0  0  0  0  0
   17.3399   20.1964   25.6630 H   0  0  0  0  0  0  0  0  0  0  0  0
   15.8888   20.4972   24.6887 H   0  0  0  0  0  0  0  0  0  0  0  0
   17.7059   20.2434   23.4999 C   0  0  0  0  0  0  0  0  0  0  0  0
   17.8318   21.3329   23.4292 H   0  0  0  0  0  0  0  0  0  0  0  0
   17.1856   19.9345   22.5825 H   0  0  0  0  0  0  0  0  0  0  0  0
   19.1068   19.5870   23.5553 C   0  0  0  0  0  0  0  0  0  0  0  0
   19.6986   19.9949   22.7263 H   0  0  0  0  0  0  0  0  0  0  0  0
   19.6144   19.8820   24.4839 H   0  0  0  0  0  0  0  0  0  0  0  0
   19.0705   18.0427   23.4402 C   0  0  0  0  0  0  0  0  0  0  0  0
   18.6386   17.7606   22.4702 H   0  0  0  0  0  0  0  0  0  0  0  0
   18.3972   17.6339   24.2041 H   0  0  0  0  0  0  0  0  0  0  0  0
   20.4487   17.3522   23.6110 C   0  0  0  0  0  0  0  0  0  0  0  0
   20.8398   17.5358   24.6215 H   0  0  0  0  0  0  0  0  0  0  0  0
   20.2848   16.2674   23.5490 H   0  0  0  0  0  0  0  0  0  0  0  0
   21.5115   17.7400   22.5521 C   0  0  0  0  0  0  0  0  0  0  0  0
   21.0325   17.9009   21.5771 H   0  0  0  0  0  0  0  0  0  0  0  0
   22.2009   16.8950   22.4229 H   0  0  0  0  0  0  0  0  0  0  0  0
   22.3406   18.9754   22.9542 C   0  0  0  0  0  0  0  0  0  0  0  0
   21.6896   19.8404   23.0936 H   0  0  0  0  0  0  0  0  0  0  0  0
   22.8536   18.7794   23.8996 H   0  0  0  0  0  0  0  0  0  0  0  0
   23.3881   19.3454   21.9241 N   0  3  0  0  0  0  0  0  0  0  0  0
   24.0568   18.5838   21.7690 H   0  0  0  0  0  0  0  0  0  0  0  0
   23.9324   20.1660   22.2116 H   0  0  0  0  0  0  0  0  0  0  0  0
   22.9689   19.5683   21.0155 H   0  0  0  0  0  0  0  0  0  0  0  0
  1  2  1  0  0  0  0
  1  3  1  0  0  0  0
  1  4  1  0  0  0  0
  1  5  1  0  0  0  0
  5  6  1  0  0  0  0
  5  7  1  0  0  0  0
  5  8  1  0  0  0  0
  8  9  1  0  0  0  0
  8 10  1  0  0  0  0
  8 11  1  0  0  0  0
 11 12  1  0  0  0  0
 11 13  1  0  0  0  0
 11 14  1  0  0  0  0
 14 15  1  0  0  0  0
 14 16  1  0  0  0  0
 14 17  1  0  0  0  0
 17 18  1  0  0  0  0
 17 19  1  0  0  0  0
 17 20  1  0  0  0  0
 20 21  1  0  0  0  0
 20 22  1  0  0  0  0
 20 23  1  0  0  0  0
 23 24  1  0  0  0  0
 23 25  1  0  0  0  0
 23 26  1  0  0  0  0
M  END
> <VConfSearch Rank>
74

> <Conf_Id>
94

> <Delta U+W>
3.247

> <U+W>
-2.305

> <U>
51.609

> <W>
-53.914

> <W(PB)>
-56.221

> <W(SA)>
2.307

> <Valence>
5.204

> <Coulomb>
45.645

> <VdW>
0.760

> <VdW6>
-7.997

> <VdW12>
8.757

> <Bond>
0.240

> <Angle>
1.456

> <Pdih>
3.508

> <Idih>
0.000

> <Tether>
0.000

$$$$
VeraChem MOL file


 26 25  0  0  0  0  0  0  0  0999 V2000     
   21.6396   21.3163   26.2169 C   0  0  0  0  0  0  0  0  0  0  0  0
   21.3697   20.7801   27.1361 H   0  0  0  0  0  0  0  0  0  0  0  0
   22.6670   21.0382   25.9479 H   0  0  0  0  0  0  0  0  0  0  0  0
   21.6286   22.3915   26.4384 H   0  0  0  0  0  0  0  0  0  0  0  0
   20.6577   20.9855   25.0730 C   0  0  0  0  0  0  0  0  0  0  0  0
   20.9328   21.5617   24.1785 H   0  0  0  0  0  0  0  0  0  0  0  0
   19.6455   21.3055   25.3574 H   0  0  0  0  0  0  0  0  0  0  0  0
   20.6536   19.4768   24.7410 C   0  0  0  0  0  0  0  0  0  0  0  0
   21.6677   19.1611   24.4593 H   0  0  0  0  0  0  0  0  0  0  0  0
   20.3809   18.9053   25.6390 H   0  0  0  0  0  0  0  0  0  0  0  0
   19.6711   19.1415   23.5962 C   0  0  0  0  0  0  0  0  0  0  0  0
   19.9452   19.7217   22.7051 H   0  0  0  0  0  0  0  0  0  0  0  0
   18.6570   19.4545   23.8807 H   0  0  0  0  0  0  0  0  0  0  0  0
   19.6707   17.6300   23.2644 C   0  0  0  0  0  0  0  0  0  0  0  0
   20.6770   17.3170   22.9556 H   0  0  0  0  0  0  0  0  0  0  0  0
   19.4412   17.0614   24.1763 H   0  0  0  0  0  0  0  0  0  0  0  0
   18.6407   17.2458   22.1726 C   0  0  0  0  0  0  0  0  0  0  0  0
   17.6297   17.4833   22.5294 H   0  0  0  0  0  0  0  0  0  0  0  0
   18.6633   16.1587   22.0189 H   0  0  0  0  0  0  0  0  0  0  0  0
   18.8661   17.9512   20.8198 C   0  0  0  0  0  0  0  0  0  0  0  0
   18.0854   17.6469   20.1174 H   0  0  0  0  0  0  0  0  0  0  0  0
   18.7999   19.0342   20.9516 H   0  0  0  0  0  0  0  0  0  0  0  0
   20.2062   17.6359   20.1853 N   0  3  0  0  0  0  0  0  0  0  0  0
   20.3168   16.6320   20.0095 H   0  0  0  0  0  0  0  0  0  0  0  0
   20.9851   17.9268   20.7842 H   0  0  0  0  0  0  0  0  0  0  0  0
   20.3233   18.1128   19.2847 H   0  0  0  0  0  0  0  0  0  0  0  0
  1  2  1  0  0  0  0
  1  3  1  0  0  0  0
  1  4  1  0  0  0  0
  1  5  1  0  0  0  0
  5  6  1  0  0  0  0
  5  7  1  0  0  0  0
  5  8  1  0  0  0  0
  8  9  1  0  0  0  0
  8 10  1  0  0  0  0
  8 11  1  0  0  0  0
 11 12  1  0  0  0  0
 11 13  1  0  0  0  0
 11 14  1  0  0  0  0
 14 15  1  0  0  0  0
 14 16  1  0  0  0  0
 14 17  1  0  0  0  0
 17 18  1  0  0  0  0
 17 19  1  0  0  0  0
 17 20  1  0  0  0  0
 20 21  1  0  0  0  0
 20 22  1  0  0  0  0
 20 23  1  0  0  0  0
 23 24  1  0  0  0  0
 23 25  1  0  0  0  0
 23 26  1  0  0  0  0
M  END
> <VConfSearch Rank>
75

> <Conf_Id>
83

> <Delta U+W>
0.559

> <U+W>
-4.994

> <U>
48.668

> <W>
-53.661

> <W(PB)>
-55.972

> <W(SA)>
2.311

> <Valence>
2.543

> <Coulomb>
45.478

> <VdW>
0.646

> <VdW6>
-7.096

> <VdW12>
7.742

> <Bond>
0.176

> <Angle>
0.630

> <Pdih>
1.738

> <Idih>
0.000

> <Tether>
0.000

$$$$
VeraChem MOL file


 26 25  0  0  0  0  0  0  0  0999 V2000     
   23.3152   20.6858   21.8072 C   0  0  0  0  0  0  0  0  0  0  0  0
   24.2905   20.2759   22.1004 H   0  0  0  0  0  0  0  0  0  0  0  0
   23.1345   20.4206   20.7573 H   0  0  0  0  0  0  0  0  0  0  0  0
   23.3764   21.7798   21.8728 H   0  0  0  0  0  0  0  0  0  0  0  0
   22.1902   20.1473   22.7165 C   0  0  0  0  0  0  0  0  0  0  0  0
   21.2402   20.6105   22.4190 H   0  0  0  0  0  0  0  0  0  0  0  0
   22.3832   20.4530   23.7543 H   0  0  0  0  0  0  0  0  0  0  0  0
   22.0819   18.6061   22.6372 C   0  0  0  0  0  0  0  0  0  0  0  0
   21.8352   18.3043   21.6099 H   0  0  0  0  0  0  0  0  0  0  0  0
   23.0649   18.1679   22.8590 H   0  0  0  0  0  0  0  0  0  0  0  0
   21.0452   18.0052   23.6181 C   0  0  0  0  0  0  0  0  0  0  0  0
   21.3009   18.2955   24.6466 H   0  0  0  0  0  0  0  0  0  0  0  0
   21.1245   16.9100   23.5783 H   0  0  0  0  0  0  0  0  0  0  0  0
   19.5862   18.4169   23.3063 C   0  0  0  0  0  0  0  0  0  0  0  0
   19.4779   19.5033   23.4135 H   0  0  0  0  0  0  0  0  0  0  0  0
   19.3514   18.1723   22.2611 H   0  0  0  0  0  0  0  0  0  0  0  0
   18.5791   17.7045   24.2401 C   0  0  0  0  0  0  0  0  0  0  0  0
   18.7878   17.9639   25.2866 H   0  0  0  0  0  0  0  0  0  0  0  0
   18.7097   16.6175   24.1548 H   0  0  0  0  0  0  0  0  0  0  0  0
   17.1137   18.0459   23.9076 C   0  0  0  0  0  0  0  0  0  0  0  0
   16.9053   17.7962   22.8637 H   0  0  0  0  0  0  0  0  0  0  0  0
   16.4503   17.4495   24.5398 H   0  0  0  0  0  0  0  0  0  0  0  0
   16.7626   19.5053   24.1216 N   0  3  0  0  0  0  0  0  0  0  0  0
   17.3248   20.1223   23.5274 H   0  0  0  0  0  0  0  0  0  0  0  0
   16.9169   19.7955   25.0927 H   0  0  0  0  0  0  0  0  0  0  0  0
   15.7781   19.6954   23.9051 H   0  0  0  0  0  0  0  0  0  0  0  0
  1  2  1  0  0  0  0
  1  3  1  0  0  0  0
  1  4  1  0  0  0  0
  1  5  1  0  0  0  0
  5  6  1  0  0  0  0
  5  7  1  0  0  0  0
  5  8  1  0  0  0  0
  8  9  1  0  0  0  0
  8 10  1  0  0  0  0
  8 11  1  0  0  0  0
 11 12  1  0  0  0  0
 11 13  1  0  0  0  0
 11 14  1  0  0  0  0
 14 15  1  0  0  0  0
 14 16  1  0  0  0  0
 14 17  1  0  0  0  0
 17 18  1  0  0  0  0
 17 19  1  0  0  0  0
 17 20  1  0  0  0  0
 20 21  1  0  0  0  0
 20 22  1  0  0  0  0
 20 23  1  0  0  0  0
 23 24  1  0  0  0  0
 23 25  1  0  0  0  0
 23 26  1  0  0  0  0
M  END
> <VConfSearch Rank>
76

> <Conf_Id>
18

> <Delta U+W>
0.759

> <U+W>
-4.793

> <U>
48.945

> <W>
-53.738

> <W(PB)>
-56.051

> <W(SA)>
2.313

> <Valence>
2.802

> <Coulomb>
45.335

> <VdW>
0.807

> <VdW6>
-6.962

> <VdW12>
7.769

> <Bond>
0.189

> <Angle>
0.696

> <Pdih>
1.917

> <Idih>
0.000

> <Tether>
0.000

$$$$
VeraChem MOL file


 26 25  0  0  0  0  0  0  0  0999 V2000     
   23.1623   17.3833   21.5799 C   0  0  0  0  0  0  0  0  0  0  0  0
   22.6718   17.0193   20.6676 H   0  0  0  0  0  0  0  0  0  0  0  0
   23.9588   18.0792   21.2855 H   0  0  0  0  0  0  0  0  0  0  0  0
   23.6323   16.5241   22.0757 H   0  0  0  0  0  0  0  0  0  0  0  0
   22.1470   18.0669   22.5202 C   0  0  0  0  0  0  0  0  0  0  0  0
   22.6608   18.3937   23.4350 H   0  0  0  0  0  0  0  0  0  0  0  0
   21.3920   17.3300   22.8243 H   0  0  0  0  0  0  0  0  0  0  0  0
   21.4678   19.2795   21.8407 C   0  0  0  0  0  0  0  0  0  0  0  0
   22.2451   19.9632   21.4725 H   0  0  0  0  0  0  0  0  0  0  0  0
   20.9091   18.9436   20.9562 H   0  0  0  0  0  0  0  0  0  0  0  0
   20.5251   20.0704   22.7808 C   0  0  0  0  0  0  0  0  0  0  0  0
   20.1872   20.9732   22.2535 H   0  0  0  0  0  0  0  0  0  0  0  0
   21.0879   20.4183   23.6580 H   0  0  0  0  0  0  0  0  0  0  0  0
   19.2878   19.2622   23.2406 C   0  0  0  0  0  0  0  0  0  0  0  0
   18.7569   18.8721   22.3611 H   0  0  0  0  0  0  0  0  0  0  0  0
   19.6109   18.3956   23.8306 H   0  0  0  0  0  0  0  0  0  0  0  0
   18.3207   20.1272   24.0833 C   0  0  0  0  0  0  0  0  0  0  0  0
   18.0223   21.0103   23.5029 H   0  0  0  0  0  0  0  0  0  0  0  0
   18.8336   20.5002   24.9799 H   0  0  0  0  0  0  0  0  0  0  0  0
   17.0474   19.3650   24.4985 C   0  0  0  0  0  0  0  0  0  0  0  0
   16.3675   20.0490   25.0139 H   0  0  0  0  0  0  0  0  0  0  0  0
   16.5388   18.9855   23.6082 H   0  0  0  0  0  0  0  0  0  0  0  0
   17.3108   18.1943   25.4253 N   0  3  0  0  0  0  0  0  0  0  0  0
   17.7693   18.4913   26.2928 H   0  0  0  0  0  0  0  0  0  0  0  0
   17.9149   17.4919   24.9877 H   0  0  0  0  0  0  0  0  0  0  0  0
   16.4424   17.7184   25.6932 H   0  0  0  0  0  0  0  0  0  0  0  0
  1  2  1  0  0  0  0
  1  3  1  0  0  0  0
  1  4  1  0  0  0  0
  1  5  1  0  0  0  0
  5  6  1  0  0  0  0
  5  7  1  0  0  0  0
  5  8  1  0  0  0  0
  8  9  1  0  0  0  0
  8 10  1  0  0  0  0
  8 11  1  0  0  0  0
 11 12  1  0  0  0  0
 11 13  1  0  0  0  0
 11 14  1  0  0  0  0
 14 15  1  0  0  0  0
 14 16  1  0  0  0  0
 14 17  1  0  0  0  0
 17 18  1  0  0  0  0
 17 19  1  0  0  0  0
 17 20  1  0  0  0  0
 20 21  1  0  0  0  0
 20 22  1  0  0  0  0
 20 23  1  0  0  0  0
 23 24  1  0  0  0  0
 23 25  1  0  0  0  0
 23 26  1  0  0  0  0
M  END
> <VConfSearch Rank>
77

> <Conf_Id>
17

> <Delta U+W>
0.843

> <U+W>
-4.709

> <U>
48.945

> <W>
-53.653

> <W(PB)>
-55.991

> <W(SA)>
2.338

> <Valence>
2.802

> <Coulomb>
45.335

> <VdW>
0.807

> <VdW6>
-6.962

> <VdW12>
7.769

> <Bond>
0.189

> <Angle>
0.696

> <Pdih>
1.917

> <Idih>
0.000

> <Tether>
0.000

$$$$
VeraChem MOL file


 26 25  0  0  0  0  0  0  0  0999 V2000     
   18.3652   21.9675   23.4439 C   0  0  0  0  0  0  0  0  0  0  0  0
   19.0329   21.6875   22.6198 H   0  0  0  0  0  0  0  0  0  0  0  0
   17.3714   21.5486   23.2398 H   0  0  0  0  0  0  0  0  0  0  0  0
   18.2759   23.0616   23.4383 H   0  0  0  0  0  0  0  0  0  0  0  0
   18.9065   21.4764   24.8058 C   0  0  0  0  0  0  0  0  0  0  0  0
   18.2740   21.8852   25.6061 H   0  0  0  0  0  0  0  0  0  0  0  0
   19.9137   21.8837   24.9719 H   0  0  0  0  0  0  0  0  0  0  0  0
   18.9373   19.9344   24.9364 C   0  0  0  0  0  0  0  0  0  0  0  0
   19.2253   19.6779   25.9653 H   0  0  0  0  0  0  0  0  0  0  0  0
   17.9248   19.5336   24.7899 H   0  0  0  0  0  0  0  0  0  0  0  0
   19.9165   19.2512   23.9518 C   0  0  0  0  0  0  0  0  0  0  0  0
   20.9173   19.6896   24.0677 H   0  0  0  0  0  0  0  0  0  0  0  0
   19.5979   19.4490   22.9207 H   0  0  0  0  0  0  0  0  0  0  0  0
   19.9914   17.7233   24.1872 C   0  0  0  0  0  0  0  0  0  0  0  0
   20.2694   17.5317   25.2328 H   0  0  0  0  0  0  0  0  0  0  0  0
   18.9975   17.2771   24.0432 H   0  0  0  0  0  0  0  0  0  0  0  0
   21.0129   17.0160   23.2658 C   0  0  0  0  0  0  0  0  0  0  0  0
   21.0758   15.9573   23.5504 H   0  0  0  0  0  0  0  0  0  0  0  0
   22.0116   17.4442   23.4247 H   0  0  0  0  0  0  0  0  0  0  0  0
   20.6383   17.1145   21.7750 C   0  0  0  0  0  0  0  0  0  0  0  0
   19.6443   16.6877   21.6165 H   0  0  0  0  0  0  0  0  0  0  0  0
   20.6163   18.1630   21.4671 H   0  0  0  0  0  0  0  0  0  0  0  0
   21.6102   16.3851   20.8702 N   0  3  0  0  0  0  0  0  0  0  0  0
   21.3432   16.4626   19.8828 H   0  0  0  0  0  0  0  0  0  0  0  0
   21.6581   15.3845   21.0886 H   0  0  0  0  0  0  0  0  0  0  0  0
   22.5619   16.7577   20.9522 H   0  0  0  0  0  0  0  0  0  0  0  0
  1  2  1  0  0  0  0
  1  3  1  0  0  0  0
  1  4  1  0  0  0  0
  1  5  1  0  0  0  0
  5  6  1  0  0  0  0
  5  7  1  0  0  0  0
  5  8  1  0  0  0  0
  8  9  1  0  0  0  0
  8 10  1  0  0  0  0
  8 11  1  0  0  0  0
 11 12  1  0  0  0  0
 11 13  1  0  0  0  0
 11 14  1  0  0  0  0
 14 15  1  0  0  0  0
 14 16  1  0  0  0  0
 14 17  1  0  0  0  0
 17 18  1  0  0  0  0
 17 19  1  0  0  0  0
 17 20  1  0  0  0  0
 20 21  1  0  0  0  0
 20 22  1  0  0  0  0
 20 23  1  0  0  0  0
 23 24  1  0  0  0  0
 23 25  1  0  0  0  0
 23 26  1  0  0  0  0
M  END
> <VConfSearch Rank>
78

> <Conf_Id>
96

> <Delta U+W>
0.912

> <U+W>
-4.640

> <U>
48.723

> <W>
-53.364

> <W(PB)>
-55.683

> <W(SA)>
2.320

> <Valence>
2.962

> <Coulomb>
44.993

> <VdW>
0.768

> <VdW6>
-7.008

> <VdW12>
7.776

> <Bond>
0.188

> <Angle>
0.757

> <Pdih>
2.018

> <Idih>
0.000

> <Tether>
0.000

$$$$
VeraChem MOL file


 26 25  0  0  0  0  0  0  0  0999 V2000     
   19.9954   15.5967   22.6194 C   0  0  0  0  0  0  0  0  0  0  0  0
   19.8646   14.5236   22.8099 H   0  0  0  0  0  0  0  0  0  0  0  0
   20.5691   15.7050   21.6898 H   0  0  0  0  0  0  0  0  0  0  0  0
   20.5931   16.0068   23.4428 H   0  0  0  0  0  0  0  0  0  0  0  0
   18.6222   16.2976   22.5100 C   0  0  0  0  0  0  0  0  0  0  0  0
   18.0816   16.2020   23.4621 H   0  0  0  0  0  0  0  0  0  0  0  0
   18.0160   15.7728   21.7584 H   0  0  0  0  0  0  0  0  0  0  0  0
   18.7225   17.7901   22.1124 C   0  0  0  0  0  0  0  0  0  0  0  0
   19.2458   17.8791   21.1504 H   0  0  0  0  0  0  0  0  0  0  0  0
   17.7067   18.1757   21.9485 H   0  0  0  0  0  0  0  0  0  0  0  0
   19.4305   18.6653   23.1745 C   0  0  0  0  0  0  0  0  0  0  0  0
   20.4670   18.3271   23.2970 H   0  0  0  0  0  0  0  0  0  0  0  0
   18.9339   18.5353   24.1459 H   0  0  0  0  0  0  0  0  0  0  0  0
   19.4166   20.1627   22.7834 C   0  0  0  0  0  0  0  0  0  0  0  0
   19.9384   20.3005   21.8262 H   0  0  0  0  0  0  0  0  0  0  0  0
   18.3787   20.4843   22.6205 H   0  0  0  0  0  0  0  0  0  0  0  0
   20.0555   21.0765   23.8555 C   0  0  0  0  0  0  0  0  0  0  0  0
   19.5209   20.9581   24.8075 H   0  0  0  0  0  0  0  0  0  0  0  0
   19.9288   22.1242   23.5519 H   0  0  0  0  0  0  0  0  0  0  0  0
   21.5547   20.7913   24.0645 C   0  0  0  0  0  0  0  0  0  0  0  0
   21.6916   19.7637   24.4107 H   0  0  0  0  0  0  0  0  0  0  0  0
   22.0872   20.9097   23.1169 H   0  0  0  0  0  0  0  0  0  0  0  0
   22.1974   21.7132   25.0805 N   0  3  0  0  0  0  0  0  0  0  0  0
   21.7582   21.6304   26.0033 H   0  0  0  0  0  0  0  0  0  0  0  0
   22.1287   22.6972   24.8009 H   0  0  0  0  0  0  0  0  0  0  0  0
   23.1947   21.5073   25.2048 H   0  0  0  0  0  0  0  0  0  0  0  0
  1  2  1  0  0  0  0
  1  3  1  0  0  0  0
  1  4  1  0  0  0  0
  1  5  1  0  0  0  0
  5  6  1  0  0  0  0
  5  7  1  0  0  0  0
  5  8  1  0  0  0  0
  8  9  1  0  0  0  0
  8 10  1  0  0  0  0
  8 11  1  0  0  0  0
 11 12  1  0  0  0  0
 11 13  1  0  0  0  0
 11 14  1  0  0  0  0
 14 15  1  0  0  0  0
 14 16  1  0  0  0  0
 14 17  1  0  0  0  0
 17 18  1  0  0  0  0
 17 19  1  0  0  0  0
 17 20  1  0  0  0  0
 20 21  1  0  0  0  0
 20 22  1  0  0  0  0
 20 23  1  0  0  0  0
 23 24  1  0  0  0  0
 23 25  1  0  0  0  0
 23 26  1  0  0  0  0
M  END
> <VConfSearch Rank>
79

> <Conf_Id>
133

> <Delta U+W>
0.844

> <U+W>
-4.708

> <U>
48.723

> <W>
-53.431

> <W(PB)>
-55.776

> <W(SA)>
2.344

> <Valence>
2.962

> <Coulomb>
44.993

> <VdW>
0.768

> <VdW6>
-7.008

> <VdW12>
7.776

> <Bond>
0.188

> <Angle>
0.756

> <Pdih>
2.018

> <Idih>
0.000

> <Tether>
0.000

$$$$
VeraChem MOL file


 26 25  0  0  0  0  0  0  0  0999 V2000     
   17.9493   19.7285   25.9090 C   0  0  0  0  0  0  0  0  0  0  0  0
   16.9388   19.3000   25.9291 H   0  0  0  0  0  0  0  0  0  0  0  0
   18.6714   18.9048   25.8485 H   0  0  0  0  0  0  0  0  0  0  0  0
   18.1150   20.2437   26.8640 H   0  0  0  0  0  0  0  0  0  0  0  0
   18.1121   20.7117   24.7279 C   0  0  0  0  0  0  0  0  0  0  0  0
   19.1349   21.1115   24.7166 H   0  0  0  0  0  0  0  0  0  0  0  0
   17.4542   21.5761   24.8942 H   0  0  0  0  0  0  0  0  0  0  0  0
   17.7657   20.0862   23.3526 C   0  0  0  0  0  0  0  0  0  0  0  0
   16.7031   19.8067   23.3478 H   0  0  0  0  0  0  0  0  0  0  0  0
   17.8773   20.8553   22.5760 H   0  0  0  0  0  0  0  0  0  0  0  0
   18.6075   18.8453   22.9575 C   0  0  0  0  0  0  0  0  0  0  0  0
   18.2558   18.4872   21.9802 H   0  0  0  0  0  0  0  0  0  0  0  0
   18.4206   18.0258   23.6640 H   0  0  0  0  0  0  0  0  0  0  0  0
   20.1264   19.1290   22.8735 C   0  0  0  0  0  0  0  0  0  0  0  0
   20.3050   19.9789   22.2002 H   0  0  0  0  0  0  0  0  0  0  0  0
   20.5081   19.4182   23.8617 H   0  0  0  0  0  0  0  0  0  0  0  0
   20.9129   17.8988   22.3701 C   0  0  0  0  0  0  0  0  0  0  0  0
   20.5474   17.6066   21.3766 H   0  0  0  0  0  0  0  0  0  0  0  0
   20.7372   17.0478   23.0416 H   0  0  0  0  0  0  0  0  0  0  0  0
   22.4224   18.1880   22.2946 C   0  0  0  0  0  0  0  0  0  0  0  0
   22.6034   19.0246   21.6144 H   0  0  0  0  0  0  0  0  0  0  0  0
   22.7945   18.4632   23.2852 H   0  0  0  0  0  0  0  0  0  0  0  0
   23.2299   17.0035   21.8043 N   0  3  0  0  0  0  0  0  0  0  0  0
   24.2323   17.2174   21.7614 H   0  0  0  0  0  0  0  0  0  0  0  0
   22.9467   16.7112   20.8632 H   0  0  0  0  0  0  0  0  0  0  0  0
   23.1246   16.1888   22.4179 H   0  0  0  0  0  0  0  0  0  0  0  0
  1  2  1  0  0  0  0
  1  3  1  0  0  0  0
  1  4  1  0  0  0  0
  1  5  1  0  0  0  0
  5  6  1  0  0  0  0
  5  7  1  0  0  0  0
  5  8  1  0  0  0  0
  8  9  1  0  0  0  0
  8 10  1  0  0  0  0
  8 11  1  0  0  0  0
 11 12  1  0  0  0  0
 11 13  1  0  0  0  0
 11 14  1  0  0  0  0
 14 15  1  0  0  0  0
 14 16  1  0  0  0  0
 14 17  1  0  0  0  0
 17 18  1  0  0  0  0
 17 19  1  0  0  0  0
 17 20  1  0  0  0  0
 20 21  1  0  0  0  0
 20 22  1  0  0  0  0
 20 23  1  0  0  0  0
 23 24  1  0  0  0  0
 23 25  1  0  0  0  0
 23 26  1  0  0  0  0
M  END
> <VConfSearch Rank>
80

> <Conf_Id>
106

> <Delta U+W>
0.767

> <U+W>
-4.785

> <U>
48.494

> <W>
-53.279

> <W(PB)>
-55.569

> <W(SA)>
2.290

> <Valence>
3.117

> <Coulomb>
44.693

> <VdW>
0.684

> <VdW6>
-7.347

> <VdW12>
8.030

> <Bond>
0.208

> <Angle>
1.039

> <Pdih>
1.870

> <Idih>
0.000

> <Tether>
0.000

$$$$
VeraChem MOL file


 26 25  0  0  0  0  0  0  0  0999 V2000     
   17.2321   15.4255   22.8166 C   0  0  0  0  0  0  0  0  0  0  0  0
   16.5773   15.9153   22.0840 H   0  0  0  0  0  0  0  0  0  0  0  0
   17.9504   14.8011   22.2695 H   0  0  0  0  0  0  0  0  0  0  0  0
   16.6112   14.7630   23.4336 H   0  0  0  0  0  0  0  0  0  0  0  0
   17.9580   16.4664   23.6951 C   0  0  0  0  0  0  0  0  0  0  0  0
   18.5781   15.9466   24.4390 H   0  0  0  0  0  0  0  0  0  0  0  0
   17.2155   17.0521   24.2550 H   0  0  0  0  0  0  0  0  0  0  0  0
   18.8398   17.4126   22.8506 C   0  0  0  0  0  0  0  0  0  0  0  0
   19.5787   16.8224   22.2909 H   0  0  0  0  0  0  0  0  0  0  0  0
   18.2160   17.9281   22.1072 H   0  0  0  0  0  0  0  0  0  0  0  0
   19.5686   18.4563   23.7269 C   0  0  0  0  0  0  0  0  0  0  0  0
   20.1918   17.9400   24.4701 H   0  0  0  0  0  0  0  0  0  0  0  0
   18.8290   19.0458   24.2865 H   0  0  0  0  0  0  0  0  0  0  0  0
   20.4505   19.4029   22.8814 C   0  0  0  0  0  0  0  0  0  0  0  0
   21.1903   18.8138   22.3215 H   0  0  0  0  0  0  0  0  0  0  0  0
   19.8274   19.9196   22.1380 H   0  0  0  0  0  0  0  0  0  0  0  0
   21.1792   20.4463   23.7566 C   0  0  0  0  0  0  0  0  0  0  0  0
   21.8073   19.9338   24.4975 H   0  0  0  0  0  0  0  0  0  0  0  0
   20.4429   21.0407   24.3140 H   0  0  0  0  0  0  0  0  0  0  0  0
   22.0539   21.3832   22.9050 C   0  0  0  0  0  0  0  0  0  0  0  0
   22.7994   20.7972   22.3607 H   0  0  0  0  0  0  0  0  0  0  0  0
   21.4300   21.9080   22.1764 H   0  0  0  0  0  0  0  0  0  0  0  0
   22.7863   22.4228   23.7285 N   0  3  0  0  0  0  0  0  0  0  0  0
   23.3629   23.0362   23.1421 H   0  0  0  0  0  0  0  0  0  0  0  0
   23.4130   21.9931   24.4169 H   0  0  0  0  0  0  0  0  0  0  0  0
   22.1387   23.0267   24.2454 H   0  0  0  0  0  0  0  0  0  0  0  0
  1  2  1  0  0  0  0
  1  3  1  0  0  0  0
  1  4  1  0  0  0  0
  1  5  1  0  0  0  0
  5  6  1  0  0  0  0
  5  7  1  0  0  0  0
  5  8  1  0  0  0  0
  8  9  1  0  0  0  0
  8 10  1  0  0  0  0
  8 11  1  0  0  0  0
 11 12  1  0  0  0  0
 11 13  1  0  0  0  0
 11 14  1  0  0  0  0
 14 15  1  0  0  0  0
 14 16  1  0  0  0  0
 14 17  1  0  0  0  0
 17 18  1  0  0  0  0
 17 19  1  0  0  0  0
 17 20  1  0  0  0  0
 20 21  1  0  0  0  0
 20 22  1  0  0  0  0
 20 23  1  0  0  0  0
 23 24  1  0  0  0  0
 23 25  1  0  0  0  0
 23 26  1  0  0  0  0
M  END
> <VConfSearch Rank>
81

> <Conf_Id>
25

> <Delta U+W>
0.000

> <U+W>
-5.552

> <U>
47.192

> <W>
-52.745

> <W(PB)>
-55.134

> <W(SA)>
2.389

> <Valence>
2.156

> <Coulomb>
44.449

> <VdW>
0.587

> <VdW6>
-5.761

> <VdW12>
6.348

> <Bond>
0.129

> <Angle>
0.393

> <Pdih>
1.634

> <Idih>
0.000

> <Tether>
0.000

$$$$
VeraChem MOL file


 26 25  0  0  0  0  0  0  0  0999 V2000     
   15.8115   19.9158   23.3563 C   0  0  0  0  0  0  0  0  0  0  0  0
   15.4914   18.9726   22.8945 H   0  0  0  0  0  0  0  0  0  0  0  0
   15.7737   19.7928   24.4466 H   0  0  0  0  0  0  0  0  0  0  0  0
   15.0847   20.6903   23.0792 H   0  0  0  0  0  0  0  0  0  0  0  0
   17.2299   20.3079   22.8910 C   0  0  0  0  0  0  0  0  0  0  0  0
   17.5084   21.2706   23.3422 H   0  0  0  0  0  0  0  0  0  0  0  0
   17.2282   20.4568   21.8021 H   0  0  0  0  0  0  0  0  0  0  0  0
   18.2735   19.2335   23.2690 C   0  0  0  0  0  0  0  0  0  0  0  0
   18.2697   19.0865   24.3579 H   0  0  0  0  0  0  0  0  0  0  0  0
   17.9898   18.2727   22.8176 H   0  0  0  0  0  0  0  0  0  0  0  0
   19.6953   19.6228   22.8047 C   0  0  0  0  0  0  0  0  0  0  0  0
   19.9784   20.5836   23.2565 H   0  0  0  0  0  0  0  0  0  0  0  0
   19.6975   19.7705   21.7158 H   0  0  0  0  0  0  0  0  0  0  0  0
   20.7390   18.5474   23.1824 C   0  0  0  0  0  0  0  0  0  0  0  0
   20.7289   18.4004   24.2707 H   0  0  0  0  0  0  0  0  0  0  0  0
   20.4573   17.5873   22.7280 H   0  0  0  0  0  0  0  0  0  0  0  0
   22.1615   18.9394   22.7176 C   0  0  0  0  0  0  0  0  0  0  0  0
   22.4657   19.8827   23.1905 H   0  0  0  0  0  0  0  0  0  0  0  0
   22.1532   19.1204   21.6344 H   0  0  0  0  0  0  0  0  0  0  0  0
   23.2085   17.8506   23.0217 C   0  0  0  0  0  0  0  0  0  0  0  0
   22.9054   16.9084   22.5571 H   0  0  0  0  0  0  0  0  0  0  0  0
   24.1721   18.1454   22.5973 H   0  0  0  0  0  0  0  0  0  0  0  0
   23.4160   17.5998   24.5025 N   0  3  0  0  0  0  0  0  0  0  0  0
   22.5549   17.2827   24.9583 H   0  0  0  0  0  0  0  0  0  0  0  0
   23.7248   18.4458   24.9924 H   0  0  0  0  0  0  0  0  0  0  0  0
   24.1273   16.8800   24.6707 H   0  0  0  0  0  0  0  0  0  0  0  0
  1  2  1  0  0  0  0
  1  3  1  0  0  0  0
  1  4  1  0  0  0  0
  1  5  1  0  0  0  0
  5  6  1  0  0  0  0
  5  7  1  0  0  0  0
  5  8  1  0  0  0  0
  8  9  1  0  0  0  0
  8 10  1  0  0  0  0
  8 11  1  0  0  0  0
 11 12  1  0  0  0  0
 11 13  1  0  0  0  0
 11 14  1  0  0  0  0
 14 15  1  0  0  0  0
 14 16  1  0  0  0  0
 14 17  1  0  0  0  0
 17 18  1  0  0  0  0
 17 19  1  0  0  0  0
 17 20  1  0  0  0  0
 20 21  1  0  0  0  0
 20 22  1  0  0  0  0
 20 23  1  0  0  0  0
 23 24  1  0  0  0  0
 23 25  1  0  0  0  0
 23 26  1  0  0  0  0
M  END
> <VConfSearch Rank>
82

> <Conf_Id>
20

> <Delta U+W>
0.150

> <U+W>
-5.403

> <U>
47.845

> <W>
-53.248

> <W(PB)>
-55.599

> <W(SA)>
2.351

> <Valence>
2.258

> <Coulomb>
44.893

> <VdW>
0.694

> <VdW6>
-6.285

> <VdW12>
6.979

> <Bond>
0.149

> <Angle>
0.434

> <Pdih>
1.675

> <Idih>
0.000

> <Tether>
0.000

$$$$
VeraChem MOL file


 26 25  0  0  0  0  0  0  0  0999 V2000     
   22.8795   19.2557   26.4302 C   0  0  0  0  0  0  0  0  0  0  0  0
   22.6121   20.3047   26.6129 H   0  0  0  0  0  0  0  0  0  0  0  0
   22.3260   18.6324   27.1446 H   0  0  0  0  0  0  0  0  0  0  0  0
   23.9506   19.1394   26.6408 H   0  0  0  0  0  0  0  0  0  0  0  0
   22.5625   18.8475   24.9759 C   0  0  0  0  0  0  0  0  0  0  0  0
   22.8718   17.8053   24.8142 H   0  0  0  0  0  0  0  0  0  0  0  0
   23.1555   19.4648   24.2866 H   0  0  0  0  0  0  0  0  0  0  0  0
   21.0598   19.0018   24.6530 C   0  0  0  0  0  0  0  0  0  0  0  0
   20.4711   18.3848   25.3460 H   0  0  0  0  0  0  0  0  0  0  0  0
   20.7550   20.0445   24.8185 H   0  0  0  0  0  0  0  0  0  0  0  0
   20.7385   18.5940   23.1974 C   0  0  0  0  0  0  0  0  0  0  0  0
   21.0449   17.5516   23.0328 H   0  0  0  0  0  0  0  0  0  0  0  0
   21.3273   19.2116   22.5050 H   0  0  0  0  0  0  0  0  0  0  0  0
   19.2349   18.7477   22.8748 C   0  0  0  0  0  0  0  0  0  0  0  0
   18.6463   18.1277   23.5654 H   0  0  0  0  0  0  0  0  0  0  0  0
   18.9332   19.7897   23.0457 H   0  0  0  0  0  0  0  0  0  0  0  0
   18.9156   18.3399   21.4171 C   0  0  0  0  0  0  0  0  0  0  0  0
   19.2545   17.3096   21.2452 H   0  0  0  0  0  0  0  0  0  0  0  0
   19.4752   18.9747   20.7172 H   0  0  0  0  0  0  0  0  0  0  0  0
   17.4113   18.4186   21.0927 C   0  0  0  0  0  0  0  0  0  0  0  0
   17.2381   18.0403   20.0815 H   0  0  0  0  0  0  0  0  0  0  0  0
   16.8506   17.7921   21.7917 H   0  0  0  0  0  0  0  0  0  0  0  0
   16.8447   19.8232   21.1611 N   0  3  0  0  0  0  0  0  0  0  0  0
   17.3171   20.4566   20.5079 H   0  0  0  0  0  0  0  0  0  0  0  0
   16.9415   20.2265   22.0981 H   0  0  0  0  0  0  0  0  0  0  0  0
   15.8459   19.8426   20.9277 H   0  0  0  0  0  0  0  0  0  0  0  0
  1  2  1  0  0  0  0
  1  3  1  0  0  0  0
  1  4  1  0  0  0  0
  1  5  1  0  0  0  0
  5  6  1  0  0  0  0
  5  7  1  0  0  0  0
  5  8  1  0  0  0  0
  8  9  1  0  0  0  0
  8 10  1  0  0  0  0
  8 11  1  0  0  0  0
 11 12  1  0  0  0  0
 11 13  1  0  0  0  0
 11 14  1  0  0  0  0
 14 15  1  0  0  0  0
 14 16  1  0  0  0  0
 14 17  1  0  0  0  0
 17 18  1  0  0  0  0
 17 19  1  0  0  0  0
 17 20  1  0  0  0  0
 20 21  1  0  0  0  0
 20 22  1  0  0  0  0
 20 23  1  0  0  0  0
 23 24  1  0  0  0  0
 23 25  1  0  0  0  0
 23 26  1  0  0  0  0
M  END
> <VConfSearch Rank>
83

> <Conf_Id>
19

> <Delta U+W>
0.162

> <U+W>
-5.391

> <U>
47.845

> <W>
-53.235

> <W(PB)>
-55.585

> <W(SA)>
2.349

> <Valence>
2.258

> <Coulomb>
44.893

> <VdW>
0.694

> <VdW6>
-6.285

> <VdW12>
6.979

> <Bond>
0.149

> <Angle>
0.434

> <Pdih>
1.675

> <Idih>
0.000

> <Tether>
0.000

$$$$
VeraChem MOL file


 26 25  0  0  0  0  0  0  0  0999 V2000     
   16.7392   21.5606   23.5285 C   0  0  0  0  0  0  0  0  0  0  0  0
   15.7606   21.0728   23.6271 H   0  0  0  0  0  0  0  0  0  0  0  0
   17.0008   22.0017   24.4992 H   0  0  0  0  0  0  0  0  0  0  0  0
   16.6361   22.3784   22.8035 H   0  0  0  0  0  0  0  0  0  0  0  0
   17.8167   20.5562   23.0676 C   0  0  0  0  0  0  0  0  0  0  0  0
   18.7686   21.0887   22.9412 H   0  0  0  0  0  0  0  0  0  0  0  0
   17.5423   20.1546   22.0821 H   0  0  0  0  0  0  0  0  0  0  0  0
   17.9830   19.3956   24.0769 C   0  0  0  0  0  0  0  0  0  0  0  0
   18.3087   19.7931   25.0481 H   0  0  0  0  0  0  0  0  0  0  0  0
   17.0031   18.9289   24.2482 H   0  0  0  0  0  0  0  0  0  0  0  0
   18.9717   18.3008   23.6060 C   0  0  0  0  0  0  0  0  0  0  0  0
   18.6368   17.8931   22.6422 H   0  0  0  0  0  0  0  0  0  0  0  0
   18.9347   17.4684   24.3223 H   0  0  0  0  0  0  0  0  0  0  0  0
   20.4329   18.7966   23.4848 C   0  0  0  0  0  0  0  0  0  0  0  0
   20.5020   19.5778   22.7164 H   0  0  0  0  0  0  0  0  0  0  0  0
   20.7462   19.2531   24.4340 H   0  0  0  0  0  0  0  0  0  0  0  0
   21.3999   17.6479   23.1228 C   0  0  0  0  0  0  0  0  0  0  0  0
   21.0908   17.1897   22.1738 H   0  0  0  0  0  0  0  0  0  0  0  0
   21.3488   16.8646   23.8909 H   0  0  0  0  0  0  0  0  0  0  0  0
   22.8495   18.1497   23.0005 C   0  0  0  0  0  0  0  0  0  0  0  0
   22.9089   18.9182   22.2250 H   0  0  0  0  0  0  0  0  0  0  0  0
   23.1672   18.5922   23.9485 H   0  0  0  0  0  0  0  0  0  0  0  0
   23.8301   17.0506   22.6456 N   0  3  0  0  0  0  0  0  0  0  0  0
   23.6025   16.6105   21.7480 H   0  0  0  0  0  0  0  0  0  0  0  0
   23.8428   16.3071   23.3516 H   0  0  0  0  0  0  0  0  0  0  0  0
   24.7894   17.4059   22.5691 H   0  0  0  0  0  0  0  0  0  0  0  0
  1  2  1  0  0  0  0
  1  3  1  0  0  0  0
  1  4  1  0  0  0  0
  1  5  1  0  0  0  0
  5  6  1  0  0  0  0
  5  7  1  0  0  0  0
  5  8  1  0  0  0  0
  8  9  1  0  0  0  0
  8 10  1  0  0  0  0
  8 11  1  0  0  0  0
 11 12  1  0  0  0  0
 11 13  1  0  0  0  0
 11 14  1  0  0  0  0
 14 15  1  0  0  0  0
 14 16  1  0  0  0  0
 14 17  1  0  0  0  0
 17 18  1  0  0  0  0
 17 19  1  0  0  0  0
 17 20  1  0  0  0  0
 20 21  1  0  0  0  0
 20 22  1  0  0  0  0
 20 23  1  0  0  0  0
 23 24  1  0  0  0  0
 23 25  1  0  0  0  0
 23 26  1  0  0  0  0
M  END
> <VConfSearch Rank>
84

> <Conf_Id>
37

> <Delta U+W>
0.565

> <U+W>
-4.988

> <U>
48.035

> <W>
-53.022

> <W(PB)>
-55.379

> <W(SA)>
2.357

> <Valence>
2.701

> <Coulomb>
44.622

> <VdW>
0.712

> <VdW6>
-6.418

> <VdW12>
7.129

> <Bond>
0.168

> <Angle>
0.659

> <Pdih>
1.875

> <Idih>
0.000

> <Tether>
0.000

$$$$
VeraChem MOL file


 26 25  0  0  0  0  0  0  0  0999 V2000     
   23.8988   19.6170   23.0373 C   0  0  0  0  0  0  0  0  0  0  0  0
   23.5403   20.6409   22.8691 H   0  0  0  0  0  0  0  0  0  0  0  0
   24.0830   19.4914   24.1123 H   0  0  0  0  0  0  0  0  0  0  0  0
   24.8585   19.5062   22.5159 H   0  0  0  0  0  0  0  0  0  0  0  0
   22.8771   18.5800   22.5246 C   0  0  0  0  0  0  0  0  0  0  0  0
   23.2789   17.5681   22.6747 H   0  0  0  0  0  0  0  0  0  0  0  0
   22.7388   18.7088   21.4419 H   0  0  0  0  0  0  0  0  0  0  0  0
   21.5163   18.7137   23.2435 C   0  0  0  0  0  0  0  0  0  0  0  0
   21.6595   18.5821   24.3249 H   0  0  0  0  0  0  0  0  0  0  0  0
   21.1311   19.7306   23.0934 H   0  0  0  0  0  0  0  0  0  0  0  0
   20.4899   17.6768   22.7270 C   0  0  0  0  0  0  0  0  0  0  0  0
   20.9237   16.6709   22.8135 H   0  0  0  0  0  0  0  0  0  0  0  0
   20.3034   17.8409   21.6567 H   0  0  0  0  0  0  0  0  0  0  0  0
   19.1464   17.6983   23.4969 C   0  0  0  0  0  0  0  0  0  0  0  0
   18.5293   16.8602   23.1440 H   0  0  0  0  0  0  0  0  0  0  0  0
   19.3308   17.5167   24.5648 H   0  0  0  0  0  0  0  0  0  0  0  0
   18.3528   19.0143   23.3211 C   0  0  0  0  0  0  0  0  0  0  0  0
   18.2125   19.2217   22.2519 H   0  0  0  0  0  0  0  0  0  0  0  0
   18.9166   19.8555   23.7435 H   0  0  0  0  0  0  0  0  0  0  0  0
   16.9793   18.9360   24.0108 C   0  0  0  0  0  0  0  0  0  0  0  0
   16.4000   18.1123   23.5850 H   0  0  0  0  0  0  0  0  0  0  0  0
   17.1142   18.7456   25.0790 H   0  0  0  0  0  0  0  0  0  0  0  0
   16.1663   20.2056   23.8610 N   0  3  0  0  0  0  0  0  0  0  0  0
   15.9808   20.4268   22.8771 H   0  0  0  0  0  0  0  0  0  0  0  0
   16.6446   21.0162   24.2677 H   0  0  0  0  0  0  0  0  0  0  0  0
   15.2554   20.1317   24.3271 H   0  0  0  0  0  0  0  0  0  0  0  0
  1  2  1  0  0  0  0
  1  3  1  0  0  0  0
  1  4  1  0  0  0  0
  1  5  1  0  0  0  0
  5  6  1  0  0  0  0
  5  7  1  0  0  0  0
  5  8  1  0  0  0  0
  8  9  1  0  0  0  0
  8 10  1  0  0  0  0
  8 11  1  0  0  0  0
 11 12  1  0  0  0  0
 11 13  1  0  0  0  0
 11 14  1  0  0  0  0
 14 15  1  0  0  0  0
 14 16  1  0  0  0  0
 14 17  1  0  0  0  0
 17 18  1  0  0  0  0
 17 19  1  0  0  0  0
 17 20  1  0  0  0  0
 20 21  1  0  0  0  0
 20 22  1  0  0  0  0
 20 23  1  0  0  0  0
 23 24  1  0  0  0  0
 23 25  1  0  0  0  0
 23 26  1  0  0  0  0
M  END
> <VConfSearch Rank>
85

> <Conf_Id>
35

> <Delta U+W>
0.587

> <U+W>
-4.965

> <U>
48.214

> <W>
-53.179

> <W(PB)>
-55.527

> <W(SA)>
2.348

> <Valence>
2.697

> <Coulomb>
44.819

> <VdW>
0.699

> <VdW6>
-6.437

> <VdW12>
7.136

> <Bond>
0.168

> <Angle>
0.657

> <Pdih>
1.872

> <Idih>
0.000

> <Tether>
0.000

$$$$
VeraChem MOL file


 26 25  0  0  0  0  0  0  0  0999 V2000     
   16.5085   18.8764   21.4033 C   0  0  0  0  0  0  0  0  0  0  0  0
   16.6036   19.8834   20.9766 H   0  0  0  0  0  0  0  0  0  0  0  0
   17.0505   18.1770   20.7535 H   0  0  0  0  0  0  0  0  0  0  0  0
   15.4461   18.6007   21.3831 H   0  0  0  0  0  0  0  0  0  0  0  0
   17.0558   18.8312   22.8458 C   0  0  0  0  0  0  0  0  0  0  0  0
   16.9169   17.8215   23.2571 H   0  0  0  0  0  0  0  0  0  0  0  0
   16.4717   19.5143   23.4784 H   0  0  0  0  0  0  0  0  0  0  0  0
   18.5508   19.2162   22.9030 C   0  0  0  0  0  0  0  0  0  0  0  0
   19.1207   18.5325   22.2604 H   0  0  0  0  0  0  0  0  0  0  0  0
   18.6841   20.2267   22.4928 H   0  0  0  0  0  0  0  0  0  0  0  0
   19.1014   19.1672   24.3486 C   0  0  0  0  0  0  0  0  0  0  0  0
   19.0192   18.1447   24.7423 H   0  0  0  0  0  0  0  0  0  0  0  0
   18.4716   19.7967   24.9924 H   0  0  0  0  0  0  0  0  0  0  0  0
   20.5665   19.6538   24.4705 C   0  0  0  0  0  0  0  0  0  0  0  0
   20.6455   20.6827   24.0930 H   0  0  0  0  0  0  0  0  0  0  0  0
   20.8321   19.6954   25.5361 H   0  0  0  0  0  0  0  0  0  0  0  0
   21.5829   18.7490   23.7351 C   0  0  0  0  0  0  0  0  0  0  0  0
   21.3867   18.7589   22.6557 H   0  0  0  0  0  0  0  0  0  0  0  0
   21.4690   17.7114   24.0763 H   0  0  0  0  0  0  0  0  0  0  0  0
   23.0287   19.2132   23.9851 C   0  0  0  0  0  0  0  0  0  0  0  0
   23.1516   20.2407   23.6321 H   0  0  0  0  0  0  0  0  0  0  0  0
   23.2428   19.1897   25.0570 H   0  0  0  0  0  0  0  0  0  0  0  0
   24.0587   18.3514   23.2838 N   0  3  0  0  0  0  0  0  0  0  0  0
   23.9298   18.3528   22.2666 H   0  0  0  0  0  0  0  0  0  0  0  0
   24.0139   17.3747   23.5925 H   0  0  0  0  0  0  0  0  0  0  0  0
   25.0145   18.6777   23.4639 H   0  0  0  0  0  0  0  0  0  0  0  0
  1  2  1  0  0  0  0
  1  3  1  0  0  0  0
  1  4  1  0  0  0  0
  1  5  1  0  0  0  0
  5  6  1  0  0  0  0
  5  7  1  0  0  0  0
  5  8  1  0  0  0  0
  8  9  1  0  0  0  0
  8 10  1  0  0  0  0
  8 11  1  0  0  0  0
 11 12  1  0  0  0  0
 11 13  1  0  0  0  0
 11 14  1  0  0  0  0
 14 15  1  0  0  0  0
 14 16  1  0  0  0  0
 14 17  1  0  0  0  0
 17 18  1  0  0  0  0
 17 19  1  0  0  0  0
 17 20  1  0  0  0  0
 20 21  1  0  0  0  0
 20 22  1  0  0  0  0
 20 23  1  0  0  0  0
 23 24  1  0  0  0  0
 23 25  1  0  0  0  0
 23 26  1  0  0  0  0
M  END
> <VConfSearch Rank>
86

> <Conf_Id>
36

> <Delta U+W>
0.565

> <U+W>
-4.987

> <U>
48.214

> <W>
-53.201

> <W(PB)>
-55.543

> <W(SA)>
2.342

> <Valence>
2.697

> <Coulomb>
44.819

> <VdW>
0.698

> <VdW6>
-6.437

> <VdW12>
7.136

> <Bond>
0.168

> <Angle>
0.657

> <Pdih>
1.872

> <Idih>
0.000

> <Tether>
0.000

$$$$
VeraChem MOL file


 26 25  0  0  0  0  0  0  0  0999 V2000     
   21.2439   20.1576   27.1932 C   0  0  0  0  0  0  0  0  0  0  0  0
   20.2975   20.4782   27.6479 H   0  0  0  0  0  0  0  0  0  0  0  0
   21.8486   19.6802   27.9751 H   0  0  0  0  0  0  0  0  0  0  0  0
   21.7800   21.0529   26.8522 H   0  0  0  0  0  0  0  0  0  0  0  0
   20.9950   19.1811   26.0242 C   0  0  0  0  0  0  0  0  0  0  0  0
   20.4883   18.2819   26.4019 H   0  0  0  0  0  0  0  0  0  0  0  0
   21.9595   18.8522   25.6125 H   0  0  0  0  0  0  0  0  0  0  0  0
   20.1451   19.8289   24.9087 C   0  0  0  0  0  0  0  0  0  0  0  0
   19.1835   20.1585   25.3260 H   0  0  0  0  0  0  0  0  0  0  0  0
   20.6545   20.7282   24.5356 H   0  0  0  0  0  0  0  0  0  0  0  0
   19.8934   18.8540   23.7363 C   0  0  0  0  0  0  0  0  0  0  0  0
   19.3816   17.9564   24.1102 H   0  0  0  0  0  0  0  0  0  0  0  0
   20.8583   18.5241   23.3285 H   0  0  0  0  0  0  0  0  0  0  0  0
   19.0429   19.5062   22.6199 C   0  0  0  0  0  0  0  0  0  0  0  0
   18.1021   19.8750   23.0514 H   0  0  0  0  0  0  0  0  0  0  0  0
   19.5670   20.3855   22.2202 H   0  0  0  0  0  0  0  0  0  0  0  0
   18.7104   18.5342   21.4635 C   0  0  0  0  0  0  0  0  0  0  0  0
   18.0357   19.0373   20.7581 H   0  0  0  0  0  0  0  0  0  0  0  0
   18.1642   17.6663   21.8563 H   0  0  0  0  0  0  0  0  0  0  0  0
   19.9648   18.0578   20.7072 C   0  0  0  0  0  0  0  0  0  0  0  0
   20.5081   18.9217   20.3150 H   0  0  0  0  0  0  0  0  0  0  0  0
   20.6250   17.5160   21.3892 H   0  0  0  0  0  0  0  0  0  0  0  0
   19.6435   17.1404   19.5451 N   0  3  0  0  0  0  0  0  0  0  0  0
   20.4914   16.8348   19.0551 H   0  0  0  0  0  0  0  0  0  0  0  0
   19.0463   17.5996   18.8496 H   0  0  0  0  0  0  0  0  0  0  0  0
   19.1538   16.2932   19.8510 H   0  0  0  0  0  0  0  0  0  0  0  0
  1  2  1  0  0  0  0
  1  3  1  0  0  0  0
  1  4  1  0  0  0  0
  1  5  1  0  0  0  0
  5  6  1  0  0  0  0
  5  7  1  0  0  0  0
  5  8  1  0  0  0  0
  8  9  1  0  0  0  0
  8 10  1  0  0  0  0
  8 11  1  0  0  0  0
 11 12  1  0  0  0  0
 11 13  1  0  0  0  0
 11 14  1  0  0  0  0
 14 15  1  0  0  0  0
 14 16  1  0  0  0  0
 14 17  1  0  0  0  0
 17 18  1  0  0  0  0
 17 19  1  0  0  0  0
 17 20  1  0  0  0  0
 20 21  1  0  0  0  0
 20 22  1  0  0  0  0
 20 23  1  0  0  0  0
 23 24  1  0  0  0  0
 23 25  1  0  0  0  0
 23 26  1  0  0  0  0
M  END
> <VConfSearch Rank>
87

> <Conf_Id>
44

> <Delta U+W>
0.371

> <U+W>
-5.181

> <U>
48.002

> <W>
-53.183

> <W(PB)>
-55.533

> <W(SA)>
2.350

> <Valence>
2.459

> <Coulomb>
44.901

> <VdW>
0.643

> <VdW6>
-6.362

> <VdW12>
7.005

> <Bond>
0.151

> <Angle>
0.519

> <Pdih>
1.789

> <Idih>
0.000

> <Tether>
0.000

$$$$
VeraChem MOL file


 26 25  0  0  0  0  0  0  0  0999 V2000     
   20.3986   16.0177   25.8945 C   0  0  0  0  0  0  0  0  0  0  0  0
   19.7721   15.3205   25.3233 H   0  0  0  0  0  0  0  0  0  0  0  0
   20.9180   15.4421   26.6716 H   0  0  0  0  0  0  0  0  0  0  0  0
   19.7417   16.7353   26.4010 H   0  0  0  0  0  0  0  0  0  0  0  0
   21.4188   16.7287   24.9763 C   0  0  0  0  0  0  0  0  0  0  0  0
   22.1309   15.9824   24.5972 H   0  0  0  0  0  0  0  0  0  0  0  0
   22.0091   17.4455   25.5640 H   0  0  0  0  0  0  0  0  0  0  0  0
   20.7684   17.4494   23.7705 C   0  0  0  0  0  0  0  0  0  0  0  0
   21.5735   17.7995   23.1121 H   0  0  0  0  0  0  0  0  0  0  0  0
   20.1809   16.7282   23.1860 H   0  0  0  0  0  0  0  0  0  0  0  0
   19.8724   18.6470   24.1778 C   0  0  0  0  0  0  0  0  0  0  0  0
   20.4606   19.3704   24.7590 H   0  0  0  0  0  0  0  0  0  0  0  0
   19.0736   18.2937   24.8425 H   0  0  0  0  0  0  0  0  0  0  0  0
   19.2092   19.3637   22.9756 C   0  0  0  0  0  0  0  0  0  0  0  0
   18.6327   18.6372   22.3864 H   0  0  0  0  0  0  0  0  0  0  0  0
   18.4828   20.0867   23.3694 H   0  0  0  0  0  0  0  0  0  0  0  0
   20.2173   20.0996   22.0570 C   0  0  0  0  0  0  0  0  0  0  0  0
   20.9192   19.3787   21.6204 H   0  0  0  0  0  0  0  0  0  0  0  0
   20.8170   20.8064   22.6456 H   0  0  0  0  0  0  0  0  0  0  0  0
   19.5285   20.8494   20.9002 C   0  0  0  0  0  0  0  0  0  0  0  0
   20.2898   21.2639   20.2336 H   0  0  0  0  0  0  0  0  0  0  0  0
   18.9139   20.1526   20.3239 H   0  0  0  0  0  0  0  0  0  0  0  0
   18.6439   21.9946   21.3531 N   0  3  0  0  0  0  0  0  0  0  0  0
   17.8807   21.6703   21.9550 H   0  0  0  0  0  0  0  0  0  0  0  0
   18.2137   22.4804   20.5587 H   0  0  0  0  0  0  0  0  0  0  0  0
   19.1710   22.6962   21.8832 H   0  0  0  0  0  0  0  0  0  0  0  0
  1  2  1  0  0  0  0
  1  3  1  0  0  0  0
  1  4  1  0  0  0  0
  1  5  1  0  0  0  0
  5  6  1  0  0  0  0
  5  7  1  0  0  0  0
  5  8  1  0  0  0  0
  8  9  1  0  0  0  0
  8 10  1  0  0  0  0
  8 11  1  0  0  0  0
 11 12  1  0  0  0  0
 11 13  1  0  0  0  0
 11 14  1  0  0  0  0
 14 15  1  0  0  0  0
 14 16  1  0  0  0  0
 14 17  1  0  0  0  0
 17 18  1  0  0  0  0
 17 19  1  0  0  0  0
 17 20  1  0  0  0  0
 20 21  1  0  0  0  0
 20 22  1  0  0  0  0
 20 23  1  0  0  0  0
 23 24  1  0  0  0  0
 23 25  1  0  0  0  0
 23 26  1  0  0  0  0
M  END
> <VConfSearch Rank>
88

> <Conf_Id>
112

> <Delta U+W>
1.422

> <U+W>
-4.130

> <U>
49.323

> <W>
-53.453

> <W(PB)>
-55.749

> <W(SA)>
2.296

> <Valence>
3.408

> <Coulomb>
44.893

> <VdW>
1.021

> <VdW6>
-7.481

> <VdW12>
8.503

> <Bond>
0.239

> <Angle>
1.013

> <Pdih>
2.156

> <Idih>
0.000

> <Tether>
0.000

$$$$
VeraChem MOL file


 26 25  0  0  0  0  0  0  0  0999 V2000     
   19.7328   22.4338   24.2738 C   0  0  0  0  0  0  0  0  0  0  0  0
   19.4135   23.4459   24.5543 H   0  0  0  0  0  0  0  0  0  0  0  0
   19.9180   21.8774   25.2011 H   0  0  0  0  0  0  0  0  0  0  0  0
   20.6818   22.5200   23.7288 H   0  0  0  0  0  0  0  0  0  0  0  0
   18.6539   21.7471   23.4061 C   0  0  0  0  0  0  0  0  0  0  0  0
   18.4198   22.3968   22.5512 H   0  0  0  0  0  0  0  0  0  0  0  0
   17.7231   21.6499   23.9822 H   0  0  0  0  0  0  0  0  0  0  0  0
   19.0871   20.3602   22.8728 C   0  0  0  0  0  0  0  0  0  0  0  0
   18.3101   19.9906   22.1896 H   0  0  0  0  0  0  0  0  0  0  0  0
   19.9994   20.4766   22.2733 H   0  0  0  0  0  0  0  0  0  0  0  0
   19.3150   19.3157   23.9947 C   0  0  0  0  0  0  0  0  0  0  0  0
   18.4403   19.3094   24.6596 H   0  0  0  0  0  0  0  0  0  0  0  0
   20.1729   19.6092   24.6141 H   0  0  0  0  0  0  0  0  0  0  0  0
   19.5383   17.8779   23.4648 C   0  0  0  0  0  0  0  0  0  0  0  0
   19.5678   17.1971   24.3257 H   0  0  0  0  0  0  0  0  0  0  0  0
   18.6751   17.5711   22.8580 H   0  0  0  0  0  0  0  0  0  0  0  0
   20.8394   17.7199   22.6384 C   0  0  0  0  0  0  0  0  0  0  0  0
   21.7040   18.0480   23.2306 H   0  0  0  0  0  0  0  0  0  0  0  0
   20.7993   18.3684   21.7545 H   0  0  0  0  0  0  0  0  0  0  0  0
   21.0653   16.2736   22.1567 C   0  0  0  0  0  0  0  0  0  0  0  0
   20.1979   15.9372   21.5823 H   0  0  0  0  0  0  0  0  0  0  0  0
   21.9404   16.2428   21.5019 H   0  0  0  0  0  0  0  0  0  0  0  0
   21.2990   15.2833   23.2808 N   0  3  0  0  0  0  0  0  0  0  0  0
   20.4964   15.2329   23.9158 H   0  0  0  0  0  0  0  0  0  0  0  0
   22.1171   15.5342   23.8453 H   0  0  0  0  0  0  0  0  0  0  0  0
   21.4601   14.3348   22.9250 H   0  0  0  0  0  0  0  0  0  0  0  0
  1  2  1  0  0  0  0
  1  3  1  0  0  0  0
  1  4  1  0  0  0  0
  1  5  1  0  0  0  0
  5  6  1  0  0  0  0
  5  7  1  0  0  0  0
  5  8  1  0  0  0  0
  8  9  1  0  0  0  0
  8 10  1  0  0  0  0
  8 11  1  0  0  0  0
 11 12  1  0  0  0  0
 11 13  1  0  0  0  0
 11 14  1  0  0  0  0
 14 15  1  0  0  0  0
 14 16  1  0  0  0  0
 14 17  1  0  0  0  0
 17 18  1  0  0  0  0
 17 19  1  0  0  0  0
 17 20  1  0  0  0  0
 20 21  1  0  0  0  0
 20 22  1  0  0  0  0
 20 23  1  0  0  0  0
 23 24  1  0  0  0  0
 23 25  1  0  0  0  0
 23 26  1  0  0  0  0
M  END
> <VConfSearch Rank>
89

> <Conf_Id>
130

> <Delta U+W>
1.282

> <U+W>
-4.270

> <U>
49.153

> <W>
-53.422

> <W(PB)>
-55.725

> <W(SA)>
2.303

> <Valence>
3.298

> <Coulomb>
44.907

> <VdW>
0.948

> <VdW6>
-7.574

> <VdW12>
8.522

> <Bond>
0.229

> <Angle>
0.912

> <Pdih>
2.157

> <Idih>
0.000

> <Tether>
0.000

$$$$
VeraChem MOL file


 26 25  0  0  0  0  0  0  0  0999 V2000     
   17.3683   19.6437   21.2524 C   0  0  0  0  0  0  0  0  0  0  0  0
   17.7824   19.9052   20.2700 H   0  0  0  0  0  0  0  0  0  0  0  0
   16.2849   19.8163   21.2174 H   0  0  0  0  0  0  0  0  0  0  0  0
   17.7883   20.3311   21.9973 H   0  0  0  0  0  0  0  0  0  0  0  0
   17.6706   18.1705   21.6082 C   0  0  0  0  0  0  0  0  0  0  0  0
   17.1315   17.5196   20.9058 H   0  0  0  0  0  0  0  0  0  0  0  0
   17.2655   17.9383   22.6021 H   0  0  0  0  0  0  0  0  0  0  0  0
   19.1790   17.8180   21.5474 C   0  0  0  0  0  0  0  0  0  0  0  0
   19.3033   16.7530   21.7873 H   0  0  0  0  0  0  0  0  0  0  0  0
   19.5276   17.9349   20.5120 H   0  0  0  0  0  0  0  0  0  0  0  0
   20.0966   18.6544   22.4766 C   0  0  0  0  0  0  0  0  0  0  0  0
   20.0641   19.7114   22.1812 H   0  0  0  0  0  0  0  0  0  0  0  0
   21.1314   18.3269   22.3118 H   0  0  0  0  0  0  0  0  0  0  0  0
   19.7443   18.5189   23.9797 C   0  0  0  0  0  0  0  0  0  0  0  0
   18.7199   18.8742   24.1506 H   0  0  0  0  0  0  0  0  0  0  0  0
   19.7604   17.4595   24.2709 H   0  0  0  0  0  0  0  0  0  0  0  0
   20.6936   19.3219   24.9000 C   0  0  0  0  0  0  0  0  0  0  0  0
   20.3211   19.2648   25.9314 H   0  0  0  0  0  0  0  0  0  0  0  0
   20.6725   20.3827   24.6165 H   0  0  0  0  0  0  0  0  0  0  0  0
   22.1435   18.8033   24.8613 C   0  0  0  0  0  0  0  0  0  0  0  0
   22.1638   17.7469   25.1424 H   0  0  0  0  0  0  0  0  0  0  0  0
   22.5446   18.8983   23.8491 H   0  0  0  0  0  0  0  0  0  0  0  0
   23.0667   19.5545   25.7987 N   0  3  0  0  0  0  0  0  0  0  0  0
   23.1129   20.5530   25.5706 H   0  0  0  0  0  0  0  0  0  0  0  0
   24.0263   19.1941   25.7582 H   0  0  0  0  0  0  0  0  0  0  0  0
   22.7617   19.4817   26.7749 H   0  0  0  0  0  0  0  0  0  0  0  0
  1  2  1  0  0  0  0
  1  3  1  0  0  0  0
  1  4  1  0  0  0  0
  1  5  1  0  0  0  0
  5  6  1  0  0  0  0
  5  7  1  0  0  0  0
  5  8  1  0  0  0  0
  8  9  1  0  0  0  0
  8 10  1  0  0  0  0
  8 11  1  0  0  0  0
 11 12  1  0  0  0  0
 11 13  1  0  0  0  0
 11 14  1  0  0  0  0
 14 15  1  0  0  0  0
 14 16  1  0  0  0  0
 14 17  1  0  0  0  0
 17 18  1  0  0  0  0
 17 19  1  0  0  0  0
 17 20  1  0  0  0  0
 20 21  1  0  0  0  0
 20 22  1  0  0  0  0
 20 23  1  0  0  0  0
 23 24  1  0  0  0  0
 23 25  1  0  0  0  0
 23 26  1  0  0  0  0
M  END
> <VConfSearch Rank>
90

> <Conf_Id>
111

> <Delta U+W>
1.290

> <U+W>
-4.262

> <U>
49.209

> <W>
-53.471

> <W(PB)>
-55.745

> <W(SA)>
2.274

> <Valence>
3.465

> <Coulomb>
44.958

> <VdW>
0.786

> <VdW6>
-7.903

> <VdW12>
8.689

> <Bond>
0.237

> <Angle>
1.212

> <Pdih>
2.015

> <Idih>
0.000

> <Tether>
0.000

$$$$
VeraChem MOL file


 26 25  0  0  0  0  0  0  0  0999 V2000     
   17.4696   17.5102   26.0024 C   0  0  0  0  0  0  0  0  0  0  0  0
   16.8786   18.4349   26.0341 H   0  0  0  0  0  0  0  0  0  0  0  0
   16.8087   16.6927   25.6859 H   0  0  0  0  0  0  0  0  0  0  0  0
   17.8096   17.2923   27.0231 H   0  0  0  0  0  0  0  0  0  0  0  0
   18.6726   17.6537   25.0462 C   0  0  0  0  0  0  0  0  0  0  0  0
   19.2601   16.7250   25.0582 H   0  0  0  0  0  0  0  0  0  0  0  0
   19.3294   18.4513   25.4179 H   0  0  0  0  0  0  0  0  0  0  0  0
   18.2178   17.9657   23.6008 C   0  0  0  0  0  0  0  0  0  0  0  0
   17.5003   17.1981   23.2793 H   0  0  0  0  0  0  0  0  0  0  0  0
   17.6759   18.9212   23.5810 H   0  0  0  0  0  0  0  0  0  0  0  0
   19.3813   18.0072   22.5797 C   0  0  0  0  0  0  0  0  0  0  0  0
   18.9557   18.1161   21.5725 H   0  0  0  0  0  0  0  0  0  0  0  0
   19.9116   17.0449   22.5878 H   0  0  0  0  0  0  0  0  0  0  0  0
   20.3839   19.1593   22.8299 C   0  0  0  0  0  0  0  0  0  0  0  0
   19.8369   20.1101   22.8804 H   0  0  0  0  0  0  0  0  0  0  0  0
   20.8786   19.0217   23.8003 H   0  0  0  0  0  0  0  0  0  0  0  0
   21.4608   19.2306   21.7214 C   0  0  0  0  0  0  0  0  0  0  0  0
   20.9871   19.4061   20.7463 H   0  0  0  0  0  0  0  0  0  0  0  0
   21.9740   18.2623   21.6507 H   0  0  0  0  0  0  0  0  0  0  0  0
   22.5149   20.3232   21.9847 C   0  0  0  0  0  0  0  0  0  0  0  0
   22.9851   20.1544   22.9573 H   0  0  0  0  0  0  0  0  0  0  0  0
   23.2916   20.2703   21.2169 H   0  0  0  0  0  0  0  0  0  0  0  0
   21.9514   21.7306   21.9724 N   0  3  0  0  0  0  0  0  0  0  0  0
   22.6797   22.4338   22.1378 H   0  0  0  0  0  0  0  0  0  0  0  0
   21.2387   21.8607   22.6970 H   0  0  0  0  0  0  0  0  0  0  0  0
   21.5147   21.9579   21.0731 H   0  0  0  0  0  0  0  0  0  0  0  0
  1  2  1  0  0  0  0
  1  3  1  0  0  0  0
  1  4  1  0  0  0  0
  1  5  1  0  0  0  0
  5  6  1  0  0  0  0
  5  7  1  0  0  0  0
  5  8  1  0  0  0  0
  8  9  1  0  0  0  0
  8 10  1  0  0  0  0
  8 11  1  0  0  0  0
 11 12  1  0  0  0  0
 11 13  1  0  0  0  0
 11 14  1  0  0  0  0
 14 15  1  0  0  0  0
 14 16  1  0  0  0  0
 14 17  1  0  0  0  0
 17 18  1  0  0  0  0
 17 19  1  0  0  0  0
 17 20  1  0  0  0  0
 20 21  1  0  0  0  0
 20 22  1  0  0  0  0
 20 23  1  0  0  0  0
 23 24  1  0  0  0  0
 23 25  1  0  0  0  0
 23 26  1  0  0  0  0
M  END
> <VConfSearch Rank>
91

> <Conf_Id>
105

> <Delta U+W>
0.736

> <U+W>
-4.817

> <U>
48.735

> <W>
-53.552

> <W(PB)>
-55.889

> <W(SA)>
2.337

> <Valence>
2.803

> <Coulomb>
45.123

> <VdW>
0.809

> <VdW6>
-6.953

> <VdW12>
7.761

> <Bond>
0.188

> <Angle>
0.699

> <Pdih>
1.917

> <Idih>
0.000

> <Tether>
0.000

$$$$
VeraChem MOL file


 26 25  0  0  0  0  0  0  0  0999 V2000     
   23.5204   19.8771   24.1226 C   0  0  0  0  0  0  0  0  0  0  0  0
   23.8280   20.0797   25.1568 H   0  0  0  0  0  0  0  0  0  0  0  0
   23.7819   18.8376   23.8854 H   0  0  0  0  0  0  0  0  0  0  0  0
   24.1056   20.5309   23.4631 H   0  0  0  0  0  0  0  0  0  0  0  0
   22.0087   20.1252   23.9341 C   0  0  0  0  0  0  0  0  0  0  0  0
   21.7479   19.9514   22.8817 H   0  0  0  0  0  0  0  0  0  0  0  0
   21.7823   21.1787   24.1495 H   0  0  0  0  0  0  0  0  0  0  0  0
   21.1621   19.2112   24.8510 C   0  0  0  0  0  0  0  0  0  0  0  0
   21.3568   18.1583   24.6084 H   0  0  0  0  0  0  0  0  0  0  0  0
   21.4922   19.3454   25.8903 H   0  0  0  0  0  0  0  0  0  0  0  0
   19.6400   19.5005   24.7830 C   0  0  0  0  0  0  0  0  0  0  0  0
   19.4559   20.5186   25.1529 H   0  0  0  0  0  0  0  0  0  0  0  0
   19.1224   18.8296   25.4826 H   0  0  0  0  0  0  0  0  0  0  0  0
   18.9947   19.3577   23.3800 C   0  0  0  0  0  0  0  0  0  0  0  0
   17.9286   19.6036   23.4716 H   0  0  0  0  0  0  0  0  0  0  0  0
   19.4178   20.1036   22.6943 H   0  0  0  0  0  0  0  0  0  0  0  0
   19.1451   17.9415   22.7702 C   0  0  0  0  0  0  0  0  0  0  0  0
   18.7411   17.1892   23.4605 H   0  0  0  0  0  0  0  0  0  0  0  0
   20.2085   17.7069   22.6358 H   0  0  0  0  0  0  0  0  0  0  0  0
   18.4527   17.8078   21.4001 C   0  0  0  0  0  0  0  0  0  0  0  0
   18.8394   18.5682   20.7164 H   0  0  0  0  0  0  0  0  0  0  0  0
   18.6747   16.8243   20.9769 H   0  0  0  0  0  0  0  0  0  0  0  0
   16.9444   17.9509   21.4600 N   0  3  0  0  0  0  0  0  0  0  0  0
   16.6637   18.8703   21.8147 H   0  0  0  0  0  0  0  0  0  0  0  0
   16.5193   17.2470   22.0722 H   0  0  0  0  0  0  0  0  0  0  0  0
   16.5147   17.8421   20.5349 H   0  0  0  0  0  0  0  0  0  0  0  0
  1  2  1  0  0  0  0
  1  3  1  0  0  0  0
  1  4  1  0  0  0  0
  1  5  1  0  0  0  0
  5  6  1  0  0  0  0
  5  7  1  0  0  0  0
  5  8  1  0  0  0  0
  8  9  1  0  0  0  0
  8 10  1  0  0  0  0
  8 11  1  0  0  0  0
 11 12  1  0  0  0  0
 11 13  1  0  0  0  0
 11 14  1  0  0  0  0
 14 15  1  0  0  0  0
 14 16  1  0  0  0  0
 14 17  1  0  0  0  0
 17 18  1  0  0  0  0
 17 19  1  0  0  0  0
 17 20  1  0  0  0  0
 20 21  1  0  0  0  0
 20 22  1  0  0  0  0
 20 23  1  0  0  0  0
 23 24  1  0  0  0  0
 23 25  1  0  0  0  0
 23 26  1  0  0  0  0
M  END
> <VConfSearch Rank>
92

> <Conf_Id>
144

> <Delta U+W>
1.073

> <U+W>
-4.479

> <U>
49.231

> <W>
-53.710

> <W(PB)>
-55.983

> <W(SA)>
2.273

> <Valence>
3.276

> <Coulomb>
45.175

> <VdW>
0.779

> <VdW6>
-7.944

> <VdW12>
8.723

> <Bond>
0.239

> <Angle>
1.155

> <Pdih>
1.883

> <Idih>
0.000

> <Tether>
0.000

$$$$
VeraChem MOL file


 26 25  0  0  0  0  0  0  0  0999 V2000     
   16.9580   19.2854   21.2195 C   0  0  0  0  0  0  0  0  0  0  0  0
   16.6357   20.0877   21.8944 H   0  0  0  0  0  0  0  0  0  0  0  0
   16.4772   19.4603   20.2483 H   0  0  0  0  0  0  0  0  0  0  0  0
   16.5815   18.3323   21.6130 H   0  0  0  0  0  0  0  0  0  0  0  0
   18.4955   19.2537   21.0627 C   0  0  0  0  0  0  0  0  0  0  0  0
   18.8521   20.2282   20.7008 H   0  0  0  0  0  0  0  0  0  0  0  0
   18.7534   18.5236   20.2828 H   0  0  0  0  0  0  0  0  0  0  0  0
   19.2427   18.8714   22.3636 C   0  0  0  0  0  0  0  0  0  0  0  0
   18.8680   17.9069   22.7326 H   0  0  0  0  0  0  0  0  0  0  0  0
   20.3000   18.7256   22.1095 H   0  0  0  0  0  0  0  0  0  0  0  0
   19.1320   19.9426   23.4771 C   0  0  0  0  0  0  0  0  0  0  0  0
   18.0748   20.1686   23.6647 H   0  0  0  0  0  0  0  0  0  0  0  0
   19.5869   20.8793   23.1268 H   0  0  0  0  0  0  0  0  0  0  0  0
   19.7718   19.5333   24.8294 C   0  0  0  0  0  0  0  0  0  0  0  0
   19.5940   20.3520   25.5404 H   0  0  0  0  0  0  0  0  0  0  0  0
   19.2491   18.6606   25.2451 H   0  0  0  0  0  0  0  0  0  0  0  0
   21.2968   19.2633   24.7775 C   0  0  0  0  0  0  0  0  0  0  0  0
   21.7263   19.4933   25.7617 H   0  0  0  0  0  0  0  0  0  0  0  0
   21.7773   19.9446   24.0628 H   0  0  0  0  0  0  0  0  0  0  0  0
   21.6388   17.7993   24.4377 C   0  0  0  0  0  0  0  0  0  0  0  0
   21.1983   17.1374   25.1883 H   0  0  0  0  0  0  0  0  0  0  0  0
   21.2274   17.5298   23.4633 H   0  0  0  0  0  0  0  0  0  0  0  0
   23.1299   17.5337   24.4004 N   0  3  0  0  0  0  0  0  0  0  0  0
   23.5763   17.7355   25.3011 H   0  0  0  0  0  0  0  0  0  0  0  0
   23.6028   18.1070   23.6942 H   0  0  0  0  0  0  0  0  0  0  0  0
   23.3371   16.5540   24.1778 H   0  0  0  0  0  0  0  0  0  0  0  0
  1  2  1  0  0  0  0
  1  3  1  0  0  0  0
  1  4  1  0  0  0  0
  1  5  1  0  0  0  0
  5  6  1  0  0  0  0
  5  7  1  0  0  0  0
  5  8  1  0  0  0  0
  8  9  1  0  0  0  0
  8 10  1  0  0  0  0
  8 11  1  0  0  0  0
 11 12  1  0  0  0  0
 11 13  1  0  0  0  0
 11 14  1  0  0  0  0
 14 15  1  0  0  0  0
 14 16  1  0  0  0  0
 14 17  1  0  0  0  0
 17 18  1  0  0  0  0
 17 19  1  0  0  0  0
 17 20  1  0  0  0  0
 20 21  1  0  0  0  0
 20 22  1  0  0  0  0
 20 23  1  0  0  0  0
 23 24  1  0  0  0  0
 23 25  1  0  0  0  0
 23 26  1  0  0  0  0
M  END
> <VConfSearch Rank>
93

> <Conf_Id>
93

> <Delta U+W>
3.253

> <U+W>
-2.300

> <U>
51.609

> <W>
-53.909

> <W(PB)>
-56.178

> <W(SA)>
2.270

> <Valence>
5.204

> <Coulomb>
45.645

> <VdW>
0.760

> <VdW6>
-7.997

> <VdW12>
8.758

> <Bond>
0.240

> <Angle>
1.456

> <Pdih>
3.507

> <Idih>
0.000

> <Tether>
0.000

$$$$
VeraChem MOL file


 26 25  0  0  0  0  0  0  0  0999 V2000     
   17.1471   17.7520   25.1712 C   0  0  0  0  0  0  0  0  0  0  0  0
   17.5961   16.7513   25.1653 H   0  0  0  0  0  0  0  0  0  0  0  0
   17.5151   18.2893   26.0548 H   0  0  0  0  0  0  0  0  0  0  0  0
   16.0627   17.6247   25.2839 H   0  0  0  0  0  0  0  0  0  0  0  0
   17.4674   18.5297   23.8742 C   0  0  0  0  0  0  0  0  0  0  0  0
   16.8913   19.4656   23.8752 H   0  0  0  0  0  0  0  0  0  0  0  0
   17.1208   17.9570   23.0026 H   0  0  0  0  0  0  0  0  0  0  0  0
   18.9681   18.8738   23.7133 C   0  0  0  0  0  0  0  0  0  0  0  0
   19.0643   19.5509   22.8553 H   0  0  0  0  0  0  0  0  0  0  0  0
   19.3148   19.4278   24.5964 H   0  0  0  0  0  0  0  0  0  0  0  0
   19.8653   17.6324   23.4821 C   0  0  0  0  0  0  0  0  0  0  0  0
   19.5639   17.1346   22.5502 H   0  0  0  0  0  0  0  0  0  0  0  0
   19.6969   16.9037   24.2850 H   0  0  0  0  0  0  0  0  0  0  0  0
   21.3854   17.9368   23.4354 C   0  0  0  0  0  0  0  0  0  0  0  0
   21.7207   18.3321   24.4043 H   0  0  0  0  0  0  0  0  0  0  0  0
   21.9103   16.9798   23.3078 H   0  0  0  0  0  0  0  0  0  0  0  0
   21.8288   18.8852   22.2931 C   0  0  0  0  0  0  0  0  0  0  0  0
   21.2198   18.7079   21.3966 H   0  0  0  0  0  0  0  0  0  0  0  0
   22.8636   18.6414   22.0179 H   0  0  0  0  0  0  0  0  0  0  0  0
   21.7788   20.3734   22.6912 C   0  0  0  0  0  0  0  0  0  0  0  0
   20.7632   20.6568   22.9736 H   0  0  0  0  0  0  0  0  0  0  0  0
   22.4315   20.5436   23.5517 H   0  0  0  0  0  0  0  0  0  0  0  0
   22.2252   21.2987   21.5779 N   0  3  0  0  0  0  0  0  0  0  0  0
   23.1893   21.1076   21.2861 H   0  0  0  0  0  0  0  0  0  0  0  0
   22.1898   22.2834   21.8634 H   0  0  0  0  0  0  0  0  0  0  0  0
   21.6343   21.2077   20.7450 H   0  0  0  0  0  0  0  0  0  0  0  0
  1  2  1  0  0  0  0
  1  3  1  0  0  0  0
  1  4  1  0  0  0  0
  1  5  1  0  0  0  0
  5  6  1  0  0  0  0
  5  7  1  0  0  0  0
  5  8  1  0  0  0  0
  8  9  1  0  0  0  0
  8 10  1  0  0  0  0
  8 11  1  0  0  0  0
 11 12  1  0  0  0  0
 11 13  1  0  0  0  0
 11 14  1  0  0  0  0
 14 15  1  0  0  0  0
 14 16  1  0  0  0  0
 14 17  1  0  0  0  0
 17 18  1  0  0  0  0
 17 19  1  0  0  0  0
 17 20  1  0  0  0  0
 20 21  1  0  0  0  0
 20 22  1  0  0  0  0
 20 23  1  0  0  0  0
 23 24  1  0  0  0  0
 23 25  1  0  0  0  0
 23 26  1  0  0  0  0
M  END
> <VConfSearch Rank>
94

> <Conf_Id>
94

> <Delta U+W>
3.247

> <U+W>
-2.305

> <U>
51.609

> <W>
-53.914

> <W(PB)>
-56.221

> <W(SA)>
2.307

> <Valence>
5.204

> <Coulomb>
45.645

> <VdW>
0.760

> <VdW6>
-7.997

> <VdW12>
8.757

> <Bond>
0.240

> <Angle>
1.456

> <Pdih>
3.508

> <Idih>
0.000

> <Tether>
0.000

$$$$
VeraChem MOL file


 26 25  0  0  0  0  0  0  0  0999 V2000     
   22.6865   17.0226   25.7351 C   0  0  0  0  0  0  0  0  0  0  0  0
   23.6091   16.9740   25.1420 H   0  0  0  0  0  0  0  0  0  0  0  0
   22.7562   17.8892   26.4054 H   0  0  0  0  0  0  0  0  0  0  0  0
   22.6375   16.1190   26.3565 H   0  0  0  0  0  0  0  0  0  0  0  0
   21.4456   17.1250   24.8232 C   0  0  0  0  0  0  0  0  0  0  0  0
   20.5379   17.1374   25.4429 H   0  0  0  0  0  0  0  0  0  0  0  0
   21.3842   16.2293   24.1891 H   0  0  0  0  0  0  0  0  0  0  0  0
   21.4896   18.3894   23.9369 C   0  0  0  0  0  0  0  0  0  0  0  0
   21.5529   19.2817   24.5749 H   0  0  0  0  0  0  0  0  0  0  0  0
   22.3999   18.3735   23.3217 H   0  0  0  0  0  0  0  0  0  0  0  0
   20.2487   18.4951   23.0219 C   0  0  0  0  0  0  0  0  0  0  0  0
   19.3431   18.5028   23.6429 H   0  0  0  0  0  0  0  0  0  0  0  0
   20.1887   17.6038   22.3820 H   0  0  0  0  0  0  0  0  0  0  0  0
   20.2945   19.7637   22.1368 C   0  0  0  0  0  0  0  0  0  0  0  0
   20.3298   20.6589   22.7719 H   0  0  0  0  0  0  0  0  0  0  0  0
   21.2279   19.7645   21.5570 H   0  0  0  0  0  0  0  0  0  0  0  0
   19.1031   19.8629   21.1513 C   0  0  0  0  0  0  0  0  0  0  0  0
   19.1295   19.0066   20.4643 H   0  0  0  0  0  0  0  0  0  0  0  0
   19.2214   20.7590   20.5278 H   0  0  0  0  0  0  0  0  0  0  0  0
   17.7222   19.9043   21.8369 C   0  0  0  0  0  0  0  0  0  0  0  0
   16.9397   19.9472   21.0744 H   0  0  0  0  0  0  0  0  0  0  0  0
   17.5733   18.9947   22.4245 H   0  0  0  0  0  0  0  0  0  0  0  0
   17.5355   21.0943   22.7571 N   0  3  0  0  0  0  0  0  0  0  0  0
   17.6354   21.9825   22.2551 H   0  0  0  0  0  0  0  0  0  0  0  0
   18.2235   21.0958   23.5164 H   0  0  0  0  0  0  0  0  0  0  0  0
   16.6063   21.0983   23.1915 H   0  0  0  0  0  0  0  0  0  0  0  0
  1  2  1  0  0  0  0
  1  3  1  0  0  0  0
  1  4  1  0  0  0  0
  1  5  1  0  0  0  0
  5  6  1  0  0  0  0
  5  7  1  0  0  0  0
  5  8  1  0  0  0  0
  8  9  1  0  0  0  0
  8 10  1  0  0  0  0
  8 11  1  0  0  0  0
 11 12  1  0  0  0  0
 11 13  1  0  0  0  0
 11 14  1  0  0  0  0
 14 15  1  0  0  0  0
 14 16  1  0  0  0  0
 14 17  1  0  0  0  0
 17 18  1  0  0  0  0
 17 19  1  0  0  0  0
 17 20  1  0  0  0  0
 20 21  1  0  0  0  0
 20 22  1  0  0  0  0
 20 23  1  0  0  0  0
 23 24  1  0  0  0  0
 23 25  1  0  0  0  0
 23 26  1  0  0  0  0
M  END
> <VConfSearch Rank>
95

> <Conf_Id>
83

> <Delta U+W>
0.559

> <U+W>
-4.994

> <U>
48.668

> <W>
-53.661

> <W(PB)>
-55.972

> <W(SA)>
2.311

> <Valence>
2.543

> <Coulomb>
45.478

> <VdW>
0.646

> <VdW6>
-7.096

> <VdW12>
7.742

> <Bond>
0.176

> <Angle>
0.630

> <Pdih>
1.738

> <Idih>
0.000

> <Tether>
0.000

$$$$
VeraChem MOL file


 26 25  0  0  0  0  0  0  0  0999 V2000     
   16.9073   20.1072   21.2308 C   0  0  0  0  0  0  0  0  0  0  0  0
   16.6263   19.5177   20.3484 H   0  0  0  0  0  0  0  0  0  0  0  0
   16.1722   19.9100   22.0221 H   0  0  0  0  0  0  0  0  0  0  0  0
   16.8367   21.1693   20.9624 H   0  0  0  0  0  0  0  0  0  0  0  0
   18.3352   19.7576   21.7009 C   0  0  0  0  0  0  0  0  0  0  0  0
   18.5939   20.3950   22.5567 H   0  0  0  0  0  0  0  0  0  0  0  0
   19.0500   19.9928   20.9000 H   0  0  0  0  0  0  0  0  0  0  0  0
   18.4579   18.2651   22.0892 C   0  0  0  0  0  0  0  0  0  0  0  0
   17.7819   18.0432   22.9265 H   0  0  0  0  0  0  0  0  0  0  0  0
   18.1165   17.6483   21.2463 H   0  0  0  0  0  0  0  0  0  0  0  0
   19.8994   17.8359   22.4578 C   0  0  0  0  0  0  0  0  0  0  0  0
   20.5721   18.0447   21.6145 H   0  0  0  0  0  0  0  0  0  0  0  0
   19.9112   16.7462   22.5990 H   0  0  0  0  0  0  0  0  0  0  0  0
   20.4399   18.5162   23.7386 C   0  0  0  0  0  0  0  0  0  0  0  0
   20.5005   19.6005   23.5836 H   0  0  0  0  0  0  0  0  0  0  0  0
   19.7378   18.3489   24.5671 H   0  0  0  0  0  0  0  0  0  0  0  0
   21.8351   17.9733   24.1290 C   0  0  0  0  0  0  0  0  0  0  0  0
   22.5519   18.1599   23.3182 H   0  0  0  0  0  0  0  0  0  0  0  0
   21.7800   16.8836   24.2537 H   0  0  0  0  0  0  0  0  0  0  0  0
   22.3681   18.5863   25.4384 C   0  0  0  0  0  0  0  0  0  0  0  0
   21.6526   18.4091   26.2459 H   0  0  0  0  0  0  0  0  0  0  0  0
   23.3116   18.1033   25.7070 H   0  0  0  0  0  0  0  0  0  0  0  0
   22.6236   20.0785   25.3550 N   0  3  0  0  0  0  0  0  0  0  0  0
   21.7672   20.5992   25.1424 H   0  0  0  0  0  0  0  0  0  0  0  0
   23.3071   20.3075   24.6260 H   0  0  0  0  0  0  0  0  0  0  0  0
   22.9906   20.4516   26.2373 H   0  0  0  0  0  0  0  0  0  0  0  0
  1  2  1  0  0  0  0
  1  3  1  0  0  0  0
  1  4  1  0  0  0  0
  1  5  1  0  0  0  0
  5  6  1  0  0  0  0
  5  7  1  0  0  0  0
  5  8  1  0  0  0  0
  8  9  1  0  0  0  0
  8 10  1  0  0  0  0
  8 11  1  0  0  0  0
 11 12  1  0  0  0  0
 11 13  1  0  0  0  0
 11 14  1  0  0  0  0
 14 15  1  0  0  0  0
 14 16  1  0  0  0  0
 14 17  1  0  0  0  0
 17 18  1  0  0  0  0
 17 19  1  0  0  0  0
 17 20  1  0  0  0  0
 20 21  1  0  0  0  0
 20 22  1  0  0  0  0
 20 23  1  0  0  0  0
 23 24  1  0  0  0  0
 23 25  1  0  0  0  0
 23 26  1  0  0  0  0
M  END
> <VConfSearch Rank>
96

> <Conf_Id>
18

> <Delta U+W>
0.759

> <U+W>
-4.793

> <U>
48.945

> <W>
-53.738

> <W(PB)>
-56.051

> <W(SA)>
2.313

> <Valence>
2.802

> <Coulomb>
45.335

> <VdW>
0.807

> <VdW6>
-6.962

> <VdW12>
7.769

> <Bond>
0.189

> <Angle>
0.696

> <Pdih>
1.917

> <Idih>
0.000

> <Tether>
0.000

$$$$
VeraChem MOL file


 26 25  0  0  0  0  0  0  0  0999 V2000     
   18.8310   15.9599   20.8648 C   0  0  0  0  0  0  0  0  0  0  0  0
   18.8594   15.1608   21.6171 H   0  0  0  0  0  0  0  0  0  0  0  0
   17.8185   15.9959   20.4421 H   0  0  0  0  0  0  0  0  0  0  0  0
   19.5233   15.6876   20.0576 H   0  0  0  0  0  0  0  0  0  0  0  0
   19.2231   17.3183   21.4839 C   0  0  0  0  0  0  0  0  0  0  0  0
   19.2141   18.0908   20.7023 H   0  0  0  0  0  0  0  0  0  0  0  0
   20.2536   17.2546   21.8575 H   0  0  0  0  0  0  0  0  0  0  0  0
   18.2632   17.7214   22.6282 C   0  0  0  0  0  0  0  0  0  0  0  0
   17.2311   17.6989   22.2521 H   0  0  0  0  0  0  0  0  0  0  0  0
   18.3135   16.9760   23.4339 H   0  0  0  0  0  0  0  0  0  0  0  0
   18.5433   19.1304   23.2063 C   0  0  0  0  0  0  0  0  0  0  0  0
   17.7458   19.3768   23.9209 H   0  0  0  0  0  0  0  0  0  0  0  0
   18.4785   19.8770   22.4027 H   0  0  0  0  0  0  0  0  0  0  0  0
   19.9124   19.2469   23.9187 C   0  0  0  0  0  0  0  0  0  0  0  0
   19.9941   18.4651   24.6865 H   0  0  0  0  0  0  0  0  0  0  0  0
   20.7203   19.0734   23.1972 H   0  0  0  0  0  0  0  0  0  0  0  0
   20.0986   20.6350   24.5761 C   0  0  0  0  0  0  0  0  0  0  0  0
   19.2723   20.8205   25.2753 H   0  0  0  0  0  0  0  0  0  0  0  0
   20.0460   21.4229   23.8129 H   0  0  0  0  0  0  0  0  0  0  0  0
   21.4262   20.7551   25.3492 C   0  0  0  0  0  0  0  0  0  0  0  0
   21.4615   21.7207   25.8609 H   0  0  0  0  0  0  0  0  0  0  0  0
   21.4850   19.9667   26.1045 H   0  0  0  0  0  0  0  0  0  0  0  0
   22.6568   20.6565   24.4691 N   0  3  0  0  0  0  0  0  0  0  0  0
   22.6704   21.3874   23.7503 H   0  0  0  0  0  0  0  0  0  0  0  0
   22.7068   19.7545   23.9856 H   0  0  0  0  0  0  0  0  0  0  0  0
   23.5217   20.7545   25.0120 H   0  0  0  0  0  0  0  0  0  0  0  0
  1  2  1  0  0  0  0
  1  3  1  0  0  0  0
  1  4  1  0  0  0  0
  1  5  1  0  0  0  0
  5  6  1  0  0  0  0
  5  7  1  0  0  0  0
  5  8  1  0  0  0  0
  8  9  1  0  0  0  0
  8 10  1  0  0  0  0
  8 11  1  0  0  0  0
 11 12  1  0  0  0  0
 11 13  1  0  0  0  0
 11 14  1  0  0  0  0
 14 15  1  0  0  0  0
 14 16  1  0  0  0  0
 14 17  1  0  0  0  0
 17 18  1  0  0  0  0
 17 19  1  0  0  0  0
 17 20  1  0  0  0  0
 20 21  1  0  0  0  0
 20 22  1  0  0  0  0
 20 23  1  0  0  0  0
 23 24  1  0  0  0  0
 23 25  1  0  0  0  0
 23 26  1  0  0  0  0
M  END
> <VConfSearch Rank>
97

> <Conf_Id>
17

> <Delta U+W>
0.843

> <U+W>
-4.709

> <U>
48.945

> <W>
-53.653

> <W(PB)>
-55.991

> <W(SA)>
2.338

> <Valence>
2.802

> <Coulomb>
45.335

> <VdW>
0.807

> <VdW6>
-6.962

> <VdW12>
7.769

> <Bond>
0.189

> <Angle>
0.696

> <Pdih>
1.917

> <Idih>
0.000

> <Tether>
0.000

$$$$
VeraChem MOL file


 26 25  0  0  0  0  0  0  0  0999 V2000     
   21.3349   19.8753   26.3125 C   0  0  0  0  0  0  0  0  0  0  0  0
   21.9161   19.8297   25.3832 H   0  0  0  0  0  0  0  0  0  0  0  0
   20.7890   20.8275   26.3312 H   0  0  0  0  0  0  0  0  0  0  0  0
   22.0479   19.8808   27.1471 H   0  0  0  0  0  0  0  0  0  0  0  0
   20.3666   18.6769   26.4366 C   0  0  0  0  0  0  0  0  0  0  0  0
   19.9015   18.6995   27.4320 H   0  0  0  0  0  0  0  0  0  0  0  0
   20.9333   17.7368   26.3835 H   0  0  0  0  0  0  0  0  0  0  0  0
   19.2484   18.6752   25.3663 C   0  0  0  0  0  0  0  0  0  0  0  0
   18.5477   17.8607   25.5964 H   0  0  0  0  0  0  0  0  0  0  0  0
   18.6719   19.6079   25.4368 H   0  0  0  0  0  0  0  0  0  0  0  0
   19.7763   18.4958   23.9227 C   0  0  0  0  0  0  0  0  0  0  0  0
   20.3928   17.5880   23.8687 H   0  0  0  0  0  0  0  0  0  0  0  0
   20.4265   19.3403   23.6620 H   0  0  0  0  0  0  0  0  0  0  0  0
   18.6199   18.3966   22.8989 C   0  0  0  0  0  0  0  0  0  0  0  0
   17.9491   17.5763   23.1894 H   0  0  0  0  0  0  0  0  0  0  0  0
   18.0182   19.3156   22.9293 H   0  0  0  0  0  0  0  0  0  0  0  0
   19.1087   18.1477   21.4525 C   0  0  0  0  0  0  0  0  0  0  0  0
   18.2362   17.9994   20.8023 H   0  0  0  0  0  0  0  0  0  0  0  0
   19.6908   17.2173   21.4147 H   0  0  0  0  0  0  0  0  0  0  0  0
   19.9548   19.3108   20.9013 C   0  0  0  0  0  0  0  0  0  0  0  0
   19.3752   20.2371   20.9384 H   0  0  0  0  0  0  0  0  0  0  0  0
   20.8506   19.4401   21.5140 H   0  0  0  0  0  0  0  0  0  0  0  0
   20.3989   19.0939   19.4692 N   0  3  0  0  0  0  0  0  0  0  0  0
   20.9603   19.8789   19.1212 H   0  0  0  0  0  0  0  0  0  0  0  0
   19.6013   18.9926   18.8330 H   0  0  0  0  0  0  0  0  0  0  0  0
   20.9725   18.2499   19.3706 H   0  0  0  0  0  0  0  0  0  0  0  0
  1  2  1  0  0  0  0
  1  3  1  0  0  0  0
  1  4  1  0  0  0  0
  1  5  1  0  0  0  0
  5  6  1  0  0  0  0
  5  7  1  0  0  0  0
  5  8  1  0  0  0  0
  8  9  1  0  0  0  0
  8 10  1  0  0  0  0
  8 11  1  0  0  0  0
 11 12  1  0  0  0  0
 11 13  1  0  0  0  0
 11 14  1  0  0  0  0
 14 15  1  0  0  0  0
 14 16  1  0  0  0  0
 14 17  1  0  0  0  0
 17 18  1  0  0  0  0
 17 19  1  0  0  0  0
 17 20  1  0  0  0  0
 20 21  1  0  0  0  0
 20 22  1  0  0  0  0
 20 23  1  0  0  0  0
 23 24  1  0  0  0  0
 23 25  1  0  0  0  0
 23 26  1  0  0  0  0
M  END
> <VConfSearch Rank>
98

> <Conf_Id>
96

> <Delta U+W>
0.912

> <U+W>
-4.640

> <U>
48.723

> <W>
-53.364

> <W(PB)>
-55.683

> <W(SA)>
2.320

> <Valence>
2.962

> <Coulomb>
44.993

> <VdW>
0.768

> <VdW6>
-7.008

> <VdW12>
7.776

> <Bond>
0.188

> <Angle>
0.757

> <Pdih>
2.018

> <Idih>
0.000

> <Tether>
0.000

$$$$
VeraChem MOL file


 26 25  0  0  0  0  0  0  0  0999 V2000     
   21.4209   17.6171   20.4353 C   0  0  0  0  0  0  0  0  0  0  0  0
   22.0297   17.5662   19.5233 H   0  0  0  0  0  0  0  0  0  0  0  0
   20.6607   16.8274   20.3758 H   0  0  0  0  0  0  0  0  0  0  0  0
   20.9097   18.5877   20.4362 H   0  0  0  0  0  0  0  0  0  0  0  0
   22.3084   17.4410   21.6883 C   0  0  0  0  0  0  0  0  0  0  0  0
   23.0392   18.2600   21.7417 H   0  0  0  0  0  0  0  0  0  0  0  0
   22.8914   16.5155   21.5816 H   0  0  0  0  0  0  0  0  0  0  0  0
   21.5033   17.3708   23.0084 C   0  0  0  0  0  0  0  0  0  0  0  0
   20.7883   16.5381   22.9581 H   0  0  0  0  0  0  0  0  0  0  0  0
   22.1969   17.1336   23.8269 H   0  0  0  0  0  0  0  0  0  0  0  0
   20.7540   18.6825   23.3445 C   0  0  0  0  0  0  0  0  0  0  0  0
   20.0129   18.8924   22.5631 H   0  0  0  0  0  0  0  0  0  0  0  0
   21.4649   19.5202   23.3453 H   0  0  0  0  0  0  0  0  0  0  0  0
   20.0486   18.6022   24.7197 C   0  0  0  0  0  0  0  0  0  0  0  0
   19.3154   17.7837   24.7129 H   0  0  0  0  0  0  0  0  0  0  0  0
   20.7888   18.3497   25.4916 H   0  0  0  0  0  0  0  0  0  0  0  0
   19.3460   19.9208   25.1201 C   0  0  0  0  0  0  0  0  0  0  0  0
   20.0811   20.7362   25.1506 H   0  0  0  0  0  0  0  0  0  0  0  0
   18.9486   19.8176   26.1386 H   0  0  0  0  0  0  0  0  0  0  0  0
   18.1957   20.2959   24.1670 C   0  0  0  0  0  0  0  0  0  0  0  0
   18.5854   20.4459   23.1569 H   0  0  0  0  0  0  0  0  0  0  0  0
   17.4634   19.4845   24.1370 H   0  0  0  0  0  0  0  0  0  0  0  0
   17.4737   21.5625   24.5791 N   0  3  0  0  0  0  0  0  0  0  0  0
   18.1033   22.3713   24.6011 H   0  0  0  0  0  0  0  0  0  0  0  0
   17.0574   21.4786   25.5123 H   0  0  0  0  0  0  0  0  0  0  0  0
   16.7119   21.7946   23.9323 H   0  0  0  0  0  0  0  0  0  0  0  0
  1  2  1  0  0  0  0
  1  3  1  0  0  0  0
  1  4  1  0  0  0  0
  1  5  1  0  0  0  0
  5  6  1  0  0  0  0
  5  7  1  0  0  0  0
  5  8  1  0  0  0  0
  8  9  1  0  0  0  0
  8 10  1  0  0  0  0
  8 11  1  0  0  0  0
 11 12  1  0  0  0  0
 11 13  1  0  0  0  0
 11 14  1  0  0  0  0
 14 15  1  0  0  0  0
 14 16  1  0  0  0  0
 14 17  1  0  0  0  0
 17 18  1  0  0  0  0
 17 19  1  0  0  0  0
 17 20  1  0  0  0  0
 20 21  1  0  0  0  0
 20 22  1  0  0  0  0
 20 23  1  0  0  0  0
 23 24  1  0  0  0  0
 23 25  1  0  0  0  0
 23 26  1  0  0  0  0
M  END
> <VConfSearch Rank>
99

> <Conf_Id>
133

> <Delta U+W>
0.844

> <U+W>
-4.708

> <U>
48.723

> <W>
-53.431

> <W(PB)>
-55.776

> <W(SA)>
2.344

> <Valence>
2.962

> <Coulomb>
44.993

> <VdW>
0.768

> <VdW6>
-7.008

> <VdW12>
7.776

> <Bond>
0.188

> <Angle>
0.756

> <Pdih>
2.018

> <Idih>
0.000

> <Tether>
0.000

$$$$
VeraChem MOL file


 26 25  0  0  0  0  0  0  0  0999 V2000     
   19.5374   17.3347   26.2736 C   0  0  0  0  0  0  0  0  0  0  0  0
   18.8901   16.4483   26.2934 H   0  0  0  0  0  0  0  0  0  0  0  0
   20.3209   17.1722   25.5230 H   0  0  0  0  0  0  0  0  0  0  0  0
   20.0286   17.4142   27.2520 H   0  0  0  0  0  0  0  0  0  0  0  0
   18.7211   18.6118   25.9722 C   0  0  0  0  0  0  0  0  0  0  0  0
   19.3916   19.4808   25.9377 H   0  0  0  0  0  0  0  0  0  0  0  0
   18.0329   18.7971   26.8087 H   0  0  0  0  0  0  0  0  0  0  0  0
   17.8938   18.5205   24.6646 C   0  0  0  0  0  0  0  0  0  0  0  0
   17.1467   17.7223   24.7727 H   0  0  0  0  0  0  0  0  0  0  0  0
   17.3231   19.4512   24.5414 H   0  0  0  0  0  0  0  0  0  0  0  0
   18.7164   18.2598   23.3762 C   0  0  0  0  0  0  0  0  0  0  0  0
   18.0197   18.1977   22.5290 H   0  0  0  0  0  0  0  0  0  0  0  0
   19.2057   17.2786   23.4366 H   0  0  0  0  0  0  0  0  0  0  0  0
   19.7705   19.3541   23.0828 C   0  0  0  0  0  0  0  0  0  0  0  0
   19.2835   20.3390   23.0679 H   0  0  0  0  0  0  0  0  0  0  0  0
   20.5178   19.3789   23.8870 H   0  0  0  0  0  0  0  0  0  0  0  0
   20.4878   19.1135   21.7362 C   0  0  0  0  0  0  0  0  0  0  0  0
   19.7512   19.0977   20.9218 H   0  0  0  0  0  0  0  0  0  0  0  0
   20.9764   18.1300   21.7484 H   0  0  0  0  0  0  0  0  0  0  0  0
   21.5375   20.2030   21.4550 C   0  0  0  0  0  0  0  0  0  0  0  0
   21.0526   21.1826   21.4261 H   0  0  0  0  0  0  0  0  0  0  0  0
   22.2827   20.2114   22.2550 H   0  0  0  0  0  0  0  0  0  0  0  0
   22.2642   20.0020   20.1409 N   0  3  0  0  0  0  0  0  0  0  0  0
   22.9585   20.7383   19.9731 H   0  0  0  0  0  0  0  0  0  0  0  0
   21.6205   20.0114   19.3429 H   0  0  0  0  0  0  0  0  0  0  0  0
   22.7651   19.1078   20.1141 H   0  0  0  0  0  0  0  0  0  0  0  0
  1  2  1  0  0  0  0
  1  3  1  0  0  0  0
  1  4  1  0  0  0  0
  1  5  1  0  0  0  0
  5  6  1  0  0  0  0
  5  7  1  0  0  0  0
  5  8  1  0  0  0  0
  8  9  1  0  0  0  0
  8 10  1  0  0  0  0
  8 11  1  0  0  0  0
 11 12  1  0  0  0  0
 11 13  1  0  0  0  0
 11 14  1  0  0  0  0
 14 15  1  0  0  0  0
 14 16  1  0  0  0  0
 14 17  1  0  0  0  0
 17 18  1  0  0  0  0
 17 19  1  0  0  0  0
 17 20  1  0  0  0  0
 20 21  1  0  0  0  0
 20 22  1  0  0  0  0
 20 23  1  0  0  0  0
 23 24  1  0  0  0  0
 23 25  1  0  0  0  0
 23 26  1  0  0  0  0
M  END
> <VConfSearch Rank>
100

> <Conf_Id>
106

> <Delta U+W>
0.767

> <U+W>
-4.785

> <U>
48.494

> <W>
-53.279

> <W(PB)>
-55.569

> <W(SA)>
2.290

> <Valence>
3.117

> <Coulomb>
44.693

> <VdW>
0.684

> <VdW6>
-7.347

> <VdW12>
8.030

> <Bond>
0.208

> <Angle>
1.039

> <Pdih>
1.870

> <Idih>
0.000

> <Tether>
0.000

$$$$
VeraChem MOL file


 26 25  0  0  0  0  0  0  0  0999 V2000     
   21.7275   14.9548   22.0824 C   0  0  0  0  0  0  0  0  0  0  0  0
   21.3712   14.4164   22.9703 H   0  0  0  0  0  0  0  0  0  0  0  0
   21.0132   14.7803   21.2671 H   0  0  0  0  0  0  0  0  0  0  0  0
   22.6898   14.5172   21.7866 H   0  0  0  0  0  0  0  0  0  0  0  0
   21.8807   16.4629   22.3724 C   0  0  0  0  0  0  0  0  0  0  0  0
   22.2701   16.9685   21.4776 H   0  0  0  0  0  0  0  0  0  0  0  0
   22.6255   16.6074   23.1676 H   0  0  0  0  0  0  0  0  0  0  0  0
   20.5392   17.1041   22.7916 C   0  0  0  0  0  0  0  0  0  0  0  0
   19.7974   16.9551   21.9948 H   0  0  0  0  0  0  0  0  0  0  0  0
   20.1529   16.5940   23.6849 H   0  0  0  0  0  0  0  0  0  0  0  0
   20.6886   18.6145   23.0828 C   0  0  0  0  0  0  0  0  0  0  0  0
   21.0752   19.1237   22.1891 H   0  0  0  0  0  0  0  0  0  0  0  0
   21.4310   18.7627   23.8793 H   0  0  0  0  0  0  0  0  0  0  0  0
   19.3463   19.2554   23.5022 C   0  0  0  0  0  0  0  0  0  0  0  0
   18.6035   19.1075   22.7058 H   0  0  0  0  0  0  0  0  0  0  0  0
   18.9593   18.7465   24.3961 H   0  0  0  0  0  0  0  0  0  0  0  0
   19.4947   20.7650   23.7934 C   0  0  0  0  0  0  0  0  0  0  0  0
   19.8762   21.2782   22.9005 H   0  0  0  0  0  0  0  0  0  0  0  0
   20.2326   20.9169   24.5925 H   0  0  0  0  0  0  0  0  0  0  0  0
   18.1529   21.3927   24.2101 C   0  0  0  0  0  0  0  0  0  0  0  0
   17.4195   21.2585   23.4103 H   0  0  0  0  0  0  0  0  0  0  0  0
   17.7772   20.8956   25.1085 H   0  0  0  0  0  0  0  0  0  0  0  0
   18.2573   22.8752   24.5049 N   0  3  0  0  0  0  0  0  0  0  0  0
   17.3528   23.2733   24.7804 H   0  0  0  0  0  0  0  0  0  0  0  0
   18.5804   23.4054   23.6889 H   0  0  0  0  0  0  0  0  0  0  0  0
   18.9132   23.0677   25.2690 H   0  0  0  0  0  0  0  0  0  0  0  0
  1  2  1  0  0  0  0
  1  3  1  0  0  0  0
  1  4  1  0  0  0  0
  1  5  1  0  0  0  0
  5  6  1  0  0  0  0
  5  7  1  0  0  0  0
  5  8  1  0  0  0  0
  8  9  1  0  0  0  0
  8 10  1  0  0  0  0
  8 11  1  0  0  0  0
 11 12  1  0  0  0  0
 11 13  1  0  0  0  0
 11 14  1  0  0  0  0
 14 15  1  0  0  0  0
 14 16  1  0  0  0  0
 14 17  1  0  0  0  0
 17 18  1  0  0  0  0
 17 19  1  0  0  0  0
 17 20  1  0  0  0  0
 20 21  1  0  0  0  0
 20 22  1  0  0  0  0
 20 23  1  0  0  0  0
 23 24  1  0  0  0  0
 23 25  1  0  0  0  0
 23 26  1  0  0  0  0
M  END
> <VConfSearch Rank>
101

> <Conf_Id>
25

> <Delta U+W>
0.000

> <U+W>
-5.552

> <U>
47.192

> <W>
-52.745

> <W(PB)>
-55.134

> <W(SA)>
2.389

> <Valence>
2.156

> <Coulomb>
44.449

> <VdW>
0.587

> <VdW6>
-5.761

> <VdW12>
6.348

> <Bond>
0.129

> <Angle>
0.393

> <Pdih>
1.634

> <Idih>
0.000

> <Tether>
0.000

$$$$
VeraChem MOL file


 26 25  0  0  0  0  0  0  0  0999 V2000     
   24.3197   19.5040   23.0638 C   0  0  0  0  0  0  0  0  0  0  0  0
   24.4508   18.8949   22.1599 H   0  0  0  0  0  0  0  0  0  0  0  0
   24.2096   20.5522   22.7567 H   0  0  0  0  0  0  0  0  0  0  0  0
   25.2372   19.4224   23.6610 H   0  0  0  0  0  0  0  0  0  0  0  0
   23.0959   19.0328   23.8776 C   0  0  0  0  0  0  0  0  0  0  0  0
   23.0108   19.6377   24.7913 H   0  0  0  0  0  0  0  0  0  0  0  0
   23.2502   17.9931   24.1990 H   0  0  0  0  0  0  0  0  0  0  0  0
   21.7899   19.1373   23.0593 C   0  0  0  0  0  0  0  0  0  0  0  0
   21.6413   20.1777   22.7383 H   0  0  0  0  0  0  0  0  0  0  0  0
   21.8805   18.5329   22.1462 H   0  0  0  0  0  0  0  0  0  0  0  0
   20.5621   18.6663   23.8711 C   0  0  0  0  0  0  0  0  0  0  0  0
   20.4720   19.2713   24.7840 H   0  0  0  0  0  0  0  0  0  0  0  0
   20.7123   17.6263   24.1925 H   0  0  0  0  0  0  0  0  0  0  0  0
   19.2557   18.7705   23.0520 C   0  0  0  0  0  0  0  0  0  0  0  0
   19.1132   19.8106   22.7294 H   0  0  0  0  0  0  0  0  0  0  0  0
   19.3448   18.1631   22.1405 H   0  0  0  0  0  0  0  0  0  0  0  0
   18.0278   18.2995   23.8667 C   0  0  0  0  0  0  0  0  0  0  0  0
   17.9110   18.9205   24.7648 H   0  0  0  0  0  0  0  0  0  0  0  0
   18.1956   17.2719   24.2160 H   0  0  0  0  0  0  0  0  0  0  0  0
   16.7229   18.3288   23.0477 C   0  0  0  0  0  0  0  0  0  0  0  0
   16.8381   17.7161   22.1496 H   0  0  0  0  0  0  0  0  0  0  0  0
   15.9100   17.9078   23.6456 H   0  0  0  0  0  0  0  0  0  0  0  0
   16.3035   19.7207   22.6173 N   0  3  0  0  0  0  0  0  0  0  0  0
   17.0089   20.1620   22.0192 H   0  0  0  0  0  0  0  0  0  0  0  0
   16.1569   20.3399   23.4211 H   0  0  0  0  0  0  0  0  0  0  0  0
   15.4260   19.7067   22.0861 H   0  0  0  0  0  0  0  0  0  0  0  0
  1  2  1  0  0  0  0
  1  3  1  0  0  0  0
  1  4  1  0  0  0  0
  1  5  1  0  0  0  0
  5  6  1  0  0  0  0
  5  7  1  0  0  0  0
  5  8  1  0  0  0  0
  8  9  1  0  0  0  0
  8 10  1  0  0  0  0
  8 11  1  0  0  0  0
 11 12  1  0  0  0  0
 11 13  1  0  0  0  0
 11 14  1  0  0  0  0
 14 15  1  0  0  0  0
 14 16  1  0  0  0  0
 14 17  1  0  0  0  0
 17 18  1  0  0  0  0
 17 19  1  0  0  0  0
 17 20  1  0  0  0  0
 20 21  1  0  0  0  0
 20 22  1  0  0  0  0
 20 23  1  0  0  0  0
 23 24  1  0  0  0  0
 23 25  1  0  0  0  0
 23 26  1  0  0  0  0
M  END
> <VConfSearch Rank>
102

> <Conf_Id>
20

> <Delta U+W>
0.150

> <U+W>
-5.403

> <U>
47.845

> <W>
-53.248

> <W(PB)>
-55.599

> <W(SA)>
2.351

> <Valence>
2.258

> <Coulomb>
44.893

> <VdW>
0.694

> <VdW6>
-6.285

> <VdW12>
6.979

> <Bond>
0.149

> <Angle>
0.434

> <Pdih>
1.675

> <Idih>
0.000

> <Tether>
0.000

$$$$
VeraChem MOL file


 26 25  0  0  0  0  0  0  0  0999 V2000     
   18.6340   21.6052   26.3988 C   0  0  0  0  0  0  0  0  0  0  0  0
   17.6424   21.7073   25.9390 H   0  0  0  0  0  0  0  0  0  0  0  0
   18.5733   20.8303   27.1741 H   0  0  0  0  0  0  0  0  0  0  0  0
   18.8767   22.5560   26.8909 H   0  0  0  0  0  0  0  0  0  0  0  0
   19.7016   21.2504   25.3421 C   0  0  0  0  0  0  0  0  0  0  0  0
   20.6867   21.1887   25.8257 H   0  0  0  0  0  0  0  0  0  0  0  0
   19.7628   22.0587   24.6000 H   0  0  0  0  0  0  0  0  0  0  0  0
   19.3837   19.9149   24.6337 C   0  0  0  0  0  0  0  0  0  0  0  0
   19.3214   19.1105   25.3797 H   0  0  0  0  0  0  0  0  0  0  0  0
   18.3973   19.9807   24.1541 H   0  0  0  0  0  0  0  0  0  0  0  0
   20.4507   19.5562   23.5748 C   0  0  0  0  0  0  0  0  0  0  0  0
   21.4368   19.4919   24.0554 H   0  0  0  0  0  0  0  0  0  0  0  0
   20.5123   20.3609   22.8290 H   0  0  0  0  0  0  0  0  0  0  0  0
   20.1328   18.2198   22.8668 C   0  0  0  0  0  0  0  0  0  0  0  0
   20.0742   17.4146   23.6124 H   0  0  0  0  0  0  0  0  0  0  0  0
   19.1445   18.2880   22.3927 H   0  0  0  0  0  0  0  0  0  0  0  0
   21.2014   17.8630   21.8066 C   0  0  0  0  0  0  0  0  0  0  0  0
   22.1906   17.8338   22.2828 H   0  0  0  0  0  0  0  0  0  0  0  0
   21.2464   18.6468   21.0387 H   0  0  0  0  0  0  0  0  0  0  0  0
   20.9431   16.5001   21.1359 C   0  0  0  0  0  0  0  0  0  0  0  0
   21.7712   16.2649   20.4617 H   0  0  0  0  0  0  0  0  0  0  0  0
   20.8918   15.7183   21.8985 H   0  0  0  0  0  0  0  0  0  0  0  0
   19.6627   16.4515   20.3254 N   0  3  0  0  0  0  0  0  0  0  0  0
   19.6600   17.1504   19.5753 H   0  0  0  0  0  0  0  0  0  0  0  0
   18.8379   16.6280   20.9073 H   0  0  0  0  0  0  0  0  0  0  0  0
   19.5271   15.5362   19.8823 H   0  0  0  0  0  0  0  0  0  0  0  0
  1  2  1  0  0  0  0
  1  3  1  0  0  0  0
  1  4  1  0  0  0  0
  1  5  1  0  0  0  0
  5  6  1  0  0  0  0
  5  7  1  0  0  0  0
  5  8  1  0  0  0  0
  8  9  1  0  0  0  0
  8 10  1  0  0  0  0
  8 11  1  0  0  0  0
 11 12  1  0  0  0  0
 11 13  1  0  0  0  0
 11 14  1  0  0  0  0
 14 15  1  0  0  0  0
 14 16  1  0  0  0  0
 14 17  1  0  0  0  0
 17 18  1  0  0  0  0
 17 19  1  0  0  0  0
 17 20  1  0  0  0  0
 20 21  1  0  0  0  0
 20 22  1  0  0  0  0
 20 23  1  0  0  0  0
 23 24  1  0  0  0  0
 23 25  1  0  0  0  0
 23 26  1  0  0  0  0
M  END
> <VConfSearch Rank>
103

> <Conf_Id>
19

> <Delta U+W>
0.162

> <U+W>
-5.391

> <U>
47.845

> <W>
-53.235

> <W(PB)>
-55.585

> <W(SA)>
2.349

> <Valence>
2.258

> <Coulomb>
44.893

> <VdW>
0.694

> <VdW6>
-6.285

> <VdW12>
6.979

> <Bond>
0.149

> <Angle>
0.434

> <Pdih>
1.675

> <Idih>
0.000

> <Tether>
0.000

$$$$
VeraChem MOL file


 26 25  0  0  0  0  0  0  0  0999 V2000     
   17.8118   16.1752   25.5266 C   0  0  0  0  0  0  0  0  0  0  0  0
   16.7217   16.2958   25.4783 H   0  0  0  0  0  0  0  0  0  0  0  0
   18.0855   15.2964   24.9282 H   0  0  0  0  0  0  0  0  0  0  0  0
   18.0818   15.9696   26.5706 H   0  0  0  0  0  0  0  0  0  0  0  0
   18.5338   17.4402   25.0160 C   0  0  0  0  0  0  0  0  0  0  0  0
   19.6176   17.2971   25.1184 H   0  0  0  0  0  0  0  0  0  0  0  0
   18.2634   18.2952   25.6513 H   0  0  0  0  0  0  0  0  0  0  0  0
   18.1717   17.7480   23.5437 C   0  0  0  0  0  0  0  0  0  0  0  0
   18.4904   16.9151   22.9019 H   0  0  0  0  0  0  0  0  0  0  0  0
   17.0786   17.8079   23.4505 H   0  0  0  0  0  0  0  0  0  0  0  0
   18.7815   19.0710   23.0184 C   0  0  0  0  0  0  0  0  0  0  0  0
   18.4499   19.9054   23.6517 H   0  0  0  0  0  0  0  0  0  0  0  0
   18.3770   19.2655   22.0155 H   0  0  0  0  0  0  0  0  0  0  0  0
   20.3274   19.0535   22.9435 C   0  0  0  0  0  0  0  0  0  0  0  0
   20.7511   18.9364   23.9496 H   0  0  0  0  0  0  0  0  0  0  0  0
   20.6572   18.1862   22.3548 H   0  0  0  0  0  0  0  0  0  0  0  0
   20.8853   20.3470   22.3101 C   0  0  0  0  0  0  0  0  0  0  0  0
   20.5588   21.2163   22.8965 H   0  0  0  0  0  0  0  0  0  0  0  0
   20.4778   20.4694   21.2976 H   0  0  0  0  0  0  0  0  0  0  0  0
   22.4225   20.3234   22.2428 C   0  0  0  0  0  0  0  0  0  0  0  0
   22.8337   20.2185   23.2504 H   0  0  0  0  0  0  0  0  0  0  0  0
   22.7518   19.4684   21.6460 H   0  0  0  0  0  0  0  0  0  0  0  0
   23.0089   21.5772   21.6267 N   0  3  0  0  0  0  0  0  0  0  0  0
   22.7584   22.4174   22.1582 H   0  0  0  0  0  0  0  0  0  0  0  0
   22.6822   21.7195   20.6653 H   0  0  0  0  0  0  0  0  0  0  0  0
   24.0336   21.5409   21.5913 H   0  0  0  0  0  0  0  0  0  0  0  0
  1  2  1  0  0  0  0
  1  3  1  0  0  0  0
  1  4  1  0  0  0  0
  1  5  1  0  0  0  0
  5  6  1  0  0  0  0
  5  7  1  0  0  0  0
  5  8  1  0  0  0  0
  8  9  1  0  0  0  0
  8 10  1  0  0  0  0
  8 11  1  0  0  0  0
 11 12  1  0  0  0  0
 11 13  1  0  0  0  0
 11 14  1  0  0  0  0
 14 15  1  0  0  0  0
 14 16  1  0  0  0  0
 14 17  1  0  0  0  0
 17 18  1  0  0  0  0
 17 19  1  0  0  0  0
 17 20  1  0  0  0  0
 20 21  1  0  0  0  0
 20 22  1  0  0  0  0
 20 23  1  0  0  0  0
 23 24  1  0  0  0  0
 23 25  1  0  0  0  0
 23 26  1  0  0  0  0
M  END
> <VConfSearch Rank>
104

> <Conf_Id>
37

> <Delta U+W>
0.565

> <U+W>
-4.988

> <U>
48.035

> <W>
-53.022

> <W(PB)>
-55.379

> <W(SA)>
2.357

> <Valence>
2.701

> <Coulomb>
44.622

> <VdW>
0.712

> <VdW6>
-6.418

> <VdW12>
7.129

> <Bond>
0.168

> <Angle>
0.659

> <Pdih>
1.875

> <Idih>
0.000

> <Tether>
0.000

$$$$
VeraChem MOL file


 26 25  0  0  0  0  0  0  0  0999 V2000     
   18.0846   18.8744   19.7025 C   0  0  0  0  0  0  0  0  0  0  0  0
   18.0264   17.7984   19.9123 H   0  0  0  0  0  0  0  0  0  0  0  0
   17.1649   19.3454   20.0735 H   0  0  0  0  0  0  0  0  0  0  0  0
   18.1138   19.0042   18.6129 H   0  0  0  0  0  0  0  0  0  0  0  0
   19.3327   19.5012   20.3595 C   0  0  0  0  0  0  0  0  0  0  0  0
   19.3819   20.5687   20.1030 H   0  0  0  0  0  0  0  0  0  0  0  0
   20.2368   19.0335   19.9449 H   0  0  0  0  0  0  0  0  0  0  0  0
   19.3164   19.3331   21.8951 C   0  0  0  0  0  0  0  0  0  0  0  0
   18.4122   19.8038   22.3049 H   0  0  0  0  0  0  0  0  0  0  0  0
   19.2579   18.2639   22.1371 H   0  0  0  0  0  0  0  0  0  0  0  0
   20.5697   19.9577   22.5544 C   0  0  0  0  0  0  0  0  0  0  0  0
   20.6542   21.0068   22.2385 H   0  0  0  0  0  0  0  0  0  0  0  0
   21.4731   19.4516   22.1870 H   0  0  0  0  0  0  0  0  0  0  0  0
   20.5431   19.9130   24.1020 C   0  0  0  0  0  0  0  0  0  0  0  0
   21.4065   20.4770   24.4816 H   0  0  0  0  0  0  0  0  0  0  0  0
   19.6486   20.4344   24.4703 H   0  0  0  0  0  0  0  0  0  0  0  0
   20.5865   18.4794   24.6812 C   0  0  0  0  0  0  0  0  0  0  0  0
   21.4528   17.9418   24.2734 H   0  0  0  0  0  0  0  0  0  0  0  0
   19.6893   17.9231   24.3821 H   0  0  0  0  0  0  0  0  0  0  0  0
   20.6742   18.4988   26.2175 C   0  0  0  0  0  0  0  0  0  0  0  0
   21.5751   19.0348   26.5281 H   0  0  0  0  0  0  0  0  0  0  0  0
   19.8051   19.0192   26.6292 H   0  0  0  0  0  0  0  0  0  0  0  0
   20.7215   17.1126   26.8272 N   0  3  0  0  0  0  0  0  0  0  0  0
   21.5337   16.5789   26.5005 H   0  0  0  0  0  0  0  0  0  0  0  0
   19.8868   16.5643   26.5954 H   0  0  0  0  0  0  0  0  0  0  0  0
   20.7802   17.1486   27.8507 H   0  0  0  0  0  0  0  0  0  0  0  0
  1  2  1  0  0  0  0
  1  3  1  0  0  0  0
  1  4  1  0  0  0  0
  1  5  1  0  0  0  0
  5  6  1  0  0  0  0
  5  7  1  0  0  0  0
  5  8  1  0  0  0  0
  8  9  1  0  0  0  0
  8 10  1  0  0  0  0
  8 11  1  0  0  0  0
 11 12  1  0  0  0  0
 11 13  1  0  0  0  0
 11 14  1  0  0  0  0
 14 15  1  0  0  0  0
 14 16  1  0  0  0  0
 14 17  1  0  0  0  0
 17 18  1  0  0  0  0
 17 19  1  0  0  0  0
 17 20  1  0  0  0  0
 20 21  1  0  0  0  0
 20 22  1  0  0  0  0
 20 23  1  0  0  0  0
 23 24  1  0  0  0  0
 23 25  1  0  0  0  0
 23 26  1  0  0  0  0
M  END
> <VConfSearch Rank>
105

> <Conf_Id>
35

> <Delta U+W>
0.587

> <U+W>
-4.965

> <U>
48.214

> <W>
-53.179

> <W(PB)>
-55.527

> <W(SA)>
2.348

> <Valence>
2.697

> <Coulomb>
44.819

> <VdW>
0.699

> <VdW6>
-6.437

> <VdW12>
7.136

> <Bond>
0.168

> <Angle>
0.657

> <Pdih>
1.872

> <Idih>
0.000

> <Tether>
0.000

$$$$
VeraChem MOL file


 26 25  0  0  0  0  0  0  0  0999 V2000     
   19.4727   22.5881   25.0022 C   0  0  0  0  0  0  0  0  0  0  0  0
   18.8877   22.9883   24.1639 H   0  0  0  0  0  0  0  0  0  0  0  0
   18.7994   21.9999   25.6392 H   0  0  0  0  0  0  0  0  0  0  0  0
   19.8391   23.4375   25.5932 H   0  0  0  0  0  0  0  0  0  0  0  0
   20.6502   21.7280   24.4962 C   0  0  0  0  0  0  0  0  0  0  0  0
   21.2354   21.3697   25.3548 H   0  0  0  0  0  0  0  0  0  0  0  0
   21.3235   22.3519   23.8918 H   0  0  0  0  0  0  0  0  0  0  0  0
   20.1619   20.5246   23.6597 C   0  0  0  0  0  0  0  0  0  0  0  0
   19.4838   19.9155   24.2716 H   0  0  0  0  0  0  0  0  0  0  0  0
   19.5793   20.8879   22.8019 H   0  0  0  0  0  0  0  0  0  0  0  0
   21.3418   19.6592   23.1553 C   0  0  0  0  0  0  0  0  0  0  0  0
   21.8942   19.2498   24.0124 H   0  0  0  0  0  0  0  0  0  0  0  0
   22.0486   20.3010   22.6113 H   0  0  0  0  0  0  0  0  0  0  0  0
   20.9077   18.5050   22.2187 C   0  0  0  0  0  0  0  0  0  0  0  0
   20.3704   18.9157   21.3526 H   0  0  0  0  0  0  0  0  0  0  0  0
   21.8107   18.0217   21.8201 H   0  0  0  0  0  0  0  0  0  0  0  0
   20.0333   17.4366   22.9162 C   0  0  0  0  0  0  0  0  0  0  0  0
   19.0871   17.8809   23.2495 H   0  0  0  0  0  0  0  0  0  0  0  0
   20.5493   17.0627   23.8105 H   0  0  0  0  0  0  0  0  0  0  0  0
   19.7286   16.2597   21.9727 C   0  0  0  0  0  0  0  0  0  0  0  0
   19.2002   16.6247   21.0878 H   0  0  0  0  0  0  0  0  0  0  0  0
   20.6641   15.7963   21.6480 H   0  0  0  0  0  0  0  0  0  0  0  0
   18.8749   15.1871   22.6178 N   0  3  0  0  0  0  0  0  0  0  0  0
   17.9664   15.5526   22.9216 H   0  0  0  0  0  0  0  0  0  0  0  0
   19.3289   14.7825   23.4433 H   0  0  0  0  0  0  0  0  0  0  0  0
   18.6844   14.4127   21.9725 H   0  0  0  0  0  0  0  0  0  0  0  0
  1  2  1  0  0  0  0
  1  3  1  0  0  0  0
  1  4  1  0  0  0  0
  1  5  1  0  0  0  0
  5  6  1  0  0  0  0
  5  7  1  0  0  0  0
  5  8  1  0  0  0  0
  8  9  1  0  0  0  0
  8 10  1  0  0  0  0
  8 11  1  0  0  0  0
 11 12  1  0  0  0  0
 11 13  1  0  0  0  0
 11 14  1  0  0  0  0
 14 15  1  0  0  0  0
 14 16  1  0  0  0  0
 14 17  1  0  0  0  0
 17 18  1  0  0  0  0
 17 19  1  0  0  0  0
 17 20  1  0  0  0  0
 20 21  1  0  0  0  0
 20 22  1  0  0  0  0
 20 23  1  0  0  0  0
 23 24  1  0  0  0  0
 23 25  1  0  0  0  0
 23 26  1  0  0  0  0
M  END
> <VConfSearch Rank>
106

> <Conf_Id>
36

> <Delta U+W>
0.565

> <U+W>
-4.987

> <U>
48.214

> <W>
-53.201

> <W(PB)>
-55.543

> <W(SA)>
2.342

> <Valence>
2.697

> <Coulomb>
44.819

> <VdW>
0.698

> <VdW6>
-6.437

> <VdW12>
7.136

> <Bond>
0.168

> <Angle>
0.657

> <Pdih>
1.872

> <Idih>
0.000

> <Tether>
0.000

$$$$
VeraChem MOL file


 26 25  0  0  0  0  0  0  0  0999 V2000     
   22.2195   18.4124   19.6371 C   0  0  0  0  0  0  0  0  0  0  0  0
   21.9900   17.3759   19.3578 H   0  0  0  0  0  0  0  0  0  0  0  0
   22.2778   19.0049   18.7148 H   0  0  0  0  0  0  0  0  0  0  0  0
   23.2099   18.4277   20.1105 H   0  0  0  0  0  0  0  0  0  0  0  0
   21.1430   18.9832   20.5845 C   0  0  0  0  0  0  0  0  0  0  0  0
   20.1709   18.9864   20.0717 H   0  0  0  0  0  0  0  0  0  0  0  0
   21.3815   20.0302   20.8185 H   0  0  0  0  0  0  0  0  0  0  0  0
   21.0403   18.1666   21.8918 C   0  0  0  0  0  0  0  0  0  0  0  0
   20.8047   17.1204   21.6522 H   0  0  0  0  0  0  0  0  0  0  0  0
   22.0147   18.1646   22.3998 H   0  0  0  0  0  0  0  0  0  0  0  0
   19.9630   18.7349   22.8431 C   0  0  0  0  0  0  0  0  0  0  0  0
   18.9888   18.7339   22.3348 H   0  0  0  0  0  0  0  0  0  0  0  0
   20.2015   19.7819   23.0730 H   0  0  0  0  0  0  0  0  0  0  0  0
   19.8635   17.9156   24.1522 C   0  0  0  0  0  0  0  0  0  0  0  0
   19.6733   16.8619   23.9054 H   0  0  0  0  0  0  0  0  0  0  0  0
   20.8269   17.9419   24.6804 H   0  0  0  0  0  0  0  0  0  0  0  0
   18.7441   18.4134   25.0965 C   0  0  0  0  0  0  0  0  0  0  0  0
   18.6757   17.7345   25.9570 H   0  0  0  0  0  0  0  0  0  0  0  0
   17.7763   18.3644   24.5797 H   0  0  0  0  0  0  0  0  0  0  0  0
   18.9878   19.8468   25.6048 C   0  0  0  0  0  0  0  0  0  0  0  0
   19.9508   19.8955   26.1203 H   0  0  0  0  0  0  0  0  0  0  0  0
   19.0137   20.5399   24.7600 H   0  0  0  0  0  0  0  0  0  0  0  0
   17.9183   20.3250   26.5653 N   0  3  0  0  0  0  0  0  0  0  0  0
   18.0989   21.2806   26.8918 H   0  0  0  0  0  0  0  0  0  0  0  0
   17.8602   19.7310   27.3990 H   0  0  0  0  0  0  0  0  0  0  0  0
   16.9891   20.3283   26.1319 H   0  0  0  0  0  0  0  0  0  0  0  0
  1  2  1  0  0  0  0
  1  3  1  0  0  0  0
  1  4  1  0  0  0  0
  1  5  1  0  0  0  0
  5  6  1  0  0  0  0
  5  7  1  0  0  0  0
  5  8  1  0  0  0  0
  8  9  1  0  0  0  0
  8 10  1  0  0  0  0
  8 11  1  0  0  0  0
 11 12  1  0  0  0  0
 11 13  1  0  0  0  0
 11 14  1  0  0  0  0
 14 15  1  0  0  0  0
 14 16  1  0  0  0  0
 14 17  1  0  0  0  0
 17 18  1  0  0  0  0
 17 19  1  0  0  0  0
 17 20  1  0  0  0  0
 20 21  1  0  0  0  0
 20 22  1  0  0  0  0
 20 23  1  0  0  0  0
 23 24  1  0  0  0  0
 23 25  1  0  0  0  0
 23 26  1  0  0  0  0
M  END
> <VConfSearch Rank>
107

> <Conf_Id>
44

> <Delta U+W>
0.371

> <U+W>
-5.181

> <U>
48.002

> <W>
-53.183

> <W(PB)>
-55.533

> <W(SA)>
2.350

> <Valence>
2.459

> <Coulomb>
44.901

> <VdW>
0.643

> <VdW6>
-6.362

> <VdW12>
7.005

> <Bond>
0.151

> <Angle>
0.519

> <Pdih>
1.789

> <Idih>
0.000

> <Tether>
0.000

$$$$
VeraChem MOL file


 26 25  0  0  0  0  0  0  0  0999 V2000     
   21.6362   18.5651   19.7690 C   0  0  0  0  0  0  0  0  0  0  0  0
   20.8401   19.1294   19.2662 H   0  0  0  0  0  0  0  0  0  0  0  0
   22.4720   18.4642   19.0646 H   0  0  0  0  0  0  0  0  0  0  0  0
   21.2618   17.5561   19.9813 H   0  0  0  0  0  0  0  0  0  0  0  0
   22.0990   19.2838   21.0568 C   0  0  0  0  0  0  0  0  0  0  0  0
   22.5816   20.2307   20.7774 H   0  0  0  0  0  0  0  0  0  0  0  0
   22.8698   18.6830   21.5596 H   0  0  0  0  0  0  0  0  0  0  0  0
   20.9458   19.5885   22.0437 C   0  0  0  0  0  0  0  0  0  0  0  0
   21.3481   20.2146   22.8501 H   0  0  0  0  0  0  0  0  0  0  0  0
   20.1791   20.1902   21.5366 H   0  0  0  0  0  0  0  0  0  0  0  0
   20.2983   18.3161   22.6474 C   0  0  0  0  0  0  0  0  0  0  0  0
   21.0640   17.7161   23.1581 H   0  0  0  0  0  0  0  0  0  0  0  0
   19.9045   17.6891   21.8372 H   0  0  0  0  0  0  0  0  0  0  0  0
   19.1355   18.6154   23.6259 C   0  0  0  0  0  0  0  0  0  0  0  0
   18.3766   19.2275   23.1192 H   0  0  0  0  0  0  0  0  0  0  0  0
   18.6476   17.6639   23.8752 H   0  0  0  0  0  0  0  0  0  0  0  0
   19.5866   19.3169   24.9319 C   0  0  0  0  0  0  0  0  0  0  0  0
   20.0331   20.2908   24.6972 H   0  0  0  0  0  0  0  0  0  0  0  0
   20.3665   18.7242   25.4281 H   0  0  0  0  0  0  0  0  0  0  0  0
   18.4209   19.5545   25.9114 C   0  0  0  0  0  0  0  0  0  0  0  0
   18.7784   20.1369   26.7649 H   0  0  0  0  0  0  0  0  0  0  0  0
   17.6331   20.1270   25.4144 H   0  0  0  0  0  0  0  0  0  0  0  0
   17.8061   18.2786   26.4529 N   0  3  0  0  0  0  0  0  0  0  0  0
   17.4143   17.6982   25.7050 H   0  0  0  0  0  0  0  0  0  0  0  0
   17.0444   18.4730   27.1120 H   0  0  0  0  0  0  0  0  0  0  0  0
   18.4948   17.7061   26.9519 H   0  0  0  0  0  0  0  0  0  0  0  0
  1  2  1  0  0  0  0
  1  3  1  0  0  0  0
  1  4  1  0  0  0  0
  1  5  1  0  0  0  0
  5  6  1  0  0  0  0
  5  7  1  0  0  0  0
  5  8  1  0  0  0  0
  8  9  1  0  0  0  0
  8 10  1  0  0  0  0
  8 11  1  0  0  0  0
 11 12  1  0  0  0  0
 11 13  1  0  0  0  0
 11 14  1  0  0  0  0
 14 15  1  0  0  0  0
 14 16  1  0  0  0  0
 14 17  1  0  0  0  0
 17 18  1  0  0  0  0
 17 19  1  0  0  0  0
 17 20  1  0  0  0  0
 20 21  1  0  0  0  0
 20 22  1  0  0  0  0
 20 23  1  0  0  0  0
 23 24  1  0  0  0  0
 23 25  1  0  0  0  0
 23 26  1  0  0  0  0
M  END
> <VConfSearch Rank>
108

> <Conf_Id>
112

> <Delta U+W>
1.422

> <U+W>
-4.130

> <U>
49.323

> <W>
-53.453

> <W(PB)>
-55.749

> <W(SA)>
2.296

> <Valence>
3.408

> <Coulomb>
44.893

> <VdW>
1.021

> <VdW6>
-7.481

> <VdW12>
8.503

> <Bond>
0.239

> <Angle>
1.013

> <Pdih>
2.156

> <Idih>
0.000

> <Tether>
0.000

$$$$
VeraChem MOL file


 26 25  0  0  0  0  0  0  0  0999 V2000     
   21.7758   19.8901   20.2278 C   0  0  0  0  0  0  0  0  0  0  0  0
   22.4912   20.2464   19.4754 H   0  0  0  0  0  0  0  0  0  0  0  0
   21.8853   18.8007   20.2973 H   0  0  0  0  0  0  0  0  0  0  0  0
   20.7650   20.1118   19.8617 H   0  0  0  0  0  0  0  0  0  0  0  0
   22.0363   20.5743   21.5889 C   0  0  0  0  0  0  0  0  0  0  0  0
   22.0308   21.6638   21.4451 H   0  0  0  0  0  0  0  0  0  0  0  0
   23.0434   20.3165   21.9453 H   0  0  0  0  0  0  0  0  0  0  0  0
   20.9893   20.2099   22.6689 C   0  0  0  0  0  0  0  0  0  0  0  0
   21.1889   20.8119   23.5660 H   0  0  0  0  0  0  0  0  0  0  0  0
   19.9924   20.5016   22.3134 H   0  0  0  0  0  0  0  0  0  0  0  0
   21.0011   18.7084   23.0525 C   0  0  0  0  0  0  0  0  0  0  0  0
   22.0327   18.4061   23.2796 H   0  0  0  0  0  0  0  0  0  0  0  0
   20.6807   18.0985   22.1974 H   0  0  0  0  0  0  0  0  0  0  0  0
   20.1121   18.3759   24.2761 C   0  0  0  0  0  0  0  0  0  0  0  0
   20.2790   17.3242   24.5440 H   0  0  0  0  0  0  0  0  0  0  0  0
   20.4387   18.9702   25.1406 H   0  0  0  0  0  0  0  0  0  0  0  0
   18.6015   18.6093   24.0230 C   0  0  0  0  0  0  0  0  0  0  0  0
   18.2737   18.0370   23.1451 H   0  0  0  0  0  0  0  0  0  0  0  0
   18.4222   19.6671   23.7938 H   0  0  0  0  0  0  0  0  0  0  0  0
   17.7305   18.2323   25.2371 C   0  0  0  0  0  0  0  0  0  0  0  0
   18.0664   18.7867   26.1175 H   0  0  0  0  0  0  0  0  0  0  0  0
   16.6915   18.5079   25.0367 H   0  0  0  0  0  0  0  0  0  0  0  0
   17.7557   16.7539   25.5731 N   0  3  0  0  0  0  0  0  0  0  0  0
   18.6999   16.4341   25.8099 H   0  0  0  0  0  0  0  0  0  0  0  0
   17.4286   16.1797   24.7894 H   0  0  0  0  0  0  0  0  0  0  0  0
   17.1550   16.5357   26.3755 H   0  0  0  0  0  0  0  0  0  0  0  0
  1  2  1  0  0  0  0
  1  3  1  0  0  0  0
  1  4  1  0  0  0  0
  1  5  1  0  0  0  0
  5  6  1  0  0  0  0
  5  7  1  0  0  0  0
  5  8  1  0  0  0  0
  8  9  1  0  0  0  0
  8 10  1  0  0  0  0
  8 11  1  0  0  0  0
 11 12  1  0  0  0  0
 11 13  1  0  0  0  0
 11 14  1  0  0  0  0
 14 15  1  0  0  0  0
 14 16  1  0  0  0  0
 14 17  1  0  0  0  0
 17 18  1  0  0  0  0
 17 19  1  0  0  0  0
 17 20  1  0  0  0  0
 20 21  1  0  0  0  0
 20 22  1  0  0  0  0
 20 23  1  0  0  0  0
 23 24  1  0  0  0  0
 23 25  1  0  0  0  0
 23 26  1  0  0  0  0
M  END
> <VConfSearch Rank>
109

> <Conf_Id>
130

> <Delta U+W>
1.282

> <U+W>
-4.270

> <U>
49.153

> <W>
-53.422

> <W(PB)>
-55.725

> <W(SA)>
2.303

> <Valence>
3.298

> <Coulomb>
44.907

> <VdW>
0.948

> <VdW6>
-7.574

> <VdW12>
8.522

> <Bond>
0.229

> <Angle>
0.912

> <Pdih>
2.157

> <Idih>
0.000

> <Tether>
0.000

$$$$
VeraChem MOL file


 26 25  0  0  0  0  0  0  0  0999 V2000     
   19.2113   20.8529   20.6201 C   0  0  0  0  0  0  0  0  0  0  0  0
   19.7488   20.4578   19.7484 H   0  0  0  0  0  0  0  0  0  0  0  0
   18.7008   21.7742   20.3112 H   0  0  0  0  0  0  0  0  0  0  0  0
   19.9489   21.1248   21.3854 H   0  0  0  0  0  0  0  0  0  0  0  0
   18.1919   19.8231   21.1574 C   0  0  0  0  0  0  0  0  0  0  0  0
   17.4083   19.6742   20.4015 H   0  0  0  0  0  0  0  0  0  0  0  0
   17.6821   20.2318   22.0400 H   0  0  0  0  0  0  0  0  0  0  0  0
   18.8224   18.4468   21.4907 C   0  0  0  0  0  0  0  0  0  0  0  0
   18.0303   17.7700   21.8398 H   0  0  0  0  0  0  0  0  0  0  0  0
   19.2100   18.0020   20.5638 H   0  0  0  0  0  0  0  0  0  0  0  0
   19.9621   18.4732   22.5420 C   0  0  0  0  0  0  0  0  0  0  0  0
   20.8076   19.0618   22.1622 H   0  0  0  0  0  0  0  0  0  0  0  0
   20.3368   17.4478   22.6587 H   0  0  0  0  0  0  0  0  0  0  0  0
   19.5190   19.0221   23.9219 C   0  0  0  0  0  0  0  0  0  0  0  0
   19.1723   20.0578   23.8114 H   0  0  0  0  0  0  0  0  0  0  0  0
   18.6622   18.4436   24.2940 H   0  0  0  0  0  0  0  0  0  0  0  0
   20.6520   19.0022   24.9750 C   0  0  0  0  0  0  0  0  0  0  0  0
   20.2979   19.5002   25.8874 H   0  0  0  0  0  0  0  0  0  0  0  0
   21.5063   19.5872   24.6090 H   0  0  0  0  0  0  0  0  0  0  0  0
   21.1134   17.5759   25.3292 C   0  0  0  0  0  0  0  0  0  0  0  0
   20.2623   16.9936   25.6923 H   0  0  0  0  0  0  0  0  0  0  0  0
   21.5133   17.0836   24.4391 H   0  0  0  0  0  0  0  0  0  0  0  0
   22.1881   17.5488   26.3967 N   0  3  0  0  0  0  0  0  0  0  0  0
   23.0288   18.0585   26.1056 H   0  0  0  0  0  0  0  0  0  0  0  0
   22.4812   16.5910   26.6181 H   0  0  0  0  0  0  0  0  0  0  0  0
   21.8667   17.9726   27.2732 H   0  0  0  0  0  0  0  0  0  0  0  0
  1  2  1  0  0  0  0
  1  3  1  0  0  0  0
  1  4  1  0  0  0  0
  1  5  1  0  0  0  0
  5  6  1  0  0  0  0
  5  7  1  0  0  0  0
  5  8  1  0  0  0  0
  8  9  1  0  0  0  0
  8 10  1  0  0  0  0
  8 11  1  0  0  0  0
 11 12  1  0  0  0  0
 11 13  1  0  0  0  0
 11 14  1  0  0  0  0
 14 15  1  0  0  0  0
 14 16  1  0  0  0  0
 14 17  1  0  0  0  0
 17 18  1  0  0  0  0
 17 19  1  0  0  0  0
 17 20  1  0  0  0  0
 20 21  1  0  0  0  0
 20 22  1  0  0  0  0
 20 23  1  0  0  0  0
 23 24  1  0  0  0  0
 23 25  1  0  0  0  0
 23 26  1  0  0  0  0
M  END
> <VConfSearch Rank>
110

> <Conf_Id>
111

> <Delta U+W>
1.290

> <U+W>
-4.262

> <U>
49.209

> <W>
-53.471

> <W(PB)>
-55.745

> <W(SA)>
2.274

> <Valence>
3.465

> <Coulomb>
44.958

> <VdW>
0.786

> <VdW6>
-7.903

> <VdW12>
8.689

> <Bond>
0.237

> <Angle>
1.212

> <Pdih>
2.015

> <Idih>
0.000

> <Tether>
0.000

$$$$
VeraChem MOL file


 26 25  0  0  0  0  0  0  0  0999 V2000     
   19.0685   15.3783   21.8473 C   0  0  0  0  0  0  0  0  0  0  0  0
   19.9222   15.3802   21.1571 H   0  0  0  0  0  0  0  0  0  0  0  0
   19.1814   14.5247   22.5284 H   0  0  0  0  0  0  0  0  0  0  0  0
   18.1574   15.2190   21.2561 H   0  0  0  0  0  0  0  0  0  0  0  0
   18.9852   16.7060   22.6299 C   0  0  0  0  0  0  0  0  0  0  0  0
   18.1062   16.6857   23.2891 H   0  0  0  0  0  0  0  0  0  0  0  0
   18.8318   17.5288   21.9191 H   0  0  0  0  0  0  0  0  0  0  0  0
   20.2614   16.9546   23.4682 C   0  0  0  0  0  0  0  0  0  0  0  0
   20.4390   16.0835   24.1140 H   0  0  0  0  0  0  0  0  0  0  0  0
   21.1331   17.0276   22.8033 H   0  0  0  0  0  0  0  0  0  0  0  0
   20.1814   18.2178   24.3603 C   0  0  0  0  0  0  0  0  0  0  0  0
   21.0740   18.2480   25.0004 H   0  0  0  0  0  0  0  0  0  0  0  0
   19.3196   18.1357   25.0368 H   0  0  0  0  0  0  0  0  0  0  0  0
   20.0926   19.5381   23.5576 C   0  0  0  0  0  0  0  0  0  0  0  0
   20.9242   19.5828   22.8419 H   0  0  0  0  0  0  0  0  0  0  0  0
   19.1639   19.5592   22.9723 H   0  0  0  0  0  0  0  0  0  0  0  0
   20.1309   20.7750   24.4860 C   0  0  0  0  0  0  0  0  0  0  0  0
   21.0712   20.7918   25.0531 H   0  0  0  0  0  0  0  0  0  0  0  0
   19.3211   20.7006   25.2240 H   0  0  0  0  0  0  0  0  0  0  0  0
   19.9704   22.1012   23.7180 C   0  0  0  0  0  0  0  0  0  0  0  0
   19.0375   22.0859   23.1480 H   0  0  0  0  0  0  0  0  0  0  0  0
   19.9211   22.9292   24.4304 H   0  0  0  0  0  0  0  0  0  0  0  0
   21.1054   22.3901   22.7552 N   0  3  0  0  0  0  0  0  0  0  0  0
   20.9748   23.2845   22.2702 H   0  0  0  0  0  0  0  0  0  0  0  0
   21.1851   21.6666   22.0340 H   0  0  0  0  0  0  0  0  0  0  0  0
   22.0093   22.4398   23.2363 H   0  0  0  0  0  0  0  0  0  0  0  0
  1  2  1  0  0  0  0
  1  3  1  0  0  0  0
  1  4  1  0  0  0  0
  1  5  1  0  0  0  0
  5  6  1  0  0  0  0
  5  7  1  0  0  0  0
  5  8  1  0  0  0  0
  8  9  1  0  0  0  0
  8 10  1  0  0  0  0
  8 11  1  0  0  0  0
 11 12  1  0  0  0  0
 11 13  1  0  0  0  0
 11 14  1  0  0  0  0
 14 15  1  0  0  0  0
 14 16  1  0  0  0  0
 14 17  1  0  0  0  0
 17 18  1  0  0  0  0
 17 19  1  0  0  0  0
 17 20  1  0  0  0  0
 20 21  1  0  0  0  0
 20 22  1  0  0  0  0
 20 23  1  0  0  0  0
 23 24  1  0  0  0  0
 23 25  1  0  0  0  0
 23 26  1  0  0  0  0
M  END
> <VConfSearch Rank>
111

> <Conf_Id>
105

> <Delta U+W>
0.736

> <U+W>
-4.817

> <U>
48.735

> <W>
-53.552

> <W(PB)>
-55.889

> <W(SA)>
2.337

> <Valence>
2.803

> <Coulomb>
45.123

> <VdW>
0.809

> <VdW6>
-6.953

> <VdW12>
7.761

> <Bond>
0.188

> <Angle>
0.699

> <Pdih>
1.917

> <Idih>
0.000

> <Tether>
0.000

$$$$
VeraChem MOL file


 26 25  0  0  0  0  0  0  0  0999 V2000     
   22.9798   21.1928   23.5576 C   0  0  0  0  0  0  0  0  0  0  0  0
   23.5712   21.4572   22.6713 H   0  0  0  0  0  0  0  0  0  0  0  0
   22.2763   22.0119   23.7563 H   0  0  0  0  0  0  0  0  0  0  0  0
   23.6659   21.1232   24.4117 H   0  0  0  0  0  0  0  0  0  0  0  0
   22.2325   19.8586   23.3489 C   0  0  0  0  0  0  0  0  0  0  0  0
   21.6864   19.6088   24.2683 H   0  0  0  0  0  0  0  0  0  0  0  0
   22.9621   19.0540   23.1822 H   0  0  0  0  0  0  0  0  0  0  0  0
   21.2553   19.9335   22.1521 C   0  0  0  0  0  0  0  0  0  0  0  0
   20.5007   20.7094   22.3363 H   0  0  0  0  0  0  0  0  0  0  0  0
   21.8086   20.2590   21.2604 H   0  0  0  0  0  0  0  0  0  0  0  0
   20.5631   18.5838   21.8290 C   0  0  0  0  0  0  0  0  0  0  0  0
   21.3284   17.8574   21.5226 H   0  0  0  0  0  0  0  0  0  0  0  0
   19.9136   18.7218   20.9536 H   0  0  0  0  0  0  0  0  0  0  0  0
   19.7279   17.9684   22.9818 C   0  0  0  0  0  0  0  0  0  0  0  0
   19.3105   17.0171   22.6265 H   0  0  0  0  0  0  0  0  0  0  0  0
   20.3827   17.7134   23.8256 H   0  0  0  0  0  0  0  0  0  0  0  0
   18.5775   18.8839   23.4705 C   0  0  0  0  0  0  0  0  0  0  0  0
   17.9301   19.1582   22.6270 H   0  0  0  0  0  0  0  0  0  0  0  0
   18.9914   19.8194   23.8672 H   0  0  0  0  0  0  0  0  0  0  0  0
   17.7295   18.2321   24.5797 C   0  0  0  0  0  0  0  0  0  0  0  0
   18.3746   17.9405   25.4130 H   0  0  0  0  0  0  0  0  0  0  0  0
   17.0001   18.9572   24.9510 H   0  0  0  0  0  0  0  0  0  0  0  0
   16.9645   17.0049   24.1241 N   0  3  0  0  0  0  0  0  0  0  0  0
   17.5932   16.2652   23.7963 H   0  0  0  0  0  0  0  0  0  0  0  0
   16.3227   17.2205   23.3543 H   0  0  0  0  0  0  0  0  0  0  0  0
   16.4001   16.6052   24.8817 H   0  0  0  0  0  0  0  0  0  0  0  0
  1  2  1  0  0  0  0
  1  3  1  0  0  0  0
  1  4  1  0  0  0  0
  1  5  1  0  0  0  0
  5  6  1  0  0  0  0
  5  7  1  0  0  0  0
  5  8  1  0  0  0  0
  8  9  1  0  0  0  0
  8 10  1  0  0  0  0
  8 11  1  0  0  0  0
 11 12  1  0  0  0  0
 11 13  1  0  0  0  0
 11 14  1  0  0  0  0
 14 15  1  0  0  0  0
 14 16  1  0  0  0  0
 14 17  1  0  0  0  0
 17 18  1  0  0  0  0
 17 19  1  0  0  0  0
 17 20  1  0  0  0  0
 20 21  1  0  0  0  0
 20 22  1  0  0  0  0
 20 23  1  0  0  0  0
 23 24  1  0  0  0  0
 23 25  1  0  0  0  0
 23 26  1  0  0  0  0
M  END
> <VConfSearch Rank>
112

> <Conf_Id>
144

> <Delta U+W>
1.073

> <U+W>
-4.479

> <U>
49.231

> <W>
-53.710

> <W(PB)>
-55.983

> <W(SA)>
2.273

> <Valence>
3.276

> <Coulomb>
45.175

> <VdW>
0.779

> <VdW6>
-7.944

> <VdW12>
8.723

> <Bond>
0.239

> <Angle>
1.155

> <Pdih>
1.883

> <Idih>
0.000

> <Tether>
0.000

$$$$
VeraChem MOL file


 26 25  0  0  0  0  0  0  0  0999 V2000     
   18.8894   21.3032   25.8340 C   0  0  0  0  0  0  0  0  0  0  0  0
   17.8544   21.1348   25.5126 H   0  0  0  0  0  0  0  0  0  0  0  0
   18.8579   21.6467   26.8761 H   0  0  0  0  0  0  0  0  0  0  0  0
   19.3110   22.1144   25.2264 H   0  0  0  0  0  0  0  0  0  0  0  0
   19.7410   20.0187   25.7146 C   0  0  0  0  0  0  0  0  0  0  0  0
   19.2812   19.2122   26.3029 H   0  0  0  0  0  0  0  0  0  0  0  0
   20.7245   20.2066   26.1677 H   0  0  0  0  0  0  0  0  0  0  0  0
   19.9516   19.5490   24.2546 C   0  0  0  0  0  0  0  0  0  0  0  0
   20.3919   20.3653   23.6659 H   0  0  0  0  0  0  0  0  0  0  0  0
   20.6873   18.7352   24.2696 H   0  0  0  0  0  0  0  0  0  0  0  0
   18.6540   19.0466   23.5740 C   0  0  0  0  0  0  0  0  0  0  0  0
   17.8789   19.8199   23.6465 H   0  0  0  0  0  0  0  0  0  0  0  0
   18.2690   18.1763   24.1231 H   0  0  0  0  0  0  0  0  0  0  0  0
   18.8136   18.6809   22.0753 C   0  0  0  0  0  0  0  0  0  0  0  0
   17.8251   18.3801   21.7013 H   0  0  0  0  0  0  0  0  0  0  0  0
   19.0906   19.5732   21.4968 H   0  0  0  0  0  0  0  0  0  0  0  0
   19.8092   17.5297   21.7843 C   0  0  0  0  0  0  0  0  0  0  0  0
   19.4913   17.0159   20.8673 H   0  0  0  0  0  0  0  0  0  0  0  0
   19.7687   16.7826   22.5881 H   0  0  0  0  0  0  0  0  0  0  0  0
   21.2557   18.0208   21.5794 C   0  0  0  0  0  0  0  0  0  0  0  0
   21.2882   18.7227   20.7417 H   0  0  0  0  0  0  0  0  0  0  0  0
   21.6103   18.5399   22.4717 H   0  0  0  0  0  0  0  0  0  0  0  0
   22.2257   16.8957   21.2819 N   0  3  0  0  0  0  0  0  0  0  0  0
   21.9683   16.3847   20.4311 H   0  0  0  0  0  0  0  0  0  0  0  0
   22.2634   16.2118   22.0447 H   0  0  0  0  0  0  0  0  0  0  0  0
   23.1812   17.2426   21.1438 H   0  0  0  0  0  0  0  0  0  0  0  0
  1  2  1  0  0  0  0
  1  3  1  0  0  0  0
  1  4  1  0  0  0  0
  1  5  1  0  0  0  0
  5  6  1  0  0  0  0
  5  7  1  0  0  0  0
  5  8  1  0  0  0  0
  8  9  1  0  0  0  0
  8 10  1  0  0  0  0
  8 11  1  0  0  0  0
 11 12  1  0  0  0  0
 11 13  1  0  0  0  0
 11 14  1  0  0  0  0
 14 15  1  0  0  0  0
 14 16  1  0  0  0  0
 14 17  1  0  0  0  0
 17 18  1  0  0  0  0
 17 19  1  0  0  0  0
 17 20  1  0  0  0  0
 20 21  1  0  0  0  0
 20 22  1  0  0  0  0
 20 23  1  0  0  0  0
 23 24  1  0  0  0  0
 23 25  1  0  0  0  0
 23 26  1  0  0  0  0
M  END
> <VConfSearch Rank>
113

> <Conf_Id>
93

> <Delta U+W>
3.253

> <U+W>
-2.300

> <U>
51.609

> <W>
-53.909

> <W(PB)>
-56.178

> <W(SA)>
2.270

> <Valence>
5.204

> <Coulomb>
45.645

> <VdW>
0.760

> <VdW6>
-7.997

> <VdW12>
8.758

> <Bond>
0.240

> <Angle>
1.456

> <Pdih>
3.507

> <Idih>
0.000

> <Tether>
0.000

$$$$
VeraChem MOL file


 26 25  0  0  0  0  0  0  0  0999 V2000     
   19.4203   17.2192   26.4545 C   0  0  0  0  0  0  0  0  0  0  0  0
   20.0690   16.4073   26.1040 H   0  0  0  0  0  0  0  0  0  0  0  0
   20.0445   17.9608   26.9697 H   0  0  0  0  0  0  0  0  0  0  0  0
   18.7292   16.7920   27.1927 H   0  0  0  0  0  0  0  0  0  0  0  0
   18.6347   17.8659   25.2907 C   0  0  0  0  0  0  0  0  0  0  0  0
   17.9102   18.5782   25.7099 H   0  0  0  0  0  0  0  0  0  0  0  0
   18.0448   17.0991   24.7695 H   0  0  0  0  0  0  0  0  0  0  0  0
   19.5342   18.6151   24.2776 C   0  0  0  0  0  0  0  0  0  0  0  0
   18.8770   19.1620   23.5900 H   0  0  0  0  0  0  0  0  0  0  0  0
   20.1370   19.3659   24.8065 H   0  0  0  0  0  0  0  0  0  0  0  0
   20.4564   17.6775   23.4592 C   0  0  0  0  0  0  0  0  0  0  0  0
   19.8399   16.9864   22.8682 H   0  0  0  0  0  0  0  0  0  0  0  0
   21.0442   17.0527   24.1434 H   0  0  0  0  0  0  0  0  0  0  0  0
   21.4509   18.4110   22.5218 C   0  0  0  0  0  0  0  0  0  0  0  0
   22.1474   19.0208   23.1139 H   0  0  0  0  0  0  0  0  0  0  0  0
   22.0691   17.6459   22.0321 H   0  0  0  0  0  0  0  0  0  0  0  0
   20.7932   19.2774   21.4182 C   0  0  0  0  0  0  0  0  0  0  0  0
   19.8681   18.8023   21.0655 H   0  0  0  0  0  0  0  0  0  0  0  0
   21.4703   19.3165   20.5545 H   0  0  0  0  0  0  0  0  0  0  0  0
   20.5151   20.7237   21.8726 C   0  0  0  0  0  0  0  0  0  0  0  0
   19.8438   20.7287   22.7333 H   0  0  0  0  0  0  0  0  0  0  0  0
   21.4532   21.2002   22.1697 H   0  0  0  0  0  0  0  0  0  0  0  0
   19.8844   21.5733   20.7884 N   0  3  0  0  0  0  0  0  0  0  0  0
   20.4825   21.6388   19.9583 H   0  0  0  0  0  0  0  0  0  0  0  0
   19.7118   22.5327   21.1080 H   0  0  0  0  0  0  0  0  0  0  0  0
   18.9828   21.1939   20.4814 H   0  0  0  0  0  0  0  0  0  0  0  0
  1  2  1  0  0  0  0
  1  3  1  0  0  0  0
  1  4  1  0  0  0  0
  1  5  1  0  0  0  0
  5  6  1  0  0  0  0
  5  7  1  0  0  0  0
  5  8  1  0  0  0  0
  8  9  1  0  0  0  0
  8 10  1  0  0  0  0
  8 11  1  0  0  0  0
 11 12  1  0  0  0  0
 11 13  1  0  0  0  0
 11 14  1  0  0  0  0
 14 15  1  0  0  0  0
 14 16  1  0  0  0  0
 14 17  1  0  0  0  0
 17 18  1  0  0  0  0
 17 19  1  0  0  0  0
 17 20  1  0  0  0  0
 20 21  1  0  0  0  0
 20 22  1  0  0  0  0
 20 23  1  0  0  0  0
 23 24  1  0  0  0  0
 23 25  1  0  0  0  0
 23 26  1  0  0  0  0
M  END
> <VConfSearch Rank>
114

> <Conf_Id>
94

> <Delta U+W>
3.247

> <U+W>
-2.305

> <U>
51.609

> <W>
-53.914

> <W(PB)>
-56.221

> <W(SA)>
2.307

> <Valence>
5.204

> <Coulomb>
45.645

> <VdW>
0.760

> <VdW6>
-7.997

> <VdW12>
8.757

> <Bond>
0.240

> <Angle>
1.456

> <Pdih>
3.508

> <Idih>
0.000

> <Tether>
0.000

$$$$
VeraChem MOL file


 26 25  0  0  0  0  0  0  0  0999 V2000     
   24.1645   18.9530   23.2237 C   0  0  0  0  0  0  0  0  0  0  0  0
   24.4267   19.3751   24.2027 H   0  0  0  0  0  0  0  0  0  0  0  0
   24.2016   17.8586   23.3022 H   0  0  0  0  0  0  0  0  0  0  0  0
   24.9334   19.2655   22.5052 H   0  0  0  0  0  0  0  0  0  0  0  0
   22.7685   19.4297   22.7699 C   0  0  0  0  0  0  0  0  0  0  0  0
   22.5491   19.0192   21.7743 H   0  0  0  0  0  0  0  0  0  0  0  0
   22.7723   20.5240   22.6678 H   0  0  0  0  0  0  0  0  0  0  0  0
   21.6667   19.0026   23.7648 C   0  0  0  0  0  0  0  0  0  0  0  0
   21.6681   17.9083   23.8651 H   0  0  0  0  0  0  0  0  0  0  0  0
   21.8922   19.4130   24.7589 H   0  0  0  0  0  0  0  0  0  0  0  0
   20.2673   19.4786   23.3139 C   0  0  0  0  0  0  0  0  0  0  0  0
   20.0522   19.0710   22.3172 H   0  0  0  0  0  0  0  0  0  0  0  0
   20.2664   20.5732   23.2175 H   0  0  0  0  0  0  0  0  0  0  0  0
   19.1654   19.0476   24.3113 C   0  0  0  0  0  0  0  0  0  0  0  0
   19.1456   17.9525   24.3928 H   0  0  0  0  0  0  0  0  0  0  0  0
   19.4191   19.4230   25.3123 H   0  0  0  0  0  0  0  0  0  0  0  0
   17.7587   19.5735   23.9305 C   0  0  0  0  0  0  0  0  0  0  0  0
   17.7687   20.6715   23.9380 H   0  0  0  0  0  0  0  0  0  0  0  0
   17.0368   19.2690   24.6999 H   0  0  0  0  0  0  0  0  0  0  0  0
   17.2599   19.0930   22.5525 C   0  0  0  0  0  0  0  0  0  0  0  0
   16.2774   19.5281   22.3504 H   0  0  0  0  0  0  0  0  0  0  0  0
   17.9468   19.4301   21.7720 H   0  0  0  0  0  0  0  0  0  0  0  0
   17.1284   17.5867   22.4447 N   0  3  0  0  0  0  0  0  0  0  0  0
   16.4713   17.2119   23.1365 H   0  0  0  0  0  0  0  0  0  0  0  0
   18.0271   17.1178   22.5945 H   0  0  0  0  0  0  0  0  0  0  0  0
   16.7879   17.2989   21.5209 H   0  0  0  0  0  0  0  0  0  0  0  0
  1  2  1  0  0  0  0
  1  3  1  0  0  0  0
  1  4  1  0  0  0  0
  1  5  1  0  0  0  0
  5  6  1  0  0  0  0
  5  7  1  0  0  0  0
  5  8  1  0  0  0  0
  8  9  1  0  0  0  0
  8 10  1  0  0  0  0
  8 11  1  0  0  0  0
 11 12  1  0  0  0  0
 11 13  1  0  0  0  0
 11 14  1  0  0  0  0
 14 15  1  0  0  0  0
 14 16  1  0  0  0  0
 14 17  1  0  0  0  0
 17 18  1  0  0  0  0
 17 19  1  0  0  0  0
 17 20  1  0  0  0  0
 20 21  1  0  0  0  0
 20 22  1  0  0  0  0
 20 23  1  0  0  0  0
 23 24  1  0  0  0  0
 23 25  1  0  0  0  0
 23 26  1  0  0  0  0
M  END
> <VConfSearch Rank>
115

> <Conf_Id>
83

> <Delta U+W>
0.559

> <U+W>
-4.994

> <U>
48.668

> <W>
-53.661

> <W(PB)>
-55.972

> <W(SA)>
2.311

> <Valence>
2.543

> <Coulomb>
45.478

> <VdW>
0.646

> <VdW6>
-7.096

> <VdW12>
7.742

> <Bond>
0.176

> <Angle>
0.630

> <Pdih>
1.738

> <Idih>
0.000

> <Tether>
0.000

$$$$
VeraChem MOL file


 26 25  0  0  0  0  0  0  0  0999 V2000     
   22.7387   19.3406   26.1527 C   0  0  0  0  0  0  0  0  0  0  0  0
   22.4159   19.1248   27.1796 H   0  0  0  0  0  0  0  0  0  0  0  0
   23.3957   18.5254   25.8223 H   0  0  0  0  0  0  0  0  0  0  0  0
   23.3318   20.2641   26.1734 H   0  0  0  0  0  0  0  0  0  0  0  0
   21.5264   19.4924   25.2096 C   0  0  0  0  0  0  0  0  0  0  0  0
   21.8876   19.7476   24.2046 H   0  0  0  0  0  0  0  0  0  0  0  0
   20.9046   20.3328   25.5484 H   0  0  0  0  0  0  0  0  0  0  0  0
   20.6771   18.2003   25.1607 C   0  0  0  0  0  0  0  0  0  0  0  0
   21.2845   17.3721   24.7704 H   0  0  0  0  0  0  0  0  0  0  0  0
   20.3960   17.9196   26.1852 H   0  0  0  0  0  0  0  0  0  0  0  0
   19.3848   18.3382   24.3187 C   0  0  0  0  0  0  0  0  0  0  0  0
   18.7711   19.1572   24.7186 H   0  0  0  0  0  0  0  0  0  0  0  0
   18.7920   17.4210   24.4407 H   0  0  0  0  0  0  0  0  0  0  0  0
   19.6492   18.5710   22.8116 C   0  0  0  0  0  0  0  0  0  0  0  0
   20.1786   19.5216   22.6719 H   0  0  0  0  0  0  0  0  0  0  0  0
   20.3061   17.7781   22.4277 H   0  0  0  0  0  0  0  0  0  0  0  0
   18.3343   18.5893   21.9966 C   0  0  0  0  0  0  0  0  0  0  0  0
   17.6811   19.3963   22.3542 H   0  0  0  0  0  0  0  0  0  0  0  0
   17.7905   17.6496   22.1617 H   0  0  0  0  0  0  0  0  0  0  0  0
   18.5735   18.7533   20.4832 C   0  0  0  0  0  0  0  0  0  0  0  0
   19.2303   17.9557   20.1256 H   0  0  0  0  0  0  0  0  0  0  0  0
   17.6198   18.6720   19.9546 H   0  0  0  0  0  0  0  0  0  0  0  0
   19.1971   20.0822   20.1035 N   0  3  0  0  0  0  0  0  0  0  0  0
   20.1169   20.2078   20.5371 H   0  0  0  0  0  0  0  0  0  0  0  0
   18.6136   20.8734   20.3943 H   0  0  0  0  0  0  0  0  0  0  0  0
   19.3294   20.1645   19.0896 H   0  0  0  0  0  0  0  0  0  0  0  0
  1  2  1  0  0  0  0
  1  3  1  0  0  0  0
  1  4  1  0  0  0  0
  1  5  1  0  0  0  0
  5  6  1  0  0  0  0
  5  7  1  0  0  0  0
  5  8  1  0  0  0  0
  8  9  1  0  0  0  0
  8 10  1  0  0  0  0
  8 11  1  0  0  0  0
 11 12  1  0  0  0  0
 11 13  1  0  0  0  0
 11 14  1  0  0  0  0
 14 15  1  0  0  0  0
 14 16  1  0  0  0  0
 14 17  1  0  0  0  0
 17 18  1  0  0  0  0
 17 19  1  0  0  0  0
 17 20  1  0  0  0  0
 20 21  1  0  0  0  0
 20 22  1  0  0  0  0
 20 23  1  0  0  0  0
 23 24  1  0  0  0  0
 23 25  1  0  0  0  0
 23 26  1  0  0  0  0
M  END
> <VConfSearch Rank>
116

> <Conf_Id>
18

> <Delta U+W>
0.759

> <U+W>
-4.793

> <U>
48.945

> <W>
-53.738

> <W(PB)>
-56.051

> <W(SA)>
2.313

> <Valence>
2.802

> <Coulomb>
45.335

> <VdW>
0.807

> <VdW6>
-6.962

> <VdW12>
7.769

> <Bond>
0.189

> <Angle>
0.696

> <Pdih>
1.917

> <Idih>
0.000

> <Tether>
0.000

$$$$
VeraChem MOL file


 26 25  0  0  0  0  0  0  0  0999 V2000     
   16.6889   16.9946   24.4555 C   0  0  0  0  0  0  0  0  0  0  0  0
   17.1230   15.9862   24.4591 H   0  0  0  0  0  0  0  0  0  0  0  0
   16.3110   17.2078   25.4640 H   0  0  0  0  0  0  0  0  0  0  0  0
   15.8323   16.9904   23.7690 H   0  0  0  0  0  0  0  0  0  0  0  0
   17.7317   18.0456   24.0194 C   0  0  0  0  0  0  0  0  0  0  0  0
   17.2609   19.0383   23.9973 H   0  0  0  0  0  0  0  0  0  0  0  0
   18.0539   17.8225   22.9937 H   0  0  0  0  0  0  0  0  0  0  0  0
   18.9516   18.0668   24.9706 C   0  0  0  0  0  0  0  0  0  0  0  0
   18.5977   18.2099   26.0009 H   0  0  0  0  0  0  0  0  0  0  0  0
   19.4541   17.0899   24.9506 H   0  0  0  0  0  0  0  0  0  0  0  0
   19.9740   19.1833   24.6444 C   0  0  0  0  0  0  0  0  0  0  0  0
   20.7353   19.1983   25.4366 H   0  0  0  0  0  0  0  0  0  0  0  0
   19.4740   20.1611   24.6789 H   0  0  0  0  0  0  0  0  0  0  0  0
   20.6738   19.0020   23.2759 C   0  0  0  0  0  0  0  0  0  0  0  0
   21.1280   18.0027   23.2256 H   0  0  0  0  0  0  0  0  0  0  0  0
   19.9307   19.0573   22.4707 H   0  0  0  0  0  0  0  0  0  0  0  0
   21.7642   20.0749   23.0447 C   0  0  0  0  0  0  0  0  0  0  0  0
   22.4905   20.0391   23.8675 H   0  0  0  0  0  0  0  0  0  0  0  0
   21.3162   21.0773   23.0657 H   0  0  0  0  0  0  0  0  0  0  0  0
   22.5224   19.8777   21.7178 C   0  0  0  0  0  0  0  0  0  0  0  0
   23.3328   20.6088   21.6514 H   0  0  0  0  0  0  0  0  0  0  0  0
   22.9628   18.8774   21.6905 H   0  0  0  0  0  0  0  0  0  0  0  0
   21.6529   20.0429   20.4867 N   0  3  0  0  0  0  0  0  0  0  0  0
   21.2268   20.9744   20.4438 H   0  0  0  0  0  0  0  0  0  0  0  0
   20.8903   19.3590   20.4657 H   0  0  0  0  0  0  0  0  0  0  0  0
   22.1906   19.9196   19.6218 H   0  0  0  0  0  0  0  0  0  0  0  0
  1  2  1  0  0  0  0
  1  3  1  0  0  0  0
  1  4  1  0  0  0  0
  1  5  1  0  0  0  0
  5  6  1  0  0  0  0
  5  7  1  0  0  0  0
  5  8  1  0  0  0  0
  8  9  1  0  0  0  0
  8 10  1  0  0  0  0
  8 11  1  0  0  0  0
 11 12  1  0  0  0  0
 11 13  1  0  0  0  0
 11 14  1  0  0  0  0
 14 15  1  0  0  0  0
 14 16  1  0  0  0  0
 14 17  1  0  0  0  0
 17 18  1  0  0  0  0
 17 19  1  0  0  0  0
 17 20  1  0  0  0  0
 20 21  1  0  0  0  0
 20 22  1  0  0  0  0
 20 23  1  0  0  0  0
 23 24  1  0  0  0  0
 23 25  1  0  0  0  0
 23 26  1  0  0  0  0
M  END
> <VConfSearch Rank>
117

> <Conf_Id>
17

> <Delta U+W>
0.843

> <U+W>
-4.709

> <U>
48.945

> <W>
-53.653

> <W(PB)>
-55.991

> <W(SA)>
2.338

> <Valence>
2.802

> <Coulomb>
45.335

> <VdW>
0.807

> <VdW6>
-6.962

> <VdW12>
7.769

> <Bond>
0.189

> <Angle>
0.696

> <Pdih>
1.917

> <Idih>
0.000

> <Tether>
0.000

$$$$
VeraChem MOL file


 26 25  0  0  0  0  0  0  0  0999 V2000     
   19.0952   18.2825   26.6166 C   0  0  0  0  0  0  0  0  0  0  0  0
   18.4262   18.0137   25.7897 H   0  0  0  0  0  0  0  0  0  0  0  0
   19.8410   17.4850   26.7297 H   0  0  0  0  0  0  0  0  0  0  0  0
   18.4916   18.3100   27.5330 H   0  0  0  0  0  0  0  0  0  0  0  0
   19.7752   19.6495   26.3760 C   0  0  0  0  0  0  0  0  0  0  0  0
   20.3333   19.9309   27.2799 H   0  0  0  0  0  0  0  0  0  0  0  0
   19.0084   20.4240   26.2348 H   0  0  0  0  0  0  0  0  0  0  0  0
   20.7479   19.6501   25.1720 C   0  0  0  0  0  0  0  0  0  0  0  0
   21.2664   20.6185   25.1439 H   0  0  0  0  0  0  0  0  0  0  0  0
   21.5243   18.8883   25.3274 H   0  0  0  0  0  0  0  0  0  0  0  0
   20.0474   19.4117   23.8128 C   0  0  0  0  0  0  0  0  0  0  0  0
   19.2396   20.1451   23.6838 H   0  0  0  0  0  0  0  0  0  0  0  0
   19.5815   18.4183   23.8092 H   0  0  0  0  0  0  0  0  0  0  0  0
   21.0399   19.5230   22.6304 C   0  0  0  0  0  0  0  0  0  0  0  0
   21.5344   20.5037   22.6644 H   0  0  0  0  0  0  0  0  0  0  0  0
   21.8335   18.7710   22.7407 H   0  0  0  0  0  0  0  0  0  0  0  0
   20.3614   19.3583   21.2501 C   0  0  0  0  0  0  0  0  0  0  0  0
   21.1061   19.5383   20.4635 H   0  0  0  0  0  0  0  0  0  0  0  0
   19.5834   20.1237   21.1277 H   0  0  0  0  0  0  0  0  0  0  0  0
   19.7478   17.9596   21.0512 C   0  0  0  0  0  0  0  0  0  0  0  0
   20.5223   17.1975   21.1725 H   0  0  0  0  0  0  0  0  0  0  0  0
   18.9722   17.7852   21.8013 H   0  0  0  0  0  0  0  0  0  0  0  0
   19.1212   17.7763   19.6840 N   0  3  0  0  0  0  0  0  0  0  0  0
   18.7189   16.8393   19.5717 H   0  0  0  0  0  0  0  0  0  0  0  0
   19.8055   17.8993   18.9305 H   0  0  0  0  0  0  0  0  0  0  0  0
   18.3647   18.4479   19.5172 H   0  0  0  0  0  0  0  0  0  0  0  0
  1  2  1  0  0  0  0
  1  3  1  0  0  0  0
  1  4  1  0  0  0  0
  1  5  1  0  0  0  0
  5  6  1  0  0  0  0
  5  7  1  0  0  0  0
  5  8  1  0  0  0  0
  8  9  1  0  0  0  0
  8 10  1  0  0  0  0
  8 11  1  0  0  0  0
 11 12  1  0  0  0  0
 11 13  1  0  0  0  0
 11 14  1  0  0  0  0
 14 15  1  0  0  0  0
 14 16  1  0  0  0  0
 14 17  1  0  0  0  0
 17 18  1  0  0  0  0
 17 19  1  0  0  0  0
 17 20  1  0  0  0  0
 20 21  1  0  0  0  0
 20 22  1  0  0  0  0
 20 23  1  0  0  0  0
 23 24  1  0  0  0  0
 23 25  1  0  0  0  0
 23 26  1  0  0  0  0
M  END
> <VConfSearch Rank>
118

> <Conf_Id>
96

> <Delta U+W>
0.912

> <U+W>
-4.640

> <U>
48.723

> <W>
-53.364

> <W(PB)>
-55.683

> <W(SA)>
2.320

> <Valence>
2.962

> <Coulomb>
44.993

> <VdW>
0.768

> <VdW6>
-7.008

> <VdW12>
7.776

> <Bond>
0.188

> <Angle>
0.757

> <Pdih>
2.018

> <Idih>
0.000

> <Tether>
0.000

$$$$
VeraChem MOL file


 26 25  0  0  0  0  0  0  0  0999 V2000     
   18.1704   16.5626   24.8845 C   0  0  0  0  0  0  0  0  0  0  0  0
   17.9337   15.5900   25.3349 H   0  0  0  0  0  0  0  0  0  0  0  0
   17.2222   17.0653   24.6540 H   0  0  0  0  0  0  0  0  0  0  0  0
   18.6961   16.3695   23.9412 H   0  0  0  0  0  0  0  0  0  0  0  0
   19.0288   17.4109   25.8501 C   0  0  0  0  0  0  0  0  0  0  0  0
   19.9841   16.9017   26.0398 H   0  0  0  0  0  0  0  0  0  0  0  0
   18.5151   17.4716   26.8198 H   0  0  0  0  0  0  0  0  0  0  0  0
   19.2939   18.8474   25.3383 C   0  0  0  0  0  0  0  0  0  0  0  0
   18.3363   19.3591   25.1695 H   0  0  0  0  0  0  0  0  0  0  0  0
   19.8091   19.4093   26.1296 H   0  0  0  0  0  0  0  0  0  0  0  0
   20.1458   18.8950   24.0472 C   0  0  0  0  0  0  0  0  0  0  0  0
   19.6083   18.3915   23.2340 H   0  0  0  0  0  0  0  0  0  0  0  0
   21.0809   18.3402   24.2052 H   0  0  0  0  0  0  0  0  0  0  0  0
   20.4721   20.3494   23.6304 C   0  0  0  0  0  0  0  0  0  0  0  0
   19.5393   20.8993   23.4430 H   0  0  0  0  0  0  0  0  0  0  0  0
   20.9721   20.8611   24.4644 H   0  0  0  0  0  0  0  0  0  0  0  0
   21.3807   20.4341   22.3814 C   0  0  0  0  0  0  0  0  0  0  0  0
   22.3236   19.9051   22.5744 H   0  0  0  0  0  0  0  0  0  0  0  0
   21.6413   21.4855   22.2012 H   0  0  0  0  0  0  0  0  0  0  0  0
   20.7127   19.8580   21.1188 C   0  0  0  0  0  0  0  0  0  0  0  0
   20.4887   18.7987   21.2686 H   0  0  0  0  0  0  0  0  0  0  0  0
   19.7743   20.3849   20.9262 H   0  0  0  0  0  0  0  0  0  0  0  0
   21.5795   19.9789   19.8821 N   0  3  0  0  0  0  0  0  0  0  0  0
   22.4692   19.4807   19.9887 H   0  0  0  0  0  0  0  0  0  0  0  0
   21.8046   20.9559   19.6673 H   0  0  0  0  0  0  0  0  0  0  0  0
   21.1169   19.5902   19.0530 H   0  0  0  0  0  0  0  0  0  0  0  0
  1  2  1  0  0  0  0
  1  3  1  0  0  0  0
  1  4  1  0  0  0  0
  1  5  1  0  0  0  0
  5  6  1  0  0  0  0
  5  7  1  0  0  0  0
  5  8  1  0  0  0  0
  8  9  1  0  0  0  0
  8 10  1  0  0  0  0
  8 11  1  0  0  0  0
 11 12  1  0  0  0  0
 11 13  1  0  0  0  0
 11 14  1  0  0  0  0
 14 15  1  0  0  0  0
 14 16  1  0  0  0  0
 14 17  1  0  0  0  0
 17 18  1  0  0  0  0
 17 19  1  0  0  0  0
 17 20  1  0  0  0  0
 20 21  1  0  0  0  0
 20 22  1  0  0  0  0
 20 23  1  0  0  0  0
 23 24  1  0  0  0  0
 23 25  1  0  0  0  0
 23 26  1  0  0  0  0
M  END
> <VConfSearch Rank>
119

> <Conf_Id>
133

> <Delta U+W>
0.844

> <U+W>
-4.708

> <U>
48.723

> <W>
-53.431

> <W(PB)>
-55.776

> <W(SA)>
2.344

> <Valence>
2.962

> <Coulomb>
44.993

> <VdW>
0.768

> <VdW6>
-7.008

> <VdW12>
7.776

> <Bond>
0.188

> <Angle>
0.756

> <Pdih>
2.018

> <Idih>
0.000

> <Tether>
0.000

$$$$
VeraChem MOL file


 26 25  0  0  0  0  0  0  0  0999 V2000     
   18.4411   20.6320   20.8630 C   0  0  0  0  0  0  0  0  0  0  0  0
   17.3713   20.8517   20.9734 H   0  0  0  0  0  0  0  0  0  0  0  0
   18.9661   21.0269   21.7418 H   0  0  0  0  0  0  0  0  0  0  0  0
   18.8080   21.1795   19.9853 H   0  0  0  0  0  0  0  0  0  0  0  0
   18.6819   19.1148   20.6944 C   0  0  0  0  0  0  0  0  0  0  0  0
   19.7586   18.9179   20.6062 H   0  0  0  0  0  0  0  0  0  0  0  0
   18.2387   18.7902   19.7426 H   0  0  0  0  0  0  0  0  0  0  0  0
   18.0729   18.2631   21.8373 C   0  0  0  0  0  0  0  0  0  0  0  0
   16.9807   18.3826   21.8253 H   0  0  0  0  0  0  0  0  0  0  0  0
   18.2611   17.2014   21.6261 H   0  0  0  0  0  0  0  0  0  0  0  0
   18.5930   18.5937   23.2602 C   0  0  0  0  0  0  0  0  0  0  0  0
   18.0756   17.9409   23.9767 H   0  0  0  0  0  0  0  0  0  0  0  0
   18.3138   19.6204   23.5317 H   0  0  0  0  0  0  0  0  0  0  0  0
   20.1208   18.4061   23.4199 C   0  0  0  0  0  0  0  0  0  0  0  0
   20.4015   17.3916   23.1044 H   0  0  0  0  0  0  0  0  0  0  0  0
   20.6542   19.1048   22.7619 H   0  0  0  0  0  0  0  0  0  0  0  0
   20.5781   18.6376   24.8769 C   0  0  0  0  0  0  0  0  0  0  0  0
   20.0592   17.9363   25.5439 H   0  0  0  0  0  0  0  0  0  0  0  0
   20.2997   19.6513   25.1948 H   0  0  0  0  0  0  0  0  0  0  0  0
   22.0987   18.4543   25.0254 C   0  0  0  0  0  0  0  0  0  0  0  0
   22.3784   17.4408   24.7250 H   0  0  0  0  0  0  0  0  0  0  0  0
   22.6202   19.1621   24.3753 H   0  0  0  0  0  0  0  0  0  0  0  0
   22.5874   18.6735   26.4426 N   0  3  0  0  0  0  0  0  0  0  0  0
   23.6025   18.5465   26.5195 H   0  0  0  0  0  0  0  0  0  0  0  0
   22.1540   18.0186   27.1019 H   0  0  0  0  0  0  0  0  0  0  0  0
   22.3790   19.6202   26.7766 H   0  0  0  0  0  0  0  0  0  0  0  0
  1  2  1  0  0  0  0
  1  3  1  0  0  0  0
  1  4  1  0  0  0  0
  1  5  1  0  0  0  0
  5  6  1  0  0  0  0
  5  7  1  0  0  0  0
  5  8  1  0  0  0  0
  8  9  1  0  0  0  0
  8 10  1  0  0  0  0
  8 11  1  0  0  0  0
 11 12  1  0  0  0  0
 11 13  1  0  0  0  0
 11 14  1  0  0  0  0
 14 15  1  0  0  0  0
 14 16  1  0  0  0  0
 14 17  1  0  0  0  0
 17 18  1  0  0  0  0
 17 19  1  0  0  0  0
 17 20  1  0  0  0  0
 20 21  1  0  0  0  0
 20 22  1  0  0  0  0
 20 23  1  0  0  0  0
 23 24  1  0  0  0  0
 23 25  1  0  0  0  0
 23 26  1  0  0  0  0
M  END
> <VConfSearch Rank>
120

> <Conf_Id>
106

> <Delta U+W>
0.767

> <U+W>
-4.785

> <U>
48.494

> <W>
-53.279

> <W(PB)>
-55.569

> <W(SA)>
2.290

> <Valence>
3.117

> <Coulomb>
44.693

> <VdW>
0.684

> <VdW6>
-7.347

> <VdW12>
8.030

> <Bond>
0.208

> <Angle>
1.039

> <Pdih>
1.870

> <Idih>
0.000

> <Tether>
0.000

$$$$
VeraChem MOL file


 26 25  0  0  0  0  0  0  0  0999 V2000     
   16.6914   21.8454   24.1136 C   0  0  0  0  0  0  0  0  0  0  0  0
   15.8853   21.1761   23.7856 H   0  0  0  0  0  0  0  0  0  0  0  0
   16.7674   21.7791   25.2068 H   0  0  0  0  0  0  0  0  0  0  0  0
   16.4015   22.8728   23.8576 H   0  0  0  0  0  0  0  0  0  0  0  0
   18.0297   21.4731   23.4409 C   0  0  0  0  0  0  0  0  0  0  0  0
   18.8079   22.1798   23.7617 H   0  0  0  0  0  0  0  0  0  0  0  0
   17.9327   21.5816   22.3515 H   0  0  0  0  0  0  0  0  0  0  0  0
   18.4612   20.0303   23.7851 C   0  0  0  0  0  0  0  0  0  0  0  0
   18.5545   19.9262   24.8750 H   0  0  0  0  0  0  0  0  0  0  0  0
   17.6793   19.3280   23.4645 H   0  0  0  0  0  0  0  0  0  0  0  0
   19.8011   19.6539   23.1133 C   0  0  0  0  0  0  0  0  0  0  0  0
   20.5824   20.3569   23.4342 H   0  0  0  0  0  0  0  0  0  0  0  0
   19.7071   19.7588   22.0235 H   0  0  0  0  0  0  0  0  0  0  0  0
   20.2323   18.2103   23.4579 C   0  0  0  0  0  0  0  0  0  0  0  0
   20.3264   18.1050   24.5477 H   0  0  0  0  0  0  0  0  0  0  0  0
   19.4512   17.5069   23.1370 H   0  0  0  0  0  0  0  0  0  0  0  0
   21.5715   17.8334   22.7869 C   0  0  0  0  0  0  0  0  0  0  0  0
   22.3561   18.5309   23.1093 H   0  0  0  0  0  0  0  0  0  0  0  0
   21.4800   17.9324   21.6970 H   0  0  0  0  0  0  0  0  0  0  0  0
   21.9910   16.3946   23.1363 C   0  0  0  0  0  0  0  0  0  0  0  0
   22.0994   16.2956   24.2198 H   0  0  0  0  0  0  0  0  0  0  0  0
   21.2200   15.6949   22.8024 H   0  0  0  0  0  0  0  0  0  0  0  0
   23.3020   15.9865   22.4959 N   0  3  0  0  0  0  0  0  0  0  0  0
   23.5629   15.0252   22.7414 H   0  0  0  0  0  0  0  0  0  0  0  0
   24.0761   16.5904   22.7914 H   0  0  0  0  0  0  0  0  0  0  0  0
   23.2578   16.0314   21.4725 H   0  0  0  0  0  0  0  0  0  0  0  0
  1  2  1  0  0  0  0
  1  3  1  0  0  0  0
  1  4  1  0  0  0  0
  1  5  1  0  0  0  0
  5  6  1  0  0  0  0
  5  7  1  0  0  0  0
  5  8  1  0  0  0  0
  8  9  1  0  0  0  0
  8 10  1  0  0  0  0
  8 11  1  0  0  0  0
 11 12  1  0  0  0  0
 11 13  1  0  0  0  0
 11 14  1  0  0  0  0
 14 15  1  0  0  0  0
 14 16  1  0  0  0  0
 14 17  1  0  0  0  0
 17 18  1  0  0  0  0
 17 19  1  0  0  0  0
 17 20  1  0  0  0  0
 20 21  1  0  0  0  0
 20 22  1  0  0  0  0
 20 23  1  0  0  0  0
 23 24  1  0  0  0  0
 23 25  1  0  0  0  0
 23 26  1  0  0  0  0
M  END
> <VConfSearch Rank>
121

> <Conf_Id>
25

> <Delta U+W>
0.000

> <U+W>
-5.552

> <U>
47.192

> <W>
-52.745

> <W(PB)>
-55.134

> <W(SA)>
2.389

> <Valence>
2.156

> <Coulomb>
44.449

> <VdW>
0.587

> <VdW6>
-5.761

> <VdW12>
6.348

> <Bond>
0.129

> <Angle>
0.393

> <Pdih>
1.634

> <Idih>
0.000

> <Tether>
0.000

$$$$
VeraChem MOL file


 26 25  0  0  0  0  0  0  0  0999 V2000     
   16.2984   21.0583   23.9382 C   0  0  0  0  0  0  0  0  0  0  0  0
   16.6743   21.6784   24.7625 H   0  0  0  0  0  0  0  0  0  0  0  0
   16.4103   21.6256   23.0050 H   0  0  0  0  0  0  0  0  0  0  0  0
   15.2263   20.8908   24.1043 H   0  0  0  0  0  0  0  0  0  0  0  0
   17.0549   19.7150   23.8648 C   0  0  0  0  0  0  0  0  0  0  0  0
   16.6346   19.1037   23.0539 H   0  0  0  0  0  0  0  0  0  0  0  0
   16.8966   19.1561   24.7978 H   0  0  0  0  0  0  0  0  0  0  0  0
   18.5678   19.9223   23.6313 C   0  0  0  0  0  0  0  0  0  0  0  0
   18.7208   20.4834   22.6991 H   0  0  0  0  0  0  0  0  0  0  0  0
   18.9829   20.5356   24.4431 H   0  0  0  0  0  0  0  0  0  0  0  0
   19.3287   18.5792   23.5573 C   0  0  0  0  0  0  0  0  0  0  0  0
   18.9131   17.9666   22.7452 H   0  0  0  0  0  0  0  0  0  0  0  0
   19.1740   18.0186   24.4896 H   0  0  0  0  0  0  0  0  0  0  0  0
   20.8423   18.7870   23.3242 C   0  0  0  0  0  0  0  0  0  0  0  0
   20.9907   19.3518   22.3942 H   0  0  0  0  0  0  0  0  0  0  0  0
   21.2583   19.3972   24.1380 H   0  0  0  0  0  0  0  0  0  0  0  0
   21.6019   17.4413   23.2495 C   0  0  0  0  0  0  0  0  0  0  0  0
   21.2147   16.8359   22.4191 H   0  0  0  0  0  0  0  0  0  0  0  0
   21.4174   16.8681   24.1678 H   0  0  0  0  0  0  0  0  0  0  0  0
   23.1232   17.6246   23.0868 C   0  0  0  0  0  0  0  0  0  0  0  0
   23.5108   18.2322   23.9090 H   0  0  0  0  0  0  0  0  0  0  0  0
   23.6123   16.6474   23.1251 H   0  0  0  0  0  0  0  0  0  0  0  0
   23.5222   18.2874   21.7829 N   0  3  0  0  0  0  0  0  0  0  0  0
   23.1252   19.2283   21.6982 H   0  0  0  0  0  0  0  0  0  0  0  0
   23.2049   17.7498   20.9697 H   0  0  0  0  0  0  0  0  0  0  0  0
   24.5403   18.3827   21.7003 H   0  0  0  0  0  0  0  0  0  0  0  0
  1  2  1  0  0  0  0
  1  3  1  0  0  0  0
  1  4  1  0  0  0  0
  1  5  1  0  0  0  0
  5  6  1  0  0  0  0
  5  7  1  0  0  0  0
  5  8  1  0  0  0  0
  8  9  1  0  0  0  0
  8 10  1  0  0  0  0
  8 11  1  0  0  0  0
 11 12  1  0  0  0  0
 11 13  1  0  0  0  0
 11 14  1  0  0  0  0
 14 15  1  0  0  0  0
 14 16  1  0  0  0  0
 14 17  1  0  0  0  0
 17 18  1  0  0  0  0
 17 19  1  0  0  0  0
 17 20  1  0  0  0  0
 20 21  1  0  0  0  0
 20 22  1  0  0  0  0
 20 23  1  0  0  0  0
 23 24  1  0  0  0  0
 23 25  1  0  0  0  0
 23 26  1  0  0  0  0
M  END
> <VConfSearch Rank>
122

> <Conf_Id>
20

> <Delta U+W>
0.150

> <U+W>
-5.403

> <U>
47.845

> <W>
-53.248

> <W(PB)>
-55.599

> <W(SA)>
2.351

> <Valence>
2.258

> <Coulomb>
44.893

> <VdW>
0.694

> <VdW6>
-6.285

> <VdW12>
6.979

> <Bond>
0.149

> <Angle>
0.434

> <Pdih>
1.675

> <Idih>
0.000

> <Tether>
0.000

$$$$
VeraChem MOL file


 26 25  0  0  0  0  0  0  0  0999 V2000     
   17.2387   20.1939   26.3907 C   0  0  0  0  0  0  0  0  0  0  0  0
   16.6257   20.7565   25.6746 H   0  0  0  0  0  0  0  0  0  0  0  0
   16.7802   19.2064   26.5315 H   0  0  0  0  0  0  0  0  0  0  0  0
   17.2034   20.7220   27.3524 H   0  0  0  0  0  0  0  0  0  0  0  0
   18.6940   20.0640   25.8934 C   0  0  0  0  0  0  0  0  0  0  0  0
   19.2895   19.5271   26.6451 H   0  0  0  0  0  0  0  0  0  0  0  0
   19.1363   21.0652   25.7947 H   0  0  0  0  0  0  0  0  0  0  0  0
   18.7722   19.3234   24.5400 C   0  0  0  0  0  0  0  0  0  0  0  0
   18.3270   18.3241   24.6431 H   0  0  0  0  0  0  0  0  0  0  0  0
   18.1735   19.8624   23.7927 H   0  0  0  0  0  0  0  0  0  0  0  0
   20.2281   19.1914   24.0387 C   0  0  0  0  0  0  0  0  0  0  0  0
   20.8260   18.6534   24.7874 H   0  0  0  0  0  0  0  0  0  0  0  0
   20.6725   20.1911   23.9355 H   0  0  0  0  0  0  0  0  0  0  0  0
   20.3060   18.4499   22.6850 C   0  0  0  0  0  0  0  0  0  0  0  0
   19.8642   17.4490   22.7891 H   0  0  0  0  0  0  0  0  0  0  0  0
   19.7030   18.9890   21.9422 H   0  0  0  0  0  0  0  0  0  0  0  0
   21.7641   18.3196   22.1846 C   0  0  0  0  0  0  0  0  0  0  0  0
   22.3672   17.8126   22.9495 H   0  0  0  0  0  0  0  0  0  0  0  0
   22.2054   19.3158   22.0470 H   0  0  0  0  0  0  0  0  0  0  0  0
   21.8736   17.5226   20.8704 C   0  0  0  0  0  0  0  0  0  0  0  0
   22.9281   17.3918   20.6124 H   0  0  0  0  0  0  0  0  0  0  0  0
   21.4296   16.5322   21.0024 H   0  0  0  0  0  0  0  0  0  0  0  0
   21.1918   18.1908   19.6925 N   0  3  0  0  0  0  0  0  0  0  0  0
   21.5823   19.1196   19.5033 H   0  0  0  0  0  0  0  0  0  0  0  0
   20.1871   18.3113   19.8536 H   0  0  0  0  0  0  0  0  0  0  0  0
   21.2941   17.6419   18.8319 H   0  0  0  0  0  0  0  0  0  0  0  0
  1  2  1  0  0  0  0
  1  3  1  0  0  0  0
  1  4  1  0  0  0  0
  1  5  1  0  0  0  0
  5  6  1  0  0  0  0
  5  7  1  0  0  0  0
  5  8  1  0  0  0  0
  8  9  1  0  0  0  0
  8 10  1  0  0  0  0
  8 11  1  0  0  0  0
 11 12  1  0  0  0  0
 11 13  1  0  0  0  0
 11 14  1  0  0  0  0
 14 15  1  0  0  0  0
 14 16  1  0  0  0  0
 14 17  1  0  0  0  0
 17 18  1  0  0  0  0
 17 19  1  0  0  0  0
 17 20  1  0  0  0  0
 20 21  1  0  0  0  0
 20 22  1  0  0  0  0
 20 23  1  0  0  0  0
 23 24  1  0  0  0  0
 23 25  1  0  0  0  0
 23 26  1  0  0  0  0
M  END
> <VConfSearch Rank>
123

> <Conf_Id>
19

> <Delta U+W>
0.162

> <U+W>
-5.391

> <U>
47.845

> <W>
-53.235

> <W(PB)>
-55.585

> <W(SA)>
2.349

> <Valence>
2.258

> <Coulomb>
44.893

> <VdW>
0.694

> <VdW6>
-6.285

> <VdW12>
6.979

> <Bond>
0.149

> <Angle>
0.434

> <Pdih>
1.675

> <Idih>
0.000

> <Tether>
0.000

$$$$
VeraChem MOL file


 26 25  0  0  0  0  0  0  0  0999 V2000     
   16.5155   21.2600   23.3777 C   0  0  0  0  0  0  0  0  0  0  0  0
   16.3826   21.8826   24.2721 H   0  0  0  0  0  0  0  0  0  0  0  0
   16.7827   21.9173   22.5400 H   0  0  0  0  0  0  0  0  0  0  0  0
   15.5492   20.7938   23.1455 H   0  0  0  0  0  0  0  0  0  0  0  0
   17.5987   20.1843   23.6057 C   0  0  0  0  0  0  0  0  0  0  0  0
   17.6729   19.5581   22.7068 H   0  0  0  0  0  0  0  0  0  0  0  0
   17.2898   19.5254   24.4291 H   0  0  0  0  0  0  0  0  0  0  0  0
   18.9719   20.8183   23.9307 C   0  0  0  0  0  0  0  0  0  0  0  0
   19.3048   21.4352   23.0846 H   0  0  0  0  0  0  0  0  0  0  0  0
   18.8563   21.5017   24.7833 H   0  0  0  0  0  0  0  0  0  0  0  0
   20.0673   19.7807   24.2793 C   0  0  0  0  0  0  0  0  0  0  0  0
   19.7401   19.1744   25.1353 H   0  0  0  0  0  0  0  0  0  0  0  0
   20.9650   20.3214   24.6098 H   0  0  0  0  0  0  0  0  0  0  0  0
   20.4431   18.8559   23.0965 C   0  0  0  0  0  0  0  0  0  0  0  0
   19.5754   18.2507   22.8024 H   0  0  0  0  0  0  0  0  0  0  0  0
   20.7173   19.4665   22.2250 H   0  0  0  0  0  0  0  0  0  0  0  0
   21.6147   17.9150   23.4542 C   0  0  0  0  0  0  0  0  0  0  0  0
   21.3440   17.3019   24.3243 H   0  0  0  0  0  0  0  0  0  0  0  0
   22.4933   18.5091   23.7390 H   0  0  0  0  0  0  0  0  0  0  0  0
   21.9794   16.9964   22.2747 C   0  0  0  0  0  0  0  0  0  0  0  0
   21.1124   16.3905   21.9980 H   0  0  0  0  0  0  0  0  0  0  0  0
   22.2654   17.6026   21.4108 H   0  0  0  0  0  0  0  0  0  0  0  0
   23.1262   16.0568   22.5868 N   0  3  0  0  0  0  0  0  0  0  0  0
   22.9097   15.4382   23.3753 H   0  0  0  0  0  0  0  0  0  0  0  0
   23.9825   16.5660   22.8289 H   0  0  0  0  0  0  0  0  0  0  0  0
   23.3531   15.4541   21.7882 H   0  0  0  0  0  0  0  0  0  0  0  0
  1  2  1  0  0  0  0
  1  3  1  0  0  0  0
  1  4  1  0  0  0  0
  1  5  1  0  0  0  0
  5  6  1  0  0  0  0
  5  7  1  0  0  0  0
  5  8  1  0  0  0  0
  8  9  1  0  0  0  0
  8 10  1  0  0  0  0
  8 11  1  0  0  0  0
 11 12  1  0  0  0  0
 11 13  1  0  0  0  0
 11 14  1  0  0  0  0
 14 15  1  0  0  0  0
 14 16  1  0  0  0  0
 14 17  1  0  0  0  0
 17 18  1  0  0  0  0
 17 19  1  0  0  0  0
 17 20  1  0  0  0  0
 20 21  1  0  0  0  0
 20 22  1  0  0  0  0
 20 23  1  0  0  0  0
 23 24  1  0  0  0  0
 23 25  1  0  0  0  0
 23 26  1  0  0  0  0
M  END
> <VConfSearch Rank>
124

> <Conf_Id>
37

> <Delta U+W>
0.565

> <U+W>
-4.988

> <U>
48.035

> <W>
-53.022

> <W(PB)>
-55.379

> <W(SA)>
2.357

> <Valence>
2.701

> <Coulomb>
44.622

> <VdW>
0.712

> <VdW6>
-6.418

> <VdW12>
7.129

> <Bond>
0.168

> <Angle>
0.659

> <Pdih>
1.875

> <Idih>
0.000

> <Tether>
0.000

$$$$
VeraChem MOL file


 26 25  0  0  0  0  0  0  0  0999 V2000     
   20.5104   22.7619   22.3110 C   0  0  0  0  0  0  0  0  0  0  0  0
   21.4913   22.3759   22.0042 H   0  0  0  0  0  0  0  0  0  0  0  0
   19.8441   22.7345   21.4390 H   0  0  0  0  0  0  0  0  0  0  0  0
   20.6383   23.8119   22.6045 H   0  0  0  0  0  0  0  0  0  0  0  0
   19.9299   21.9366   23.4789 C   0  0  0  0  0  0  0  0  0  0  0  0
   18.9666   22.3676   23.7859 H   0  0  0  0  0  0  0  0  0  0  0  0
   20.6009   22.0101   24.3463 H   0  0  0  0  0  0  0  0  0  0  0  0
   19.7388   20.4533   23.0920 C   0  0  0  0  0  0  0  0  0  0  0  0
   19.0660   20.3850   22.2261 H   0  0  0  0  0  0  0  0  0  0  0  0
   20.7057   20.0381   22.7790 H   0  0  0  0  0  0  0  0  0  0  0  0
   19.1606   19.6240   24.2639 C   0  0  0  0  0  0  0  0  0  0  0  0
   18.2336   20.0988   24.6143 H   0  0  0  0  0  0  0  0  0  0  0  0
   19.8578   19.6456   25.1129 H   0  0  0  0  0  0  0  0  0  0  0  0
   18.8464   18.1550   23.8879 C   0  0  0  0  0  0  0  0  0  0  0  0
   18.3363   17.6796   24.7373 H   0  0  0  0  0  0  0  0  0  0  0  0
   18.1356   18.1331   23.0502 H   0  0  0  0  0  0  0  0  0  0  0  0
   20.1016   17.3256   23.5286 C   0  0  0  0  0  0  0  0  0  0  0  0
   20.8332   17.3892   24.3450 H   0  0  0  0  0  0  0  0  0  0  0  0
   20.5813   17.7349   22.6306 H   0  0  0  0  0  0  0  0  0  0  0  0
   19.7442   15.8502   23.2766 C   0  0  0  0  0  0  0  0  0  0  0  0
   19.2820   15.4253   24.1717 H   0  0  0  0  0  0  0  0  0  0  0  0
   19.0280   15.7804   22.4534 H   0  0  0  0  0  0  0  0  0  0  0  0
   20.9473   14.9997   22.9232 N   0  3  0  0  0  0  0  0  0  0  0  0
   21.6490   15.0010   23.6707 H   0  0  0  0  0  0  0  0  0  0  0  0
   21.4126   15.3305   22.0716 H   0  0  0  0  0  0  0  0  0  0  0  0
   20.6869   14.0209   22.7600 H   0  0  0  0  0  0  0  0  0  0  0  0
  1  2  1  0  0  0  0
  1  3  1  0  0  0  0
  1  4  1  0  0  0  0
  1  5  1  0  0  0  0
  5  6  1  0  0  0  0
  5  7  1  0  0  0  0
  5  8  1  0  0  0  0
  8  9  1  0  0  0  0
  8 10  1  0  0  0  0
  8 11  1  0  0  0  0
 11 12  1  0  0  0  0
 11 13  1  0  0  0  0
 11 14  1  0  0  0  0
 14 15  1  0  0  0  0
 14 16  1  0  0  0  0
 14 17  1  0  0  0  0
 17 18  1  0  0  0  0
 17 19  1  0  0  0  0
 17 20  1  0  0  0  0
 20 21  1  0  0  0  0
 20 22  1  0  0  0  0
 20 23  1  0  0  0  0
 23 24  1  0  0  0  0
 23 25  1  0  0  0  0
 23 26  1  0  0  0  0
M  END
> <VConfSearch Rank>
125

> <Conf_Id>
35

> <Delta U+W>
0.587

> <U+W>
-4.965

> <U>
48.214

> <W>
-53.179

> <W(PB)>
-55.527

> <W(SA)>
2.348

> <Valence>
2.697

> <Coulomb>
44.819

> <VdW>
0.699

> <VdW6>
-6.437

> <VdW12>
7.136

> <Bond>
0.168

> <Angle>
0.657

> <Pdih>
1.872

> <Idih>
0.000

> <Tether>
0.000

$$$$
VeraChem MOL file


 26 25  0  0  0  0  0  0  0  0999 V2000     
   23.6186   19.1943   25.2172 C   0  0  0  0  0  0  0  0  0  0  0  0
   23.5267   20.2617   25.4571 H   0  0  0  0  0  0  0  0  0  0  0  0
   23.0645   18.6247   25.9747 H   0  0  0  0  0  0  0  0  0  0  0  0
   24.6786   18.9208   25.2985 H   0  0  0  0  0  0  0  0  0  0  0  0
   23.0861   18.8965   23.7995 C   0  0  0  0  0  0  0  0  0  0  0  0
   23.2216   17.8291   23.5758 H   0  0  0  0  0  0  0  0  0  0  0  0
   23.6820   19.4530   23.0625 H   0  0  0  0  0  0  0  0  0  0  0  0
   21.5948   19.2736   23.6574 C   0  0  0  0  0  0  0  0  0  0  0  0
   21.0129   18.7183   24.4045 H   0  0  0  0  0  0  0  0  0  0  0  0
   21.4648   20.3417   23.8799 H   0  0  0  0  0  0  0  0  0  0  0  0
   21.0589   18.9715   22.2372 C   0  0  0  0  0  0  0  0  0  0  0  0
   21.1375   17.8948   22.0325 H   0  0  0  0  0  0  0  0  0  0  0  0
   21.7002   19.4730   21.4992 H   0  0  0  0  0  0  0  0  0  0  0  0
   19.5990   19.4369   22.0137 C   0  0  0  0  0  0  0  0  0  0  0  0
   19.5238   20.5170   22.2014 H   0  0  0  0  0  0  0  0  0  0  0  0
   19.3448   19.2899   20.9547 H   0  0  0  0  0  0  0  0  0  0  0  0
   18.5680   18.6830   22.8862 C   0  0  0  0  0  0  0  0  0  0  0  0
   18.7531   18.8835   23.9490 H   0  0  0  0  0  0  0  0  0  0  0  0
   18.6776   17.6007   22.7362 H   0  0  0  0  0  0  0  0  0  0  0  0
   17.1285   19.1035   22.5410 C   0  0  0  0  0  0  0  0  0  0  0  0
   17.0098   20.1780   22.7043 H   0  0  0  0  0  0  0  0  0  0  0  0
   16.9255   18.8910   21.4878 H   0  0  0  0  0  0  0  0  0  0  0  0
   16.0847   18.3859   23.3722 N   0  3  0  0  0  0  0  0  0  0  0  0
   16.2029   18.5674   24.3743 H   0  0  0  0  0  0  0  0  0  0  0  0
   16.1253   17.3696   23.2425 H   0  0  0  0  0  0  0  0  0  0  0  0
   15.1333   18.6803   23.1258 H   0  0  0  0  0  0  0  0  0  0  0  0
  1  2  1  0  0  0  0
  1  3  1  0  0  0  0
  1  4  1  0  0  0  0
  1  5  1  0  0  0  0
  5  6  1  0  0  0  0
  5  7  1  0  0  0  0
  5  8  1  0  0  0  0
  8  9  1  0  0  0  0
  8 10  1  0  0  0  0
  8 11  1  0  0  0  0
 11 12  1  0  0  0  0
 11 13  1  0  0  0  0
 11 14  1  0  0  0  0
 14 15  1  0  0  0  0
 14 16  1  0  0  0  0
 14 17  1  0  0  0  0
 17 18  1  0  0  0  0
 17 19  1  0  0  0  0
 17 20  1  0  0  0  0
 20 21  1  0  0  0  0
 20 22  1  0  0  0  0
 20 23  1  0  0  0  0
 23 24  1  0  0  0  0
 23 25  1  0  0  0  0
 23 26  1  0  0  0  0
M  END
> <VConfSearch Rank>
126

> <Conf_Id>
36

> <Delta U+W>
0.565

> <U+W>
-4.987

> <U>
48.214

> <W>
-53.201

> <W(PB)>
-55.543

> <W(SA)>
2.342

> <Valence>
2.697

> <Coulomb>
44.819

> <VdW>
0.698

> <VdW6>
-6.437

> <VdW12>
7.136

> <Bond>
0.168

> <Angle>
0.657

> <Pdih>
1.872

> <Idih>
0.000

> <Tether>
0.000

$$$$
VeraChem MOL file


 26 25  0  0  0  0  0  0  0  0999 V2000     
   24.0314   19.8897   22.2077 C   0  0  0  0  0  0  0  0  0  0  0  0
   23.9896   20.9846   22.1401 H   0  0  0  0  0  0  0  0  0  0  0  0
   25.0064   19.6151   22.6308 H   0  0  0  0  0  0  0  0  0  0  0  0
   23.9789   19.4820   21.1897 H   0  0  0  0  0  0  0  0  0  0  0  0
   22.8839   19.3438   23.0837 C   0  0  0  0  0  0  0  0  0  0  0  0
   22.9826   19.7420   24.1033 H   0  0  0  0  0  0  0  0  0  0  0  0
   22.9721   18.2509   23.1603 H   0  0  0  0  0  0  0  0  0  0  0  0
   21.4990   19.7166   22.5099 C   0  0  0  0  0  0  0  0  0  0  0  0
   21.4171   20.8096   22.4327 H   0  0  0  0  0  0  0  0  0  0  0  0
   21.4057   19.3181   21.4901 H   0  0  0  0  0  0  0  0  0  0  0  0
   20.3472   19.1719   23.3846 C   0  0  0  0  0  0  0  0  0  0  0  0
   20.4401   19.5732   24.4033 H   0  0  0  0  0  0  0  0  0  0  0  0
   20.4391   18.0803   23.4625 H   0  0  0  0  0  0  0  0  0  0  0  0
   18.9612   19.5458   22.8065 C   0  0  0  0  0  0  0  0  0  0  0  0
   18.9014   20.6367   22.6883 H   0  0  0  0  0  0  0  0  0  0  0  0
   18.8513   19.1180   21.8003 H   0  0  0  0  0  0  0  0  0  0  0  0
   17.7857   19.0786   23.6968 C   0  0  0  0  0  0  0  0  0  0  0  0
   16.8455   19.4540   23.2714 H   0  0  0  0  0  0  0  0  0  0  0  0
   17.8791   19.5249   24.6958 H   0  0  0  0  0  0  0  0  0  0  0  0
   17.7053   17.5454   23.8200 C   0  0  0  0  0  0  0  0  0  0  0  0
   17.6112   17.1008   22.8256 H   0  0  0  0  0  0  0  0  0  0  0  0
   18.6182   17.1627   24.2835 H   0  0  0  0  0  0  0  0  0  0  0  0
   16.5300   17.0786   24.6543 N   0  3  0  0  0  0  0  0  0  0  0  0
   16.4944   16.0557   24.7239 H   0  0  0  0  0  0  0  0  0  0  0  0
   15.6349   17.3817   24.2567 H   0  0  0  0  0  0  0  0  0  0  0  0
   16.5731   17.4416   25.6121 H   0  0  0  0  0  0  0  0  0  0  0  0
  1  2  1  0  0  0  0
  1  3  1  0  0  0  0
  1  4  1  0  0  0  0
  1  5  1  0  0  0  0
  5  6  1  0  0  0  0
  5  7  1  0  0  0  0
  5  8  1  0  0  0  0
  8  9  1  0  0  0  0
  8 10  1  0  0  0  0
  8 11  1  0  0  0  0
 11 12  1  0  0  0  0
 11 13  1  0  0  0  0
 11 14  1  0  0  0  0
 14 15  1  0  0  0  0
 14 16  1  0  0  0  0
 14 17  1  0  0  0  0
 17 18  1  0  0  0  0
 17 19  1  0  0  0  0
 17 20  1  0  0  0  0
 20 21  1  0  0  0  0
 20 22  1  0  0  0  0
 20 23  1  0  0  0  0
 23 24  1  0  0  0  0
 23 25  1  0  0  0  0
 23 26  1  0  0  0  0
M  END
> <VConfSearch Rank>
127

> <Conf_Id>
44

> <Delta U+W>
0.371

> <U+W>
-5.181

> <U>
48.002

> <W>
-53.183

> <W(PB)>
-55.533

> <W(SA)>
2.350

> <Valence>
2.459

> <Coulomb>
44.901

> <VdW>
0.643

> <VdW6>
-6.362

> <VdW12>
7.005

> <Bond>
0.151

> <Angle>
0.519

> <Pdih>
1.789

> <Idih>
0.000

> <Tether>
0.000

$$$$
VeraChem MOL file


 26 25  0  0  0  0  0  0  0  0999 V2000     
   18.5609   20.3066   19.9251 C   0  0  0  0  0  0  0  0  0  0  0  0
   18.3342   19.3087   19.5277 H   0  0  0  0  0  0  0  0  0  0  0  0
   18.0687   21.0447   19.2787 H   0  0  0  0  0  0  0  0  0  0  0  0
   19.6426   20.4709   19.8471 H   0  0  0  0  0  0  0  0  0  0  0  0
   18.0665   20.4502   21.3826 C   0  0  0  0  0  0  0  0  0  0  0  0
   16.9684   20.4062   21.3877 H   0  0  0  0  0  0  0  0  0  0  0  0
   18.3358   21.4431   21.7689 H   0  0  0  0  0  0  0  0  0  0  0  0
   18.6099   19.3539   22.3310 C   0  0  0  0  0  0  0  0  0  0  0  0
   18.0987   19.4589   23.2963 H   0  0  0  0  0  0  0  0  0  0  0  0
   18.3368   18.3638   21.9410 H   0  0  0  0  0  0  0  0  0  0  0  0
   20.1435   19.4279   22.5443 C   0  0  0  0  0  0  0  0  0  0  0  0
   20.4167   20.4166   22.9380 H   0  0  0  0  0  0  0  0  0  0  0  0
   20.6504   19.3306   21.5757 H   0  0  0  0  0  0  0  0  0  0  0  0
   20.6940   18.3253   23.4826 C   0  0  0  0  0  0  0  0  0  0  0  0
   20.4085   17.3371   23.0962 H   0  0  0  0  0  0  0  0  0  0  0  0
   21.7907   18.3649   23.4468 H   0  0  0  0  0  0  0  0  0  0  0  0
   20.2243   18.4679   24.9524 C   0  0  0  0  0  0  0  0  0  0  0  0
   19.1321   18.3822   25.0050 H   0  0  0  0  0  0  0  0  0  0  0  0
   20.4809   19.4647   25.3350 H   0  0  0  0  0  0  0  0  0  0  0  0
   20.8285   17.3922   25.8758 C   0  0  0  0  0  0  0  0  0  0  0  0
   20.3873   17.4815   26.8723 H   0  0  0  0  0  0  0  0  0  0  0  0
   20.5924   16.3981   25.4866 H   0  0  0  0  0  0  0  0  0  0  0  0
   22.3335   17.4927   26.0305 N   0  3  0  0  0  0  0  0  0  0  0  0
   22.8162   17.3788   25.1339 H   0  0  0  0  0  0  0  0  0  0  0  0
   22.7000   16.7723   26.6622 H   0  0  0  0  0  0  0  0  0  0  0  0
   22.6170   18.3999   26.4146 H   0  0  0  0  0  0  0  0  0  0  0  0
  1  2  1  0  0  0  0
  1  3  1  0  0  0  0
  1  4  1  0  0  0  0
  1  5  1  0  0  0  0
  5  6  1  0  0  0  0
  5  7  1  0  0  0  0
  5  8  1  0  0  0  0
  8  9  1  0  0  0  0
  8 10  1  0  0  0  0
  8 11  1  0  0  0  0
 11 12  1  0  0  0  0
 11 13  1  0  0  0  0
 11 14  1  0  0  0  0
 14 15  1  0  0  0  0
 14 16  1  0  0  0  0
 14 17  1  0  0  0  0
 17 18  1  0  0  0  0
 17 19  1  0  0  0  0
 17 20  1  0  0  0  0
 20 21  1  0  0  0  0
 20 22  1  0  0  0  0
 20 23  1  0  0  0  0
 23 24  1  0  0  0  0
 23 25  1  0  0  0  0
 23 26  1  0  0  0  0
M  END
> <VConfSearch Rank>
128

> <Conf_Id>
112

> <Delta U+W>
1.422

> <U+W>
-4.130

> <U>
49.323

> <W>
-53.453

> <W(PB)>
-55.749

> <W(SA)>
2.296

> <Valence>
3.408

> <Coulomb>
44.893

> <VdW>
1.021

> <VdW6>
-7.481

> <VdW12>
8.503

> <Bond>
0.239

> <Angle>
1.013

> <Pdih>
2.156

> <Idih>
0.000

> <Tether>
0.000

$$$$
VeraChem MOL file


 26 25  0  0  0  0  0  0  0  0999 V2000     
   16.5437   19.1114   24.6371 C   0  0  0  0  0  0  0  0  0  0  0  0
   15.6395   19.1955   25.2537 H   0  0  0  0  0  0  0  0  0  0  0  0
   16.8085   20.1214   24.3003 H   0  0  0  0  0  0  0  0  0  0  0  0
   16.2934   18.5087   23.7544 H   0  0  0  0  0  0  0  0  0  0  0  0
   17.6912   18.4638   25.4449 C   0  0  0  0  0  0  0  0  0  0  0  0
   17.3391   17.5080   25.8576 H   0  0  0  0  0  0  0  0  0  0  0  0
   17.9397   19.0980   26.3073 H   0  0  0  0  0  0  0  0  0  0  0  0
   18.9632   18.2032   24.6025 C   0  0  0  0  0  0  0  0  0  0  0  0
   19.6858   17.6543   25.2218 H   0  0  0  0  0  0  0  0  0  0  0  0
   18.7074   17.5432   23.7633 H   0  0  0  0  0  0  0  0  0  0  0  0
   19.6276   19.5012   24.0777 C   0  0  0  0  0  0  0  0  0  0  0  0
   19.7558   20.2005   24.9154 H   0  0  0  0  0  0  0  0  0  0  0  0
   18.9650   19.9990   23.3573 H   0  0  0  0  0  0  0  0  0  0  0  0
   21.0094   19.2659   23.4195 C   0  0  0  0  0  0  0  0  0  0  0  0
   21.4508   20.2453   23.1922 H   0  0  0  0  0  0  0  0  0  0  0  0
   21.6834   18.7836   24.1410 H   0  0  0  0  0  0  0  0  0  0  0  0
   20.9397   18.4191   22.1239 C   0  0  0  0  0  0  0  0  0  0  0  0
   20.2487   18.8828   21.4075 H   0  0  0  0  0  0  0  0  0  0  0  0
   20.5365   17.4245   22.3513 H   0  0  0  0  0  0  0  0  0  0  0  0
   22.3184   18.2326   21.4612 C   0  0  0  0  0  0  0  0  0  0  0  0
   23.0143   17.7881   22.1779 H   0  0  0  0  0  0  0  0  0  0  0  0
   22.2224   17.5508   20.6118 H   0  0  0  0  0  0  0  0  0  0  0  0
   22.9303   19.5212   20.9475 N   0  3  0  0  0  0  0  0  0  0  0  0
   23.0842   20.1964   21.7027 H   0  0  0  0  0  0  0  0  0  0  0  0
   22.3308   19.9763   20.2514 H   0  0  0  0  0  0  0  0  0  0  0  0
   23.8391   19.3592   20.5001 H   0  0  0  0  0  0  0  0  0  0  0  0
  1  2  1  0  0  0  0
  1  3  1  0  0  0  0
  1  4  1  0  0  0  0
  1  5  1  0  0  0  0
  5  6  1  0  0  0  0
  5  7  1  0  0  0  0
  5  8  1  0  0  0  0
  8  9  1  0  0  0  0
  8 10  1  0  0  0  0
  8 11  1  0  0  0  0
 11 12  1  0  0  0  0
 11 13  1  0  0  0  0
 11 14  1  0  0  0  0
 14 15  1  0  0  0  0
 14 16  1  0  0  0  0
 14 17  1  0  0  0  0
 17 18  1  0  0  0  0
 17 19  1  0  0  0  0
 17 20  1  0  0  0  0
 20 21  1  0  0  0  0
 20 22  1  0  0  0  0
 20 23  1  0  0  0  0
 23 24  1  0  0  0  0
 23 25  1  0  0  0  0
 23 26  1  0  0  0  0
M  END
> <VConfSearch Rank>
129

> <Conf_Id>
130

> <Delta U+W>
1.282

> <U+W>
-4.270

> <U>
49.153

> <W>
-53.422

> <W(PB)>
-55.725

> <W(SA)>
2.303

> <Valence>
3.298

> <Coulomb>
44.907

> <VdW>
0.948

> <VdW6>
-7.574

> <VdW12>
8.522

> <Bond>
0.229

> <Angle>
0.912

> <Pdih>
2.157

> <Idih>
0.000

> <Tether>
0.000

$$$$
VeraChem MOL file


 26 25  0  0  0  0  0  0  0  0999 V2000     
   19.6374   22.2894   23.4441 C   0  0  0  0  0  0  0  0  0  0  0  0
   18.5746   22.4988   23.6219 H   0  0  0  0  0  0  0  0  0  0  0  0
   20.1476   23.2487   23.2886 H   0  0  0  0  0  0  0  0  0  0  0  0
   19.7242   21.7146   22.5136 H   0  0  0  0  0  0  0  0  0  0  0  0
   20.2612   21.5315   24.6377 C   0  0  0  0  0  0  0  0  0  0  0  0
   20.2592   22.1923   25.5158 H   0  0  0  0  0  0  0  0  0  0  0  0
   21.3174   21.3154   24.4286 H   0  0  0  0  0  0  0  0  0  0  0  0
   19.5079   20.2266   25.0018 C   0  0  0  0  0  0  0  0  0  0  0  0
   19.9978   19.7660   25.8707 H   0  0  0  0  0  0  0  0  0  0  0  0
   18.4925   20.4853   25.3323 H   0  0  0  0  0  0  0  0  0  0  0  0
   19.4066   19.1765   23.8651 C   0  0  0  0  0  0  0  0  0  0  0  0
   18.8269   19.5868   23.0277 H   0  0  0  0  0  0  0  0  0  0  0  0
   18.8272   18.3245   24.2441 H   0  0  0  0  0  0  0  0  0  0  0  0
   20.7837   18.6801   23.3562 C   0  0  0  0  0  0  0  0  0  0  0  0
   21.3521   19.5266   22.9495 H   0  0  0  0  0  0  0  0  0  0  0  0
   21.3701   18.2851   24.1973 H   0  0  0  0  0  0  0  0  0  0  0  0
   20.6700   17.6008   22.2539 C   0  0  0  0  0  0  0  0  0  0  0  0
   21.6744   17.3773   21.8705 H   0  0  0  0  0  0  0  0  0  0  0  0
   20.0917   17.9964   21.4083 H   0  0  0  0  0  0  0  0  0  0  0  0
   20.0245   16.2967   22.7591 C   0  0  0  0  0  0  0  0  0  0  0  0
   20.5999   15.9039   23.6017 H   0  0  0  0  0  0  0  0  0  0  0  0
   19.0054   16.4951   23.1003 H   0  0  0  0  0  0  0  0  0  0  0  0
   19.9565   15.2190   21.6964 N   0  3  0  0  0  0  0  0  0  0  0  0
   19.4049   15.5167   20.8850 H   0  0  0  0  0  0  0  0  0  0  0  0
   19.5240   14.3595   22.0525 H   0  0  0  0  0  0  0  0  0  0  0  0
   20.8874   14.9635   21.3512 H   0  0  0  0  0  0  0  0  0  0  0  0
  1  2  1  0  0  0  0
  1  3  1  0  0  0  0
  1  4  1  0  0  0  0
  1  5  1  0  0  0  0
  5  6  1  0  0  0  0
  5  7  1  0  0  0  0
  5  8  1  0  0  0  0
  8  9  1  0  0  0  0
  8 10  1  0  0  0  0
  8 11  1  0  0  0  0
 11 12  1  0  0  0  0
 11 13  1  0  0  0  0
 11 14  1  0  0  0  0
 14 15  1  0  0  0  0
 14 16  1  0  0  0  0
 14 17  1  0  0  0  0
 17 18  1  0  0  0  0
 17 19  1  0  0  0  0
 17 20  1  0  0  0  0
 20 21  1  0  0  0  0
 20 22  1  0  0  0  0
 20 23  1  0  0  0  0
 23 24  1  0  0  0  0
 23 25  1  0  0  0  0
 23 26  1  0  0  0  0
M  END
> <VConfSearch Rank>
130

> <Conf_Id>
111

> <Delta U+W>
1.290

> <U+W>
-4.262

> <U>
49.209

> <W>
-53.471

> <W(PB)>
-55.745

> <W(SA)>
2.274

> <Valence>
3.465

> <Coulomb>
44.958

> <VdW>
0.786

> <VdW6>
-7.903

> <VdW12>
8.689

> <Bond>
0.237

> <Angle>
1.212

> <Pdih>
2.015

> <Idih>
0.000

> <Tether>
0.000

$$$$
VeraChem MOL file


 26 25  0  0  0  0  0  0  0  0999 V2000     
   16.1238   18.4071   24.1272 C   0  0  0  0  0  0  0  0  0  0  0  0
   15.8210   19.3398   23.6336 H   0  0  0  0  0  0  0  0  0  0  0  0
   15.6180   17.5734   23.6228 H   0  0  0  0  0  0  0  0  0  0  0  0
   15.7635   18.4418   25.1636 H   0  0  0  0  0  0  0  0  0  0  0  0
   17.6568   18.2318   24.0888 C   0  0  0  0  0  0  0  0  0  0  0  0
   17.9308   17.3068   24.6150 H   0  0  0  0  0  0  0  0  0  0  0  0
   18.1235   19.0608   24.6372 H   0  0  0  0  0  0  0  0  0  0  0  0
   18.1888   18.1843   22.6369 C   0  0  0  0  0  0  0  0  0  0  0  0
   17.6510   17.4007   22.0856 H   0  0  0  0  0  0  0  0  0  0  0  0
   17.9607   19.1308   22.1276 H   0  0  0  0  0  0  0  0  0  0  0  0
   19.7073   17.8962   22.5418 C   0  0  0  0  0  0  0  0  0  0  0  0
   19.9701   17.7645   21.4831 H   0  0  0  0  0  0  0  0  0  0  0  0
   19.9315   16.9408   23.0362 H   0  0  0  0  0  0  0  0  0  0  0  0
   20.5891   19.0165   23.1439 C   0  0  0  0  0  0  0  0  0  0  0  0
   20.3156   19.9768   22.6869 H   0  0  0  0  0  0  0  0  0  0  0  0
   20.3965   19.1072   24.2210 H   0  0  0  0  0  0  0  0  0  0  0  0
   22.0950   18.7392   22.9233 C   0  0  0  0  0  0  0  0  0  0  0  0
   22.3146   18.6828   21.8488 H   0  0  0  0  0  0  0  0  0  0  0  0
   22.3498   17.7587   23.3472 H   0  0  0  0  0  0  0  0  0  0  0  0
   22.9983   19.8027   23.5771 C   0  0  0  0  0  0  0  0  0  0  0  0
   22.7788   19.8653   24.6464 H   0  0  0  0  0  0  0  0  0  0  0  0
   24.0455   19.5104   23.4606 H   0  0  0  0  0  0  0  0  0  0  0  0
   22.8389   21.1881   22.9821 N   0  3  0  0  0  0  0  0  0  0  0  0
   23.4622   21.8687   23.4301 H   0  0  0  0  0  0  0  0  0  0  0  0
   21.8828   21.5402   23.0905 H   0  0  0  0  0  0  0  0  0  0  0  0
   23.0546   21.1991   21.9799 H   0  0  0  0  0  0  0  0  0  0  0  0
  1  2  1  0  0  0  0
  1  3  1  0  0  0  0
  1  4  1  0  0  0  0
  1  5  1  0  0  0  0
  5  6  1  0  0  0  0
  5  7  1  0  0  0  0
  5  8  1  0  0  0  0
  8  9  1  0  0  0  0
  8 10  1  0  0  0  0
  8 11  1  0  0  0  0
 11 12  1  0  0  0  0
 11 13  1  0  0  0  0
 11 14  1  0  0  0  0
 14 15  1  0  0  0  0
 14 16  1  0  0  0  0
 14 17  1  0  0  0  0
 17 18  1  0  0  0  0
 17 19  1  0  0  0  0
 17 20  1  0  0  0  0
 20 21  1  0  0  0  0
 20 22  1  0  0  0  0
 20 23  1  0  0  0  0
 23 24  1  0  0  0  0
 23 25  1  0  0  0  0
 23 26  1  0  0  0  0
M  END
> <VConfSearch Rank>
131

> <Conf_Id>
105

> <Delta U+W>
0.736

> <U+W>
-4.817

> <U>
48.735

> <W>
-53.552

> <W(PB)>
-55.889

> <W(SA)>
2.337

> <Valence>
2.803

> <Coulomb>
45.123

> <VdW>
0.809

> <VdW6>
-6.953

> <VdW12>
7.761

> <Bond>
0.188

> <Angle>
0.699

> <Pdih>
1.917

> <Idih>
0.000

> <Tether>
0.000

$$$$
VeraChem MOL file


 26 25  0  0  0  0  0  0  0  0999 V2000     
   23.0568   18.2613   21.2843 C   0  0  0  0  0  0  0  0  0  0  0  0
   22.9854   17.8864   20.2549 H   0  0  0  0  0  0  0  0  0  0  0  0
   23.2085   19.3478   21.2429 H   0  0  0  0  0  0  0  0  0  0  0  0
   23.9474   17.8139   21.7444 H   0  0  0  0  0  0  0  0  0  0  0  0
   21.7903   17.9088   22.0928 C   0  0  0  0  0  0  0  0  0  0  0  0
   21.9162   18.2638   23.1244 H   0  0  0  0  0  0  0  0  0  0  0  0
   21.6813   16.8164   22.1422 H   0  0  0  0  0  0  0  0  0  0  0  0
   20.5213   18.5324   21.4656 C   0  0  0  0  0  0  0  0  0  0  0  0
   20.6117   19.6265   21.4537 H   0  0  0  0  0  0  0  0  0  0  0  0
   20.4569   18.2254   20.4126 H   0  0  0  0  0  0  0  0  0  0  0  0
   19.2072   18.1145   22.1752 C   0  0  0  0  0  0  0  0  0  0  0  0
   19.0730   17.0298   22.0625 H   0  0  0  0  0  0  0  0  0  0  0  0
   18.3605   18.5771   21.6494 H   0  0  0  0  0  0  0  0  0  0  0  0
   19.1184   18.4719   23.6817 C   0  0  0  0  0  0  0  0  0  0  0  0
   18.1533   18.1091   24.0590 H   0  0  0  0  0  0  0  0  0  0  0  0
   19.8865   17.9241   24.2436 H   0  0  0  0  0  0  0  0  0  0  0  0
   19.2442   19.9895   23.9668 C   0  0  0  0  0  0  0  0  0  0  0  0
   18.4909   20.5445   23.3922 H   0  0  0  0  0  0  0  0  0  0  0  0
   20.2248   20.3496   23.6311 H   0  0  0  0  0  0  0  0  0  0  0  0
   19.1018   20.3269   25.4635 C   0  0  0  0  0  0  0  0  0  0  0  0
   19.8383   19.7609   26.0403 H   0  0  0  0  0  0  0  0  0  0  0  0
   19.2963   21.3922   25.6145 H   0  0  0  0  0  0  0  0  0  0  0  0
   17.7279   20.0271   26.0305 N   0  3  0  0  0  0  0  0  0  0  0  0
   17.4946   19.0322   25.9556 H   0  0  0  0  0  0  0  0  0  0  0  0
   16.9926   20.5486   25.5422 H   0  0  0  0  0  0  0  0  0  0  0  0
   17.6630   20.2766   27.0234 H   0  0  0  0  0  0  0  0  0  0  0  0
  1  2  1  0  0  0  0
  1  3  1  0  0  0  0
  1  4  1  0  0  0  0
  1  5  1  0  0  0  0
  5  6  1  0  0  0  0
  5  7  1  0  0  0  0
  5  8  1  0  0  0  0
  8  9  1  0  0  0  0
  8 10  1  0  0  0  0
  8 11  1  0  0  0  0
 11 12  1  0  0  0  0
 11 13  1  0  0  0  0
 11 14  1  0  0  0  0
 14 15  1  0  0  0  0
 14 16  1  0  0  0  0
 14 17  1  0  0  0  0
 17 18  1  0  0  0  0
 17 19  1  0  0  0  0
 17 20  1  0  0  0  0
 20 21  1  0  0  0  0
 20 22  1  0  0  0  0
 20 23  1  0  0  0  0
 23 24  1  0  0  0  0
 23 25  1  0  0  0  0
 23 26  1  0  0  0  0
M  END
> <VConfSearch Rank>
132

> <Conf_Id>
144

> <Delta U+W>
1.073

> <U+W>
-4.479

> <U>
49.231

> <W>
-53.710

> <W(PB)>
-55.983

> <W(SA)>
2.273

> <Valence>
3.276

> <Coulomb>
45.175

> <VdW>
0.779

> <VdW6>
-7.944

> <VdW12>
8.723

> <Bond>
0.239

> <Angle>
1.155

> <Pdih>
1.883

> <Idih>
0.000

> <Tether>
0.000

$$$$
VeraChem MOL file


 26 25  0  0  0  0  0  0  0  0999 V2000     
   20.0299   17.1857   26.5274 C   0  0  0  0  0  0  0  0  0  0  0  0
   18.9436   17.0576   26.4471 H   0  0  0  0  0  0  0  0  0  0  0  0
   20.4063   16.3924   27.1860 H   0  0  0  0  0  0  0  0  0  0  0  0
   20.2280   18.1487   27.0156 H   0  0  0  0  0  0  0  0  0  0  0  0
   20.7178   17.1113   25.1451 C   0  0  0  0  0  0  0  0  0  0  0  0
   20.4773   16.1541   24.6617 H   0  0  0  0  0  0  0  0  0  0  0  0
   21.8065   17.1146   25.2946 H   0  0  0  0  0  0  0  0  0  0  0  0
   20.3450   18.2828   24.2042 C   0  0  0  0  0  0  0  0  0  0  0  0
   20.5677   19.2375   24.7001 H   0  0  0  0  0  0  0  0  0  0  0  0
   20.9964   18.2225   23.3234 H   0  0  0  0  0  0  0  0  0  0  0  0
   18.8663   18.2586   23.7435 C   0  0  0  0  0  0  0  0  0  0  0  0
   18.2094   18.2149   24.6214 H   0  0  0  0  0  0  0  0  0  0  0  0
   18.6777   17.3376   23.1751 H   0  0  0  0  0  0  0  0  0  0  0  0
   18.4363   19.4843   22.8959 C   0  0  0  0  0  0  0  0  0  0  0  0
   17.3676   19.3697   22.6675 H   0  0  0  0  0  0  0  0  0  0  0  0
   18.5149   20.4027   23.4942 H   0  0  0  0  0  0  0  0  0  0  0  0
   19.1991   19.6556   21.5580 C   0  0  0  0  0  0  0  0  0  0  0  0
   18.5385   20.1615   20.8412 H   0  0  0  0  0  0  0  0  0  0  0  0
   19.4303   18.6728   21.1261 H   0  0  0  0  0  0  0  0  0  0  0  0
   20.4832   20.4962   21.6992 C   0  0  0  0  0  0  0  0  0  0  0  0
   20.2298   21.4895   22.0795 H   0  0  0  0  0  0  0  0  0  0  0  0
   21.1687   20.0260   22.4066 H   0  0  0  0  0  0  0  0  0  0  0  0
   21.2208   20.6740   20.3880 N   0  3  0  0  0  0  0  0  0  0  0  0
   20.6413   21.1436   19.6845 H   0  0  0  0  0  0  0  0  0  0  0  0
   21.5119   19.7759   19.9882 H   0  0  0  0  0  0  0  0  0  0  0  0
   22.0691   21.2397   20.5014 H   0  0  0  0  0  0  0  0  0  0  0  0
  1  2  1  0  0  0  0
  1  3  1  0  0  0  0
  1  4  1  0  0  0  0
  1  5  1  0  0  0  0
  5  6  1  0  0  0  0
  5  7  1  0  0  0  0
  5  8  1  0  0  0  0
  8  9  1  0  0  0  0
  8 10  1  0  0  0  0
  8 11  1  0  0  0  0
 11 12  1  0  0  0  0
 11 13  1  0  0  0  0
 11 14  1  0  0  0  0
 14 15  1  0  0  0  0
 14 16  1  0  0  0  0
 14 17  1  0  0  0  0
 17 18  1  0  0  0  0
 17 19  1  0  0  0  0
 17 20  1  0  0  0  0
 20 21  1  0  0  0  0
 20 22  1  0  0  0  0
 20 23  1  0  0  0  0
 23 24  1  0  0  0  0
 23 25  1  0  0  0  0
 23 26  1  0  0  0  0
M  END
> <VConfSearch Rank>
133

> <Conf_Id>
93

> <Delta U+W>
3.253

> <U+W>
-2.300

> <U>
51.609

> <W>
-53.909

> <W(PB)>
-56.178

> <W(SA)>
2.270

> <Valence>
5.204

> <Coulomb>
45.645

> <VdW>
0.760

> <VdW6>
-7.997

> <VdW12>
8.758

> <Bond>
0.240

> <Angle>
1.456

> <Pdih>
3.507

> <Idih>
0.000

> <Tether>
0.000

$$$$
VeraChem MOL file


 26 25  0  0  0  0  0  0  0  0999 V2000     
   17.9992   16.0922   24.3011 C   0  0  0  0  0  0  0  0  0  0  0  0
   18.6762   15.9467   25.1517 H   0  0  0  0  0  0  0  0  0  0  0  0
   17.2066   16.7874   24.6069 H   0  0  0  0  0  0  0  0  0  0  0  0
   17.5303   15.1235   24.0851 H   0  0  0  0  0  0  0  0  0  0  0  0
   18.7501   16.6179   23.0564 C   0  0  0  0  0  0  0  0  0  0  0  0
   18.0564   16.6216   22.2041 H   0  0  0  0  0  0  0  0  0  0  0  0
   19.5595   15.9237   22.7903 H   0  0  0  0  0  0  0  0  0  0  0  0
   19.3208   18.0459   23.2350 C   0  0  0  0  0  0  0  0  0  0  0  0
   19.6907   18.3811   22.2579 H   0  0  0  0  0  0  0  0  0  0  0  0
   18.5117   18.7317   23.5214 H   0  0  0  0  0  0  0  0  0  0  0  0
   20.4725   18.1263   24.2677 C   0  0  0  0  0  0  0  0  0  0  0  0
   21.3102   17.5024   23.9271 H   0  0  0  0  0  0  0  0  0  0  0  0
   20.1405   17.6967   25.2213 H   0  0  0  0  0  0  0  0  0  0  0  0
   20.9824   19.5631   24.5522 C   0  0  0  0  0  0  0  0  0  0  0  0
   20.1800   20.1664   24.9993 H   0  0  0  0  0  0  0  0  0  0  0  0
   21.7629   19.4904   25.3223 H   0  0  0  0  0  0  0  0  0  0  0  0
   21.5812   20.3002   23.3278 C   0  0  0  0  0  0  0  0  0  0  0  0
   22.1091   19.5886   22.6791 H   0  0  0  0  0  0  0  0  0  0  0  0
   22.3361   21.0138   23.6840 H   0  0  0  0  0  0  0  0  0  0  0  0
   20.5273   21.0835   22.5207 C   0  0  0  0  0  0  0  0  0  0  0  0
   19.7553   20.4076   22.1480 H   0  0  0  0  0  0  0  0  0  0  0  0
   20.0484   21.8241   23.1668 H   0  0  0  0  0  0  0  0  0  0  0  0
   21.1162   21.8145   21.3316 N   0  3  0  0  0  0  0  0  0  0  0  0
   21.8293   22.4940   21.6161 H   0  0  0  0  0  0  0  0  0  0  0  0
   20.4009   22.3333   20.8106 H   0  0  0  0  0  0  0  0  0  0  0  0
   21.5605   21.1707   20.6689 H   0  0  0  0  0  0  0  0  0  0  0  0
  1  2  1  0  0  0  0
  1  3  1  0  0  0  0
  1  4  1  0  0  0  0
  1  5  1  0  0  0  0
  5  6  1  0  0  0  0
  5  7  1  0  0  0  0
  5  8  1  0  0  0  0
  8  9  1  0  0  0  0
  8 10  1  0  0  0  0
  8 11  1  0  0  0  0
 11 12  1  0  0  0  0
 11 13  1  0  0  0  0
 11 14  1  0  0  0  0
 14 15  1  0  0  0  0
 14 16  1  0  0  0  0
 14 17  1  0  0  0  0
 17 18  1  0  0  0  0
 17 19  1  0  0  0  0
 17 20  1  0  0  0  0
 20 21  1  0  0  0  0
 20 22  1  0  0  0  0
 20 23  1  0  0  0  0
 23 24  1  0  0  0  0
 23 25  1  0  0  0  0
 23 26  1  0  0  0  0
M  END
> <VConfSearch Rank>
134

> <Conf_Id>
94

> <Delta U+W>
3.247

> <U+W>
-2.305

> <U>
51.609

> <W>
-53.914

> <W(PB)>
-56.221

> <W(SA)>
2.307

> <Valence>
5.204

> <Coulomb>
45.645

> <VdW>
0.760

> <VdW6>
-7.997

> <VdW12>
8.757

> <Bond>
0.240

> <Angle>
1.456

> <Pdih>
3.508

> <Idih>
0.000

> <Tether>
0.000

$$$$
VeraChem MOL file


 26 25  0  0  0  0  0  0  0  0999 V2000     
   16.1826   18.4710   22.0680 C   0  0  0  0  0  0  0  0  0  0  0  0
   15.6585   18.2427   23.0052 H   0  0  0  0  0  0  0  0  0  0  0  0
   16.0672   19.5436   21.8642 H   0  0  0  0  0  0  0  0  0  0  0  0
   15.6847   17.9190   21.2603 H   0  0  0  0  0  0  0  0  0  0  0  0
   17.6732   18.0805   22.1566 C   0  0  0  0  0  0  0  0  0  0  0  0
   18.1624   18.2888   21.1947 H   0  0  0  0  0  0  0  0  0  0  0  0
   17.7569   16.9980   22.3270 H   0  0  0  0  0  0  0  0  0  0  0  0
   18.3983   18.8440   23.2869 C   0  0  0  0  0  0  0  0  0  0  0  0
   18.3102   19.9254   23.1134 H   0  0  0  0  0  0  0  0  0  0  0  0
   17.9038   18.6346   24.2456 H   0  0  0  0  0  0  0  0  0  0  0  0
   19.8912   18.4552   23.3791 C   0  0  0  0  0  0  0  0  0  0  0  0
   20.3767   18.6599   22.4157 H   0  0  0  0  0  0  0  0  0  0  0  0
   19.9777   17.3742   23.5561 H   0  0  0  0  0  0  0  0  0  0  0  0
   20.6155   19.2230   24.5108 C   0  0  0  0  0  0  0  0  0  0  0  0
   20.5532   20.3037   24.3256 H   0  0  0  0  0  0  0  0  0  0  0  0
   20.0902   19.0456   25.4595 H   0  0  0  0  0  0  0  0  0  0  0  0
   22.0966   18.8019   24.6822 C   0  0  0  0  0  0  0  0  0  0  0  0
   22.1415   17.7387   24.9534 H   0  0  0  0  0  0  0  0  0  0  0  0
   22.5349   19.3515   25.5259 H   0  0  0  0  0  0  0  0  0  0  0  0
   22.9639   19.0290   23.4273 C   0  0  0  0  0  0  0  0  0  0  0  0
   23.9825   18.6831   23.6228 H   0  0  0  0  0  0  0  0  0  0  0  0
   22.5639   18.4497   22.5912 H   0  0  0  0  0  0  0  0  0  0  0  0
   23.0440   20.4806   22.9979 N   0  3  0  0  0  0  0  0  0  0  0  0
   23.4404   21.0736   23.7342 H   0  0  0  0  0  0  0  0  0  0  0  0
   22.1192   20.8580   22.7693 H   0  0  0  0  0  0  0  0  0  0  0  0
   23.6329   20.6004   22.1667 H   0  0  0  0  0  0  0  0  0  0  0  0
  1  2  1  0  0  0  0
  1  3  1  0  0  0  0
  1  4  1  0  0  0  0
  1  5  1  0  0  0  0
  5  6  1  0  0  0  0
  5  7  1  0  0  0  0
  5  8  1  0  0  0  0
  8  9  1  0  0  0  0
  8 10  1  0  0  0  0
  8 11  1  0  0  0  0
 11 12  1  0  0  0  0
 11 13  1  0  0  0  0
 11 14  1  0  0  0  0
 14 15  1  0  0  0  0
 14 16  1  0  0  0  0
 14 17  1  0  0  0  0
 17 18  1  0  0  0  0
 17 19  1  0  0  0  0
 17 20  1  0  0  0  0
 20 21  1  0  0  0  0
 20 22  1  0  0  0  0
 20 23  1  0  0  0  0
 23 24  1  0  0  0  0
 23 25  1  0  0  0  0
 23 26  1  0  0  0  0
M  END
> <VConfSearch Rank>
135

> <Conf_Id>
83

> <Delta U+W>
0.559

> <U+W>
-4.994

> <U>
48.668

> <W>
-53.661

> <W(PB)>
-55.972

> <W(SA)>
2.311

> <Valence>
2.543

> <Coulomb>
45.478

> <VdW>
0.646

> <VdW6>
-7.096

> <VdW12>
7.742

> <Bond>
0.176

> <Angle>
0.630

> <Pdih>
1.738

> <Idih>
0.000

> <Tether>
0.000

$$$$
VeraChem MOL file


 26 25  0  0  0  0  0  0  0  0999 V2000     
   16.2174   19.7351   23.2718 C   0  0  0  0  0  0  0  0  0  0  0  0
   15.5275   18.8881   23.1633 H   0  0  0  0  0  0  0  0  0  0  0  0
   16.1593   20.0929   24.3081 H   0  0  0  0  0  0  0  0  0  0  0  0
   15.8653   20.5422   22.6163 H   0  0  0  0  0  0  0  0  0  0  0  0
   17.6603   19.3267   22.9064 C   0  0  0  0  0  0  0  0  0  0  0  0
   18.3105   20.2077   22.9873 H   0  0  0  0  0  0  0  0  0  0  0  0
   17.6920   19.0016   21.8571 H   0  0  0  0  0  0  0  0  0  0  0  0
   18.1803   18.1923   23.8208 C   0  0  0  0  0  0  0  0  0  0  0  0
   18.1995   18.5367   24.8640 H   0  0  0  0  0  0  0  0  0  0  0  0
   17.4712   17.3536   23.7866 H   0  0  0  0  0  0  0  0  0  0  0  0
   19.5809   17.6659   23.4219 C   0  0  0  0  0  0  0  0  0  0  0  0
   19.5571   17.3084   22.3832 H   0  0  0  0  0  0  0  0  0  0  0  0
   19.8124   16.7903   24.0440 H   0  0  0  0  0  0  0  0  0  0  0  0
   20.7072   18.7144   23.5880 C   0  0  0  0  0  0  0  0  0  0  0  0
   20.5241   19.5629   22.9171 H   0  0  0  0  0  0  0  0  0  0  0  0
   20.6940   19.1076   24.6140 H   0  0  0  0  0  0  0  0  0  0  0  0
   22.0994   18.1107   23.2864 C   0  0  0  0  0  0  0  0  0  0  0  0
   22.1326   17.7389   22.2536 H   0  0  0  0  0  0  0  0  0  0  0  0
   22.2686   17.2427   23.9374 H   0  0  0  0  0  0  0  0  0  0  0  0
   23.2458   19.1161   23.5086 C   0  0  0  0  0  0  0  0  0  0  0  0
   23.2104   19.4942   24.5339 H   0  0  0  0  0  0  0  0  0  0  0  0
   24.2044   18.6102   23.3649 H   0  0  0  0  0  0  0  0  0  0  0  0
   23.2078   20.3041   22.5673 N   0  3  0  0  0  0  0  0  0  0  0  0
   22.3467   20.8483   22.6771 H   0  0  0  0  0  0  0  0  0  0  0  0
   23.2604   20.0137   21.5855 H   0  0  0  0  0  0  0  0  0  0  0  0
   23.9913   20.9454   22.7322 H   0  0  0  0  0  0  0  0  0  0  0  0
  1  2  1  0  0  0  0
  1  3  1  0  0  0  0
  1  4  1  0  0  0  0
  1  5  1  0  0  0  0
  5  6  1  0  0  0  0
  5  7  1  0  0  0  0
  5  8  1  0  0  0  0
  8  9  1  0  0  0  0
  8 10  1  0  0  0  0
  8 11  1  0  0  0  0
 11 12  1  0  0  0  0
 11 13  1  0  0  0  0
 11 14  1  0  0  0  0
 14 15  1  0  0  0  0
 14 16  1  0  0  0  0
 14 17  1  0  0  0  0
 17 18  1  0  0  0  0
 17 19  1  0  0  0  0
 17 20  1  0  0  0  0
 20 21  1  0  0  0  0
 20 22  1  0  0  0  0
 20 23  1  0  0  0  0
 23 24  1  0  0  0  0
 23 25  1  0  0  0  0
 23 26  1  0  0  0  0
M  END
> <VConfSearch Rank>
136

> <Conf_Id>
18

> <Delta U+W>
0.759

> <U+W>
-4.793

> <U>
48.945

> <W>
-53.738

> <W(PB)>
-56.051

> <W(SA)>
2.313

> <Valence>
2.802

> <Coulomb>
45.335

> <VdW>
0.807

> <VdW6>
-6.962

> <VdW12>
7.769

> <Bond>
0.189

> <Angle>
0.696

> <Pdih>
1.917

> <Idih>
0.000

> <Tether>
0.000

$$$$
VeraChem MOL file


 26 25  0  0  0  0  0  0  0  0999 V2000     
   23.4882   20.1808   24.3505 C   0  0  0  0  0  0  0  0  0  0  0  0
   23.7251   19.3499   25.0277 H   0  0  0  0  0  0  0  0  0  0  0  0
   24.2731   20.2324   23.5847 H   0  0  0  0  0  0  0  0  0  0  0  0
   23.5242   21.1108   24.9326 H   0  0  0  0  0  0  0  0  0  0  0  0
   22.0972   19.9933   23.7084 C   0  0  0  0  0  0  0  0  0  0  0  0
   21.8764   20.8530   23.0603 H   0  0  0  0  0  0  0  0  0  0  0  0
   21.3375   19.9881   24.5011 H   0  0  0  0  0  0  0  0  0  0  0  0
   22.0209   18.6854   22.8856 C   0  0  0  0  0  0  0  0  0  0  0  0
   22.8403   18.6766   22.1536 H   0  0  0  0  0  0  0  0  0  0  0  0
   22.1881   17.8226   23.5451 H   0  0  0  0  0  0  0  0  0  0  0  0
   20.6834   18.5069   22.1259 C   0  0  0  0  0  0  0  0  0  0  0  0
   20.7670   17.6217   21.4802 H   0  0  0  0  0  0  0  0  0  0  0  0
   20.5241   19.3631   21.4559 H   0  0  0  0  0  0  0  0  0  0  0  0
   19.4593   18.3376   23.0578 C   0  0  0  0  0  0  0  0  0  0  0  0
   19.6447   17.5136   23.7608 H   0  0  0  0  0  0  0  0  0  0  0  0
   19.3229   19.2461   23.6573 H   0  0  0  0  0  0  0  0  0  0  0  0
   18.1669   18.0501   22.2574 C   0  0  0  0  0  0  0  0  0  0  0  0
   18.3153   17.1581   21.6343 H   0  0  0  0  0  0  0  0  0  0  0  0
   17.9570   18.8808   21.5705 H   0  0  0  0  0  0  0  0  0  0  0  0
   16.9446   17.8114   23.1650 C   0  0  0  0  0  0  0  0  0  0  0  0
   16.0860   17.5292   22.5497 H   0  0  0  0  0  0  0  0  0  0  0  0
   17.1537   16.9900   23.8557 H   0  0  0  0  0  0  0  0  0  0  0  0
   16.5447   19.0239   23.9828 N   0  3  0  0  0  0  0  0  0  0  0  0
   16.3139   19.8256   23.3870 H   0  0  0  0  0  0  0  0  0  0  0  0
   17.2953   19.3208   24.6139 H   0  0  0  0  0  0  0  0  0  0  0  0
   15.7207   18.8358   24.5641 H   0  0  0  0  0  0  0  0  0  0  0  0
  1  2  1  0  0  0  0
  1  3  1  0  0  0  0
  1  4  1  0  0  0  0
  1  5  1  0  0  0  0
  5  6  1  0  0  0  0
  5  7  1  0  0  0  0
  5  8  1  0  0  0  0
  8  9  1  0  0  0  0
  8 10  1  0  0  0  0
  8 11  1  0  0  0  0
 11 12  1  0  0  0  0
 11 13  1  0  0  0  0
 11 14  1  0  0  0  0
 14 15  1  0  0  0  0
 14 16  1  0  0  0  0
 14 17  1  0  0  0  0
 17 18  1  0  0  0  0
 17 19  1  0  0  0  0
 17 20  1  0  0  0  0
 20 21  1  0  0  0  0
 20 22  1  0  0  0  0
 20 23  1  0  0  0  0
 23 24  1  0  0  0  0
 23 25  1  0  0  0  0
 23 26  1  0  0  0  0
M  END
> <VConfSearch Rank>
137

> <Conf_Id>
17

> <Delta U+W>
0.843

> <U+W>
-4.709

> <U>
48.945

> <W>
-53.653

> <W(PB)>
-55.991

> <W(SA)>
2.338

> <Valence>
2.802

> <Coulomb>
45.335

> <VdW>
0.807

> <VdW6>
-6.962

> <VdW12>
7.769

> <Bond>
0.189

> <Angle>
0.696

> <Pdih>
1.917

> <Idih>
0.000

> <Tether>
0.000

$$$$
VeraChem MOL file


 26 25  0  0  0  0  0  0  0  0999 V2000     
   22.6657   20.9270   22.7749 C   0  0  0  0  0  0  0  0  0  0  0  0
   22.7525   19.8339   22.8087 H   0  0  0  0  0  0  0  0  0  0  0  0
   22.3377   21.2156   21.7678 H   0  0  0  0  0  0  0  0  0  0  0  0
   23.6695   21.3422   22.9327 H   0  0  0  0  0  0  0  0  0  0  0  0
   21.6880   21.4530   23.8501 C   0  0  0  0  0  0  0  0  0  0  0  0
   21.7297   22.5511   23.8593 H   0  0  0  0  0  0  0  0  0  0  0  0
   22.0208   21.1245   24.8447 H   0  0  0  0  0  0  0  0  0  0  0  0
   20.2221   21.0140   23.6172 C   0  0  0  0  0  0  0  0  0  0  0  0
   19.5856   21.5205   24.3558 H   0  0  0  0  0  0  0  0  0  0  0  0
   19.8874   21.3623   22.6303 H   0  0  0  0  0  0  0  0  0  0  0  0
   20.0104   19.4852   23.7305 C   0  0  0  0  0  0  0  0  0  0  0  0
   20.3915   19.1338   24.6993 H   0  0  0  0  0  0  0  0  0  0  0  0
   20.5932   18.9753   22.9533 H   0  0  0  0  0  0  0  0  0  0  0  0
   18.5170   19.1027   23.5934 C   0  0  0  0  0  0  0  0  0  0  0  0
   17.9330   19.6491   24.3469 H   0  0  0  0  0  0  0  0  0  0  0  0
   18.1400   19.4266   22.6133 H   0  0  0  0  0  0  0  0  0  0  0  0
   18.2592   17.5878   23.7703 C   0  0  0  0  0  0  0  0  0  0  0  0
   17.1763   17.4061   23.7503 H   0  0  0  0  0  0  0  0  0  0  0  0
   18.6138   17.2660   24.7586 H   0  0  0  0  0  0  0  0  0  0  0  0
   18.9320   16.7374   22.6764 C   0  0  0  0  0  0  0  0  0  0  0  0
   18.5785   17.0572   21.6924 H   0  0  0  0  0  0  0  0  0  0  0  0
   20.0156   16.8745   22.7147 H   0  0  0  0  0  0  0  0  0  0  0  0
   18.6460   15.2563   22.8174 N   0  3  0  0  0  0  0  0  0  0  0  0
   19.1024   14.7081   22.0801 H   0  0  0  0  0  0  0  0  0  0  0  0
   17.6424   15.0539   22.7616 H   0  0  0  0  0  0  0  0  0  0  0  0
   18.9790   14.8864   23.7138 H   0  0  0  0  0  0  0  0  0  0  0  0
  1  2  1  0  0  0  0
  1  3  1  0  0  0  0
  1  4  1  0  0  0  0
  1  5  1  0  0  0  0
  5  6  1  0  0  0  0
  5  7  1  0  0  0  0
  5  8  1  0  0  0  0
  8  9  1  0  0  0  0
  8 10  1  0  0  0  0
  8 11  1  0  0  0  0
 11 12  1  0  0  0  0
 11 13  1  0  0  0  0
 11 14  1  0  0  0  0
 14 15  1  0  0  0  0
 14 16  1  0  0  0  0
 14 17  1  0  0  0  0
 17 18  1  0  0  0  0
 17 19  1  0  0  0  0
 17 20  1  0  0  0  0
 20 21  1  0  0  0  0
 20 22  1  0  0  0  0
 20 23  1  0  0  0  0
 23 24  1  0  0  0  0
 23 25  1  0  0  0  0
 23 26  1  0  0  0  0
M  END
> <VConfSearch Rank>
138

> <Conf_Id>
96

> <Delta U+W>
0.912

> <U+W>
-4.640

> <U>
48.723

> <W>
-53.364

> <W(PB)>
-55.683

> <W(SA)>
2.320

> <Valence>
2.962

> <Coulomb>
44.993

> <VdW>
0.768

> <VdW6>
-7.008

> <VdW12>
7.776

> <Bond>
0.188

> <Angle>
0.757

> <Pdih>
2.018

> <Idih>
0.000

> <Tether>
0.000

$$$$
VeraChem MOL file


 26 25  0  0  0  0  0  0  0  0999 V2000     
   22.8162   20.7834   22.1982 C   0  0  0  0  0  0  0  0  0  0  0  0
   23.8534   20.9674   21.8894 H   0  0  0  0  0  0  0  0  0  0  0  0
   22.3579   21.7537   22.4298 H   0  0  0  0  0  0  0  0  0  0  0  0
   22.8476   20.1887   23.1195 H   0  0  0  0  0  0  0  0  0  0  0  0
   22.0397   20.0551   21.0778 C   0  0  0  0  0  0  0  0  0  0  0  0
   22.4986   19.0749   20.8870 H   0  0  0  0  0  0  0  0  0  0  0  0
   22.1418   20.6288   20.1461 H   0  0  0  0  0  0  0  0  0  0  0  0
   20.5337   19.8766   21.3881 C   0  0  0  0  0  0  0  0  0  0  0  0
   20.0752   20.8605   21.5581 H   0  0  0  0  0  0  0  0  0  0  0  0
   20.0428   19.4563   20.4995 H   0  0  0  0  0  0  0  0  0  0  0  0
   20.2586   18.9560   22.6012 C   0  0  0  0  0  0  0  0  0  0  0  0
   20.6907   19.4019   23.5058 H   0  0  0  0  0  0  0  0  0  0  0  0
   20.7600   17.9903   22.4489 H   0  0  0  0  0  0  0  0  0  0  0  0
   18.7429   18.7236   22.8109 C   0  0  0  0  0  0  0  0  0  0  0  0
   18.2423   19.6849   22.9928 H   0  0  0  0  0  0  0  0  0  0  0  0
   18.3082   18.3170   21.8874 H   0  0  0  0  0  0  0  0  0  0  0  0
   18.4324   17.7521   23.9738 C   0  0  0  0  0  0  0  0  0  0  0  0
   18.9122   16.7829   23.7831 H   0  0  0  0  0  0  0  0  0  0  0  0
   17.3504   17.5668   24.0038 H   0  0  0  0  0  0  0  0  0  0  0  0
   18.8877   18.2952   25.3414 C   0  0  0  0  0  0  0  0  0  0  0  0
   19.9708   18.4417   25.3398 H   0  0  0  0  0  0  0  0  0  0  0  0
   18.4096   19.2599   25.5317 H   0  0  0  0  0  0  0  0  0  0  0  0
   18.5460   17.3690   26.4906 N   0  3  0  0  0  0  0  0  0  0  0  0
   18.9881   16.4500   26.3852 H   0  0  0  0  0  0  0  0  0  0  0  0
   17.5358   17.2109   26.5664 H   0  0  0  0  0  0  0  0  0  0  0  0
   18.8570   17.7486   27.3914 H   0  0  0  0  0  0  0  0  0  0  0  0
  1  2  1  0  0  0  0
  1  3  1  0  0  0  0
  1  4  1  0  0  0  0
  1  5  1  0  0  0  0
  5  6  1  0  0  0  0
  5  7  1  0  0  0  0
  5  8  1  0  0  0  0
  8  9  1  0  0  0  0
  8 10  1  0  0  0  0
  8 11  1  0  0  0  0
 11 12  1  0  0  0  0
 11 13  1  0  0  0  0
 11 14  1  0  0  0  0
 14 15  1  0  0  0  0
 14 16  1  0  0  0  0
 14 17  1  0  0  0  0
 17 18  1  0  0  0  0
 17 19  1  0  0  0  0
 17 20  1  0  0  0  0
 20 21  1  0  0  0  0
 20 22  1  0  0  0  0
 20 23  1  0  0  0  0
 23 24  1  0  0  0  0
 23 25  1  0  0  0  0
 23 26  1  0  0  0  0
M  END
> <VConfSearch Rank>
139

> <Conf_Id>
133

> <Delta U+W>
0.844

> <U+W>
-4.708

> <U>
48.723

> <W>
-53.431

> <W(PB)>
-55.776

> <W(SA)>
2.344

> <Valence>
2.962

> <Coulomb>
44.993

> <VdW>
0.768

> <VdW6>
-7.008

> <VdW12>
7.776

> <Bond>
0.188

> <Angle>
0.756

> <Pdih>
2.018

> <Idih>
0.000

> <Tether>
0.000

$$$$
VeraChem MOL file


 26 25  0  0  0  0  0  0  0  0999 V2000     
   22.1981   19.8848   21.0343 C   0  0  0  0  0  0  0  0  0  0  0  0
   22.0392   19.5671   19.9956 H   0  0  0  0  0  0  0  0  0  0  0  0
   21.3017   20.4198   21.3718 H   0  0  0  0  0  0  0  0  0  0  0  0
   23.0320   20.5984   21.0437 H   0  0  0  0  0  0  0  0  0  0  0  0
   22.5107   18.6747   21.9433 C   0  0  0  0  0  0  0  0  0  0  0  0
   22.6458   19.0141   22.9790 H   0  0  0  0  0  0  0  0  0  0  0  0
   23.4757   18.2450   21.6404 H   0  0  0  0  0  0  0  0  0  0  0  0
   21.4339   17.5615   21.8800 C   0  0  0  0  0  0  0  0  0  0  0  0
   21.4053   17.1535   20.8603 H   0  0  0  0  0  0  0  0  0  0  0  0
   21.7460   16.7304   22.5273 H   0  0  0  0  0  0  0  0  0  0  0  0
   20.0015   18.0009   22.2796 C   0  0  0  0  0  0  0  0  0  0  0  0
   19.3336   17.1347   22.1757 H   0  0  0  0  0  0  0  0  0  0  0  0
   19.6302   18.7544   21.5724 H   0  0  0  0  0  0  0  0  0  0  0  0
   19.9013   18.5440   23.7251 C   0  0  0  0  0  0  0  0  0  0  0  0
   20.3154   17.8050   24.4250 H   0  0  0  0  0  0  0  0  0  0  0  0
   20.5072   19.4543   23.8256 H   0  0  0  0  0  0  0  0  0  0  0  0
   18.4422   18.8645   24.1177 C   0  0  0  0  0  0  0  0  0  0  0  0
   17.8280   17.9582   24.0319 H   0  0  0  0  0  0  0  0  0  0  0  0
   18.0258   19.6037   23.4204 H   0  0  0  0  0  0  0  0  0  0  0  0
   18.3525   19.4087   25.5543 C   0  0  0  0  0  0  0  0  0  0  0  0
   18.7514   18.6691   26.2538 H   0  0  0  0  0  0  0  0  0  0  0  0
   18.9493   20.3208   25.6405 H   0  0  0  0  0  0  0  0  0  0  0  0
   16.9350   19.7357   25.9776 N   0  3  0  0  0  0  0  0  0  0  0  0
   16.8976   20.0965   26.9373 H   0  0  0  0  0  0  0  0  0  0  0  0
   16.3266   18.9111   25.9451 H   0  0  0  0  0  0  0  0  0  0  0  0
   16.5106   20.4479   25.3744 H   0  0  0  0  0  0  0  0  0  0  0  0
  1  2  1  0  0  0  0
  1  3  1  0  0  0  0
  1  4  1  0  0  0  0
  1  5  1  0  0  0  0
  5  6  1  0  0  0  0
  5  7  1  0  0  0  0
  5  8  1  0  0  0  0
  8  9  1  0  0  0  0
  8 10  1  0  0  0  0
  8 11  1  0  0  0  0
 11 12  1  0  0  0  0
 11 13  1  0  0  0  0
 11 14  1  0  0  0  0
 14 15  1  0  0  0  0
 14 16  1  0  0  0  0
 14 17  1  0  0  0  0
 17 18  1  0  0  0  0
 17 19  1  0  0  0  0
 17 20  1  0  0  0  0
 20 21  1  0  0  0  0
 20 22  1  0  0  0  0
 20 23  1  0  0  0  0
 23 24  1  0  0  0  0
 23 25  1  0  0  0  0
 23 26  1  0  0  0  0
M  END
> <VConfSearch Rank>
140

> <Conf_Id>
106

> <Delta U+W>
0.767

> <U+W>
-4.785

> <U>
48.494

> <W>
-53.279

> <W(PB)>
-55.569

> <W(SA)>
2.290

> <Valence>
3.117

> <Coulomb>
44.693

> <VdW>
0.684

> <VdW6>
-7.347

> <VdW12>
8.030

> <Bond>
0.208

> <Angle>
1.039

> <Pdih>
1.870

> <Idih>
0.000

> <Tether>
0.000

$$$$
VeraChem MOL file


 26 25  0  0  0  0  0  0  0  0999 V2000     
   21.4228   18.3570   27.5202 C   0  0  0  0  0  0  0  0  0  0  0  0
   21.9376   19.3245   27.5853 H   0  0  0  0  0  0  0  0  0  0  0  0
   20.4293   18.4671   27.9743 H   0  0  0  0  0  0  0  0  0  0  0  0
   21.9891   17.6329   28.1202 H   0  0  0  0  0  0  0  0  0  0  0  0
   21.3138   17.8840   26.0551 C   0  0  0  0  0  0  0  0  0  0  0  0
   20.8256   16.8998   26.0252 H   0  0  0  0  0  0  0  0  0  0  0  0
   22.3223   17.7504   25.6392 H   0  0  0  0  0  0  0  0  0  0  0  0
   20.5205   18.8863   25.1878 C   0  0  0  0  0  0  0  0  0  0  0  0
   19.5141   19.0184   25.6088 H   0  0  0  0  0  0  0  0  0  0  0  0
   21.0110   19.8690   25.2226 H   0  0  0  0  0  0  0  0  0  0  0  0
   20.4091   18.4160   23.7199 C   0  0  0  0  0  0  0  0  0  0  0  0
   19.9188   17.4332   23.6860 H   0  0  0  0  0  0  0  0  0  0  0  0
   21.4159   18.2837   23.2999 H   0  0  0  0  0  0  0  0  0  0  0  0
   19.6155   19.4193   22.8526 C   0  0  0  0  0  0  0  0  0  0  0  0
   18.6085   19.5519   23.2723 H   0  0  0  0  0  0  0  0  0  0  0  0
   20.1057   20.4023   22.8861 H   0  0  0  0  0  0  0  0  0  0  0  0
   19.5037   18.9498   21.3853 C   0  0  0  0  0  0  0  0  0  0  0  0
   19.0093   17.9699   21.3470 H   0  0  0  0  0  0  0  0  0  0  0  0
   20.5082   18.8210   20.9605 H   0  0  0  0  0  0  0  0  0  0  0  0
   18.7122   19.9558   20.5311 C   0  0  0  0  0  0  0  0  0  0  0  0
   17.7055   20.0748   20.9408 H   0  0  0  0  0  0  0  0  0  0  0  0
   19.2098   20.9291   20.5529 H   0  0  0  0  0  0  0  0  0  0  0  0
   18.5805   19.5303   19.0829 N   0  3  0  0  0  0  0  0  0  0  0  0
   18.0501   20.2140   18.5318 H   0  0  0  0  0  0  0  0  0  0  0  0
   18.0948   18.6320   18.9911 H   0  0  0  0  0  0  0  0  0  0  0  0
   19.4946   19.4270   18.6302 H   0  0  0  0  0  0  0  0  0  0  0  0
  1  2  1  0  0  0  0
  1  3  1  0  0  0  0
  1  4  1  0  0  0  0
  1  5  1  0  0  0  0
  5  6  1  0  0  0  0
  5  7  1  0  0  0  0
  5  8  1  0  0  0  0
  8  9  1  0  0  0  0
  8 10  1  0  0  0  0
  8 11  1  0  0  0  0
 11 12  1  0  0  0  0
 11 13  1  0  0  0  0
 11 14  1  0  0  0  0
 14 15  1  0  0  0  0
 14 16  1  0  0  0  0
 14 17  1  0  0  0  0
 17 18  1  0  0  0  0
 17 19  1  0  0  0  0
 17 20  1  0  0  0  0
 20 21  1  0  0  0  0
 20 22  1  0  0  0  0
 20 23  1  0  0  0  0
 23 24  1  0  0  0  0
 23 25  1  0  0  0  0
 23 26  1  0  0  0  0
M  END
> <VConfSearch Rank>
141

> <Conf_Id>
25

> <Delta U+W>
0.000

> <U+W>
-5.552

> <U>
47.192

> <W>
-52.745

> <W(PB)>
-55.134

> <W(SA)>
2.389

> <Valence>
2.156

> <Coulomb>
44.449

> <VdW>
0.587

> <VdW6>
-5.761

> <VdW12>
6.348

> <Bond>
0.129

> <Angle>
0.393

> <Pdih>
1.634

> <Idih>
0.000

> <Tether>
0.000

$$$$
VeraChem MOL file


 26 25  0  0  0  0  0  0  0  0999 V2000     
   16.0323   18.4179   24.8115 C   0  0  0  0  0  0  0  0  0  0  0  0
   16.0785   19.2554   25.5198 H   0  0  0  0  0  0  0  0  0  0  0  0
   15.5866   18.7841   23.8774 H   0  0  0  0  0  0  0  0  0  0  0  0
   15.3595   17.6586   25.2309 H   0  0  0  0  0  0  0  0  0  0  0  0
   17.4351   17.8247   24.5616 C   0  0  0  0  0  0  0  0  0  0  0  0
   17.3523   16.9690   23.8769 H   0  0  0  0  0  0  0  0  0  0  0  0
   17.8404   17.4366   25.5066 H   0  0  0  0  0  0  0  0  0  0  0  0
   18.4029   18.8737   23.9707 C   0  0  0  0  0  0  0  0  0  0  0  0
   17.9924   19.2604   23.0277 H   0  0  0  0  0  0  0  0  0  0  0  0
   18.4807   19.7280   24.6575 H   0  0  0  0  0  0  0  0  0  0  0  0
   19.8088   18.2833   23.7190 C   0  0  0  0  0  0  0  0  0  0  0  0
   19.7303   17.4292   23.0321 H   0  0  0  0  0  0  0  0  0  0  0  0
   20.2178   17.8960   24.6625 H   0  0  0  0  0  0  0  0  0  0  0  0
   20.7770   19.3332   23.1285 C   0  0  0  0  0  0  0  0  0  0  0  0
   20.3611   19.7203   22.1887 H   0  0  0  0  0  0  0  0  0  0  0  0
   20.8577   20.1859   23.8169 H   0  0  0  0  0  0  0  0  0  0  0  0
   22.1834   18.7399   22.8765 C   0  0  0  0  0  0  0  0  0  0  0  0
   22.1183   17.9060   22.1649 H   0  0  0  0  0  0  0  0  0  0  0  0
   22.5752   18.3224   23.8136 H   0  0  0  0  0  0  0  0  0  0  0  0
   23.1858   19.7862   22.3524 C   0  0  0  0  0  0  0  0  0  0  0  0
   23.2483   20.6209   23.0559 H   0  0  0  0  0  0  0  0  0  0  0  0
   24.1771   19.3313   22.2742 H   0  0  0  0  0  0  0  0  0  0  0  0
   22.8280   20.3453   20.9893 N   0  3  0  0  0  0  0  0  0  0  0  0
   21.9205   20.8210   21.0002 H   0  0  0  0  0  0  0  0  0  0  0  0
   22.7762   19.6093   20.2775 H   0  0  0  0  0  0  0  0  0  0  0  0
   23.5210   21.0282   20.6641 H   0  0  0  0  0  0  0  0  0  0  0  0
  1  2  1  0  0  0  0
  1  3  1  0  0  0  0
  1  4  1  0  0  0  0
  1  5  1  0  0  0  0
  5  6  1  0  0  0  0
  5  7  1  0  0  0  0
  5  8  1  0  0  0  0
  8  9  1  0  0  0  0
  8 10  1  0  0  0  0
  8 11  1  0  0  0  0
 11 12  1  0  0  0  0
 11 13  1  0  0  0  0
 11 14  1  0  0  0  0
 14 15  1  0  0  0  0
 14 16  1  0  0  0  0
 14 17  1  0  0  0  0
 17 18  1  0  0  0  0
 17 19  1  0  0  0  0
 17 20  1  0  0  0  0
 20 21  1  0  0  0  0
 20 22  1  0  0  0  0
 20 23  1  0  0  0  0
 23 24  1  0  0  0  0
 23 25  1  0  0  0  0
 23 26  1  0  0  0  0
M  END
> <VConfSearch Rank>
142

> <Conf_Id>
20

> <Delta U+W>
0.150

> <U+W>
-5.403

> <U>
47.845

> <W>
-53.248

> <W(PB)>
-55.599

> <W(SA)>
2.351

> <Valence>
2.258

> <Coulomb>
44.893

> <VdW>
0.694

> <VdW6>
-6.285

> <VdW12>
6.979

> <Bond>
0.149

> <Angle>
0.434

> <Pdih>
1.675

> <Idih>
0.000

> <Tether>
0.000

$$$$
VeraChem MOL file


 26 25  0  0  0  0  0  0  0  0999 V2000     
   19.8642   17.0788   19.3613 C   0  0  0  0  0  0  0  0  0  0  0  0
   20.9552   17.1556   19.2662 H   0  0  0  0  0  0  0  0  0  0  0  0
   19.6232   16.0738   19.7316 H   0  0  0  0  0  0  0  0  0  0  0  0
   19.4304   17.1813   18.3581 H   0  0  0  0  0  0  0  0  0  0  0  0
   19.3119   18.1658   20.3076 C   0  0  0  0  0  0  0  0  0  0  0  0
   18.2169   18.0851   20.3558 H   0  0  0  0  0  0  0  0  0  0  0  0
   19.5386   19.1586   19.8941 H   0  0  0  0  0  0  0  0  0  0  0  0
   19.9069   18.0441   21.7279 C   0  0  0  0  0  0  0  0  0  0  0  0
   19.6796   17.0495   22.1361 H   0  0  0  0  0  0  0  0  0  0  0  0
   21.0016   18.1230   21.6742 H   0  0  0  0  0  0  0  0  0  0  0  0
   19.3562   19.1311   22.6784 C   0  0  0  0  0  0  0  0  0  0  0  0
   18.2614   19.0519   22.7303 H   0  0  0  0  0  0  0  0  0  0  0  0
   19.5841   20.1254   22.2697 H   0  0  0  0  0  0  0  0  0  0  0  0
   19.9511   19.0085   24.0995 C   0  0  0  0  0  0  0  0  0  0  0  0
   19.7205   18.0153   24.5093 H   0  0  0  0  0  0  0  0  0  0  0  0
   21.0452   19.0833   24.0411 H   0  0  0  0  0  0  0  0  0  0  0  0
   19.3992   20.0981   25.0491 C   0  0  0  0  0  0  0  0  0  0  0  0
   18.3029   20.0392   25.0720 H   0  0  0  0  0  0  0  0  0  0  0  0
   19.6515   21.0954   24.6649 H   0  0  0  0  0  0  0  0  0  0  0  0
   19.9251   19.9539   26.4903 C   0  0  0  0  0  0  0  0  0  0  0  0
   19.4381   20.6951   27.1299 H   0  0  0  0  0  0  0  0  0  0  0  0
   19.6806   18.9596   26.8736 H   0  0  0  0  0  0  0  0  0  0  0  0
   21.4230   20.1516   26.6162 N   0  3  0  0  0  0  0  0  0  0  0  0
   21.7132   21.0798   26.2917 H   0  0  0  0  0  0  0  0  0  0  0  0
   21.9446   19.4615   26.0669 H   0  0  0  0  0  0  0  0  0  0  0  0
   21.7384   20.0620   27.5882 H   0  0  0  0  0  0  0  0  0  0  0  0
  1  2  1  0  0  0  0
  1  3  1  0  0  0  0
  1  4  1  0  0  0  0
  1  5  1  0  0  0  0
  5  6  1  0  0  0  0
  5  7  1  0  0  0  0
  5  8  1  0  0  0  0
  8  9  1  0  0  0  0
  8 10  1  0  0  0  0
  8 11  1  0  0  0  0
 11 12  1  0  0  0  0
 11 13  1  0  0  0  0
 11 14  1  0  0  0  0
 14 15  1  0  0  0  0
 14 16  1  0  0  0  0
 14 17  1  0  0  0  0
 17 18  1  0  0  0  0
 17 19  1  0  0  0  0
 17 20  1  0  0  0  0
 20 21  1  0  0  0  0
 20 22  1  0  0  0  0
 20 23  1  0  0  0  0
 23 24  1  0  0  0  0
 23 25  1  0  0  0  0
 23 26  1  0  0  0  0
M  END
> <VConfSearch Rank>
143

> <Conf_Id>
19

> <Delta U+W>
0.162

> <U+W>
-5.391

> <U>
47.845

> <W>
-53.235

> <W(PB)>
-55.585

> <W(SA)>
2.349

> <Valence>
2.258

> <Coulomb>
44.893

> <VdW>
0.694

> <VdW6>
-6.285

> <VdW12>
6.979

> <Bond>
0.149

> <Angle>
0.434

> <Pdih>
1.675

> <Idih>
0.000

> <Tether>
0.000

$$$$
VeraChem MOL file


 26 25  0  0  0  0  0  0  0  0999 V2000     
   21.4421   16.7787   20.0087 C   0  0  0  0  0  0  0  0  0  0  0  0
   22.0329   15.8872   20.2563 H   0  0  0  0  0  0  0  0  0  0  0  0
   20.4589   16.4484   19.6490 H   0  0  0  0  0  0  0  0  0  0  0  0
   21.9460   17.2979   19.1832 H   0  0  0  0  0  0  0  0  0  0  0  0
   21.3010   17.7090   21.2322 C   0  0  0  0  0  0  0  0  0  0  0  0
   20.7412   18.6055   20.9348 H   0  0  0  0  0  0  0  0  0  0  0  0
   22.2975   18.0458   21.5504 H   0  0  0  0  0  0  0  0  0  0  0  0
   20.5890   16.9997   22.4084 C   0  0  0  0  0  0  0  0  0  0  0  0
   19.5731   16.7100   22.1061 H   0  0  0  0  0  0  0  0  0  0  0  0
   21.1207   16.0654   22.6358 H   0  0  0  0  0  0  0  0  0  0  0  0
   20.5232   17.8528   23.6990 C   0  0  0  0  0  0  0  0  0  0  0  0
   21.5405   18.1290   24.0092 H   0  0  0  0  0  0  0  0  0  0  0  0
   20.1133   17.2300   24.5062 H   0  0  0  0  0  0  0  0  0  0  0  0
   19.6561   19.1268   23.5557 C   0  0  0  0  0  0  0  0  0  0  0  0
   20.0949   19.7976   22.8054 H   0  0  0  0  0  0  0  0  0  0  0  0
   18.6559   18.8519   23.1929 H   0  0  0  0  0  0  0  0  0  0  0  0
   19.5266   19.8858   24.8948 C   0  0  0  0  0  0  0  0  0  0  0  0
   20.5244   20.1634   25.2602 H   0  0  0  0  0  0  0  0  0  0  0  0
   19.0774   19.2286   25.6513 H   0  0  0  0  0  0  0  0  0  0  0  0
   18.6665   21.1527   24.7430 C   0  0  0  0  0  0  0  0  0  0  0  0
   19.1187   21.8183   24.0027 H   0  0  0  0  0  0  0  0  0  0  0  0
   17.6667   20.8794   24.3948 H   0  0  0  0  0  0  0  0  0  0  0  0
   18.5158   21.9263   26.0370 N   0  3  0  0  0  0  0  0  0  0  0  0
   19.4212   22.2370   26.4042 H   0  0  0  0  0  0  0  0  0  0  0  0
   18.0702   21.3634   26.7690 H   0  0  0  0  0  0  0  0  0  0  0  0
   17.9395   22.7660   25.9139 H   0  0  0  0  0  0  0  0  0  0  0  0
  1  2  1  0  0  0  0
  1  3  1  0  0  0  0
  1  4  1  0  0  0  0
  1  5  1  0  0  0  0
  5  6  1  0  0  0  0
  5  7  1  0  0  0  0
  5  8  1  0  0  0  0
  8  9  1  0  0  0  0
  8 10  1  0  0  0  0
  8 11  1  0  0  0  0
 11 12  1  0  0  0  0
 11 13  1  0  0  0  0
 11 14  1  0  0  0  0
 14 15  1  0  0  0  0
 14 16  1  0  0  0  0
 14 17  1  0  0  0  0
 17 18  1  0  0  0  0
 17 19  1  0  0  0  0
 17 20  1  0  0  0  0
 20 21  1  0  0  0  0
 20 22  1  0  0  0  0
 20 23  1  0  0  0  0
 23 24  1  0  0  0  0
 23 25  1  0  0  0  0
 23 26  1  0  0  0  0
M  END
> <VConfSearch Rank>
144

> <Conf_Id>
37

> <Delta U+W>
0.565

> <U+W>
-4.988

> <U>
48.035

> <W>
-53.022

> <W(PB)>
-55.379

> <W(SA)>
2.357

> <Valence>
2.701

> <Coulomb>
44.622

> <VdW>
0.712

> <VdW6>
-6.418

> <VdW12>
7.129

> <Bond>
0.168

> <Angle>
0.659

> <Pdih>
1.875

> <Idih>
0.000

> <Tether>
0.000

$$$$
VeraChem MOL file


 26 25  0  0  0  0  0  0  0  0999 V2000     
   23.6526   19.0254   24.8623 C   0  0  0  0  0  0  0  0  0  0  0  0
   23.8872   19.4324   23.8700 H   0  0  0  0  0  0  0  0  0  0  0  0
   23.4356   19.8661   25.5342 H   0  0  0  0  0  0  0  0  0  0  0  0
   24.5495   18.5164   25.2384 H   0  0  0  0  0  0  0  0  0  0  0  0
   22.4599   18.0481   24.7935 C   0  0  0  0  0  0  0  0  0  0  0  0
   22.2722   17.6319   25.7932 H   0  0  0  0  0  0  0  0  0  0  0  0
   22.7188   17.2022   24.1414 H   0  0  0  0  0  0  0  0  0  0  0  0
   21.1828   18.7400   24.2676 C   0  0  0  0  0  0  0  0  0  0  0  0
   20.9270   19.5833   24.9238 H   0  0  0  0  0  0  0  0  0  0  0  0
   21.3866   19.1588   23.2735 H   0  0  0  0  0  0  0  0  0  0  0  0
   19.9874   17.7597   24.1944 C   0  0  0  0  0  0  0  0  0  0  0  0
   19.8476   17.2925   25.1791 H   0  0  0  0  0  0  0  0  0  0  0  0
   20.2193   16.9435   23.4963 H   0  0  0  0  0  0  0  0  0  0  0  0
   18.6569   18.4347   23.7796 C   0  0  0  0  0  0  0  0  0  0  0  0
   17.8489   17.6950   23.8672 H   0  0  0  0  0  0  0  0  0  0  0  0
   18.4156   19.2396   24.4878 H   0  0  0  0  0  0  0  0  0  0  0  0
   18.6697   18.9951   22.3379 C   0  0  0  0  0  0  0  0  0  0  0  0
   18.9602   18.2025   21.6356 H   0  0  0  0  0  0  0  0  0  0  0  0
   19.4147   19.7957   22.2498 H   0  0  0  0  0  0  0  0  0  0  0  0
   17.2902   19.5493   21.9406 C   0  0  0  0  0  0  0  0  0  0  0  0
   16.5415   18.7552   22.0063 H   0  0  0  0  0  0  0  0  0  0  0  0
   17.0035   20.3502   22.6275 H   0  0  0  0  0  0  0  0  0  0  0  0
   17.2574   20.1071   20.5322 N   0  3  0  0  0  0  0  0  0  0  0  0
   17.4921   19.3944   19.8334 H   0  0  0  0  0  0  0  0  0  0  0  0
   17.9213   20.8790   20.4111 H   0  0  0  0  0  0  0  0  0  0  0  0
   16.3296   20.4703   20.2880 H   0  0  0  0  0  0  0  0  0  0  0  0
  1  2  1  0  0  0  0
  1  3  1  0  0  0  0
  1  4  1  0  0  0  0
  1  5  1  0  0  0  0
  5  6  1  0  0  0  0
  5  7  1  0  0  0  0
  5  8  1  0  0  0  0
  8  9  1  0  0  0  0
  8 10  1  0  0  0  0
  8 11  1  0  0  0  0
 11 12  1  0  0  0  0
 11 13  1  0  0  0  0
 11 14  1  0  0  0  0
 14 15  1  0  0  0  0
 14 16  1  0  0  0  0
 14 17  1  0  0  0  0
 17 18  1  0  0  0  0
 17 19  1  0  0  0  0
 17 20  1  0  0  0  0
 20 21  1  0  0  0  0
 20 22  1  0  0  0  0
 20 23  1  0  0  0  0
 23 24  1  0  0  0  0
 23 25  1  0  0  0  0
 23 26  1  0  0  0  0
M  END
> <VConfSearch Rank>
145

> <Conf_Id>
35

> <Delta U+W>
0.587

> <U+W>
-4.965

> <U>
48.214

> <W>
-53.179

> <W(PB)>
-55.527

> <W(SA)>
2.348

> <Valence>
2.697

> <Coulomb>
44.819

> <VdW>
0.699

> <VdW6>
-6.437

> <VdW12>
7.136

> <Bond>
0.168

> <Angle>
0.657

> <Pdih>
1.872

> <Idih>
0.000

> <Tether>
0.000

$$$$
VeraChem MOL file


 26 25  0  0  0  0  0  0  0  0999 V2000     
   23.5151   18.2357   21.3181 C   0  0  0  0  0  0  0  0  0  0  0  0
   23.2048   18.7510   20.3997 H   0  0  0  0  0  0  0  0  0  0  0  0
   23.8975   18.9883   22.0200 H   0  0  0  0  0  0  0  0  0  0  0  0
   24.3431   17.5616   21.0629 H   0  0  0  0  0  0  0  0  0  0  0  0
   22.3408   17.4470   21.9354 C   0  0  0  0  0  0  0  0  0  0  0  0
   22.6894   16.9163   22.8325 H   0  0  0  0  0  0  0  0  0  0  0  0
   22.0036   16.6799   21.2242 H   0  0  0  0  0  0  0  0  0  0  0  0
   21.1603   18.3730   22.3035 C   0  0  0  0  0  0  0  0  0  0  0  0
   21.5126   19.1391   23.0063 H   0  0  0  0  0  0  0  0  0  0  0  0
   20.8141   18.8995   21.4034 H   0  0  0  0  0  0  0  0  0  0  0  0
   19.9838   17.5835   22.9263 C   0  0  0  0  0  0  0  0  0  0  0  0
   20.3129   17.0999   23.8565 H   0  0  0  0  0  0  0  0  0  0  0  0
   19.6959   16.7728   22.2428 H   0  0  0  0  0  0  0  0  0  0  0  0
   18.7340   18.4533   23.2081 C   0  0  0  0  0  0  0  0  0  0  0  0
   18.3942   18.9232   22.2747 H   0  0  0  0  0  0  0  0  0  0  0  0
   17.9179   17.7945   23.5361 H   0  0  0  0  0  0  0  0  0  0  0  0
   18.9651   19.5396   24.2847 C   0  0  0  0  0  0  0  0  0  0  0  0
   19.7195   20.2585   23.9411 H   0  0  0  0  0  0  0  0  0  0  0  0
   19.3529   19.0754   25.2013 H   0  0  0  0  0  0  0  0  0  0  0  0
   17.6636   20.2953   24.6059 C   0  0  0  0  0  0  0  0  0  0  0  0
   17.2821   20.7730   23.6994 H   0  0  0  0  0  0  0  0  0  0  0  0
   16.9090   19.5916   24.9676 H   0  0  0  0  0  0  0  0  0  0  0  0
   17.8448   21.3688   25.6596 N   0  3  0  0  0  0  0  0  0  0  0  0
   18.5237   22.0798   25.3683 H   0  0  0  0  0  0  0  0  0  0  0  0
   18.1771   20.9800   26.5481 H   0  0  0  0  0  0  0  0  0  0  0  0
   16.9659   21.8592   25.8586 H   0  0  0  0  0  0  0  0  0  0  0  0
  1  2  1  0  0  0  0
  1  3  1  0  0  0  0
  1  4  1  0  0  0  0
  1  5  1  0  0  0  0
  5  6  1  0  0  0  0
  5  7  1  0  0  0  0
  5  8  1  0  0  0  0
  8  9  1  0  0  0  0
  8 10  1  0  0  0  0
  8 11  1  0  0  0  0
 11 12  1  0  0  0  0
 11 13  1  0  0  0  0
 11 14  1  0  0  0  0
 14 15  1  0  0  0  0
 14 16  1  0  0  0  0
 14 17  1  0  0  0  0
 17 18  1  0  0  0  0
 17 19  1  0  0  0  0
 17 20  1  0  0  0  0
 20 21  1  0  0  0  0
 20 22  1  0  0  0  0
 20 23  1  0  0  0  0
 23 24  1  0  0  0  0
 23 25  1  0  0  0  0
 23 26  1  0  0  0  0
M  END
> <VConfSearch Rank>
146

> <Conf_Id>
36

> <Delta U+W>
0.565

> <U+W>
-4.987

> <U>
48.214

> <W>
-53.201

> <W(PB)>
-55.543

> <W(SA)>
2.342

> <Valence>
2.697

> <Coulomb>
44.819

> <VdW>
0.698

> <VdW6>
-6.437

> <VdW12>
7.136

> <Bond>
0.168

> <Angle>
0.657

> <Pdih>
1.872

> <Idih>
0.000

> <Tether>
0.000

$$$$
VeraChem MOL file


 26 25  0  0  0  0  0  0  0  0999 V2000     
   22.0210   17.6205   19.7114 C   0  0  0  0  0  0  0  0  0  0  0  0
   21.4535   18.1361   18.9257 H   0  0  0  0  0  0  0  0  0  0  0  0
   23.0780   17.6151   19.4153 H   0  0  0  0  0  0  0  0  0  0  0  0
   21.6775   16.5786   19.7536 H   0  0  0  0  0  0  0  0  0  0  0  0
   21.8408   18.3196   21.0755 C   0  0  0  0  0  0  0  0  0  0  0  0
   22.2238   19.3478   21.0116 H   0  0  0  0  0  0  0  0  0  0  0  0
   22.4462   17.8023   21.8330 H   0  0  0  0  0  0  0  0  0  0  0  0
   20.3603   18.3410   21.5163 C   0  0  0  0  0  0  0  0  0  0  0  0
   19.7592   18.8566   20.7545 H   0  0  0  0  0  0  0  0  0  0  0  0
   19.9814   17.3114   21.5769 H   0  0  0  0  0  0  0  0  0  0  0  0
   20.1757   19.0407   22.8819 C   0  0  0  0  0  0  0  0  0  0  0  0
   20.5526   20.0709   22.8191 H   0  0  0  0  0  0  0  0  0  0  0  0
   20.7839   18.5242   23.6364 H   0  0  0  0  0  0  0  0  0  0  0  0
   18.6919   19.0593   23.3212 C   0  0  0  0  0  0  0  0  0  0  0  0
   18.0885   19.5349   22.5356 H   0  0  0  0  0  0  0  0  0  0  0  0
   18.3206   18.0295   23.4175 H   0  0  0  0  0  0  0  0  0  0  0  0
   18.4615   19.8168   24.6500 C   0  0  0  0  0  0  0  0  0  0  0  0
   17.3829   19.8644   24.8506 H   0  0  0  0  0  0  0  0  0  0  0  0
   18.8086   20.8538   24.5488 H   0  0  0  0  0  0  0  0  0  0  0  0
   19.1665   19.1492   25.8457 C   0  0  0  0  0  0  0  0  0  0  0  0
   18.8203   18.1171   25.9474 H   0  0  0  0  0  0  0  0  0  0  0  0
   20.2466   19.1354   25.6783 H   0  0  0  0  0  0  0  0  0  0  0  0
   18.9089   19.8604   27.1583 N   0  3  0  0  0  0  0  0  0  0  0  0
   19.3866   19.4006   27.9411 H   0  0  0  0  0  0  0  0  0  0  0  0
   17.9106   19.8840   27.3907 H   0  0  0  0  0  0  0  0  0  0  0  0
   19.2369   20.8316   27.1375 H   0  0  0  0  0  0  0  0  0  0  0  0
  1  2  1  0  0  0  0
  1  3  1  0  0  0  0
  1  4  1  0  0  0  0
  1  5  1  0  0  0  0
  5  6  1  0  0  0  0
  5  7  1  0  0  0  0
  5  8  1  0  0  0  0
  8  9  1  0  0  0  0
  8 10  1  0  0  0  0
  8 11  1  0  0  0  0
 11 12  1  0  0  0  0
 11 13  1  0  0  0  0
 11 14  1  0  0  0  0
 14 15  1  0  0  0  0
 14 16  1  0  0  0  0
 14 17  1  0  0  0  0
 17 18  1  0  0  0  0
 17 19  1  0  0  0  0
 17 20  1  0  0  0  0
 20 21  1  0  0  0  0
 20 22  1  0  0  0  0
 20 23  1  0  0  0  0
 23 24  1  0  0  0  0
 23 25  1  0  0  0  0
 23 26  1  0  0  0  0
M  END
> <VConfSearch Rank>
147

> <Conf_Id>
44

> <Delta U+W>
0.371

> <U+W>
-5.181

> <U>
48.002

> <W>
-53.183

> <W(PB)>
-55.533

> <W(SA)>
2.350

> <Valence>
2.459

> <Coulomb>
44.901

> <VdW>
0.643

> <VdW6>
-6.362

> <VdW12>
7.005

> <Bond>
0.151

> <Angle>
0.519

> <Pdih>
1.789

> <Idih>
0.000

> <Tether>
0.000

$$$$
VeraChem MOL file


 26 25  0  0  0  0  0  0  0  0999 V2000     
   19.8371   17.7402   27.0205 C   0  0  0  0  0  0  0  0  0  0  0  0
   19.3408   16.7921   26.7758 H   0  0  0  0  0  0  0  0  0  0  0  0
   20.1814   17.6797   28.0611 H   0  0  0  0  0  0  0  0  0  0  0  0
   19.0916   18.5430   26.9672 H   0  0  0  0  0  0  0  0  0  0  0  0
   21.0285   18.0051   26.0720 C   0  0  0  0  0  0  0  0  0  0  0  0
   21.8014   17.2460   26.2572 H   0  0  0  0  0  0  0  0  0  0  0  0
   21.4861   18.9745   26.3139 H   0  0  0  0  0  0  0  0  0  0  0  0
   20.6459   17.9660   24.5724 C   0  0  0  0  0  0  0  0  0  0  0  0
   21.5716   18.0255   23.9862 H   0  0  0  0  0  0  0  0  0  0  0  0
   20.1904   16.9946   24.3358 H   0  0  0  0  0  0  0  0  0  0  0  0
   19.6888   19.1099   24.1501 C   0  0  0  0  0  0  0  0  0  0  0  0
   20.1457   20.0816   24.3830 H   0  0  0  0  0  0  0  0  0  0  0  0
   18.7680   19.0515   24.7444 H   0  0  0  0  0  0  0  0  0  0  0  0
   19.2930   19.0679   22.6533 C   0  0  0  0  0  0  0  0  0  0  0  0
   18.8492   18.0907   22.4174 H   0  0  0  0  0  0  0  0  0  0  0  0
   18.5029   19.8126   22.4896 H   0  0  0  0  0  0  0  0  0  0  0  0
   20.4726   19.3528   21.6897 C   0  0  0  0  0  0  0  0  0  0  0  0
   21.2476   18.5863   21.8119 H   0  0  0  0  0  0  0  0  0  0  0  0
   20.9392   20.3150   21.9394 H   0  0  0  0  0  0  0  0  0  0  0  0
   20.0424   19.3591   20.2100 C   0  0  0  0  0  0  0  0  0  0  0  0
   20.9271   19.4657   19.5764 H   0  0  0  0  0  0  0  0  0  0  0  0
   19.5588   18.4101   19.9630 H   0  0  0  0  0  0  0  0  0  0  0  0
   19.0868   20.4815   19.8547 N   0  3  0  0  0  0  0  0  0  0  0  0
   18.2140   20.4207   20.3879 H   0  0  0  0  0  0  0  0  0  0  0  0
   18.8331   20.4650   18.8609 H   0  0  0  0  0  0  0  0  0  0  0  0
   19.4944   21.4029   20.0443 H   0  0  0  0  0  0  0  0  0  0  0  0
  1  2  1  0  0  0  0
  1  3  1  0  0  0  0
  1  4  1  0  0  0  0
  1  5  1  0  0  0  0
  5  6  1  0  0  0  0
  5  7  1  0  0  0  0
  5  8  1  0  0  0  0
  8  9  1  0  0  0  0
  8 10  1  0  0  0  0
  8 11  1  0  0  0  0
 11 12  1  0  0  0  0
 11 13  1  0  0  0  0
 11 14  1  0  0  0  0
 14 15  1  0  0  0  0
 14 16  1  0  0  0  0
 14 17  1  0  0  0  0
 17 18  1  0  0  0  0
 17 19  1  0  0  0  0
 17 20  1  0  0  0  0
 20 21  1  0  0  0  0
 20 22  1  0  0  0  0
 20 23  1  0  0  0  0
 23 24  1  0  0  0  0
 23 25  1  0  0  0  0
 23 26  1  0  0  0  0
M  END
> <VConfSearch Rank>
148

> <Conf_Id>
112

> <Delta U+W>
1.422

> <U+W>
-4.130

> <U>
49.323

> <W>
-53.453

> <W(PB)>
-55.749

> <W(SA)>
2.296

> <Valence>
3.408

> <Coulomb>
44.893

> <VdW>
1.021

> <VdW6>
-7.481

> <VdW12>
8.503

> <Bond>
0.239

> <Angle>
1.013

> <Pdih>
2.156

> <Idih>
0.000

> <Tether>
0.000

$$$$
VeraChem MOL file


 26 25  0  0  0  0  0  0  0  0999 V2000     
   23.5475   19.6633   23.8932 C   0  0  0  0  0  0  0  0  0  0  0  0
   24.5853   19.7225   24.2459 H   0  0  0  0  0  0  0  0  0  0  0  0
   23.5272   18.9721   23.0416 H   0  0  0  0  0  0  0  0  0  0  0  0
   23.2572   20.6596   23.5350 H   0  0  0  0  0  0  0  0  0  0  0  0
   22.6156   19.1887   25.0313 C   0  0  0  0  0  0  0  0  0  0  0  0
   22.7570   19.8440   25.9021 H   0  0  0  0  0  0  0  0  0  0  0  0
   22.9107   18.1805   25.3542 H   0  0  0  0  0  0  0  0  0  0  0  0
   21.1180   19.1964   24.6410 C   0  0  0  0  0  0  0  0  0  0  0  0
   20.5241   18.9448   25.5305 H   0  0  0  0  0  0  0  0  0  0  0  0
   20.8290   20.2151   24.3513 H   0  0  0  0  0  0  0  0  0  0  0  0
   20.7755   18.2005   23.5040 C   0  0  0  0  0  0  0  0  0  0  0  0
   21.1885   17.2143   23.7568 H   0  0  0  0  0  0  0  0  0  0  0  0
   21.2643   18.5112   22.5711 H   0  0  0  0  0  0  0  0  0  0  0  0
   19.2550   18.0461   23.2546 C   0  0  0  0  0  0  0  0  0  0  0  0
   19.1087   17.2390   22.5246 H   0  0  0  0  0  0  0  0  0  0  0  0
   18.7616   17.7183   24.1801 H   0  0  0  0  0  0  0  0  0  0  0  0
   18.5804   19.3401   22.7339 C   0  0  0  0  0  0  0  0  0  0  0  0
   19.0844   19.6870   21.8221 H   0  0  0  0  0  0  0  0  0  0  0  0
   18.6883   20.1401   23.4767 H   0  0  0  0  0  0  0  0  0  0  0  0
   17.0770   19.1539   22.4512 C   0  0  0  0  0  0  0  0  0  0  0  0
   16.5752   18.7907   23.3521 H   0  0  0  0  0  0  0  0  0  0  0  0
   16.6374   20.1181   22.1816 H   0  0  0  0  0  0  0  0  0  0  0  0
   16.7815   18.1842   21.3237 N   0  3  0  0  0  0  0  0  0  0  0  0
   17.1349   17.2445   21.5282 H   0  0  0  0  0  0  0  0  0  0  0  0
   17.2095   18.4840   20.4417 H   0  0  0  0  0  0  0  0  0  0  0  0
   15.7740   18.0952   21.1526 H   0  0  0  0  0  0  0  0  0  0  0  0
  1  2  1  0  0  0  0
  1  3  1  0  0  0  0
  1  4  1  0  0  0  0
  1  5  1  0  0  0  0
  5  6  1  0  0  0  0
  5  7  1  0  0  0  0
  5  8  1  0  0  0  0
  8  9  1  0  0  0  0
  8 10  1  0  0  0  0
  8 11  1  0  0  0  0
 11 12  1  0  0  0  0
 11 13  1  0  0  0  0
 11 14  1  0  0  0  0
 14 15  1  0  0  0  0
 14 16  1  0  0  0  0
 14 17  1  0  0  0  0
 17 18  1  0  0  0  0
 17 19  1  0  0  0  0
 17 20  1  0  0  0  0
 20 21  1  0  0  0  0
 20 22  1  0  0  0  0
 20 23  1  0  0  0  0
 23 24  1  0  0  0  0
 23 25  1  0  0  0  0
 23 26  1  0  0  0  0
M  END
> <VConfSearch Rank>
149

> <Conf_Id>
130

> <Delta U+W>
1.282

> <U+W>
-4.270

> <U>
49.153

> <W>
-53.422

> <W(PB)>
-55.725

> <W(SA)>
2.303

> <Valence>
3.298

> <Coulomb>
44.907

> <VdW>
0.948

> <VdW6>
-7.574

> <VdW12>
8.522

> <Bond>
0.229

> <Angle>
0.912

> <Pdih>
2.157

> <Idih>
0.000

> <Tether>
0.000

$$$$
VeraChem MOL file


 26 25  0  0  0  0  0  0  0  0999 V2000     
   18.8750   22.0650   23.9080 C   0  0  0  0  0  0  0  0  0  0  0  0
   18.8595   22.2147   24.9953 H   0  0  0  0  0  0  0  0  0  0  0  0
   18.4402   22.9574   23.4395 H   0  0  0  0  0  0  0  0  0  0  0  0
   18.2235   21.2154   23.6680 H   0  0  0  0  0  0  0  0  0  0  0  0
   20.3160   21.8343   23.3996 C   0  0  0  0  0  0  0  0  0  0  0  0
   20.8967   22.7544   23.5540 H   0  0  0  0  0  0  0  0  0  0  0  0
   20.3041   21.6667   22.3144 H   0  0  0  0  0  0  0  0  0  0  0  0
   21.0434   20.6673   24.1152 C   0  0  0  0  0  0  0  0  0  0  0  0
   22.0636   20.5879   23.7151 H   0  0  0  0  0  0  0  0  0  0  0  0
   21.1570   20.9206   25.1782 H   0  0  0  0  0  0  0  0  0  0  0  0
   20.3506   19.2841   24.0068 C   0  0  0  0  0  0  0  0  0  0  0  0
   19.3686   19.3183   24.4968 H   0  0  0  0  0  0  0  0  0  0  0  0
   20.9480   18.5622   24.5789 H   0  0  0  0  0  0  0  0  0  0  0  0
   20.1918   18.7837   22.5486 C   0  0  0  0  0  0  0  0  0  0  0  0
   19.5695   19.4896   21.9835 H   0  0  0  0  0  0  0  0  0  0  0  0
   21.1724   18.7656   22.0533 H   0  0  0  0  0  0  0  0  0  0  0  0
   19.5401   17.3839   22.4552 C   0  0  0  0  0  0  0  0  0  0  0  0
   19.3637   17.1439   21.3982 H   0  0  0  0  0  0  0  0  0  0  0  0
   18.5558   17.4018   22.9419 H   0  0  0  0  0  0  0  0  0  0  0  0
   20.4090   16.2773   23.0822 C   0  0  0  0  0  0  0  0  0  0  0  0
   21.3892   16.2608   22.5982 H   0  0  0  0  0  0  0  0  0  0  0  0
   20.5537   16.4778   24.1468 H   0  0  0  0  0  0  0  0  0  0  0  0
   19.7981   14.8973   22.9488 N   0  3  0  0  0  0  0  0  0  0  0  0
   18.8832   14.8385   23.4077 H   0  0  0  0  0  0  0  0  0  0  0  0
   20.3915   14.1754   23.3720 H   0  0  0  0  0  0  0  0  0  0  0  0
   19.6611   14.6334   21.9676 H   0  0  0  0  0  0  0  0  0  0  0  0
  1  2  1  0  0  0  0
  1  3  1  0  0  0  0
  1  4  1  0  0  0  0
  1  5  1  0  0  0  0
  5  6  1  0  0  0  0
  5  7  1  0  0  0  0
  5  8  1  0  0  0  0
  8  9  1  0  0  0  0
  8 10  1  0  0  0  0
  8 11  1  0  0  0  0
 11 12  1  0  0  0  0
 11 13  1  0  0  0  0
 11 14  1  0  0  0  0
 14 15  1  0  0  0  0
 14 16  1  0  0  0  0
 14 17  1  0  0  0  0
 17 18  1  0  0  0  0
 17 19  1  0  0  0  0
 17 20  1  0  0  0  0
 20 21  1  0  0  0  0
 20 22  1  0  0  0  0
 20 23  1  0  0  0  0
 23 24  1  0  0  0  0
 23 25  1  0  0  0  0
 23 26  1  0  0  0  0
M  END
> <VConfSearch Rank>
150

> <Conf_Id>
111

> <Delta U+W>
1.290

> <U+W>
-4.262

> <U>
49.209

> <W>
-53.471

> <W(PB)>
-55.745

> <W(SA)>
2.274

> <Valence>
3.465

> <Coulomb>
44.958

> <VdW>
0.786

> <VdW6>
-7.903

> <VdW12>
8.689

> <Bond>
0.237

> <Angle>
1.212

> <Pdih>
2.015

> <Idih>
0.000

> <Tether>
0.000

$$$$
VeraChem MOL file


 26 25  0  0  0  0  0  0  0  0999 V2000     
   16.5342   19.7924   21.4189 C   0  0  0  0  0  0  0  0  0  0  0  0
   16.2405   18.7347   21.4055 H   0  0  0  0  0  0  0  0  0  0  0  0
   15.7756   20.3508   21.9828 H   0  0  0  0  0  0  0  0  0  0  0  0
   16.5218   20.1587   20.3841 H   0  0  0  0  0  0  0  0  0  0  0  0
   17.9341   19.9712   22.0437 C   0  0  0  0  0  0  0  0  0  0  0  0
   18.2121   21.0341   22.0161 H   0  0  0  0  0  0  0  0  0  0  0  0
   18.6689   19.4335   21.4300 H   0  0  0  0  0  0  0  0  0  0  0  0
   17.9772   19.4575   23.5023 C   0  0  0  0  0  0  0  0  0  0  0  0
   17.1817   19.9508   24.0777 H   0  0  0  0  0  0  0  0  0  0  0  0
   17.7509   18.3825   23.5232 H   0  0  0  0  0  0  0  0  0  0  0  0
   19.3287   19.7176   24.2119 C   0  0  0  0  0  0  0  0  0  0  0  0
   19.2277   19.4295   25.2675 H   0  0  0  0  0  0  0  0  0  0  0  0
   19.5455   20.7948   24.2058 H   0  0  0  0  0  0  0  0  0  0  0  0
   20.5144   18.9417   23.5895 C   0  0  0  0  0  0  0  0  0  0  0  0
   20.2638   17.8735   23.5445 H   0  0  0  0  0  0  0  0  0  0  0  0
   20.6806   19.2762   22.5571 H   0  0  0  0  0  0  0  0  0  0  0  0
   21.8170   19.1424   24.3997 C   0  0  0  0  0  0  0  0  0  0  0  0
   21.6821   18.7781   25.4268 H   0  0  0  0  0  0  0  0  0  0  0  0
   22.0367   20.2158   24.4742 H   0  0  0  0  0  0  0  0  0  0  0  0
   23.0301   18.4396   23.7603 C   0  0  0  0  0  0  0  0  0  0  0  0
   23.1643   18.7963   22.7356 H   0  0  0  0  0  0  0  0  0  0  0  0
   23.9320   18.6851   24.3277 H   0  0  0  0  0  0  0  0  0  0  0  0
   22.9091   16.9288   23.7208 N   0  3  0  0  0  0  0  0  0  0  0  0
   23.7370   16.4915   23.3016 H   0  0  0  0  0  0  0  0  0  0  0  0
   22.0993   16.6270   23.1703 H   0  0  0  0  0  0  0  0  0  0  0  0
   22.8033   16.5307   24.6595 H   0  0  0  0  0  0  0  0  0  0  0  0
  1  2  1  0  0  0  0
  1  3  1  0  0  0  0
  1  4  1  0  0  0  0
  1  5  1  0  0  0  0
  5  6  1  0  0  0  0
  5  7  1  0  0  0  0
  5  8  1  0  0  0  0
  8  9  1  0  0  0  0
  8 10  1  0  0  0  0
  8 11  1  0  0  0  0
 11 12  1  0  0  0  0
 11 13  1  0  0  0  0
 11 14  1  0  0  0  0
 14 15  1  0  0  0  0
 14 16  1  0  0  0  0
 14 17  1  0  0  0  0
 17 18  1  0  0  0  0
 17 19  1  0  0  0  0
 17 20  1  0  0  0  0
 20 21  1  0  0  0  0
 20 22  1  0  0  0  0
 20 23  1  0  0  0  0
 23 24  1  0  0  0  0
 23 25  1  0  0  0  0
 23 26  1  0  0  0  0
M  END
> <VConfSearch Rank>
151

> <Conf_Id>
105

> <Delta U+W>
0.736

> <U+W>
-4.817

> <U>
48.735

> <W>
-53.552

> <W(PB)>
-55.889

> <W(SA)>
2.337

> <Valence>
2.803

> <Coulomb>
45.123

> <VdW>
0.809

> <VdW6>
-6.953

> <VdW12>
7.761

> <Bond>
0.188

> <Angle>
0.699

> <Pdih>
1.917

> <Idih>
0.000

> <Tether>
0.000

$$$$
VeraChem MOL file


 26 25  0  0  0  0  0  0  0  0999 V2000     
   19.3874   15.5686   24.6966 C   0  0  0  0  0  0  0  0  0  0  0  0
   18.3828   15.2554   25.0093 H   0  0  0  0  0  0  0  0  0  0  0  0
   19.5655   15.1845   23.6836 H   0  0  0  0  0  0  0  0  0  0  0  0
   20.1129   15.0935   25.3696 H   0  0  0  0  0  0  0  0  0  0  0  0
   19.5288   17.1049   24.7397 C   0  0  0  0  0  0  0  0  0  0  0  0
   20.5555   17.3759   24.4600 H   0  0  0  0  0  0  0  0  0  0  0  0
   19.3749   17.4566   25.7694 H   0  0  0  0  0  0  0  0  0  0  0  0
   18.5184   17.7973   23.7951 C   0  0  0  0  0  0  0  0  0  0  0  0
   18.6982   17.4781   22.7601 H   0  0  0  0  0  0  0  0  0  0  0  0
   17.5050   17.4530   24.0433 H   0  0  0  0  0  0  0  0  0  0  0  0
   18.5419   19.3453   23.8863 C   0  0  0  0  0  0  0  0  0  0  0  0
   18.2334   19.6455   24.8972 H   0  0  0  0  0  0  0  0  0  0  0  0
   17.7782   19.7497   23.2077 H   0  0  0  0  0  0  0  0  0  0  0  0
   19.9041   20.0131   23.5641 C   0  0  0  0  0  0  0  0  0  0  0  0
   19.7847   21.0982   23.6808 H   0  0  0  0  0  0  0  0  0  0  0  0
   20.6552   19.7114   24.3061 H   0  0  0  0  0  0  0  0  0  0  0  0
   20.4238   19.7034   22.1379 C   0  0  0  0  0  0  0  0  0  0  0  0
   19.6686   19.9852   21.3922 H   0  0  0  0  0  0  0  0  0  0  0  0
   20.5866   18.6239   22.0290 H   0  0  0  0  0  0  0  0  0  0  0  0
   21.7518   20.4180   21.8211 C   0  0  0  0  0  0  0  0  0  0  0  0
   22.5004   20.1541   22.5731 H   0  0  0  0  0  0  0  0  0  0  0  0
   22.1174   20.0864   20.8454 H   0  0  0  0  0  0  0  0  0  0  0  0
   21.6388   21.9293   21.7786 N   0  3  0  0  0  0  0  0  0  0  0  0
   21.3348   22.3132   22.6787 H   0  0  0  0  0  0  0  0  0  0  0  0
   20.9638   22.2408   21.0727 H   0  0  0  0  0  0  0  0  0  0  0  0
   22.5358   22.3719   21.5512 H   0  0  0  0  0  0  0  0  0  0  0  0
  1  2  1  0  0  0  0
  1  3  1  0  0  0  0
  1  4  1  0  0  0  0
  1  5  1  0  0  0  0
  5  6  1  0  0  0  0
  5  7  1  0  0  0  0
  5  8  1  0  0  0  0
  8  9  1  0  0  0  0
  8 10  1  0  0  0  0
  8 11  1  0  0  0  0
 11 12  1  0  0  0  0
 11 13  1  0  0  0  0
 11 14  1  0  0  0  0
 14 15  1  0  0  0  0
 14 16  1  0  0  0  0
 14 17  1  0  0  0  0
 17 18  1  0  0  0  0
 17 19  1  0  0  0  0
 17 20  1  0  0  0  0
 20 21  1  0  0  0  0
 20 22  1  0  0  0  0
 20 23  1  0  0  0  0
 23 24  1  0  0  0  0
 23 25  1  0  0  0  0
 23 26  1  0  0  0  0
M  END
> <VConfSearch Rank>
152

> <Conf_Id>
144

> <Delta U+W>
1.073

> <U+W>
-4.479

> <U>
49.231

> <W>
-53.710

> <W(PB)>
-55.983

> <W(SA)>
2.273

> <Valence>
3.276

> <Coulomb>
45.175

> <VdW>
0.779

> <VdW6>
-7.944

> <VdW12>
8.723

> <Bond>
0.239

> <Angle>
1.155

> <Pdih>
1.883

> <Idih>
0.000

> <Tether>
0.000

$$$$
VeraChem MOL file


 26 25  0  0  0  0  0  0  0  0999 V2000     
   21.0003   22.3334   22.5298 C   0  0  0  0  0  0  0  0  0  0  0  0
   21.9513   22.1251   23.0349 H   0  0  0  0  0  0  0  0  0  0  0  0
   21.1797   23.1460   21.8140 H   0  0  0  0  0  0  0  0  0  0  0  0
   20.2853   22.6983   23.2786 H   0  0  0  0  0  0  0  0  0  0  0  0
   20.4540   21.0838   21.8021 C   0  0  0  0  0  0  0  0  0  0  0  0
   21.1999   20.7171   21.0831 H   0  0  0  0  0  0  0  0  0  0  0  0
   19.5762   21.3786   21.2101 H   0  0  0  0  0  0  0  0  0  0  0  0
   20.0419   19.9400   22.7604 C   0  0  0  0  0  0  0  0  0  0  0  0
   19.3121   20.3169   23.4900 H   0  0  0  0  0  0  0  0  0  0  0  0
   19.5292   19.1748   22.1643 H   0  0  0  0  0  0  0  0  0  0  0  0
   21.2392   19.2902   23.4976 C   0  0  0  0  0  0  0  0  0  0  0  0
   21.8174   20.0669   24.0137 H   0  0  0  0  0  0  0  0  0  0  0  0
   21.9198   18.8419   22.7608 H   0  0  0  0  0  0  0  0  0  0  0  0
   20.8437   18.2220   24.5503 C   0  0  0  0  0  0  0  0  0  0  0  0
   21.7688   17.8690   25.0267 H   0  0  0  0  0  0  0  0  0  0  0  0
   20.2542   18.6848   25.3540 H   0  0  0  0  0  0  0  0  0  0  0  0
   20.0934   16.9903   23.9838 C   0  0  0  0  0  0  0  0  0  0  0  0
   20.3113   16.1239   24.6224 H   0  0  0  0  0  0  0  0  0  0  0  0
   20.4746   16.7422   22.9843 H   0  0  0  0  0  0  0  0  0  0  0  0
   18.5645   17.1813   23.9437 C   0  0  0  0  0  0  0  0  0  0  0  0
   18.1937   17.3743   24.9540 H   0  0  0  0  0  0  0  0  0  0  0  0
   18.3052   18.0367   23.3172 H   0  0  0  0  0  0  0  0  0  0  0  0
   17.8313   15.9713   23.4020 N   0  3  0  0  0  0  0  0  0  0  0  0
   18.0055   15.1344   23.9680 H   0  0  0  0  0  0  0  0  0  0  0  0
   18.1151   15.7505   22.4419 H   0  0  0  0  0  0  0  0  0  0  0  0
   16.8158   16.1157   23.3879 H   0  0  0  0  0  0  0  0  0  0  0  0
  1  2  1  0  0  0  0
  1  3  1  0  0  0  0
  1  4  1  0  0  0  0
  1  5  1  0  0  0  0
  5  6  1  0  0  0  0
  5  7  1  0  0  0  0
  5  8  1  0  0  0  0
  8  9  1  0  0  0  0
  8 10  1  0  0  0  0
  8 11  1  0  0  0  0
 11 12  1  0  0  0  0
 11 13  1  0  0  0  0
 11 14  1  0  0  0  0
 14 15  1  0  0  0  0
 14 16  1  0  0  0  0
 14 17  1  0  0  0  0
 17 18  1  0  0  0  0
 17 19  1  0  0  0  0
 17 20  1  0  0  0  0
 20 21  1  0  0  0  0
 20 22  1  0  0  0  0
 20 23  1  0  0  0  0
 23 24  1  0  0  0  0
 23 25  1  0  0  0  0
 23 26  1  0  0  0  0
M  END
> <VConfSearch Rank>
153

> <Conf_Id>
93

> <Delta U+W>
3.253

> <U+W>
-2.300

> <U>
51.609

> <W>
-53.909

> <W(PB)>
-56.178

> <W(SA)>
2.270

> <Valence>
5.204

> <Coulomb>
45.645

> <VdW>
0.760

> <VdW6>
-7.997

> <VdW12>
8.758

> <Bond>
0.240

> <Angle>
1.456

> <Pdih>
3.507

> <Idih>
0.000

> <Tether>
0.000

$$$$
VeraChem MOL file


 26 25  0  0  0  0  0  0  0  0999 V2000     
   16.6902   18.1215   22.0873 C   0  0  0  0  0  0  0  0  0  0  0  0
   16.8086   17.1290   22.5387 H   0  0  0  0  0  0  0  0  0  0  0  0
   16.2685   18.7959   22.8439 H   0  0  0  0  0  0  0  0  0  0  0  0
   15.9568   18.0279   21.2759 H   0  0  0  0  0  0  0  0  0  0  0  0
   18.0309   18.6654   21.5430 C   0  0  0  0  0  0  0  0  0  0  0  0
   17.8338   19.5948   20.9906 H   0  0  0  0  0  0  0  0  0  0  0  0
   18.4500   17.9580   20.8139 H   0  0  0  0  0  0  0  0  0  0  0  0
   19.0740   18.9598   22.6484 C   0  0  0  0  0  0  0  0  0  0  0  0
   19.9178   19.4812   22.1795 H   0  0  0  0  0  0  0  0  0  0  0  0
   18.6429   19.6506   23.3858 H   0  0  0  0  0  0  0  0  0  0  0  0
   19.5968   17.6866   23.3592 C   0  0  0  0  0  0  0  0  0  0  0  0
   20.1014   17.0424   22.6262 H   0  0  0  0  0  0  0  0  0  0  0  0
   18.7483   17.1059   23.7423 H   0  0  0  0  0  0  0  0  0  0  0  0
   20.5534   17.9609   24.5489 C   0  0  0  0  0  0  0  0  0  0  0  0
   20.0238   18.5101   25.3398 H   0  0  0  0  0  0  0  0  0  0  0  0
   20.8198   16.9900   24.9893 H   0  0  0  0  0  0  0  0  0  0  0  0
   21.8652   18.6977   24.1783 C   0  0  0  0  0  0  0  0  0  0  0  0
   22.2105   18.3789   23.1858 H   0  0  0  0  0  0  0  0  0  0  0  0
   22.6470   18.3987   24.8893 H   0  0  0  0  0  0  0  0  0  0  0  0
   21.7312   20.2322   24.2335 C   0  0  0  0  0  0  0  0  0  0  0  0
   20.9604   20.5711   23.5390 H   0  0  0  0  0  0  0  0  0  0  0  0
   21.4391   20.5375   25.2419 H   0  0  0  0  0  0  0  0  0  0  0  0
   23.0181   20.9511   23.8840 N   0  3  0  0  0  0  0  0  0  0  0  0
   23.7803   20.7021   24.5230 H   0  0  0  0  0  0  0  0  0  0  0  0
   22.9104   21.9702   23.9312 H   0  0  0  0  0  0  0  0  0  0  0  0
   23.3352   20.7278   22.9350 H   0  0  0  0  0  0  0  0  0  0  0  0
  1  2  1  0  0  0  0
  1  3  1  0  0  0  0
  1  4  1  0  0  0  0
  1  5  1  0  0  0  0
  5  6  1  0  0  0  0
  5  7  1  0  0  0  0
  5  8  1  0  0  0  0
  8  9  1  0  0  0  0
  8 10  1  0  0  0  0
  8 11  1  0  0  0  0
 11 12  1  0  0  0  0
 11 13  1  0  0  0  0
 11 14  1  0  0  0  0
 14 15  1  0  0  0  0
 14 16  1  0  0  0  0
 14 17  1  0  0  0  0
 17 18  1  0  0  0  0
 17 19  1  0  0  0  0
 17 20  1  0  0  0  0
 20 21  1  0  0  0  0
 20 22  1  0  0  0  0
 20 23  1  0  0  0  0
 23 24  1  0  0  0  0
 23 25  1  0  0  0  0
 23 26  1  0  0  0  0
M  END
> <VConfSearch Rank>
154

> <Conf_Id>
94

> <Delta U+W>
3.247

> <U+W>
-2.305

> <U>
51.609

> <W>
-53.914

> <W(PB)>
-56.221

> <W(SA)>
2.307

> <Valence>
5.204

> <Coulomb>
45.645

> <VdW>
0.760

> <VdW6>
-7.997

> <VdW12>
8.757

> <Bond>
0.240

> <Angle>
1.456

> <Pdih>
3.508

> <Idih>
0.000

> <Tether>
0.000

$$$$
VeraChem MOL file


 26 25  0  0  0  0  0  0  0  0999 V2000     
   19.7569   16.3903   20.0865 C   0  0  0  0  0  0  0  0  0  0  0  0
   19.6248   15.4120   20.5669 H   0  0  0  0  0  0  0  0  0  0  0  0
   18.7647   16.7769   19.8195 H   0  0  0  0  0  0  0  0  0  0  0  0
   20.3198   16.2360   19.1568 H   0  0  0  0  0  0  0  0  0  0  0  0
   20.5016   17.3698   21.0183 C   0  0  0  0  0  0  0  0  0  0  0  0
   20.6487   18.3269   20.4984 H   0  0  0  0  0  0  0  0  0  0  0  0
   21.5021   16.9725   21.2401 H   0  0  0  0  0  0  0  0  0  0  0  0
   19.7299   17.6048   22.3357 C   0  0  0  0  0  0  0  0  0  0  0  0
   18.7300   17.9998   22.1088 H   0  0  0  0  0  0  0  0  0  0  0  0
   19.5832   16.6449   22.8500 H   0  0  0  0  0  0  0  0  0  0  0  0
   20.4729   18.5847   23.2716 C   0  0  0  0  0  0  0  0  0  0  0  0
   20.6226   19.5386   22.7485 H   0  0  0  0  0  0  0  0  0  0  0  0
   21.4712   18.1867   23.5004 H   0  0  0  0  0  0  0  0  0  0  0  0
   19.6966   18.8198   24.5895 C   0  0  0  0  0  0  0  0  0  0  0  0
   18.7068   19.2409   24.3678 H   0  0  0  0  0  0  0  0  0  0  0  0
   19.5138   17.8522   25.0771 H   0  0  0  0  0  0  0  0  0  0  0  0
   20.4492   19.7381   25.5850 C   0  0  0  0  0  0  0  0  0  0  0  0
   21.3989   19.2643   25.8670 H   0  0  0  0  0  0  0  0  0  0  0  0
   19.8647   19.8262   26.5104 H   0  0  0  0  0  0  0  0  0  0  0  0
   20.7441   21.1497   25.0382 C   0  0  0  0  0  0  0  0  0  0  0  0
   21.2974   21.7210   25.7884 H   0  0  0  0  0  0  0  0  0  0  0  0
   21.3650   21.0771   24.1416 H   0  0  0  0  0  0  0  0  0  0  0  0
   19.4981   21.9374   24.6848 N   0  3  0  0  0  0  0  0  0  0  0  0
   18.8854   22.0644   25.4968 H   0  0  0  0  0  0  0  0  0  0  0  0
   18.9475   21.4673   23.9596 H   0  0  0  0  0  0  0  0  0  0  0  0
   19.7260   22.8732   24.3318 H   0  0  0  0  0  0  0  0  0  0  0  0
  1  2  1  0  0  0  0
  1  3  1  0  0  0  0
  1  4  1  0  0  0  0
  1  5  1  0  0  0  0
  5  6  1  0  0  0  0
  5  7  1  0  0  0  0
  5  8  1  0  0  0  0
  8  9  1  0  0  0  0
  8 10  1  0  0  0  0
  8 11  1  0  0  0  0
 11 12  1  0  0  0  0
 11 13  1  0  0  0  0
 11 14  1  0  0  0  0
 14 15  1  0  0  0  0
 14 16  1  0  0  0  0
 14 17  1  0  0  0  0
 17 18  1  0  0  0  0
 17 19  1  0  0  0  0
 17 20  1  0  0  0  0
 20 21  1  0  0  0  0
 20 22  1  0  0  0  0
 20 23  1  0  0  0  0
 23 24  1  0  0  0  0
 23 25  1  0  0  0  0
 23 26  1  0  0  0  0
M  END
> <VConfSearch Rank>
155

> <Conf_Id>
83

> <Delta U+W>
0.559

> <U+W>
-4.994

> <U>
48.668

> <W>
-53.661

> <W(PB)>
-55.972

> <W(SA)>
2.311

> <Valence>
2.543

> <Coulomb>
45.478

> <VdW>
0.646

> <VdW6>
-7.096

> <VdW12>
7.742

> <Bond>
0.176

> <Angle>
0.630

> <Pdih>
1.738

> <Idih>
0.000

> <Tether>
0.000

$$$$
VeraChem MOL file


 26 25  0  0  0  0  0  0  0  0999 V2000     
   23.8079   20.0490   23.9592 C   0  0  0  0  0  0  0  0  0  0  0  0
   24.5504   19.8639   23.1720 H   0  0  0  0  0  0  0  0  0  0  0  0
   23.6223   21.1300   24.0069 H   0  0  0  0  0  0  0  0  0  0  0  0
   24.2479   19.7400   24.9162 H   0  0  0  0  0  0  0  0  0  0  0  0
   22.5019   19.2738   23.6843 C   0  0  0  0  0  0  0  0  0  0  0  0
   21.8022   19.4513   24.5116 H   0  0  0  0  0  0  0  0  0  0  0  0
   22.7142   18.1956   23.6715 H   0  0  0  0  0  0  0  0  0  0  0  0
   21.8605   19.6961   22.3413 C   0  0  0  0  0  0  0  0  0  0  0  0
   21.5986   20.7626   22.3748 H   0  0  0  0  0  0  0  0  0  0  0  0
   22.6052   19.5870   21.5408 H   0  0  0  0  0  0  0  0  0  0  0  0
   20.6093   18.8659   21.9626 C   0  0  0  0  0  0  0  0  0  0  0  0
   20.8753   17.8009   21.9151 H   0  0  0  0  0  0  0  0  0  0  0  0
   20.2979   19.1513   20.9482 H   0  0  0  0  0  0  0  0  0  0  0  0
   19.4179   19.0644   22.9304 C   0  0  0  0  0  0  0  0  0  0  0  0
   19.6941   18.7151   23.9330 H   0  0  0  0  0  0  0  0  0  0  0  0
   19.1888   20.1357   23.0153 H   0  0  0  0  0  0  0  0  0  0  0  0
   18.1583   18.3054   22.4497 C   0  0  0  0  0  0  0  0  0  0  0  0
   18.3682   17.2293   22.3875 H   0  0  0  0  0  0  0  0  0  0  0  0
   17.9009   18.6337   21.4339 H   0  0  0  0  0  0  0  0  0  0  0  0
   16.9376   18.5398   23.3605 C   0  0  0  0  0  0  0  0  0  0  0  0
   16.7311   19.6111   23.4309 H   0  0  0  0  0  0  0  0  0  0  0  0
   16.0614   18.0517   22.9249 H   0  0  0  0  0  0  0  0  0  0  0  0
   17.1118   18.0005   24.7668 N   0  3  0  0  0  0  0  0  0  0  0  0
   17.8981   18.4460   25.2497 H   0  0  0  0  0  0  0  0  0  0  0  0
   17.2874   16.9905   24.7681 H   0  0  0  0  0  0  0  0  0  0  0  0
   16.2773   18.1601   25.3415 H   0  0  0  0  0  0  0  0  0  0  0  0
  1  2  1  0  0  0  0
  1  3  1  0  0  0  0
  1  4  1  0  0  0  0
  1  5  1  0  0  0  0
  5  6  1  0  0  0  0
  5  7  1  0  0  0  0
  5  8  1  0  0  0  0
  8  9  1  0  0  0  0
  8 10  1  0  0  0  0
  8 11  1  0  0  0  0
 11 12  1  0  0  0  0
 11 13  1  0  0  0  0
 11 14  1  0  0  0  0
 14 15  1  0  0  0  0
 14 16  1  0  0  0  0
 14 17  1  0  0  0  0
 17 18  1  0  0  0  0
 17 19  1  0  0  0  0
 17 20  1  0  0  0  0
 20 21  1  0  0  0  0
 20 22  1  0  0  0  0
 20 23  1  0  0  0  0
 23 24  1  0  0  0  0
 23 25  1  0  0  0  0
 23 26  1  0  0  0  0
M  END
> <VConfSearch Rank>
156

> <Conf_Id>
18

> <Delta U+W>
0.759

> <U+W>
-4.793

> <U>
48.945

> <W>
-53.738

> <W(PB)>
-56.051

> <W(SA)>
2.313

> <Valence>
2.802

> <Coulomb>
45.335

> <VdW>
0.807

> <VdW6>
-6.962

> <VdW12>
7.769

> <Bond>
0.189

> <Angle>
0.696

> <Pdih>
1.917

> <Idih>
0.000

> <Tether>
0.000

$$$$
VeraChem MOL file


 26 25  0  0  0  0  0  0  0  0999 V2000     
   23.1230   20.0717   21.2856 C   0  0  0  0  0  0  0  0  0  0  0  0
   23.5218   20.7269   22.0711 H   0  0  0  0  0  0  0  0  0  0  0  0
   23.8881   19.3223   21.0443 H   0  0  0  0  0  0  0  0  0  0  0  0
   22.9562   20.6830   20.3892 H   0  0  0  0  0  0  0  0  0  0  0  0
   21.8098   19.3990   21.7386 C   0  0  0  0  0  0  0  0  0  0  0  0
   21.4205   18.7741   20.9227 H   0  0  0  0  0  0  0  0  0  0  0  0
   21.0594   20.1772   21.9303 H   0  0  0  0  0  0  0  0  0  0  0  0
   22.0195   18.5346   23.0045 C   0  0  0  0  0  0  0  0  0  0  0  0
   22.8306   17.8177   22.8161 H   0  0  0  0  0  0  0  0  0  0  0  0
   22.3569   19.1698   23.8351 H   0  0  0  0  0  0  0  0  0  0  0  0
   20.7580   17.7455   23.4335 C   0  0  0  0  0  0  0  0  0  0  0  0
   21.0331   17.0742   24.2588 H   0  0  0  0  0  0  0  0  0  0  0  0
   20.4298   17.0997   22.6073 H   0  0  0  0  0  0  0  0  0  0  0  0
   19.5866   18.6493   23.8876 C   0  0  0  0  0  0  0  0  0  0  0  0
   19.9331   19.3296   24.6779 H   0  0  0  0  0  0  0  0  0  0  0  0
   19.2555   19.2743   23.0490 H   0  0  0  0  0  0  0  0  0  0  0  0
   18.3925   17.8171   24.4122 C   0  0  0  0  0  0  0  0  0  0  0  0
   18.7321   17.1692   25.2313 H   0  0  0  0  0  0  0  0  0  0  0  0
   18.0204   17.1526   23.6210 H   0  0  0  0  0  0  0  0  0  0  0  0
   17.2376   18.6944   24.9329 C   0  0  0  0  0  0  0  0  0  0  0  0
   16.4645   18.0551   25.3678 H   0  0  0  0  0  0  0  0  0  0  0  0
   17.6070   19.3628   25.7154 H   0  0  0  0  0  0  0  0  0  0  0  0
   16.5826   19.5422   23.8601 N   0  3  0  0  0  0  0  0  0  0  0  0
   16.1950   18.9675   23.1047 H   0  0  0  0  0  0  0  0  0  0  0  0
   17.2469   20.1957   23.4341 H   0  0  0  0  0  0  0  0  0  0  0  0
   15.8101   20.1022   24.2367 H   0  0  0  0  0  0  0  0  0  0  0  0
  1  2  1  0  0  0  0
  1  3  1  0  0  0  0
  1  4  1  0  0  0  0
  1  5  1  0  0  0  0
  5  6  1  0  0  0  0
  5  7  1  0  0  0  0
  5  8  1  0  0  0  0
  8  9  1  0  0  0  0
  8 10  1  0  0  0  0
  8 11  1  0  0  0  0
 11 12  1  0  0  0  0
 11 13  1  0  0  0  0
 11 14  1  0  0  0  0
 14 15  1  0  0  0  0
 14 16  1  0  0  0  0
 14 17  1  0  0  0  0
 17 18  1  0  0  0  0
 17 19  1  0  0  0  0
 17 20  1  0  0  0  0
 20 21  1  0  0  0  0
 20 22  1  0  0  0  0
 20 23  1  0  0  0  0
 23 24  1  0  0  0  0
 23 25  1  0  0  0  0
 23 26  1  0  0  0  0
M  END
> <VConfSearch Rank>
157

> <Conf_Id>
17

> <Delta U+W>
0.843

> <U+W>
-4.709

> <U>
48.945

> <W>
-53.653

> <W(PB)>
-55.991

> <W(SA)>
2.338

> <Valence>
2.802

> <Coulomb>
45.335

> <VdW>
0.807

> <VdW6>
-6.962

> <VdW12>
7.769

> <Bond>
0.189

> <Angle>
0.696

> <Pdih>
1.917

> <Idih>
0.000

> <Tether>
0.000

$$$$
VeraChem MOL file


 26 25  0  0  0  0  0  0  0  0999 V2000     
   19.1024   21.7556   25.0552 C   0  0  0  0  0  0  0  0  0  0  0  0
   20.0576   21.2373   25.2050 H   0  0  0  0  0  0  0  0  0  0  0  0
   19.1946   22.3994   24.1710 H   0  0  0  0  0  0  0  0  0  0  0  0
   18.9387   22.4032   25.9263 H   0  0  0  0  0  0  0  0  0  0  0  0
   17.9331   20.7573   24.8965 C   0  0  0  0  0  0  0  0  0  0  0  0
   16.9888   21.3192   24.8746 H   0  0  0  0  0  0  0  0  0  0  0  0
   17.8818   20.1047   25.7792 H   0  0  0  0  0  0  0  0  0  0  0  0
   18.0280   19.8965   23.6137 C   0  0  0  0  0  0  0  0  0  0  0  0
   17.1082   19.3020   23.5246 H   0  0  0  0  0  0  0  0  0  0  0  0
   18.0583   20.5527   22.7330 H   0  0  0  0  0  0  0  0  0  0  0  0
   19.2487   18.9453   23.5979 C   0  0  0  0  0  0  0  0  0  0  0  0
   19.2409   18.3250   24.5047 H   0  0  0  0  0  0  0  0  0  0  0  0
   20.1737   19.5347   23.6212 H   0  0  0  0  0  0  0  0  0  0  0  0
   19.2468   18.0328   22.3479 C   0  0  0  0  0  0  0  0  0  0  0  0
   18.2998   17.4768   22.3073 H   0  0  0  0  0  0  0  0  0  0  0  0
   19.2841   18.6493   21.4390 H   0  0  0  0  0  0  0  0  0  0  0  0
   20.4162   17.0204   22.3329 C   0  0  0  0  0  0  0  0  0  0  0  0
   20.2981   16.3526   21.4692 H   0  0  0  0  0  0  0  0  0  0  0  0
   20.3676   16.3871   23.2289 H   0  0  0  0  0  0  0  0  0  0  0  0
   21.7945   17.7036   22.2557 C   0  0  0  0  0  0  0  0  0  0  0  0
   21.8432   18.3336   21.3634 H   0  0  0  0  0  0  0  0  0  0  0  0
   21.9435   18.3373   23.1336 H   0  0  0  0  0  0  0  0  0  0  0  0
   22.9425   16.7169   22.1949 N   0  3  0  0  0  0  0  0  0  0  0  0
   23.8506   17.1914   22.1437 H   0  0  0  0  0  0  0  0  0  0  0  0
   22.8785   16.1063   21.3737 H   0  0  0  0  0  0  0  0  0  0  0  0
   22.9690   16.1099   23.0208 H   0  0  0  0  0  0  0  0  0  0  0  0
  1  2  1  0  0  0  0
  1  3  1  0  0  0  0
  1  4  1  0  0  0  0
  1  5  1  0  0  0  0
  5  6  1  0  0  0  0
  5  7  1  0  0  0  0
  5  8  1  0  0  0  0
  8  9  1  0  0  0  0
  8 10  1  0  0  0  0
  8 11  1  0  0  0  0
 11 12  1  0  0  0  0
 11 13  1  0  0  0  0
 11 14  1  0  0  0  0
 14 15  1  0  0  0  0
 14 16  1  0  0  0  0
 14 17  1  0  0  0  0
 17 18  1  0  0  0  0
 17 19  1  0  0  0  0
 17 20  1  0  0  0  0
 20 21  1  0  0  0  0
 20 22  1  0  0  0  0
 20 23  1  0  0  0  0
 23 24  1  0  0  0  0
 23 25  1  0  0  0  0
 23 26  1  0  0  0  0
M  END
> <VConfSearch Rank>
158

> <Conf_Id>
96

> <Delta U+W>
0.912

> <U+W>
-4.640

> <U>
48.723

> <W>
-53.364

> <W(PB)>
-55.683

> <W(SA)>
2.320

> <Valence>
2.962

> <Coulomb>
44.993

> <VdW>
0.768

> <VdW6>
-7.008

> <VdW12>
7.776

> <Bond>
0.188

> <Angle>
0.757

> <Pdih>
2.018

> <Idih>
0.000

> <Tether>
0.000

$$$$
VeraChem MOL file


 26 25  0  0  0  0  0  0  0  0999 V2000     
   17.6470   18.3343   25.6890 C   0  0  0  0  0  0  0  0  0  0  0  0
   17.1358   18.3828   26.6592 H   0  0  0  0  0  0  0  0  0  0  0  0
   17.2545   17.4647   25.1460 H   0  0  0  0  0  0  0  0  0  0  0  0
   18.7127   18.1647   25.8865 H   0  0  0  0  0  0  0  0  0  0  0  0
   17.4174   19.6380   24.8912 C   0  0  0  0  0  0  0  0  0  0  0  0
   17.8464   20.4878   25.4403 H   0  0  0  0  0  0  0  0  0  0  0  0
   16.3368   19.8277   24.8270 H   0  0  0  0  0  0  0  0  0  0  0  0
   17.9993   19.5933   23.4576 C   0  0  0  0  0  0  0  0  0  0  0  0
   17.5524   18.7546   22.9063 H   0  0  0  0  0  0  0  0  0  0  0  0
   17.6946   20.5075   22.9297 H   0  0  0  0  0  0  0  0  0  0  0  0
   19.5422   19.4787   23.4215 C   0  0  0  0  0  0  0  0  0  0  0  0
   19.8513   18.5359   23.8899 H   0  0  0  0  0  0  0  0  0  0  0  0
   19.9836   20.2912   24.0148 H   0  0  0  0  0  0  0  0  0  0  0  0
   20.0867   19.5413   21.9741 C   0  0  0  0  0  0  0  0  0  0  0  0
   19.6701   18.7124   21.3852 H   0  0  0  0  0  0  0  0  0  0  0  0
   19.7384   20.4675   21.4964 H   0  0  0  0  0  0  0  0  0  0  0  0
   21.6314   19.4987   21.9037 C   0  0  0  0  0  0  0  0  0  0  0  0
   22.0500   20.3400   22.4721 H   0  0  0  0  0  0  0  0  0  0  0  0
   21.9443   19.6376   20.8603 H   0  0  0  0  0  0  0  0  0  0  0  0
   22.2154   18.1750   22.4319 C   0  0  0  0  0  0  0  0  0  0  0  0
   21.9487   18.0461   23.4840 H   0  0  0  0  0  0  0  0  0  0  0  0
   21.7991   17.3374   21.8657 H   0  0  0  0  0  0  0  0  0  0  0  0
   23.7251   18.1083   22.3239 N   0  3  0  0  0  0  0  0  0  0  0  0
   24.1798   18.8560   22.8581 H   0  0  0  0  0  0  0  0  0  0  0  0
   24.0429   18.1950   21.3530 H   0  0  0  0  0  0  0  0  0  0  0  0
   24.0938   17.2198   22.6803 H   0  0  0  0  0  0  0  0  0  0  0  0
  1  2  1  0  0  0  0
  1  3  1  0  0  0  0
  1  4  1  0  0  0  0
  1  5  1  0  0  0  0
  5  6  1  0  0  0  0
  5  7  1  0  0  0  0
  5  8  1  0  0  0  0
  8  9  1  0  0  0  0
  8 10  1  0  0  0  0
  8 11  1  0  0  0  0
 11 12  1  0  0  0  0
 11 13  1  0  0  0  0
 11 14  1  0  0  0  0
 14 15  1  0  0  0  0
 14 16  1  0  0  0  0
 14 17  1  0  0  0  0
 17 18  1  0  0  0  0
 17 19  1  0  0  0  0
 17 20  1  0  0  0  0
 20 21  1  0  0  0  0
 20 22  1  0  0  0  0
 20 23  1  0  0  0  0
 23 24  1  0  0  0  0
 23 25  1  0  0  0  0
 23 26  1  0  0  0  0
M  END
> <VConfSearch Rank>
159

> <Conf_Id>
133

> <Delta U+W>
0.844

> <U+W>
-4.708

> <U>
48.723

> <W>
-53.431

> <W(PB)>
-55.776

> <W(SA)>
2.344

> <Valence>
2.962

> <Coulomb>
44.993

> <VdW>
0.768

> <VdW6>
-7.008

> <VdW12>
7.776

> <Bond>
0.188

> <Angle>
0.756

> <Pdih>
2.018

> <Idih>
0.000

> <Tether>
0.000

$$$$
VeraChem MOL file


 26 25  0  0  0  0  0  0  0  0999 V2000     
   19.6611   15.6132   22.7063 C   0  0  0  0  0  0  0  0  0  0  0  0
   18.6912   15.2431   22.3497 H   0  0  0  0  0  0  0  0  0  0  0  0
   20.0000   16.4032   22.0246 H   0  0  0  0  0  0  0  0  0  0  0  0
   20.3813   14.7876   22.6393 H   0  0  0  0  0  0  0  0  0  0  0  0
   19.5592   16.1260   24.1606 C   0  0  0  0  0  0  0  0  0  0  0  0
   20.5350   16.5089   24.4880 H   0  0  0  0  0  0  0  0  0  0  0  0
   19.3340   15.2763   24.8201 H   0  0  0  0  0  0  0  0  0  0  0  0
   18.4655   17.2065   24.3582 C   0  0  0  0  0  0  0  0  0  0  0  0
   17.4844   16.7615   24.1422 H   0  0  0  0  0  0  0  0  0  0  0  0
   18.4385   17.4927   25.4186 H   0  0  0  0  0  0  0  0  0  0  0  0
   18.6320   18.4842   23.4956 C   0  0  0  0  0  0  0  0  0  0  0  0
   17.7913   19.1579   23.7113 H   0  0  0  0  0  0  0  0  0  0  0  0
   18.5492   18.2303   22.4305 H   0  0  0  0  0  0  0  0  0  0  0  0
   19.9595   19.2365   23.7535 C   0  0  0  0  0  0  0  0  0  0  0  0
   20.0592   19.4487   24.8270 H   0  0  0  0  0  0  0  0  0  0  0  0
   20.8101   18.6012   23.4728 H   0  0  0  0  0  0  0  0  0  0  0  0
   20.0340   20.5582   22.9578 C   0  0  0  0  0  0  0  0  0  0  0  0
   19.1938   21.2073   23.2384 H   0  0  0  0  0  0  0  0  0  0  0  0
   19.9356   20.3492   21.8842 H   0  0  0  0  0  0  0  0  0  0  0  0
   21.3590   21.2968   23.2161 C   0  0  0  0  0  0  0  0  0  0  0  0
   21.4537   21.5212   24.2820 H   0  0  0  0  0  0  0  0  0  0  0  0
   22.1984   20.6607   22.9225 H   0  0  0  0  0  0  0  0  0  0  0  0
   21.4706   22.6004   22.4521 N   0  3  0  0  0  0  0  0  0  0  0  0
   22.3602   23.0762   22.6384 H   0  0  0  0  0  0  0  0  0  0  0  0
   20.7234   23.2559   22.7036 H   0  0  0  0  0  0  0  0  0  0  0  0
   21.4163   22.4553   21.4386 H   0  0  0  0  0  0  0  0  0  0  0  0
  1  2  1  0  0  0  0
  1  3  1  0  0  0  0
  1  4  1  0  0  0  0
  1  5  1  0  0  0  0
  5  6  1  0  0  0  0
  5  7  1  0  0  0  0
  5  8  1  0  0  0  0
  8  9  1  0  0  0  0
  8 10  1  0  0  0  0
  8 11  1  0  0  0  0
 11 12  1  0  0  0  0
 11 13  1  0  0  0  0
 11 14  1  0  0  0  0
 14 15  1  0  0  0  0
 14 16  1  0  0  0  0
 14 17  1  0  0  0  0
 17 18  1  0  0  0  0
 17 19  1  0  0  0  0
 17 20  1  0  0  0  0
 20 21  1  0  0  0  0
 20 22  1  0  0  0  0
 20 23  1  0  0  0  0
 23 24  1  0  0  0  0
 23 25  1  0  0  0  0
 23 26  1  0  0  0  0
M  END
> <VConfSearch Rank>
160

> <Conf_Id>
106

> <Delta U+W>
0.767

> <U+W>
-4.785

> <U>
48.494

> <W>
-53.279

> <W(PB)>
-55.569

> <W(SA)>
2.290

> <Valence>
3.117

> <Coulomb>
44.693

> <VdW>
0.684

> <VdW6>
-7.347

> <VdW12>
8.030

> <Bond>
0.208

> <Angle>
1.039

> <Pdih>
1.870

> <Idih>
0.000

> <Tether>
0.000

$$$$
VeraChem MOL file


 26 25  0  0  0  0  0  0  0  0999 V2000     
   20.1643   21.8564   19.8882 C   0  0  0  0  0  0  0  0  0  0  0  0
   19.0779   22.0044   19.8333 H   0  0  0  0  0  0  0  0  0  0  0  0
   20.5916   22.6762   20.4804 H   0  0  0  0  0  0  0  0  0  0  0  0
   20.5665   21.9314   18.8696 H   0  0  0  0  0  0  0  0  0  0  0  0
   20.5067   20.4859   20.5099 C   0  0  0  0  0  0  0  0  0  0  0  0
   21.5977   20.3527   20.5203 H   0  0  0  0  0  0  0  0  0  0  0  0
   20.0957   19.6861   19.8781 H   0  0  0  0  0  0  0  0  0  0  0  0
   19.9515   20.3540   21.9454 C   0  0  0  0  0  0  0  0  0  0  0  0
   20.3632   21.1570   22.5725 H   0  0  0  0  0  0  0  0  0  0  0  0
   18.8612   20.4901   21.9302 H   0  0  0  0  0  0  0  0  0  0  0  0
   20.2925   18.9828   22.5714 C   0  0  0  0  0  0  0  0  0  0  0  0
   21.3829   18.8475   22.5860 H   0  0  0  0  0  0  0  0  0  0  0  0
   19.8809   18.1805   21.9435 H   0  0  0  0  0  0  0  0  0  0  0  0
   19.7366   18.8514   24.0075 C   0  0  0  0  0  0  0  0  0  0  0  0
   20.1481   19.6536   24.6359 H   0  0  0  0  0  0  0  0  0  0  0  0
   18.6460   18.9866   23.9933 H   0  0  0  0  0  0  0  0  0  0  0  0
   20.0772   17.4812   24.6339 C   0  0  0  0  0  0  0  0  0  0  0  0
   21.1667   17.3445   24.6548 H   0  0  0  0  0  0  0  0  0  0  0  0
   19.6631   16.6767   24.0114 H   0  0  0  0  0  0  0  0  0  0  0  0
   19.5190   17.3611   26.0629 C   0  0  0  0  0  0  0  0  0  0  0  0
   19.9413   18.1504   26.6907 H   0  0  0  0  0  0  0  0  0  0  0  0
   18.4323   17.4802   26.0449 H   0  0  0  0  0  0  0  0  0  0  0  0
   19.8326   16.0287   26.7125 N   0  3  0  0  0  0  0  0  0  0  0  0
   19.4520   15.9696   27.6634 H   0  0  0  0  0  0  0  0  0  0  0  0
   20.8425   15.8671   26.7849 H   0  0  0  0  0  0  0  0  0  0  0  0
   19.4384   15.2435   26.1841 H   0  0  0  0  0  0  0  0  0  0  0  0
  1  2  1  0  0  0  0
  1  3  1  0  0  0  0
  1  4  1  0  0  0  0
  1  5  1  0  0  0  0
  5  6  1  0  0  0  0
  5  7  1  0  0  0  0
  5  8  1  0  0  0  0
  8  9  1  0  0  0  0
  8 10  1  0  0  0  0
  8 11  1  0  0  0  0
 11 12  1  0  0  0  0
 11 13  1  0  0  0  0
 11 14  1  0  0  0  0
 14 15  1  0  0  0  0
 14 16  1  0  0  0  0
 14 17  1  0  0  0  0
 17 18  1  0  0  0  0
 17 19  1  0  0  0  0
 17 20  1  0  0  0  0
 20 21  1  0  0  0  0
 20 22  1  0  0  0  0
 20 23  1  0  0  0  0
 23 24  1  0  0  0  0
 23 25  1  0  0  0  0
 23 26  1  0  0  0  0
M  END
> <VConfSearch Rank>
161

> <Conf_Id>
25

> <Delta U+W>
0.000

> <U+W>
-5.552

> <U>
47.192

> <W>
-52.745

> <W(PB)>
-55.134

> <W(SA)>
2.389

> <Valence>
2.156

> <Coulomb>
44.449

> <VdW>
0.587

> <VdW6>
-5.761

> <VdW12>
6.348

> <Bond>
0.129

> <Angle>
0.393

> <Pdih>
1.634

> <Idih>
0.000

> <Tether>
0.000

$$$$
VeraChem MOL file


 26 25  0  0  0  0  0  0  0  0999 V2000     
   21.2419   16.3858   20.0335 C   0  0  0  0  0  0  0  0  0  0  0  0
   20.6073   15.5435   20.3386 H   0  0  0  0  0  0  0  0  0  0  0  0
   20.6853   16.9858   19.3018 H   0  0  0  0  0  0  0  0  0  0  0  0
   22.1268   15.9758   19.5296 H   0  0  0  0  0  0  0  0  0  0  0  0
   21.6548   17.2391   21.2515 C   0  0  0  0  0  0  0  0  0  0  0  0
   22.3154   18.0524   20.9198 H   0  0  0  0  0  0  0  0  0  0  0  0
   22.2381   16.6212   21.9486 H   0  0  0  0  0  0  0  0  0  0  0  0
   20.4267   17.8288   21.9797 C   0  0  0  0  0  0  0  0  0  0  0  0
   19.8456   18.4435   21.2784 H   0  0  0  0  0  0  0  0  0  0  0  0
   19.7683   17.0123   22.3074 H   0  0  0  0  0  0  0  0  0  0  0  0
   20.8362   18.6840   23.2001 C   0  0  0  0  0  0  0  0  0  0  0  0
   21.4944   19.5003   22.8716 H   0  0  0  0  0  0  0  0  0  0  0  0
   21.4181   18.0685   23.9001 H   0  0  0  0  0  0  0  0  0  0  0  0
   19.6073   19.2734   23.9287 C   0  0  0  0  0  0  0  0  0  0  0  0
   19.0270   19.8832   23.2234 H   0  0  0  0  0  0  0  0  0  0  0  0
   18.9506   18.4567   24.2598 H   0  0  0  0  0  0  0  0  0  0  0  0
   20.0195   20.1298   25.1494 C   0  0  0  0  0  0  0  0  0  0  0  0
   20.6511   20.9677   24.8255 H   0  0  0  0  0  0  0  0  0  0  0  0
   20.6301   19.5221   25.8304 H   0  0  0  0  0  0  0  0  0  0  0  0
   18.8083   20.6715   25.9329 C   0  0  0  0  0  0  0  0  0  0  0  0
   18.1741   19.8398   26.2516 H   0  0  0  0  0  0  0  0  0  0  0  0
   19.1592   21.1946   26.8267 H   0  0  0  0  0  0  0  0  0  0  0  0
   17.9519   21.6395   25.1404 N   0  3  0  0  0  0  0  0  0  0  0  0
   17.5582   21.2001   24.3026 H   0  0  0  0  0  0  0  0  0  0  0  0
   18.4879   22.4568   24.8310 H   0  0  0  0  0  0  0  0  0  0  0  0
   17.1629   21.9909   25.6939 H   0  0  0  0  0  0  0  0  0  0  0  0
  1  2  1  0  0  0  0
  1  3  1  0  0  0  0
  1  4  1  0  0  0  0
  1  5  1  0  0  0  0
  5  6  1  0  0  0  0
  5  7  1  0  0  0  0
  5  8  1  0  0  0  0
  8  9  1  0  0  0  0
  8 10  1  0  0  0  0
  8 11  1  0  0  0  0
 11 12  1  0  0  0  0
 11 13  1  0  0  0  0
 11 14  1  0  0  0  0
 14 15  1  0  0  0  0
 14 16  1  0  0  0  0
 14 17  1  0  0  0  0
 17 18  1  0  0  0  0
 17 19  1  0  0  0  0
 17 20  1  0  0  0  0
 20 21  1  0  0  0  0
 20 22  1  0  0  0  0
 20 23  1  0  0  0  0
 23 24  1  0  0  0  0
 23 25  1  0  0  0  0
 23 26  1  0  0  0  0
M  END
> <VConfSearch Rank>
162

> <Conf_Id>
20

> <Delta U+W>
0.150

> <U+W>
-5.403

> <U>
47.845

> <W>
-53.248

> <W(PB)>
-55.599

> <W(SA)>
2.351

> <Valence>
2.258

> <Coulomb>
44.893

> <VdW>
0.694

> <VdW6>
-6.285

> <VdW12>
6.979

> <Bond>
0.149

> <Angle>
0.434

> <Pdih>
1.675

> <Idih>
0.000

> <Tether>
0.000

$$$$
VeraChem MOL file


 26 25  0  0  0  0  0  0  0  0999 V2000     
   15.7997   19.9262   22.5730 C   0  0  0  0  0  0  0  0  0  0  0  0
   16.0779   20.7866   21.9504 H   0  0  0  0  0  0  0  0  0  0  0  0
   15.6017   19.0740   21.9098 H   0  0  0  0  0  0  0  0  0  0  0  0
   14.8645   20.1740   23.0916 H   0  0  0  0  0  0  0  0  0  0  0  0
   16.9137   19.5924   23.5878 C   0  0  0  0  0  0  0  0  0  0  0  0
   16.5927   18.7508   24.2177 H   0  0  0  0  0  0  0  0  0  0  0  0
   17.0653   20.4502   24.2579 H   0  0  0  0  0  0  0  0  0  0  0  0
   18.2424   19.2395   22.8833 C   0  0  0  0  0  0  0  0  0  0  0  0
   18.0852   18.3831   22.2130 H   0  0  0  0  0  0  0  0  0  0  0  0
   18.5578   20.0826   22.2531 H   0  0  0  0  0  0  0  0  0  0  0  0
   19.3604   18.9046   23.8963 C   0  0  0  0  0  0  0  0  0  0  0  0
   19.0433   18.0622   24.5267 H   0  0  0  0  0  0  0  0  0  0  0  0
   19.5172   19.7615   24.5661 H   0  0  0  0  0  0  0  0  0  0  0  0
   20.6893   18.5508   23.1912 C   0  0  0  0  0  0  0  0  0  0  0  0
   20.5331   17.6919   22.5237 H   0  0  0  0  0  0  0  0  0  0  0  0
   20.9987   19.3939   22.5591 H   0  0  0  0  0  0  0  0  0  0  0  0
   21.8073   18.2169   24.2070 C   0  0  0  0  0  0  0  0  0  0  0  0
   21.4741   17.3980   24.8584 H   0  0  0  0  0  0  0  0  0  0  0  0
   21.9935   19.0803   24.8595 H   0  0  0  0  0  0  0  0  0  0  0  0
   23.1233   17.7933   23.5263 C   0  0  0  0  0  0  0  0  0  0  0  0
   23.8451   17.4901   24.2896 H   0  0  0  0  0  0  0  0  0  0  0  0
   22.9400   16.9374   22.8712 H   0  0  0  0  0  0  0  0  0  0  0  0
   23.7632   18.8908   22.6987 N   0  3  0  0  0  0  0  0  0  0  0  0
   23.9811   19.7170   23.2652 H   0  0  0  0  0  0  0  0  0  0  0  0
   23.1506   19.1982   21.9371 H   0  0  0  0  0  0  0  0  0  0  0  0
   24.6424   18.5810   22.2705 H   0  0  0  0  0  0  0  0  0  0  0  0
  1  2  1  0  0  0  0
  1  3  1  0  0  0  0
  1  4  1  0  0  0  0
  1  5  1  0  0  0  0
  5  6  1  0  0  0  0
  5  7  1  0  0  0  0
  5  8  1  0  0  0  0
  8  9  1  0  0  0  0
  8 10  1  0  0  0  0
  8 11  1  0  0  0  0
 11 12  1  0  0  0  0
 11 13  1  0  0  0  0
 11 14  1  0  0  0  0
 14 15  1  0  0  0  0
 14 16  1  0  0  0  0
 14 17  1  0  0  0  0
 17 18  1  0  0  0  0
 17 19  1  0  0  0  0
 17 20  1  0  0  0  0
 20 21  1  0  0  0  0
 20 22  1  0  0  0  0
 20 23  1  0  0  0  0
 23 24  1  0  0  0  0
 23 25  1  0  0  0  0
 23 26  1  0  0  0  0
M  END
> <VConfSearch Rank>
163

> <Conf_Id>
19

> <Delta U+W>
0.162

> <U+W>
-5.391

> <U>
47.845

> <W>
-53.235

> <W(PB)>
-55.585

> <W(SA)>
2.349

> <Valence>
2.258

> <Coulomb>
44.893

> <VdW>
0.694

> <VdW6>
-6.285

> <VdW12>
6.979

> <Bond>
0.149

> <Angle>
0.434

> <Pdih>
1.675

> <Idih>
0.000

> <Tether>
0.000

$$$$
VeraChem MOL file


 26 25  0  0  0  0  0  0  0  0999 V2000     
   19.5419   20.7145   19.5196 C   0  0  0  0  0  0  0  0  0  0  0  0
   20.3836   21.3311   19.1781 H   0  0  0  0  0  0  0  0  0  0  0  0
   19.5509   19.7770   18.9485 H   0  0  0  0  0  0  0  0  0  0  0  0
   18.6137   21.2480   19.2772 H   0  0  0  0  0  0  0  0  0  0  0  0
   19.6332   20.4409   21.0359 C   0  0  0  0  0  0  0  0  0  0  0  0
   18.7554   19.8585   21.3457 H   0  0  0  0  0  0  0  0  0  0  0  0
   19.5922   21.3943   21.5810 H   0  0  0  0  0  0  0  0  0  0  0  0
   20.9326   19.6853   21.4016 C   0  0  0  0  0  0  0  0  0  0  0  0
   20.9479   18.7091   20.8974 H   0  0  0  0  0  0  0  0  0  0  0  0
   21.7931   20.2466   21.0119 H   0  0  0  0  0  0  0  0  0  0  0  0
   21.1267   19.4860   22.9249 C   0  0  0  0  0  0  0  0  0  0  0  0
   21.1267   20.4637   23.4264 H   0  0  0  0  0  0  0  0  0  0  0  0
   22.1222   19.0527   23.0942 H   0  0  0  0  0  0  0  0  0  0  0  0
   20.0610   18.5674   23.5699 C   0  0  0  0  0  0  0  0  0  0  0  0
   19.0664   19.0230   23.4772 H   0  0  0  0  0  0  0  0  0  0  0  0
   20.0258   17.6103   23.0310 H   0  0  0  0  0  0  0  0  0  0  0  0
   20.3575   18.3060   25.0631 C   0  0  0  0  0  0  0  0  0  0  0  0
   20.3923   19.2603   25.6055 H   0  0  0  0  0  0  0  0  0  0  0  0
   21.3458   17.8389   25.1684 H   0  0  0  0  0  0  0  0  0  0  0  0
   19.2917   17.3953   25.6978 C   0  0  0  0  0  0  0  0  0  0  0  0
   18.3076   17.8638   25.6104 H   0  0  0  0  0  0  0  0  0  0  0  0
   19.2648   16.4376   25.1710 H   0  0  0  0  0  0  0  0  0  0  0  0
   19.5476   17.1152   27.1646 N   0  3  0  0  0  0  0  0  0  0  0  0
   19.5578   17.9757   27.7219 H   0  0  0  0  0  0  0  0  0  0  0  0
   20.4484   16.6486   27.3131 H   0  0  0  0  0  0  0  0  0  0  0  0
   18.8265   16.5070   27.5677 H   0  0  0  0  0  0  0  0  0  0  0  0
  1  2  1  0  0  0  0
  1  3  1  0  0  0  0
  1  4  1  0  0  0  0
  1  5  1  0  0  0  0
  5  6  1  0  0  0  0
  5  7  1  0  0  0  0
  5  8  1  0  0  0  0
  8  9  1  0  0  0  0
  8 10  1  0  0  0  0
  8 11  1  0  0  0  0
 11 12  1  0  0  0  0
 11 13  1  0  0  0  0
 11 14  1  0  0  0  0
 14 15  1  0  0  0  0
 14 16  1  0  0  0  0
 14 17  1  0  0  0  0
 17 18  1  0  0  0  0
 17 19  1  0  0  0  0
 17 20  1  0  0  0  0
 20 21  1  0  0  0  0
 20 22  1  0  0  0  0
 20 23  1  0  0  0  0
 23 24  1  0  0  0  0
 23 25  1  0  0  0  0
 23 26  1  0  0  0  0
M  END
> <VConfSearch Rank>
164

> <Conf_Id>
37

> <Delta U+W>
0.565

> <U+W>
-4.988

> <U>
48.035

> <W>
-53.022

> <W(PB)>
-55.379

> <W(SA)>
2.357

> <Valence>
2.701

> <Coulomb>
44.622

> <VdW>
0.712

> <VdW6>
-6.418

> <VdW12>
7.129

> <Bond>
0.168

> <Angle>
0.659

> <Pdih>
1.875

> <Idih>
0.000

> <Tether>
0.000

$$$$
VeraChem MOL file


 26 25  0  0  0  0  0  0  0  0999 V2000     
   20.4628   18.4839   27.2738 C   0  0  0  0  0  0  0  0  0  0  0  0
   21.2197   17.7613   26.9420 H   0  0  0  0  0  0  0  0  0  0  0  0
   20.9522   19.4585   27.3995 H   0  0  0  0  0  0  0  0  0  0  0  0
   20.0971   18.1611   28.2573 H   0  0  0  0  0  0  0  0  0  0  0  0
   19.3001   18.5733   26.2627 C   0  0  0  0  0  0  0  0  0  0  0  0
   18.5437   19.2764   26.6388 H   0  0  0  0  0  0  0  0  0  0  0  0
   18.8097   17.5929   26.1832 H   0  0  0  0  0  0  0  0  0  0  0  0
   19.7875   19.0268   24.8687 C   0  0  0  0  0  0  0  0  0  0  0  0
   20.2749   20.0079   24.9531 H   0  0  0  0  0  0  0  0  0  0  0  0
   20.5483   18.3217   24.5092 H   0  0  0  0  0  0  0  0  0  0  0  0
   18.6229   19.1127   23.8531 C   0  0  0  0  0  0  0  0  0  0  0  0
   17.8370   19.7612   24.2646 H   0  0  0  0  0  0  0  0  0  0  0  0
   18.1682   18.1206   23.7255 H   0  0  0  0  0  0  0  0  0  0  0  0
   19.0451   19.6713   22.4719 C   0  0  0  0  0  0  0  0  0  0  0  0
   18.1422   19.8058   21.8598 H   0  0  0  0  0  0  0  0  0  0  0  0
   19.4839   20.6710   22.5972 H   0  0  0  0  0  0  0  0  0  0  0  0
   20.0355   18.7588   21.7110 C   0  0  0  0  0  0  0  0  0  0  0  0
   19.6181   17.7463   21.6302 H   0  0  0  0  0  0  0  0  0  0  0  0
   20.9783   18.6777   22.2663 H   0  0  0  0  0  0  0  0  0  0  0  0
   20.3297   19.3040   20.3023 C   0  0  0  0  0  0  0  0  0  0  0  0
   19.3994   19.3718   19.7320 H   0  0  0  0  0  0  0  0  0  0  0  0
   20.7606   20.3060   20.3781 H   0  0  0  0  0  0  0  0  0  0  0  0
   21.2954   18.4375   19.5199 N   0  3  0  0  0  0  0  0  0  0  0  0
   20.9359   17.4861   19.3897 H   0  0  0  0  0  0  0  0  0  0  0  0
   22.2029   18.3557   19.9901 H   0  0  0  0  0  0  0  0  0  0  0  0
   21.4771   18.8184   18.5849 H   0  0  0  0  0  0  0  0  0  0  0  0
  1  2  1  0  0  0  0
  1  3  1  0  0  0  0
  1  4  1  0  0  0  0
  1  5  1  0  0  0  0
  5  6  1  0  0  0  0
  5  7  1  0  0  0  0
  5  8  1  0  0  0  0
  8  9  1  0  0  0  0
  8 10  1  0  0  0  0
  8 11  1  0  0  0  0
 11 12  1  0  0  0  0
 11 13  1  0  0  0  0
 11 14  1  0  0  0  0
 14 15  1  0  0  0  0
 14 16  1  0  0  0  0
 14 17  1  0  0  0  0
 17 18  1  0  0  0  0
 17 19  1  0  0  0  0
 17 20  1  0  0  0  0
 20 21  1  0  0  0  0
 20 22  1  0  0  0  0
 20 23  1  0  0  0  0
 23 24  1  0  0  0  0
 23 25  1  0  0  0  0
 23 26  1  0  0  0  0
M  END
> <VConfSearch Rank>
165

> <Conf_Id>
35

> <Delta U+W>
0.587

> <U+W>
-4.965

> <U>
48.214

> <W>
-53.179

> <W(PB)>
-55.527

> <W(SA)>
2.348

> <Valence>
2.697

> <Coulomb>
44.819

> <VdW>
0.699

> <VdW6>
-6.437

> <VdW12>
7.136

> <Bond>
0.168

> <Angle>
0.657

> <Pdih>
1.872

> <Idih>
0.000

> <Tether>
0.000

$$$$
VeraChem MOL file


 26 25  0  0  0  0  0  0  0  0999 V2000     
   17.5109   22.0936   23.4690 C   0  0  0  0  0  0  0  0  0  0  0  0
   18.0502   22.6099   24.2739 H   0  0  0  0  0  0  0  0  0  0  0  0
   17.9965   22.3435   22.5167 H   0  0  0  0  0  0  0  0  0  0  0  0
   16.4880   22.4908   23.4400 H   0  0  0  0  0  0  0  0  0  0  0  0
   17.4965   20.5677   23.7009 C   0  0  0  0  0  0  0  0  0  0  0  0
   16.9226   20.0824   22.8991 H   0  0  0  0  0  0  0  0  0  0  0  0
   16.9742   20.3475   24.6426 H   0  0  0  0  0  0  0  0  0  0  0  0
   18.9254   19.9824   23.7469 C   0  0  0  0  0  0  0  0  0  0  0  0
   19.4383   20.2172   22.8052 H   0  0  0  0  0  0  0  0  0  0  0  0
   19.4942   20.4691   24.5511 H   0  0  0  0  0  0  0  0  0  0  0  0
   18.9117   18.4517   23.9753 C   0  0  0  0  0  0  0  0  0  0  0  0
   18.3902   17.9573   23.1441 H   0  0  0  0  0  0  0  0  0  0  0  0
   18.3285   18.2306   24.8800 H   0  0  0  0  0  0  0  0  0  0  0  0
   20.3235   17.8372   24.1407 C   0  0  0  0  0  0  0  0  0  0  0  0
   20.8388   18.3194   24.9831 H   0  0  0  0  0  0  0  0  0  0  0  0
   20.2127   16.7782   24.4128 H   0  0  0  0  0  0  0  0  0  0  0  0
   21.1966   17.9393   22.8680 C   0  0  0  0  0  0  0  0  0  0  0  0
   21.3896   18.9918   22.6250 H   0  0  0  0  0  0  0  0  0  0  0  0
   20.6600   17.5024   22.0153 H   0  0  0  0  0  0  0  0  0  0  0  0
   22.5410   17.2135   23.0518 C   0  0  0  0  0  0  0  0  0  0  0  0
   23.0865   17.6558   23.8898 H   0  0  0  0  0  0  0  0  0  0  0  0
   22.3622   16.1585   23.2761 H   0  0  0  0  0  0  0  0  0  0  0  0
   23.4280   17.2868   21.8256 N   0  3  0  0  0  0  0  0  0  0  0  0
   23.6573   18.2547   21.5769 H   0  0  0  0  0  0  0  0  0  0  0  0
   22.9825   16.8617   21.0058 H   0  0  0  0  0  0  0  0  0  0  0  0
   24.3177   16.7968   21.9694 H   0  0  0  0  0  0  0  0  0  0  0  0
  1  2  1  0  0  0  0
  1  3  1  0  0  0  0
  1  4  1  0  0  0  0
  1  5  1  0  0  0  0
  5  6  1  0  0  0  0
  5  7  1  0  0  0  0
  5  8  1  0  0  0  0
  8  9  1  0  0  0  0
  8 10  1  0  0  0  0
  8 11  1  0  0  0  0
 11 12  1  0  0  0  0
 11 13  1  0  0  0  0
 11 14  1  0  0  0  0
 14 15  1  0  0  0  0
 14 16  1  0  0  0  0
 14 17  1  0  0  0  0
 17 18  1  0  0  0  0
 17 19  1  0  0  0  0
 17 20  1  0  0  0  0
 20 21  1  0  0  0  0
 20 22  1  0  0  0  0
 20 23  1  0  0  0  0
 23 24  1  0  0  0  0
 23 25  1  0  0  0  0
 23 26  1  0  0  0  0
M  END
> <VConfSearch Rank>
166

> <Conf_Id>
36

> <Delta U+W>
0.565

> <U+W>
-4.987

> <U>
48.214

> <W>
-53.201

> <W(PB)>
-55.543

> <W(SA)>
2.342

> <Valence>
2.697

> <Coulomb>
44.819

> <VdW>
0.698

> <VdW6>
-6.437

> <VdW12>
7.136

> <Bond>
0.168

> <Angle>
0.657

> <Pdih>
1.872

> <Idih>
0.000

> <Tether>
0.000

$$$$
VeraChem MOL file


 26 25  0  0  0  0  0  0  0  0999 V2000     
   17.4165   22.2962   22.8005 C   0  0  0  0  0  0  0  0  0  0  0  0
   17.1599   22.5425   23.8391 H   0  0  0  0  0  0  0  0  0  0  0  0
   17.5204   23.2382   22.2465 H   0  0  0  0  0  0  0  0  0  0  0  0
   16.5773   21.7392   22.3638 H   0  0  0  0  0  0  0  0  0  0  0  0
   18.7224   21.4763   22.7311 C   0  0  0  0  0  0  0  0  0  0  0  0
   19.5489   22.0718   23.1436 H   0  0  0  0  0  0  0  0  0  0  0  0
   18.9707   21.2748   21.6797 H   0  0  0  0  0  0  0  0  0  0  0  0
   18.6030   20.1440   23.5038 C   0  0  0  0  0  0  0  0  0  0  0  0
   18.3519   20.3509   24.5533 H   0  0  0  0  0  0  0  0  0  0  0  0
   17.7745   19.5532   23.0893 H   0  0  0  0  0  0  0  0  0  0  0  0
   19.9089   19.3202   23.4370 C   0  0  0  0  0  0  0  0  0  0  0  0
   20.7361   19.9111   23.8542 H   0  0  0  0  0  0  0  0  0  0  0  0
   20.1569   19.1227   22.3856 H   0  0  0  0  0  0  0  0  0  0  0  0
   19.7858   17.9856   24.2108 C   0  0  0  0  0  0  0  0  0  0  0  0
   19.4898   18.1954   25.2480 H   0  0  0  0  0  0  0  0  0  0  0  0
   18.9811   17.3771   23.7751 H   0  0  0  0  0  0  0  0  0  0  0  0
   21.0994   17.1689   24.2257 C   0  0  0  0  0  0  0  0  0  0  0  0
   20.9621   16.2850   24.8627 H   0  0  0  0  0  0  0  0  0  0  0  0
   21.8996   17.7653   24.6837 H   0  0  0  0  0  0  0  0  0  0  0  0
   21.5329   16.7133   22.8197 C   0  0  0  0  0  0  0  0  0  0  0  0
   20.7367   16.1185   22.3639 H   0  0  0  0  0  0  0  0  0  0  0  0
   21.7161   17.5860   22.1876 H   0  0  0  0  0  0  0  0  0  0  0  0
   22.7949   15.8750   22.8312 N   0  3  0  0  0  0  0  0  0  0  0  0
   23.0664   15.5820   21.8863 H   0  0  0  0  0  0  0  0  0  0  0  0
   22.6814   15.0211   23.3871 H   0  0  0  0  0  0  0  0  0  0  0  0
   23.5907   16.3878   23.2248 H   0  0  0  0  0  0  0  0  0  0  0  0
  1  2  1  0  0  0  0
  1  3  1  0  0  0  0
  1  4  1  0  0  0  0
  1  5  1  0  0  0  0
  5  6  1  0  0  0  0
  5  7  1  0  0  0  0
  5  8  1  0  0  0  0
  8  9  1  0  0  0  0
  8 10  1  0  0  0  0
  8 11  1  0  0  0  0
 11 12  1  0  0  0  0
 11 13  1  0  0  0  0
 11 14  1  0  0  0  0
 14 15  1  0  0  0  0
 14 16  1  0  0  0  0
 14 17  1  0  0  0  0
 17 18  1  0  0  0  0
 17 19  1  0  0  0  0
 17 20  1  0  0  0  0
 20 21  1  0  0  0  0
 20 22  1  0  0  0  0
 20 23  1  0  0  0  0
 23 24  1  0  0  0  0
 23 25  1  0  0  0  0
 23 26  1  0  0  0  0
M  END
> <VConfSearch Rank>
167

> <Conf_Id>
44

> <Delta U+W>
0.371

> <U+W>
-5.181

> <U>
48.002

> <W>
-53.183

> <W(PB)>
-55.533

> <W(SA)>
2.350

> <Valence>
2.459

> <Coulomb>
44.901

> <VdW>
0.643

> <VdW6>
-6.362

> <VdW12>
7.005

> <Bond>
0.151

> <Angle>
0.519

> <Pdih>
1.789

> <Idih>
0.000

> <Tether>
0.000

$$$$
VeraChem MOL file


 26 25  0  0  0  0  0  0  0  0999 V2000     
   23.1122   16.8089   22.2724 C   0  0  0  0  0  0  0  0  0  0  0  0
   22.6172   16.3700   21.3964 H   0  0  0  0  0  0  0  0  0  0  0  0
   24.1852   16.5903   22.1958 H   0  0  0  0  0  0  0  0  0  0  0  0
   22.7370   16.3021   23.1699 H   0  0  0  0  0  0  0  0  0  0  0  0
   22.8752   18.3349   22.3386 C   0  0  0  0  0  0  0  0  0  0  0  0
   23.3808   18.8070   21.4846 H   0  0  0  0  0  0  0  0  0  0  0  0
   23.3500   18.7445   23.2411 H   0  0  0  0  0  0  0  0  0  0  0  0
   21.3788   18.7304   22.3082 C   0  0  0  0  0  0  0  0  0  0  0  0
   21.3201   19.8225   22.2194 H   0  0  0  0  0  0  0  0  0  0  0  0
   20.9097   18.3196   21.4036 H   0  0  0  0  0  0  0  0  0  0  0  0
   20.5931   18.2678   23.5618 C   0  0  0  0  0  0  0  0  0  0  0  0
   21.0596   18.6816   24.4663 H   0  0  0  0  0  0  0  0  0  0  0  0
   20.6613   17.1760   23.6512 H   0  0  0  0  0  0  0  0  0  0  0  0
   19.0925   18.6502   23.5304 C   0  0  0  0  0  0  0  0  0  0  0  0
   18.6294   18.2483   22.6185 H   0  0  0  0  0  0  0  0  0  0  0  0
   18.5967   18.1509   24.3733 H   0  0  0  0  0  0  0  0  0  0  0  0
   18.8375   20.1762   23.6176 C   0  0  0  0  0  0  0  0  0  0  0  0
   19.2887   20.6798   22.7539 H   0  0  0  0  0  0  0  0  0  0  0  0
   19.3230   20.5888   24.5119 H   0  0  0  0  0  0  0  0  0  0  0  0
   17.3371   20.5272   23.6394 C   0  0  0  0  0  0  0  0  0  0  0  0
   17.2191   21.6136   23.6015 H   0  0  0  0  0  0  0  0  0  0  0  0
   16.8463   20.1003   22.7606 H   0  0  0  0  0  0  0  0  0  0  0  0
   16.6097   20.0303   24.8734 N   0  3  0  0  0  0  0  0  0  0  0  0
   16.6478   19.0094   24.9519 H   0  0  0  0  0  0  0  0  0  0  0  0
   15.6183   20.2936   24.8626 H   0  0  0  0  0  0  0  0  0  0  0  0
   17.0123   20.4158   25.7338 H   0  0  0  0  0  0  0  0  0  0  0  0
  1  2  1  0  0  0  0
  1  3  1  0  0  0  0
  1  4  1  0  0  0  0
  1  5  1  0  0  0  0
  5  6  1  0  0  0  0
  5  7  1  0  0  0  0
  5  8  1  0  0  0  0
  8  9  1  0  0  0  0
  8 10  1  0  0  0  0
  8 11  1  0  0  0  0
 11 12  1  0  0  0  0
 11 13  1  0  0  0  0
 11 14  1  0  0  0  0
 14 15  1  0  0  0  0
 14 16  1  0  0  0  0
 14 17  1  0  0  0  0
 17 18  1  0  0  0  0
 17 19  1  0  0  0  0
 17 20  1  0  0  0  0
 20 21  1  0  0  0  0
 20 22  1  0  0  0  0
 20 23  1  0  0  0  0
 23 24  1  0  0  0  0
 23 25  1  0  0  0  0
 23 26  1  0  0  0  0
M  END
> <VConfSearch Rank>
168

> <Conf_Id>
112

> <Delta U+W>
1.422

> <U+W>
-4.130

> <U>
49.323

> <W>
-53.453

> <W(PB)>
-55.749

> <W(SA)>
2.296

> <Valence>
3.408

> <Coulomb>
44.893

> <VdW>
1.021

> <VdW6>
-7.481

> <VdW12>
8.503

> <Bond>
0.239

> <Angle>
1.013

> <Pdih>
2.156

> <Idih>
0.000

> <Tether>
0.000

$$$$
VeraChem MOL file


 26 25  0  0  0  0  0  0  0  0999 V2000     
   17.2668   18.1702   20.8909 C   0  0  0  0  0  0  0  0  0  0  0  0
   16.3722   17.8189   20.3606 H   0  0  0  0  0  0  0  0  0  0  0  0
   17.0183   19.1323   21.3559 H   0  0  0  0  0  0  0  0  0  0  0  0
   18.0538   18.3414   20.1450 H   0  0  0  0  0  0  0  0  0  0  0  0
   17.7151   17.1308   21.9432 C   0  0  0  0  0  0  0  0  0  0  0  0
   17.8397   16.1570   21.4492 H   0  0  0  0  0  0  0  0  0  0  0  0
   16.9214   16.9965   22.6913 H   0  0  0  0  0  0  0  0  0  0  0  0
   19.0415   17.5043   22.6478 C   0  0  0  0  0  0  0  0  0  0  0  0
   19.3370   16.6712   23.3003 H   0  0  0  0  0  0  0  0  0  0  0  0
   19.8320   17.6041   21.8926 H   0  0  0  0  0  0  0  0  0  0  0  0
   18.9434   18.8000   23.4924 C   0  0  0  0  0  0  0  0  0  0  0  0
   18.0665   18.7314   24.1508 H   0  0  0  0  0  0  0  0  0  0  0  0
   18.7722   19.6646   22.8375 H   0  0  0  0  0  0  0  0  0  0  0  0
   20.1938   19.0641   24.3670 C   0  0  0  0  0  0  0  0  0  0  0  0
   19.9830   19.9266   25.0129 H   0  0  0  0  0  0  0  0  0  0  0  0
   20.3609   18.2098   25.0376 H   0  0  0  0  0  0  0  0  0  0  0  0
   21.4765   19.3392   23.5427 C   0  0  0  0  0  0  0  0  0  0  0  0
   21.3085   20.1766   22.8526 H   0  0  0  0  0  0  0  0  0  0  0  0
   21.7155   18.4651   22.9244 H   0  0  0  0  0  0  0  0  0  0  0  0
   22.6995   19.6418   24.4302 C   0  0  0  0  0  0  0  0  0  0  0  0
   22.8584   18.8180   25.1314 H   0  0  0  0  0  0  0  0  0  0  0  0
   23.5897   19.7307   23.8016 H   0  0  0  0  0  0  0  0  0  0  0  0
   22.5734   20.9237   25.2300 N   0  3  0  0  0  0  0  0  0  0  0  0
   21.7757   20.8939   25.8725 H   0  0  0  0  0  0  0  0  0  0  0  0
   22.4438   21.7398   24.6233 H   0  0  0  0  0  0  0  0  0  0  0  0
   23.4091   21.1021   25.7975 H   0  0  0  0  0  0  0  0  0  0  0  0
  1  2  1  0  0  0  0
  1  3  1  0  0  0  0
  1  4  1  0  0  0  0
  1  5  1  0  0  0  0
  5  6  1  0  0  0  0
  5  7  1  0  0  0  0
  5  8  1  0  0  0  0
  8  9  1  0  0  0  0
  8 10  1  0  0  0  0
  8 11  1  0  0  0  0
 11 12  1  0  0  0  0
 11 13  1  0  0  0  0
 11 14  1  0  0  0  0
 14 15  1  0  0  0  0
 14 16  1  0  0  0  0
 14 17  1  0  0  0  0
 17 18  1  0  0  0  0
 17 19  1  0  0  0  0
 17 20  1  0  0  0  0
 20 21  1  0  0  0  0
 20 22  1  0  0  0  0
 20 23  1  0  0  0  0
 23 24  1  0  0  0  0
 23 25  1  0  0  0  0
 23 26  1  0  0  0  0
M  END
> <VConfSearch Rank>
169

> <Conf_Id>
130

> <Delta U+W>
1.282

> <U+W>
-4.270

> <U>
49.153

> <W>
-53.422

> <W(PB)>
-55.725

> <W(SA)>
2.303

> <Valence>
3.298

> <Coulomb>
44.907

> <VdW>
0.948

> <VdW6>
-7.574

> <VdW12>
8.522

> <Bond>
0.229

> <Angle>
0.912

> <Pdih>
2.157

> <Idih>
0.000

> <Tether>
0.000

$$$$
VeraChem MOL file


 26 25  0  0  0  0  0  0  0  0999 V2000     
   20.4512   15.8208   24.8610 C   0  0  0  0  0  0  0  0  0  0  0  0
   19.4568   15.4377   25.1243 H   0  0  0  0  0  0  0  0  0  0  0  0
   21.1977   15.1274   25.2695 H   0  0  0  0  0  0  0  0  0  0  0  0
   20.5910   16.7879   25.3599 H   0  0  0  0  0  0  0  0  0  0  0  0
   20.6102   15.9464   23.3289 C   0  0  0  0  0  0  0  0  0  0  0  0
   20.5824   14.9405   22.8872 H   0  0  0  0  0  0  0  0  0  0  0  0
   21.6033   16.3501   23.0909 H   0  0  0  0  0  0  0  0  0  0  0  0
   19.5066   16.8072   22.6625 C   0  0  0  0  0  0  0  0  0  0  0  0
   19.6781   16.8241   21.5774 H   0  0  0  0  0  0  0  0  0  0  0  0
   18.5369   16.3109   22.8053 H   0  0  0  0  0  0  0  0  0  0  0  0
   19.3973   18.2657   23.1781 C   0  0  0  0  0  0  0  0  0  0  0  0
   19.1221   18.2669   24.2411 H   0  0  0  0  0  0  0  0  0  0  0  0
   18.5642   18.7481   22.6504 H   0  0  0  0  0  0  0  0  0  0  0  0
   20.6903   19.0945   22.9703 C   0  0  0  0  0  0  0  0  0  0  0  0
   21.5176   18.6295   23.5222 H   0  0  0  0  0  0  0  0  0  0  0  0
   20.9748   19.0791   21.9091 H   0  0  0  0  0  0  0  0  0  0  0  0
   20.5550   20.5597   23.4476 C   0  0  0  0  0  0  0  0  0  0  0  0
   21.5339   21.0510   23.3685 H   0  0  0  0  0  0  0  0  0  0  0  0
   20.2793   20.5777   24.5104 H   0  0  0  0  0  0  0  0  0  0  0  0
   19.5243   21.3614   22.6305 C   0  0  0  0  0  0  0  0  0  0  0  0
   19.7986   21.3421   21.5723 H   0  0  0  0  0  0  0  0  0  0  0  0
   18.5343   20.9111   22.7382 H   0  0  0  0  0  0  0  0  0  0  0  0
   19.4243   22.8104   23.0614 N   0  3  0  0  0  0  0  0  0  0  0  0
   19.1433   22.8985   24.0434 H   0  0  0  0  0  0  0  0  0  0  0  0
   18.7336   23.3264   22.5056 H   0  0  0  0  0  0  0  0  0  0  0  0
   20.3179   23.3023   22.9579 H   0  0  0  0  0  0  0  0  0  0  0  0
  1  2  1  0  0  0  0
  1  3  1  0  0  0  0
  1  4  1  0  0  0  0
  1  5  1  0  0  0  0
  5  6  1  0  0  0  0
  5  7  1  0  0  0  0
  5  8  1  0  0  0  0
  8  9  1  0  0  0  0
  8 10  1  0  0  0  0
  8 11  1  0  0  0  0
 11 12  1  0  0  0  0
 11 13  1  0  0  0  0
 11 14  1  0  0  0  0
 14 15  1  0  0  0  0
 14 16  1  0  0  0  0
 14 17  1  0  0  0  0
 17 18  1  0  0  0  0
 17 19  1  0  0  0  0
 17 20  1  0  0  0  0
 20 21  1  0  0  0  0
 20 22  1  0  0  0  0
 20 23  1  0  0  0  0
 23 24  1  0  0  0  0
 23 25  1  0  0  0  0
 23 26  1  0  0  0  0
M  END
> <VConfSearch Rank>
170

> <Conf_Id>
111

> <Delta U+W>
1.290

> <U+W>
-4.262

> <U>
49.209

> <W>
-53.471

> <W(PB)>
-55.745

> <W(SA)>
2.274

> <Valence>
3.465

> <Coulomb>
44.958

> <VdW>
0.786

> <VdW6>
-7.903

> <VdW12>
8.689

> <Bond>
0.237

> <Angle>
1.212

> <Pdih>
2.015

> <Idih>
0.000

> <Tether>
0.000

$$$$
VeraChem MOL file


 26 25  0  0  0  0  0  0  0  0999 V2000     
   16.0660   18.3078   23.6629 C   0  0  0  0  0  0  0  0  0  0  0  0
   15.8423   18.7385   22.6782 H   0  0  0  0  0  0  0  0  0  0  0  0
   15.7361   17.2607   23.6611 H   0  0  0  0  0  0  0  0  0  0  0  0
   15.4698   18.8473   24.4102 H   0  0  0  0  0  0  0  0  0  0  0  0
   17.5715   18.4152   23.9859 C   0  0  0  0  0  0  0  0  0  0  0  0
   17.7593   18.0037   24.9875 H   0  0  0  0  0  0  0  0  0  0  0  0
   17.8534   19.4759   24.0191 H   0  0  0  0  0  0  0  0  0  0  0  0
   18.4332   17.6652   22.9428 C   0  0  0  0  0  0  0  0  0  0  0  0
   18.0807   16.6270   22.8692 H   0  0  0  0  0  0  0  0  0  0  0  0
   18.2849   18.1116   21.9498 H   0  0  0  0  0  0  0  0  0  0  0  0
   19.9436   17.6468   23.2837 C   0  0  0  0  0  0  0  0  0  0  0  0
   20.4554   16.9988   22.5587 H   0  0  0  0  0  0  0  0  0  0  0  0
   20.0921   17.1842   24.2692 H   0  0  0  0  0  0  0  0  0  0  0  0
   20.6011   19.0477   23.2588 C   0  0  0  0  0  0  0  0  0  0  0  0
   20.3957   19.5264   22.2921 H   0  0  0  0  0  0  0  0  0  0  0  0
   20.1552   19.6849   24.0337 H   0  0  0  0  0  0  0  0  0  0  0  0
   22.1284   18.9663   23.4913 C   0  0  0  0  0  0  0  0  0  0  0  0
   22.5982   18.3630   22.7030 H   0  0  0  0  0  0  0  0  0  0  0  0
   22.3245   18.4495   24.4402 H   0  0  0  0  0  0  0  0  0  0  0  0
   22.7974   20.3534   23.5442 C   0  0  0  0  0  0  0  0  0  0  0  0
   22.3286   20.9587   24.3248 H   0  0  0  0  0  0  0  0  0  0  0  0
   23.8557   20.2364   23.7930 H   0  0  0  0  0  0  0  0  0  0  0  0
   22.7141   21.1213   22.2396 N   0  3  0  0  0  0  0  0  0  0  0  0
   23.1791   22.0334   22.3044 H   0  0  0  0  0  0  0  0  0  0  0  0
   21.7431   21.2985   21.9645 H   0  0  0  0  0  0  0  0  0  0  0  0
   23.1596   20.6123   21.4692 H   0  0  0  0  0  0  0  0  0  0  0  0
  1  2  1  0  0  0  0
  1  3  1  0  0  0  0
  1  4  1  0  0  0  0
  1  5  1  0  0  0  0
  5  6  1  0  0  0  0
  5  7  1  0  0  0  0
  5  8  1  0  0  0  0
  8  9  1  0  0  0  0
  8 10  1  0  0  0  0
  8 11  1  0  0  0  0
 11 12  1  0  0  0  0
 11 13  1  0  0  0  0
 11 14  1  0  0  0  0
 14 15  1  0  0  0  0
 14 16  1  0  0  0  0
 14 17  1  0  0  0  0
 17 18  1  0  0  0  0
 17 19  1  0  0  0  0
 17 20  1  0  0  0  0
 20 21  1  0  0  0  0
 20 22  1  0  0  0  0
 20 23  1  0  0  0  0
 23 24  1  0  0  0  0
 23 25  1  0  0  0  0
 23 26  1  0  0  0  0
M  END
> <VConfSearch Rank>
171

> <Conf_Id>
105

> <Delta U+W>
0.736

> <U+W>
-4.817

> <U>
48.735

> <W>
-53.552

> <W(PB)>
-55.889

> <W(SA)>
2.337

> <Valence>
2.803

> <Coulomb>
45.123

> <VdW>
0.809

> <VdW6>
-6.953

> <VdW12>
7.761

> <Bond>
0.188

> <Angle>
0.699

> <Pdih>
1.917

> <Idih>
0.000

> <Tether>
0.000

$$$$
VeraChem MOL file


 26 25  0  0  0  0  0  0  0  0999 V2000     
   16.5525   19.9265   22.2641 C   0  0  0  0  0  0  0  0  0  0  0  0
   16.3369   20.2564   21.2394 H   0  0  0  0  0  0  0  0  0  0  0  0
   16.2973   18.8615   22.3413 H   0  0  0  0  0  0  0  0  0  0  0  0
   15.8917   20.4816   22.9425 H   0  0  0  0  0  0  0  0  0  0  0  0
   18.0331   20.1693   22.6258 C   0  0  0  0  0  0  0  0  0  0  0  0
   18.1996   19.8650   23.6677 H   0  0  0  0  0  0  0  0  0  0  0  0
   18.2510   21.2449   22.5686 H   0  0  0  0  0  0  0  0  0  0  0  0
   18.9847   19.3932   21.6852 C   0  0  0  0  0  0  0  0  0  0  0  0
   18.7959   18.3152   21.7724 H   0  0  0  0  0  0  0  0  0  0  0  0
   18.7490   19.6556   20.6446 H   0  0  0  0  0  0  0  0  0  0  0  0
   20.4859   19.6925   21.9341 C   0  0  0  0  0  0  0  0  0  0  0  0
   20.6769   20.7523   21.7158 H   0  0  0  0  0  0  0  0  0  0  0  0
   21.0834   19.1248   21.2076 H   0  0  0  0  0  0  0  0  0  0  0  0
   21.0018   19.3791   23.3626 C   0  0  0  0  0  0  0  0  0  0  0  0
   22.0650   19.6497   23.4051 H   0  0  0  0  0  0  0  0  0  0  0  0
   20.4976   20.0243   24.0941 H   0  0  0  0  0  0  0  0  0  0  0  0
   20.8325   17.8941   23.7705 C   0  0  0  0  0  0  0  0  0  0  0  0
   21.3183   17.2428   23.0318 H   0  0  0  0  0  0  0  0  0  0  0  0
   19.7678   17.6293   23.7721 H   0  0  0  0  0  0  0  0  0  0  0  0
   21.3982   17.5945   25.1722 C   0  0  0  0  0  0  0  0  0  0  0  0
   20.9300   18.2550   25.9070 H   0  0  0  0  0  0  0  0  0  0  0  0
   21.1636   16.5617   25.4439 H   0  0  0  0  0  0  0  0  0  0  0  0
   22.9012   17.7653   25.2750 N   0  3  0  0  0  0  0  0  0  0  0  0
   23.1895   18.7265   25.0684 H   0  0  0  0  0  0  0  0  0  0  0  0
   23.3995   17.1522   24.6217 H   0  0  0  0  0  0  0  0  0  0  0  0
   23.2460   17.5441   26.2155 H   0  0  0  0  0  0  0  0  0  0  0  0
  1  2  1  0  0  0  0
  1  3  1  0  0  0  0
  1  4  1  0  0  0  0
  1  5  1  0  0  0  0
  5  6  1  0  0  0  0
  5  7  1  0  0  0  0
  5  8  1  0  0  0  0
  8  9  1  0  0  0  0
  8 10  1  0  0  0  0
  8 11  1  0  0  0  0
 11 12  1  0  0  0  0
 11 13  1  0  0  0  0
 11 14  1  0  0  0  0
 14 15  1  0  0  0  0
 14 16  1  0  0  0  0
 14 17  1  0  0  0  0
 17 18  1  0  0  0  0
 17 19  1  0  0  0  0
 17 20  1  0  0  0  0
 20 21  1  0  0  0  0
 20 22  1  0  0  0  0
 20 23  1  0  0  0  0
 23 24  1  0  0  0  0
 23 25  1  0  0  0  0
 23 26  1  0  0  0  0
M  END
> <VConfSearch Rank>
172

> <Conf_Id>
144

> <Delta U+W>
1.073

> <U+W>
-4.479

> <U>
49.231

> <W>
-53.710

> <W(PB)>
-55.983

> <W(SA)>
2.273

> <Valence>
3.276

> <Coulomb>
45.175

> <VdW>
0.779

> <VdW6>
-7.944

> <VdW12>
8.723

> <Bond>
0.239

> <Angle>
1.155

> <Pdih>
1.883

> <Idih>
0.000

> <Tether>
0.000

$$$$
VeraChem MOL file


 26 25  0  0  0  0  0  0  0  0999 V2000     
   17.9809   21.9766   23.4579 C   0  0  0  0  0  0  0  0  0  0  0  0
   18.8739   22.5329   23.1482 H   0  0  0  0  0  0  0  0  0  0  0  0
   17.1058   22.5717   23.1665 H   0  0  0  0  0  0  0  0  0  0  0  0
   17.9849   21.9007   24.5530 H   0  0  0  0  0  0  0  0  0  0  0  0
   17.9241   20.5771   22.8038 C   0  0  0  0  0  0  0  0  0  0  0  0
   17.9558   20.6769   21.7098 H   0  0  0  0  0  0  0  0  0  0  0  0
   16.9545   20.1178   23.0421 H   0  0  0  0  0  0  0  0  0  0  0  0
   19.0505   19.6264   23.2771 C   0  0  0  0  0  0  0  0  0  0  0  0
   19.0278   19.5465   24.3725 H   0  0  0  0  0  0  0  0  0  0  0  0
   18.8310   18.6271   22.8808 H   0  0  0  0  0  0  0  0  0  0  0  0
   20.4619   20.0590   22.8077 C   0  0  0  0  0  0  0  0  0  0  0  0
   20.6479   21.0964   23.1131 H   0  0  0  0  0  0  0  0  0  0  0  0
   20.4975   20.0530   21.7097 H   0  0  0  0  0  0  0  0  0  0  0  0
   21.6196   19.1906   23.3655 C   0  0  0  0  0  0  0  0  0  0  0  0
   22.5617   19.6188   22.9957 H   0  0  0  0  0  0  0  0  0  0  0  0
   21.6634   19.2784   24.4600 H   0  0  0  0  0  0  0  0  0  0  0  0
   21.5753   17.6973   22.9543 C   0  0  0  0  0  0  0  0  0  0  0  0
   22.6029   17.3107   22.9295 H   0  0  0  0  0  0  0  0  0  0  0  0
   21.1820   17.5977   21.9338 H   0  0  0  0  0  0  0  0  0  0  0  0
   20.7612   16.8267   23.9314 C   0  0  0  0  0  0  0  0  0  0  0  0
   21.1973   16.8945   24.9317 H   0  0  0  0  0  0  0  0  0  0  0  0
   19.7298   17.1800   23.9856 H   0  0  0  0  0  0  0  0  0  0  0  0
   20.7297   15.3647   23.5354 N   0  3  0  0  0  0  0  0  0  0  0  0
   21.6705   14.9589   23.4983 H   0  0  0  0  0  0  0  0  0  0  0  0
   20.3055   15.2277   22.6122 H   0  0  0  0  0  0  0  0  0  0  0  0
   20.1879   14.8013   24.1998 H   0  0  0  0  0  0  0  0  0  0  0  0
  1  2  1  0  0  0  0
  1  3  1  0  0  0  0
  1  4  1  0  0  0  0
  1  5  1  0  0  0  0
  5  6  1  0  0  0  0
  5  7  1  0  0  0  0
  5  8  1  0  0  0  0
  8  9  1  0  0  0  0
  8 10  1  0  0  0  0
  8 11  1  0  0  0  0
 11 12  1  0  0  0  0
 11 13  1  0  0  0  0
 11 14  1  0  0  0  0
 14 15  1  0  0  0  0
 14 16  1  0  0  0  0
 14 17  1  0  0  0  0
 17 18  1  0  0  0  0
 17 19  1  0  0  0  0
 17 20  1  0  0  0  0
 20 21  1  0  0  0  0
 20 22  1  0  0  0  0
 20 23  1  0  0  0  0
 23 24  1  0  0  0  0
 23 25  1  0  0  0  0
 23 26  1  0  0  0  0
M  END
> <VConfSearch Rank>
173

> <Conf_Id>
93

> <Delta U+W>
3.253

> <U+W>
-2.300

> <U>
51.609

> <W>
-53.909

> <W(PB)>
-56.178

> <W(SA)>
2.270

> <Valence>
5.204

> <Coulomb>
45.645

> <VdW>
0.760

> <VdW6>
-7.997

> <VdW12>
8.758

> <Bond>
0.240

> <Angle>
1.456

> <Pdih>
3.507

> <Idih>
0.000

> <Tether>
0.000

$$$$
VeraChem MOL file


 26 25  0  0  0  0  0  0  0  0999 V2000     
   22.5316   16.2852   23.7162 C   0  0  0  0  0  0  0  0  0  0  0  0
   23.3015   16.9858   23.3708 H   0  0  0  0  0  0  0  0  0  0  0  0
   22.4344   16.3894   24.8046 H   0  0  0  0  0  0  0  0  0  0  0  0
   22.8938   15.2702   23.5078 H   0  0  0  0  0  0  0  0  0  0  0  0
   21.1780   16.5306   23.0112 C   0  0  0  0  0  0  0  0  0  0  0  0
   20.4843   15.7266   23.2944 H   0  0  0  0  0  0  0  0  0  0  0  0
   21.3073   16.4550   21.9224 H   0  0  0  0  0  0  0  0  0  0  0  0
   20.5307   17.8904   23.3698 C   0  0  0  0  0  0  0  0  0  0  0  0
   19.5175   17.8981   22.9489 H   0  0  0  0  0  0  0  0  0  0  0  0
   20.4230   17.9698   24.4603 H   0  0  0  0  0  0  0  0  0  0  0  0
   21.3148   19.1105   22.8258 C   0  0  0  0  0  0  0  0  0  0  0  0
   21.3424   19.0648   21.7284 H   0  0  0  0  0  0  0  0  0  0  0  0
   22.3586   19.0540   23.1596 H   0  0  0  0  0  0  0  0  0  0  0  0
   20.7535   20.4863   23.2703 C   0  0  0  0  0  0  0  0  0  0  0  0
   20.8251   20.5879   24.3621 H   0  0  0  0  0  0  0  0  0  0  0  0
   21.4130   21.2617   22.8564 H   0  0  0  0  0  0  0  0  0  0  0  0
   19.3065   20.7853   22.8032 C   0  0  0  0  0  0  0  0  0  0  0  0
   19.1340   20.3548   21.8079 H   0  0  0  0  0  0  0  0  0  0  0  0
   19.1916   21.8721   22.6950 H   0  0  0  0  0  0  0  0  0  0  0  0
   18.2376   20.2888   23.7964 C   0  0  0  0  0  0  0  0  0  0  0  0
   18.3187   19.2088   23.9328 H   0  0  0  0  0  0  0  0  0  0  0  0
   18.3906   20.7671   24.7675 H   0  0  0  0  0  0  0  0  0  0  0  0
   16.8239   20.5936   23.3449 N   0  3  0  0  0  0  0  0  0  0  0  0
   16.6688   21.6005   23.2293 H   0  0  0  0  0  0  0  0  0  0  0  0
   16.1277   20.2603   24.0206 H   0  0  0  0  0  0  0  0  0  0  0  0
   16.6052   20.1498   22.4470 H   0  0  0  0  0  0  0  0  0  0  0  0
  1  2  1  0  0  0  0
  1  3  1  0  0  0  0
  1  4  1  0  0  0  0
  1  5  1  0  0  0  0
  5  6  1  0  0  0  0
  5  7  1  0  0  0  0
  5  8  1  0  0  0  0
  8  9  1  0  0  0  0
  8 10  1  0  0  0  0
  8 11  1  0  0  0  0
 11 12  1  0  0  0  0
 11 13  1  0  0  0  0
 11 14  1  0  0  0  0
 14 15  1  0  0  0  0
 14 16  1  0  0  0  0
 14 17  1  0  0  0  0
 17 18  1  0  0  0  0
 17 19  1  0  0  0  0
 17 20  1  0  0  0  0
 20 21  1  0  0  0  0
 20 22  1  0  0  0  0
 20 23  1  0  0  0  0
 23 24  1  0  0  0  0
 23 25  1  0  0  0  0
 23 26  1  0  0  0  0
M  END
> <VConfSearch Rank>
174

> <Conf_Id>
94

> <Delta U+W>
3.247

> <U+W>
-2.305

> <U>
51.609

> <W>
-53.914

> <W(PB)>
-56.221

> <W(SA)>
2.307

> <Valence>
5.204

> <Coulomb>
45.645

> <VdW>
0.760

> <VdW6>
-7.997

> <VdW12>
8.757

> <Bond>
0.240

> <Angle>
1.456

> <Pdih>
3.508

> <Idih>
0.000

> <Tether>
0.000

$$$$
VeraChem MOL file


 26 25  0  0  0  0  0  0  0  0999 V2000     
   23.5495   20.1364   21.4426 C   0  0  0  0  0  0  0  0  0  0  0  0
   23.6801   21.1699   21.7891 H   0  0  0  0  0  0  0  0  0  0  0  0
   24.1516   19.4814   22.0858 H   0  0  0  0  0  0  0  0  0  0  0  0
   23.9512   20.0695   20.4232 H   0  0  0  0  0  0  0  0  0  0  0  0
   22.0619   19.7258   21.4703 C   0  0  0  0  0  0  0  0  0  0  0  0
   21.9595   18.7009   21.0868 H   0  0  0  0  0  0  0  0  0  0  0  0
   21.4915   20.3764   20.7925 H   0  0  0  0  0  0  0  0  0  0  0  0
   21.4713   19.8113   22.8951 C   0  0  0  0  0  0  0  0  0  0  0  0
   22.0458   19.1610   23.5693 H   0  0  0  0  0  0  0  0  0  0  0  0
   21.5787   20.8368   23.2748 H   0  0  0  0  0  0  0  0  0  0  0  0
   19.9816   19.4013   22.9267 C   0  0  0  0  0  0  0  0  0  0  0  0
   19.8812   18.3788   22.5390 H   0  0  0  0  0  0  0  0  0  0  0  0
   19.4078   20.0546   22.2549 H   0  0  0  0  0  0  0  0  0  0  0  0
   19.3931   19.4859   24.3555 C   0  0  0  0  0  0  0  0  0  0  0  0
   19.9477   18.8158   25.0260 H   0  0  0  0  0  0  0  0  0  0  0  0
   19.5433   20.5015   24.7470 H   0  0  0  0  0  0  0  0  0  0  0  0
   17.8806   19.1552   24.4125 C   0  0  0  0  0  0  0  0  0  0  0  0
   17.3274   19.8860   23.8076 H   0  0  0  0  0  0  0  0  0  0  0  0
   17.5211   19.2765   25.4430 H   0  0  0  0  0  0  0  0  0  0  0  0
   17.5282   17.7371   23.9190 C   0  0  0  0  0  0  0  0  0  0  0  0
   16.4451   17.5951   23.9667 H   0  0  0  0  0  0  0  0  0  0  0  0
   17.8399   17.6194   22.8780 H   0  0  0  0  0  0  0  0  0  0  0  0
   18.1746   16.6325   24.7312 N   0  3  0  0  0  0  0  0  0  0  0  0
   17.8964   16.6727   25.7170 H   0  0  0  0  0  0  0  0  0  0  0  0
   19.1972   16.6914   24.7018 H   0  0  0  0  0  0  0  0  0  0  0  0
   17.9157   15.7026   24.3841 H   0  0  0  0  0  0  0  0  0  0  0  0
  1  2  1  0  0  0  0
  1  3  1  0  0  0  0
  1  4  1  0  0  0  0
  1  5  1  0  0  0  0
  5  6  1  0  0  0  0
  5  7  1  0  0  0  0
  5  8  1  0  0  0  0
  8  9  1  0  0  0  0
  8 10  1  0  0  0  0
  8 11  1  0  0  0  0
 11 12  1  0  0  0  0
 11 13  1  0  0  0  0
 11 14  1  0  0  0  0
 14 15  1  0  0  0  0
 14 16  1  0  0  0  0
 14 17  1  0  0  0  0
 17 18  1  0  0  0  0
 17 19  1  0  0  0  0
 17 20  1  0  0  0  0
 20 21  1  0  0  0  0
 20 22  1  0  0  0  0
 20 23  1  0  0  0  0
 23 24  1  0  0  0  0
 23 25  1  0  0  0  0
 23 26  1  0  0  0  0
M  END
> <VConfSearch Rank>
175

> <Conf_Id>
83

> <Delta U+W>
0.559

> <U+W>
-4.994

> <U>
48.668

> <W>
-53.661

> <W(PB)>
-55.972

> <W(SA)>
2.311

> <Valence>
2.543

> <Coulomb>
45.478

> <VdW>
0.646

> <VdW6>
-7.096

> <VdW12>
7.742

> <Bond>
0.176

> <Angle>
0.630

> <Pdih>
1.738

> <Idih>
0.000

> <Tether>
0.000

$$$$
VeraChem MOL file


 26 25  0  0  0  0  0  0  0  0999 V2000     
   22.8395   18.9718   20.4584 C   0  0  0  0  0  0  0  0  0  0  0  0
   23.0007   19.8994   19.8936 H   0  0  0  0  0  0  0  0  0  0  0  0
   23.6991   18.8235   21.1250 H   0  0  0  0  0  0  0  0  0  0  0  0
   22.8213   18.1404   19.7419 H   0  0  0  0  0  0  0  0  0  0  0  0
   21.5211   19.0307   21.2587 C   0  0  0  0  0  0  0  0  0  0  0  0
   21.3756   18.0728   21.7751 H   0  0  0  0  0  0  0  0  0  0  0  0
   20.6783   19.1499   20.5635 H   0  0  0  0  0  0  0  0  0  0  0  0
   21.5253   20.1934   22.2791 C   0  0  0  0  0  0  0  0  0  0  0  0
   22.3350   20.0449   23.0068 H   0  0  0  0  0  0  0  0  0  0  0  0
   21.7536   21.1298   21.7515 H   0  0  0  0  0  0  0  0  0  0  0  0
   20.1806   20.3680   23.0271 C   0  0  0  0  0  0  0  0  0  0  0  0
   19.3736   20.5310   22.2994 H   0  0  0  0  0  0  0  0  0  0  0  0
   20.2376   21.2822   23.6339 H   0  0  0  0  0  0  0  0  0  0  0  0
   19.8231   19.1746   23.9455 C   0  0  0  0  0  0  0  0  0  0  0  0
   19.6927   18.2688   23.3405 H   0  0  0  0  0  0  0  0  0  0  0  0
   20.6549   18.9819   24.6372 H   0  0  0  0  0  0  0  0  0  0  0  0
   18.5324   19.4430   24.7553 C   0  0  0  0  0  0  0  0  0  0  0  0
   17.6881   19.6101   24.0732 H   0  0  0  0  0  0  0  0  0  0  0  0
   18.6529   20.3668   25.3368 H   0  0  0  0  0  0  0  0  0  0  0  0
   18.1898   18.2976   25.7275 C   0  0  0  0  0  0  0  0  0  0  0  0
   19.0319   18.1235   26.4027 H   0  0  0  0  0  0  0  0  0  0  0  0
   17.3226   18.5810   26.3301 H   0  0  0  0  0  0  0  0  0  0  0  0
   17.8613   16.9881   25.0374 N   0  3  0  0  0  0  0  0  0  0  0  0
   18.6500   16.6433   24.4816 H   0  0  0  0  0  0  0  0  0  0  0  0
   17.0611   17.0822   24.4035 H   0  0  0  0  0  0  0  0  0  0  0  0
   17.6244   16.2519   25.7114 H   0  0  0  0  0  0  0  0  0  0  0  0
  1  2  1  0  0  0  0
  1  3  1  0  0  0  0
  1  4  1  0  0  0  0
  1  5  1  0  0  0  0
  5  6  1  0  0  0  0
  5  7  1  0  0  0  0
  5  8  1  0  0  0  0
  8  9  1  0  0  0  0
  8 10  1  0  0  0  0
  8 11  1  0  0  0  0
 11 12  1  0  0  0  0
 11 13  1  0  0  0  0
 11 14  1  0  0  0  0
 14 15  1  0  0  0  0
 14 16  1  0  0  0  0
 14 17  1  0  0  0  0
 17 18  1  0  0  0  0
 17 19  1  0  0  0  0
 17 20  1  0  0  0  0
 20 21  1  0  0  0  0
 20 22  1  0  0  0  0
 20 23  1  0  0  0  0
 23 24  1  0  0  0  0
 23 25  1  0  0  0  0
 23 26  1  0  0  0  0
M  END
> <VConfSearch Rank>
176

> <Conf_Id>
18

> <Delta U+W>
0.759

> <U+W>
-4.793

> <U>
48.945

> <W>
-53.738

> <W(PB)>
-56.051

> <W(SA)>
2.313

> <Valence>
2.802

> <Coulomb>
45.335

> <VdW>
0.807

> <VdW6>
-6.962

> <VdW12>
7.769

> <Bond>
0.189

> <Angle>
0.696

> <Pdih>
1.917

> <Idih>
0.000

> <Tether>
0.000

$$$$
VeraChem MOL file


 26 25  0  0  0  0  0  0  0  0999 V2000     
   17.2612   20.9730   21.2671 C   0  0  0  0  0  0  0  0  0  0  0  0
   17.9264   21.2804   20.4497 H   0  0  0  0  0  0  0  0  0  0  0  0
   16.4089   20.4359   20.8308 H   0  0  0  0  0  0  0  0  0  0  0  0
   16.8761   21.8815   21.7480 H   0  0  0  0  0  0  0  0  0  0  0  0
   18.0096   20.0908   22.2889 C   0  0  0  0  0  0  0  0  0  0  0  0
   17.3274   19.8239   23.1081 H   0  0  0  0  0  0  0  0  0  0  0  0
   18.8268   20.6751   22.7318 H   0  0  0  0  0  0  0  0  0  0  0  0
   18.5659   18.8052   21.6323 C   0  0  0  0  0  0  0  0  0  0  0  0
   17.7445   18.2794   21.1261 H   0  0  0  0  0  0  0  0  0  0  0  0
   19.2892   19.0721   20.8494 H   0  0  0  0  0  0  0  0  0  0  0  0
   19.2256   17.8299   22.6380 C   0  0  0  0  0  0  0  0  0  0  0  0
   19.4789   16.9023   22.1062 H   0  0  0  0  0  0  0  0  0  0  0  0
   18.4973   17.5520   23.4124 H   0  0  0  0  0  0  0  0  0  0  0  0
   20.5042   18.3956   23.3019 C   0  0  0  0  0  0  0  0  0  0  0  0
   21.2086   18.7206   22.5237 H   0  0  0  0  0  0  0  0  0  0  0  0
   20.2507   19.2826   23.8956 H   0  0  0  0  0  0  0  0  0  0  0  0
   21.1888   17.3468   24.2101 C   0  0  0  0  0  0  0  0  0  0  0  0
   21.4142   16.4473   23.6217 H   0  0  0  0  0  0  0  0  0  0  0  0
   20.5024   17.0349   25.0086 H   0  0  0  0  0  0  0  0  0  0  0  0
   22.5011   17.8626   24.8318 C   0  0  0  0  0  0  0  0  0  0  0  0
   22.9805   17.0534   25.3894 H   0  0  0  0  0  0  0  0  0  0  0  0
   23.1835   18.1814   24.0393 H   0  0  0  0  0  0  0  0  0  0  0  0
   22.3097   19.0264   25.7846 N   0  3  0  0  0  0  0  0  0  0  0  0
   21.6931   18.7811   26.5661 H   0  0  0  0  0  0  0  0  0  0  0  0
   21.8965   19.8379   25.3150 H   0  0  0  0  0  0  0  0  0  0  0  0
   23.1994   19.3356   26.1910 H   0  0  0  0  0  0  0  0  0  0  0  0
  1  2  1  0  0  0  0
  1  3  1  0  0  0  0
  1  4  1  0  0  0  0
  1  5  1  0  0  0  0
  5  6  1  0  0  0  0
  5  7  1  0  0  0  0
  5  8  1  0  0  0  0
  8  9  1  0  0  0  0
  8 10  1  0  0  0  0
  8 11  1  0  0  0  0
 11 12  1  0  0  0  0
 11 13  1  0  0  0  0
 11 14  1  0  0  0  0
 14 15  1  0  0  0  0
 14 16  1  0  0  0  0
 14 17  1  0  0  0  0
 17 18  1  0  0  0  0
 17 19  1  0  0  0  0
 17 20  1  0  0  0  0
 20 21  1  0  0  0  0
 20 22  1  0  0  0  0
 20 23  1  0  0  0  0
 23 24  1  0  0  0  0
 23 25  1  0  0  0  0
 23 26  1  0  0  0  0
M  END
> <VConfSearch Rank>
177

> <Conf_Id>
17

> <Delta U+W>
0.843

> <U+W>
-4.709

> <U>
48.945

> <W>
-53.653

> <W(PB)>
-55.991

> <W(SA)>
2.338

> <Valence>
2.802

> <Coulomb>
45.335

> <VdW>
0.807

> <VdW6>
-6.962

> <VdW12>
7.769

> <Bond>
0.189

> <Angle>
0.696

> <Pdih>
1.917

> <Idih>
0.000

> <Tether>
0.000

$$$$
VeraChem MOL file


 26 25  0  0  0  0  0  0  0  0999 V2000     
   22.8246   19.7882   21.6532 C   0  0  0  0  0  0  0  0  0  0  0  0
   21.8410   19.8244   21.1690 H   0  0  0  0  0  0  0  0  0  0  0  0
   22.9538   20.7068   22.2402 H   0  0  0  0  0  0  0  0  0  0  0  0
   23.5828   19.7879   20.8594 H   0  0  0  0  0  0  0  0  0  0  0  0
   22.9739   18.5339   22.5438 C   0  0  0  0  0  0  0  0  0  0  0  0
   24.0104   18.4776   22.9048 H   0  0  0  0  0  0  0  0  0  0  0  0
   22.8093   17.6303   21.9402 H   0  0  0  0  0  0  0  0  0  0  0  0
   22.0224   18.5286   23.7646 C   0  0  0  0  0  0  0  0  0  0  0  0
   22.2728   17.6658   24.3973 H   0  0  0  0  0  0  0  0  0  0  0  0
   22.2049   19.4232   24.3758 H   0  0  0  0  0  0  0  0  0  0  0  0
   20.5252   18.4560   23.3796 C   0  0  0  0  0  0  0  0  0  0  0  0
   20.3565   17.5874   22.7283 H   0  0  0  0  0  0  0  0  0  0  0  0
   20.2512   19.3475   22.8018 H   0  0  0  0  0  0  0  0  0  0  0  0
   19.6179   18.3489   24.6288 C   0  0  0  0  0  0  0  0  0  0  0  0
   19.9250   17.4787   25.2254 H   0  0  0  0  0  0  0  0  0  0  0  0
   19.7623   19.2307   25.2685 H   0  0  0  0  0  0  0  0  0  0  0  0
   18.1178   18.2050   24.2796 C   0  0  0  0  0  0  0  0  0  0  0  0
   17.5503   18.0444   25.2060 H   0  0  0  0  0  0  0  0  0  0  0  0
   17.9673   17.3111   23.6597 H   0  0  0  0  0  0  0  0  0  0  0  0
   17.5544   19.4405   23.5526 C   0  0  0  0  0  0  0  0  0  0  0  0
   17.7037   20.3304   24.1699 H   0  0  0  0  0  0  0  0  0  0  0  0
   18.0812   19.5854   22.6059 H   0  0  0  0  0  0  0  0  0  0  0  0
   16.0748   19.3254   23.2478 N   0  3  0  0  0  0  0  0  0  0  0  0
   15.7194   20.1573   22.7642 H   0  0  0  0  0  0  0  0  0  0  0  0
   15.5166   19.2149   24.1007 H   0  0  0  0  0  0  0  0  0  0  0  0
   15.8699   18.5204   22.6468 H   0  0  0  0  0  0  0  0  0  0  0  0
  1  2  1  0  0  0  0
  1  3  1  0  0  0  0
  1  4  1  0  0  0  0
  1  5  1  0  0  0  0
  5  6  1  0  0  0  0
  5  7  1  0  0  0  0
  5  8  1  0  0  0  0
  8  9  1  0  0  0  0
  8 10  1  0  0  0  0
  8 11  1  0  0  0  0
 11 12  1  0  0  0  0
 11 13  1  0  0  0  0
 11 14  1  0  0  0  0
 14 15  1  0  0  0  0
 14 16  1  0  0  0  0
 14 17  1  0  0  0  0
 17 18  1  0  0  0  0
 17 19  1  0  0  0  0
 17 20  1  0  0  0  0
 20 21  1  0  0  0  0
 20 22  1  0  0  0  0
 20 23  1  0  0  0  0
 23 24  1  0  0  0  0
 23 25  1  0  0  0  0
 23 26  1  0  0  0  0
M  END
> <VConfSearch Rank>
178

> <Conf_Id>
96

> <Delta U+W>
0.912

> <U+W>
-4.640

> <U>
48.723

> <W>
-53.364

> <W(PB)>
-55.683

> <W(SA)>
2.320

> <Valence>
2.962

> <Coulomb>
44.993

> <VdW>
0.768

> <VdW6>
-7.008

> <VdW12>
7.776

> <Bond>
0.188

> <Angle>
0.757

> <Pdih>
2.018

> <Idih>
0.000

> <Tether>
0.000

$$$$
VeraChem MOL file


 26 25  0  0  0  0  0  0  0  0999 V2000     
   19.7731   21.0518   20.5599 C   0  0  0  0  0  0  0  0  0  0  0  0
   19.2686   21.6579   19.7963 H   0  0  0  0  0  0  0  0  0  0  0  0
   20.7880   20.8369   20.2012 H   0  0  0  0  0  0  0  0  0  0  0  0
   19.2281   20.1031   20.6402 H   0  0  0  0  0  0  0  0  0  0  0  0
   19.8081   21.8030   21.9102 C   0  0  0  0  0  0  0  0  0  0  0  0
   18.7820   21.9779   22.2626 H   0  0  0  0  0  0  0  0  0  0  0  0
   20.2518   22.7958   21.7512 H   0  0  0  0  0  0  0  0  0  0  0  0
   20.6189   21.0665   23.0038 C   0  0  0  0  0  0  0  0  0  0  0  0
   21.6493   20.9120   22.6550 H   0  0  0  0  0  0  0  0  0  0  0  0
   20.6857   21.7184   23.8858 H   0  0  0  0  0  0  0  0  0  0  0  0
   20.0008   19.7109   23.4223 C   0  0  0  0  0  0  0  0  0  0  0  0
   19.9901   19.0309   22.5613 H   0  0  0  0  0  0  0  0  0  0  0  0
   18.9553   19.8629   23.7238 H   0  0  0  0  0  0  0  0  0  0  0  0
   20.7848   19.0599   24.5872 C   0  0  0  0  0  0  0  0  0  0  0  0
   21.8241   18.8794   24.2791 H   0  0  0  0  0  0  0  0  0  0  0  0
   20.8286   19.7625   25.4309 H   0  0  0  0  0  0  0  0  0  0  0  0
   20.1548   17.7353   25.0782 C   0  0  0  0  0  0  0  0  0  0  0  0
   19.1235   17.9174   25.4088 H   0  0  0  0  0  0  0  0  0  0  0  0
   20.7091   17.3819   25.9578 H   0  0  0  0  0  0  0  0  0  0  0  0
   20.1666   16.6348   24.0007 C   0  0  0  0  0  0  0  0  0  0  0  0
   19.5798   16.9562   23.1364 H   0  0  0  0  0  0  0  0  0  0  0  0
   21.1933   16.4529   23.6719 H   0  0  0  0  0  0  0  0  0  0  0  0
   19.5922   15.3207   24.4893 N   0  3  0  0  0  0  0  0  0  0  0  0
   18.6167   15.4181   24.7893 H   0  0  0  0  0  0  0  0  0  0  0  0
   20.1173   14.9472   25.2868 H   0  0  0  0  0  0  0  0  0  0  0  0
   19.6094   14.6018   23.7577 H   0  0  0  0  0  0  0  0  0  0  0  0
  1  2  1  0  0  0  0
  1  3  1  0  0  0  0
  1  4  1  0  0  0  0
  1  5  1  0  0  0  0
  5  6  1  0  0  0  0
  5  7  1  0  0  0  0
  5  8  1  0  0  0  0
  8  9  1  0  0  0  0
  8 10  1  0  0  0  0
  8 11  1  0  0  0  0
 11 12  1  0  0  0  0
 11 13  1  0  0  0  0
 11 14  1  0  0  0  0
 14 15  1  0  0  0  0
 14 16  1  0  0  0  0
 14 17  1  0  0  0  0
 17 18  1  0  0  0  0
 17 19  1  0  0  0  0
 17 20  1  0  0  0  0
 20 21  1  0  0  0  0
 20 22  1  0  0  0  0
 20 23  1  0  0  0  0
 23 24  1  0  0  0  0
 23 25  1  0  0  0  0
 23 26  1  0  0  0  0
M  END
> <VConfSearch Rank>
179

> <Conf_Id>
133

> <Delta U+W>
0.844

> <U+W>
-4.708

> <U>
48.723

> <W>
-53.431

> <W(PB)>
-55.776

> <W(SA)>
2.344

> <Valence>
2.962

> <Coulomb>
44.993

> <VdW>
0.768

> <VdW6>
-7.008

> <VdW12>
7.776

> <Bond>
0.188

> <Angle>
0.756

> <Pdih>
2.018

> <Idih>
0.000

> <Tether>
0.000

$$$$
VeraChem MOL file


 26 25  0  0  0  0  0  0  0  0999 V2000     
   22.3097   16.9619   21.9412 C   0  0  0  0  0  0  0  0  0  0  0  0
   22.1954   16.6971   20.8821 H   0  0  0  0  0  0  0  0  0  0  0  0
   22.2976   18.0557   22.0259 H   0  0  0  0  0  0  0  0  0  0  0  0
   23.2984   16.6161   22.2693 H   0  0  0  0  0  0  0  0  0  0  0  0
   21.1981   16.3156   22.7984 C   0  0  0  0  0  0  0  0  0  0  0  0
   21.3213   16.6105   23.8490 H   0  0  0  0  0  0  0  0  0  0  0  0
   21.3244   15.2242   22.7765 H   0  0  0  0  0  0  0  0  0  0  0  0
   19.7667   16.6559   22.3103 C   0  0  0  0  0  0  0  0  0  0  0  0
   19.6281   16.2416   21.3022 H   0  0  0  0  0  0  0  0  0  0  0  0
   19.0415   16.1356   22.9510 H   0  0  0  0  0  0  0  0  0  0  0  0
   19.4184   18.1666   22.2787 C   0  0  0  0  0  0  0  0  0  0  0  0
   18.3928   18.2761   21.9002 H   0  0  0  0  0  0  0  0  0  0  0  0
   20.0633   18.6844   21.5564 H   0  0  0  0  0  0  0  0  0  0  0  0
   19.5216   18.8546   23.6610 C   0  0  0  0  0  0  0  0  0  0  0  0
   18.9101   18.3063   24.3911 H   0  0  0  0  0  0  0  0  0  0  0  0
   20.5585   18.8179   24.0207 H   0  0  0  0  0  0  0  0  0  0  0  0
   19.0599   20.3274   23.6048 C   0  0  0  0  0  0  0  0  0  0  0  0
   18.0195   20.3764   23.2567 H   0  0  0  0  0  0  0  0  0  0  0  0
   19.6700   20.8783   22.8765 H   0  0  0  0  0  0  0  0  0  0  0  0
   19.1707   21.0050   24.9819 C   0  0  0  0  0  0  0  0  0  0  0  0
   18.5520   20.4691   25.7067 H   0  0  0  0  0  0  0  0  0  0  0  0
   20.2083   20.9736   25.3253 H   0  0  0  0  0  0  0  0  0  0  0  0
   18.7264   22.4534   24.9681 N   0  3  0  0  0  0  0  0  0  0  0  0
   18.8081   22.8858   25.8949 H   0  0  0  0  0  0  0  0  0  0  0  0
   17.7474   22.5501   24.6791 H   0  0  0  0  0  0  0  0  0  0  0  0
   19.2885   23.0196   24.3242 H   0  0  0  0  0  0  0  0  0  0  0  0
  1  2  1  0  0  0  0
  1  3  1  0  0  0  0
  1  4  1  0  0  0  0
  1  5  1  0  0  0  0
  5  6  1  0  0  0  0
  5  7  1  0  0  0  0
  5  8  1  0  0  0  0
  8  9  1  0  0  0  0
  8 10  1  0  0  0  0
  8 11  1  0  0  0  0
 11 12  1  0  0  0  0
 11 13  1  0  0  0  0
 11 14  1  0  0  0  0
 14 15  1  0  0  0  0
 14 16  1  0  0  0  0
 14 17  1  0  0  0  0
 17 18  1  0  0  0  0
 17 19  1  0  0  0  0
 17 20  1  0  0  0  0
 20 21  1  0  0  0  0
 20 22  1  0  0  0  0
 20 23  1  0  0  0  0
 23 24  1  0  0  0  0
 23 25  1  0  0  0  0
 23 26  1  0  0  0  0
M  END
> <VConfSearch Rank>
180

> <Conf_Id>
106

> <Delta U+W>
0.767

> <U+W>
-4.785

> <U>
48.494

> <W>
-53.279

> <W(PB)>
-55.569

> <W(SA)>
2.290

> <Valence>
3.117

> <Coulomb>
44.693

> <VdW>
0.684

> <VdW6>
-7.347

> <VdW12>
8.030

> <Bond>
0.208

> <Angle>
1.039

> <Pdih>
1.870

> <Idih>
0.000

> <Tether>
0.000

$$$$
VeraChem MOL file


 26 25  0  0  0  0  0  0  0  0999 V2000     
   24.2739   19.9363   24.2856 C   0  0  0  0  0  0  0  0  0  0  0  0
   24.2639   19.4553   25.2724 H   0  0  0  0  0  0  0  0  0  0  0  0
   24.7138   19.2328   23.5667 H   0  0  0  0  0  0  0  0  0  0  0  0
   24.9319   20.8131   24.3448 H   0  0  0  0  0  0  0  0  0  0  0  0
   22.8506   20.3511   23.8562 C   0  0  0  0  0  0  0  0  0  0  0  0
   22.8971   20.8589   22.8826 H   0  0  0  0  0  0  0  0  0  0  0  0
   22.4508   21.0799   24.5751 H   0  0  0  0  0  0  0  0  0  0  0  0
   21.9032   19.1344   23.7651 C   0  0  0  0  0  0  0  0  0  0  0  0
   22.3083   18.4077   23.0473 H   0  0  0  0  0  0  0  0  0  0  0  0
   21.8618   18.6288   24.7399 H   0  0  0  0  0  0  0  0  0  0  0  0
   20.4769   19.5457   23.3352 C   0  0  0  0  0  0  0  0  0  0  0  0
   20.5193   20.0514   22.3605 H   0  0  0  0  0  0  0  0  0  0  0  0
   20.0728   20.2727   24.0533 H   0  0  0  0  0  0  0  0  0  0  0  0
   19.5293   18.3281   23.2444 C   0  0  0  0  0  0  0  0  0  0  0  0
   19.9332   17.6007   22.5263 H   0  0  0  0  0  0  0  0  0  0  0  0
   19.4866   17.8221   24.2191 H   0  0  0  0  0  0  0  0  0  0  0  0
   18.1036   18.7384   22.8146 C   0  0  0  0  0  0  0  0  0  0  0  0
   18.1414   19.2397   21.8382 H   0  0  0  0  0  0  0  0  0  0  0  0
   17.6944   19.4615   23.5328 H   0  0  0  0  0  0  0  0  0  0  0  0
   17.1690   17.5190   22.7277 C   0  0  0  0  0  0  0  0  0  0  0  0
   17.5638   16.8034   22.0014 H   0  0  0  0  0  0  0  0  0  0  0  0
   17.1154   17.0260   23.7022 H   0  0  0  0  0  0  0  0  0  0  0  0
   15.7587   17.8808   22.3085 N   0  3  0  0  0  0  0  0  0  0  0  0
   15.1528   17.0545   22.2569 H   0  0  0  0  0  0  0  0  0  0  0  0
   15.7366   18.3251   21.3847 H   0  0  0  0  0  0  0  0  0  0  0  0
   15.3193   18.5321   22.9673 H   0  0  0  0  0  0  0  0  0  0  0  0
  1  2  1  0  0  0  0
  1  3  1  0  0  0  0
  1  4  1  0  0  0  0
  1  5  1  0  0  0  0
  5  6  1  0  0  0  0
  5  7  1  0  0  0  0
  5  8  1  0  0  0  0
  8  9  1  0  0  0  0
  8 10  1  0  0  0  0
  8 11  1  0  0  0  0
 11 12  1  0  0  0  0
 11 13  1  0  0  0  0
 11 14  1  0  0  0  0
 14 15  1  0  0  0  0
 14 16  1  0  0  0  0
 14 17  1  0  0  0  0
 17 18  1  0  0  0  0
 17 19  1  0  0  0  0
 17 20  1  0  0  0  0
 20 21  1  0  0  0  0
 20 22  1  0  0  0  0
 20 23  1  0  0  0  0
 23 24  1  0  0  0  0
 23 25  1  0  0  0  0
 23 26  1  0  0  0  0
M  END
> <VConfSearch Rank>
181

> <Conf_Id>
25

> <Delta U+W>
0.000

> <U+W>
-5.552

> <U>
47.192

> <W>
-52.745

> <W(PB)>
-55.134

> <W(SA)>
2.389

> <Valence>
2.156

> <Coulomb>
44.449

> <VdW>
0.587

> <VdW6>
-5.761

> <VdW12>
6.348

> <Bond>
0.129

> <Angle>
0.393

> <Pdih>
1.634

> <Idih>
0.000

> <Tether>
0.000

$$$$
VeraChem MOL file


 26 25  0  0  0  0  0  0  0  0999 V2000     
   18.5037   17.3592   19.5676 C   0  0  0  0  0  0  0  0  0  0  0  0
   18.1324   18.3184   19.1835 H   0  0  0  0  0  0  0  0  0  0  0  0
   19.5188   17.2052   19.1790 H   0  0  0  0  0  0  0  0  0  0  0  0
   17.8639   16.5640   19.1634 H   0  0  0  0  0  0  0  0  0  0  0  0
   18.4911   17.3374   21.1108 C   0  0  0  0  0  0  0  0  0  0  0  0
   18.8348   16.3551   21.4642 H   0  0  0  0  0  0  0  0  0  0  0  0
   17.4591   17.4597   21.4686 H   0  0  0  0  0  0  0  0  0  0  0  0
   19.3847   18.4479   21.7061 C   0  0  0  0  0  0  0  0  0  0  0  0
   20.4144   18.3229   21.3436 H   0  0  0  0  0  0  0  0  0  0  0  0
   19.0386   19.4275   21.3482 H   0  0  0  0  0  0  0  0  0  0  0  0
   19.3746   18.4291   23.2514 C   0  0  0  0  0  0  0  0  0  0  0  0
   19.7210   17.4493   23.6085 H   0  0  0  0  0  0  0  0  0  0  0  0
   18.3442   18.5531   23.6126 H   0  0  0  0  0  0  0  0  0  0  0  0
   20.2682   19.5407   23.8466 C   0  0  0  0  0  0  0  0  0  0  0  0
   21.2952   19.4148   23.4785 H   0  0  0  0  0  0  0  0  0  0  0  0
   19.9199   20.5207   23.4918 H   0  0  0  0  0  0  0  0  0  0  0  0
   20.2574   19.5195   25.3935 C   0  0  0  0  0  0  0  0  0  0  0  0
   20.6335   18.5548   25.7595 H   0  0  0  0  0  0  0  0  0  0  0  0
   19.2230   19.6086   25.7512 H   0  0  0  0  0  0  0  0  0  0  0  0
   21.0866   20.6624   26.0104 C   0  0  0  0  0  0  0  0  0  0  0  0
   20.7184   21.6241   25.6431 H   0  0  0  0  0  0  0  0  0  0  0  0
   20.9730   20.6467   27.0978 H   0  0  0  0  0  0  0  0  0  0  0  0
   22.5686   20.5769   25.7019 N   0  3  0  0  0  0  0  0  0  0  0  0
   22.7500   20.6235   24.6945 H   0  0  0  0  0  0  0  0  0  0  0  0
   22.9788   19.7018   26.0439 H   0  0  0  0  0  0  0  0  0  0  0  0
   23.0929   21.3437   26.1371 H   0  0  0  0  0  0  0  0  0  0  0  0
  1  2  1  0  0  0  0
  1  3  1  0  0  0  0
  1  4  1  0  0  0  0
  1  5  1  0  0  0  0
  5  6  1  0  0  0  0
  5  7  1  0  0  0  0
  5  8  1  0  0  0  0
  8  9  1  0  0  0  0
  8 10  1  0  0  0  0
  8 11  1  0  0  0  0
 11 12  1  0  0  0  0
 11 13  1  0  0  0  0
 11 14  1  0  0  0  0
 14 15  1  0  0  0  0
 14 16  1  0  0  0  0
 14 17  1  0  0  0  0
 17 18  1  0  0  0  0
 17 19  1  0  0  0  0
 17 20  1  0  0  0  0
 20 21  1  0  0  0  0
 20 22  1  0  0  0  0
 20 23  1  0  0  0  0
 23 24  1  0  0  0  0
 23 25  1  0  0  0  0
 23 26  1  0  0  0  0
M  END
> <VConfSearch Rank>
182

> <Conf_Id>
20

> <Delta U+W>
0.150

> <U+W>
-5.403

> <U>
47.845

> <W>
-53.248

> <W(PB)>
-55.599

> <W(SA)>
2.351

> <Valence>
2.258

> <Coulomb>
44.893

> <VdW>
0.694

> <VdW6>
-6.285

> <VdW12>
6.979

> <Bond>
0.149

> <Angle>
0.434

> <Pdih>
1.675

> <Idih>
0.000

> <Tether>
0.000

$$$$
VeraChem MOL file


 26 25  0  0  0  0  0  0  0  0999 V2000     
   21.9163   20.3706   26.8380 C   0  0  0  0  0  0  0  0  0  0  0  0
   21.0125   20.2092   27.4400 H   0  0  0  0  0  0  0  0  0  0  0  0
   22.5663   19.4936   26.9552 H   0  0  0  0  0  0  0  0  0  0  0  0
   22.4452   21.2395   27.2506 H   0  0  0  0  0  0  0  0  0  0  0  0
   21.5604   20.6031   25.3543 C   0  0  0  0  0  0  0  0  0  0  0  0
   22.4804   20.7950   24.7845 H   0  0  0  0  0  0  0  0  0  0  0  0
   20.9386   21.5050   25.2656 H   0  0  0  0  0  0  0  0  0  0  0  0
   20.8145   19.3936   24.7485 C   0  0  0  0  0  0  0  0  0  0  0  0
   21.4389   18.4942   24.8416 H   0  0  0  0  0  0  0  0  0  0  0  0
   19.8970   19.2042   25.3229 H   0  0  0  0  0  0  0  0  0  0  0  0
   20.4564   19.6227   23.2627 C   0  0  0  0  0  0  0  0  0  0  0  0
   21.3745   19.8132   22.6897 H   0  0  0  0  0  0  0  0  0  0  0  0
   19.8317   20.5220   23.1705 H   0  0  0  0  0  0  0  0  0  0  0  0
   19.7108   18.4122   22.6568 C   0  0  0  0  0  0  0  0  0  0  0  0
   20.3369   17.5135   22.7464 H   0  0  0  0  0  0  0  0  0  0  0  0
   18.7971   18.2234   23.2361 H   0  0  0  0  0  0  0  0  0  0  0  0
   19.3525   18.6440   21.1698 C   0  0  0  0  0  0  0  0  0  0  0  0
   20.2676   18.8686   20.6059 H   0  0  0  0  0  0  0  0  0  0  0  0
   18.7007   19.5224   21.0720 H   0  0  0  0  0  0  0  0  0  0  0  0
   18.6698   17.4226   20.5244 C   0  0  0  0  0  0  0  0  0  0  0  0
   18.5180   17.6132   19.4585 H   0  0  0  0  0  0  0  0  0  0  0  0
   19.3139   16.5448   20.6254 H   0  0  0  0  0  0  0  0  0  0  0  0
   17.3200   17.0878   21.1282 N   0  3  0  0  0  0  0  0  0  0  0  0
   16.6608   17.8684   21.0435 H   0  0  0  0  0  0  0  0  0  0  0  0
   17.3953   16.8612   22.1246 H   0  0  0  0  0  0  0  0  0  0  0  0
   16.8873   16.2793   20.6684 H   0  0  0  0  0  0  0  0  0  0  0  0
  1  2  1  0  0  0  0
  1  3  1  0  0  0  0
  1  4  1  0  0  0  0
  1  5  1  0  0  0  0
  5  6  1  0  0  0  0
  5  7  1  0  0  0  0
  5  8  1  0  0  0  0
  8  9  1  0  0  0  0
  8 10  1  0  0  0  0
  8 11  1  0  0  0  0
 11 12  1  0  0  0  0
 11 13  1  0  0  0  0
 11 14  1  0  0  0  0
 14 15  1  0  0  0  0
 14 16  1  0  0  0  0
 14 17  1  0  0  0  0
 17 18  1  0  0  0  0
 17 19  1  0  0  0  0
 17 20  1  0  0  0  0
 20 21  1  0  0  0  0
 20 22  1  0  0  0  0
 20 23  1  0  0  0  0
 23 24  1  0  0  0  0
 23 25  1  0  0  0  0
 23 26  1  0  0  0  0
M  END
> <VConfSearch Rank>
183

> <Conf_Id>
19

> <Delta U+W>
0.162

> <U+W>
-5.391

> <U>
47.845

> <W>
-53.235

> <W(PB)>
-55.585

> <W(SA)>
2.349

> <Valence>
2.258

> <Coulomb>
44.893

> <VdW>
0.694

> <VdW6>
-6.285

> <VdW12>
6.979

> <Bond>
0.149

> <Angle>
0.434

> <Pdih>
1.675

> <Idih>
0.000

> <Tether>
0.000

$$$$
VeraChem MOL file


 26 25  0  0  0  0  0  0  0  0999 V2000     
   23.9588   17.5077   23.3928 C   0  0  0  0  0  0  0  0  0  0  0  0
   24.6226   17.9016   22.6121 H   0  0  0  0  0  0  0  0  0  0  0  0
   24.2380   17.9742   24.3465 H   0  0  0  0  0  0  0  0  0  0  0  0
   24.1431   16.4290   23.4785 H   0  0  0  0  0  0  0  0  0  0  0  0
   22.4783   17.7824   23.0537 C   0  0  0  0  0  0  0  0  0  0  0  0
   21.8463   17.3388   23.8344 H   0  0  0  0  0  0  0  0  0  0  0  0
   22.2213   17.2794   22.1110 H   0  0  0  0  0  0  0  0  0  0  0  0
   22.1932   19.2981   22.9319 C   0  0  0  0  0  0  0  0  0  0  0  0
   22.4002   19.7923   23.8912 H   0  0  0  0  0  0  0  0  0  0  0  0
   22.8908   19.7347   22.2039 H   0  0  0  0  0  0  0  0  0  0  0  0
   20.7477   19.6232   22.4816 C   0  0  0  0  0  0  0  0  0  0  0  0
   20.5468   19.1413   21.5148 H   0  0  0  0  0  0  0  0  0  0  0  0
   20.6735   20.7056   22.3077 H   0  0  0  0  0  0  0  0  0  0  0  0
   19.6696   19.2030   23.5095 C   0  0  0  0  0  0  0  0  0  0  0  0
   19.6782   18.1127   23.6386 H   0  0  0  0  0  0  0  0  0  0  0  0
   19.9041   19.6428   24.4889 H   0  0  0  0  0  0  0  0  0  0  0  0
   18.2563   19.6467   23.0718 C   0  0  0  0  0  0  0  0  0  0  0  0
   18.0177   19.2081   22.0937 H   0  0  0  0  0  0  0  0  0  0  0  0
   18.2314   20.7379   22.9508 H   0  0  0  0  0  0  0  0  0  0  0  0
   17.1901   19.2219   24.0969 C   0  0  0  0  0  0  0  0  0  0  0  0
   17.1994   18.1343   24.2087 H   0  0  0  0  0  0  0  0  0  0  0  0
   17.4148   19.6696   25.0688 H   0  0  0  0  0  0  0  0  0  0  0  0
   15.7881   19.6394   23.7026 N   0  3  0  0  0  0  0  0  0  0  0  0
   15.5044   19.2283   22.8072 H   0  0  0  0  0  0  0  0  0  0  0  0
   15.7048   20.6569   23.6075 H   0  0  0  0  0  0  0  0  0  0  0  0
   15.0935   19.3469   24.3987 H   0  0  0  0  0  0  0  0  0  0  0  0
  1  2  1  0  0  0  0
  1  3  1  0  0  0  0
  1  4  1  0  0  0  0
  1  5  1  0  0  0  0
  5  6  1  0  0  0  0
  5  7  1  0  0  0  0
  5  8  1  0  0  0  0
  8  9  1  0  0  0  0
  8 10  1  0  0  0  0
  8 11  1  0  0  0  0
 11 12  1  0  0  0  0
 11 13  1  0  0  0  0
 11 14  1  0  0  0  0
 14 15  1  0  0  0  0
 14 16  1  0  0  0  0
 14 17  1  0  0  0  0
 17 18  1  0  0  0  0
 17 19  1  0  0  0  0
 17 20  1  0  0  0  0
 20 21  1  0  0  0  0
 20 22  1  0  0  0  0
 20 23  1  0  0  0  0
 23 24  1  0  0  0  0
 23 25  1  0  0  0  0
 23 26  1  0  0  0  0
M  END
> <VConfSearch Rank>
184

> <Conf_Id>
37

> <Delta U+W>
0.565

> <U+W>
-4.988

> <U>
48.035

> <W>
-53.022

> <W(PB)>
-55.379

> <W(SA)>
2.357

> <Valence>
2.701

> <Coulomb>
44.622

> <VdW>
0.712

> <VdW6>
-6.418

> <VdW12>
7.129

> <Bond>
0.168

> <Angle>
0.659

> <Pdih>
1.875

> <Idih>
0.000

> <Tether>
0.000

$$$$
VeraChem MOL file


 26 25  0  0  0  0  0  0  0  0999 V2000     
   22.2048   16.6744   20.7894 C   0  0  0  0  0  0  0  0  0  0  0  0
   22.7594   17.6184   20.7096 H   0  0  0  0  0  0  0  0  0  0  0  0
   22.6620   16.0755   21.5878 H   0  0  0  0  0  0  0  0  0  0  0  0
   22.3305   16.1290   19.8450 H   0  0  0  0  0  0  0  0  0  0  0  0
   20.7100   16.9314   21.0754 C   0  0  0  0  0  0  0  0  0  0  0  0
   20.1765   15.9713   21.1147 H   0  0  0  0  0  0  0  0  0  0  0  0
   20.2729   17.5033   20.2448 H   0  0  0  0  0  0  0  0  0  0  0  0
   20.5045   17.6978   22.4009 C   0  0  0  0  0  0  0  0  0  0  0  0
   20.9412   17.1213   23.2281 H   0  0  0  0  0  0  0  0  0  0  0  0
   21.0495   18.6494   22.3517 H   0  0  0  0  0  0  0  0  0  0  0  0
   19.0061   17.9595   22.6864 C   0  0  0  0  0  0  0  0  0  0  0  0
   18.4641   17.0042   22.6548 H   0  0  0  0  0  0  0  0  0  0  0  0
   18.5797   18.5822   21.8878 H   0  0  0  0  0  0  0  0  0  0  0  0
   18.7441   18.6259   24.0595 C   0  0  0  0  0  0  0  0  0  0  0  0
   17.6585   18.6660   24.2256 H   0  0  0  0  0  0  0  0  0  0  0  0
   19.1550   17.9947   24.8597 H   0  0  0  0  0  0  0  0  0  0  0  0
   19.3222   20.0559   24.1745 C   0  0  0  0  0  0  0  0  0  0  0  0
   18.9510   20.6728   23.3453 H   0  0  0  0  0  0  0  0  0  0  0  0
   20.4162   20.0293   24.0945 H   0  0  0  0  0  0  0  0  0  0  0  0
   18.9342   20.7107   25.5119 C   0  0  0  0  0  0  0  0  0  0  0  0
   17.8451   20.7601   25.5954 H   0  0  0  0  0  0  0  0  0  0  0  0
   19.3157   20.1084   26.3409 H   0  0  0  0  0  0  0  0  0  0  0  0
   19.4789   22.1161   25.6653 N   0  3  0  0  0  0  0  0  0  0  0  0
   19.1349   22.7417   24.9295 H   0  0  0  0  0  0  0  0  0  0  0  0
   20.5032   22.1358   25.6240 H   0  0  0  0  0  0  0  0  0  0  0  0
   19.2083   22.5336   26.5625 H   0  0  0  0  0  0  0  0  0  0  0  0
  1  2  1  0  0  0  0
  1  3  1  0  0  0  0
  1  4  1  0  0  0  0
  1  5  1  0  0  0  0
  5  6  1  0  0  0  0
  5  7  1  0  0  0  0
  5  8  1  0  0  0  0
  8  9  1  0  0  0  0
  8 10  1  0  0  0  0
  8 11  1  0  0  0  0
 11 12  1  0  0  0  0
 11 13  1  0  0  0  0
 11 14  1  0  0  0  0
 14 15  1  0  0  0  0
 14 16  1  0  0  0  0
 14 17  1  0  0  0  0
 17 18  1  0  0  0  0
 17 19  1  0  0  0  0
 17 20  1  0  0  0  0
 20 21  1  0  0  0  0
 20 22  1  0  0  0  0
 20 23  1  0  0  0  0
 23 24  1  0  0  0  0
 23 25  1  0  0  0  0
 23 26  1  0  0  0  0
M  END
> <VConfSearch Rank>
185

> <Conf_Id>
35

> <Delta U+W>
0.587

> <U+W>
-4.965

> <U>
48.214

> <W>
-53.179

> <W(PB)>
-55.527

> <W(SA)>
2.348

> <Valence>
2.697

> <Coulomb>
44.819

> <VdW>
0.699

> <VdW6>
-6.437

> <VdW12>
7.136

> <Bond>
0.168

> <Angle>
0.657

> <Pdih>
1.872

> <Idih>
0.000

> <Tether>
0.000

$$$$
VeraChem MOL file


 26 25  0  0  0  0  0  0  0  0999 V2000     
   18.7140   17.4789   19.8020 C   0  0  0  0  0  0  0  0  0  0  0  0
   19.5802   17.8136   19.2164 H   0  0  0  0  0  0  0  0  0  0  0  0
   18.9757   16.5300   20.2881 H   0  0  0  0  0  0  0  0  0  0  0  0
   17.8902   17.2836   19.1033 H   0  0  0  0  0  0  0  0  0  0  0  0
   18.3045   18.5417   20.8437 C   0  0  0  0  0  0  0  0  0  0  0  0
   17.4168   18.1936   21.3902 H   0  0  0  0  0  0  0  0  0  0  0  0
   18.0154   19.4668   20.3256 H   0  0  0  0  0  0  0  0  0  0  0  0
   19.4476   18.8365   21.8401 C   0  0  0  0  0  0  0  0  0  0  0  0
   19.7326   17.9034   22.3434 H   0  0  0  0  0  0  0  0  0  0  0  0
   20.3318   19.1859   21.2894 H   0  0  0  0  0  0  0  0  0  0  0  0
   19.0365   19.8991   22.8876 C   0  0  0  0  0  0  0  0  0  0  0  0
   18.1860   19.5293   23.4768 H   0  0  0  0  0  0  0  0  0  0  0  0
   18.6813   20.7978   22.3644 H   0  0  0  0  0  0  0  0  0  0  0  0
   20.1875   20.3092   23.8389 C   0  0  0  0  0  0  0  0  0  0  0  0
   21.0316   20.6954   23.2508 H   0  0  0  0  0  0  0  0  0  0  0  0
   19.8412   21.1432   24.4652 H   0  0  0  0  0  0  0  0  0  0  0  0
   20.6724   19.1614   24.7555 C   0  0  0  0  0  0  0  0  0  0  0  0
   21.0998   18.3505   24.1524 H   0  0  0  0  0  0  0  0  0  0  0  0
   19.8196   18.7421   25.3057 H   0  0  0  0  0  0  0  0  0  0  0  0
   21.7333   19.6539   25.7555 C   0  0  0  0  0  0  0  0  0  0  0  0
   22.5919   20.0577   25.2122 H   0  0  0  0  0  0  0  0  0  0  0  0
   21.3130   20.4503   26.3757 H   0  0  0  0  0  0  0  0  0  0  0  0
   22.2347   18.5600   26.6761 N   0  3  0  0  0  0  0  0  0  0  0  0
   22.6683   17.7907   26.1550 H   0  0  0  0  0  0  0  0  0  0  0  0
   21.4777   18.1558   27.2372 H   0  0  0  0  0  0  0  0  0  0  0  0
   22.9399   18.9095   27.3340 H   0  0  0  0  0  0  0  0  0  0  0  0
  1  2  1  0  0  0  0
  1  3  1  0  0  0  0
  1  4  1  0  0  0  0
  1  5  1  0  0  0  0
  5  6  1  0  0  0  0
  5  7  1  0  0  0  0
  5  8  1  0  0  0  0
  8  9  1  0  0  0  0
  8 10  1  0  0  0  0
  8 11  1  0  0  0  0
 11 12  1  0  0  0  0
 11 13  1  0  0  0  0
 11 14  1  0  0  0  0
 14 15  1  0  0  0  0
 14 16  1  0  0  0  0
 14 17  1  0  0  0  0
 17 18  1  0  0  0  0
 17 19  1  0  0  0  0
 17 20  1  0  0  0  0
 20 21  1  0  0  0  0
 20 22  1  0  0  0  0
 20 23  1  0  0  0  0
 23 24  1  0  0  0  0
 23 25  1  0  0  0  0
 23 26  1  0  0  0  0
M  END
> <VConfSearch Rank>
186

> <Conf_Id>
36

> <Delta U+W>
0.565

> <U+W>
-4.987

> <U>
48.214

> <W>
-53.201

> <W(PB)>
-55.543

> <W(SA)>
2.342

> <Valence>
2.697

> <Coulomb>
44.819

> <VdW>
0.698

> <VdW6>
-6.437

> <VdW12>
7.136

> <Bond>
0.168

> <Angle>
0.657

> <Pdih>
1.872

> <Idih>
0.000

> <Tether>
0.000

$$$$
VeraChem MOL file


 26 25  0  0  0  0  0  0  0  0999 V2000     
   16.8041   20.3844   25.7473 C   0  0  0  0  0  0  0  0  0  0  0  0
   17.2551   20.3646   26.7481 H   0  0  0  0  0  0  0  0  0  0  0  0
   16.1655   21.2749   25.6830 H   0  0  0  0  0  0  0  0  0  0  0  0
   16.1612   19.5004   25.6445 H   0  0  0  0  0  0  0  0  0  0  0  0
   17.8894   20.4117   24.6502 C   0  0  0  0  0  0  0  0  0  0  0  0
   18.4942   21.3229   24.7584 H   0  0  0  0  0  0  0  0  0  0  0  0
   17.4087   20.4655   23.6633 H   0  0  0  0  0  0  0  0  0  0  0  0
   18.8032   19.1680   24.7184 C   0  0  0  0  0  0  0  0  0  0  0  0
   19.2789   19.1173   25.7076 H   0  0  0  0  0  0  0  0  0  0  0  0
   18.1941   18.2597   24.6118 H   0  0  0  0  0  0  0  0  0  0  0  0
   19.8916   19.1918   23.6215 C   0  0  0  0  0  0  0  0  0  0  0  0
   20.5015   20.0992   23.7308 H   0  0  0  0  0  0  0  0  0  0  0  0
   19.4092   19.2488   22.6365 H   0  0  0  0  0  0  0  0  0  0  0  0
   20.8045   17.9441   23.6915 C   0  0  0  0  0  0  0  0  0  0  0  0
   21.2418   17.8725   24.6970 H   0  0  0  0  0  0  0  0  0  0  0  0
   20.2027   17.0357   23.5492 H   0  0  0  0  0  0  0  0  0  0  0  0
   21.9507   17.9712   22.6532 C   0  0  0  0  0  0  0  0  0  0  0  0
   22.6036   17.1042   22.8206 H   0  0  0  0  0  0  0  0  0  0  0  0
   22.5690   18.8653   22.8092 H   0  0  0  0  0  0  0  0  0  0  0  0
   21.4388   17.9424   21.2008 C   0  0  0  0  0  0  0  0  0  0  0  0
   20.8241   17.0518   21.0450 H   0  0  0  0  0  0  0  0  0  0  0  0
   20.8228   18.8244   21.0076 H   0  0  0  0  0  0  0  0  0  0  0  0
   22.5568   17.9239   20.1785 N   0  3  0  0  0  0  0  0  0  0  0  0
   22.1953   17.9048   19.2187 H   0  0  0  0  0  0  0  0  0  0  0  0
   23.1597   17.1016   20.2865 H   0  0  0  0  0  0  0  0  0  0  0  0
   23.1580   18.7509   20.2546 H   0  0  0  0  0  0  0  0  0  0  0  0
  1  2  1  0  0  0  0
  1  3  1  0  0  0  0
  1  4  1  0  0  0  0
  1  5  1  0  0  0  0
  5  6  1  0  0  0  0
  5  7  1  0  0  0  0
  5  8  1  0  0  0  0
  8  9  1  0  0  0  0
  8 10  1  0  0  0  0
  8 11  1  0  0  0  0
 11 12  1  0  0  0  0
 11 13  1  0  0  0  0
 11 14  1  0  0  0  0
 14 15  1  0  0  0  0
 14 16  1  0  0  0  0
 14 17  1  0  0  0  0
 17 18  1  0  0  0  0
 17 19  1  0  0  0  0
 17 20  1  0  0  0  0
 20 21  1  0  0  0  0
 20 22  1  0  0  0  0
 20 23  1  0  0  0  0
 23 24  1  0  0  0  0
 23 25  1  0  0  0  0
 23 26  1  0  0  0  0
M  END
> <VConfSearch Rank>
187

> <Conf_Id>
44

> <Delta U+W>
0.371

> <U+W>
-5.181

> <U>
48.002

> <W>
-53.183

> <W(PB)>
-55.533

> <W(SA)>
2.350

> <Valence>
2.459

> <Coulomb>
44.901

> <VdW>
0.643

> <VdW6>
-6.362

> <VdW12>
7.005

> <Bond>
0.151

> <Angle>
0.519

> <Pdih>
1.789

> <Idih>
0.000

> <Tether>
0.000

$$$$
VeraChem MOL file


 26 25  0  0  0  0  0  0  0  0999 V2000     
   17.7526   20.9856   25.7436 C   0  0  0  0  0  0  0  0  0  0  0  0
   17.5591   20.1279   26.4009 H   0  0  0  0  0  0  0  0  0  0  0  0
   17.4242   21.8916   26.2692 H   0  0  0  0  0  0  0  0  0  0  0  0
   17.1283   20.8808   24.8479 H   0  0  0  0  0  0  0  0  0  0  0  0
   19.2528   21.0834   25.3843 C   0  0  0  0  0  0  0  0  0  0  0  0
   19.8189   21.3162   26.2971 H   0  0  0  0  0  0  0  0  0  0  0  0
   19.4152   21.9269   24.6988 H   0  0  0  0  0  0  0  0  0  0  0  0
   19.8262   19.7862   24.7638 C   0  0  0  0  0  0  0  0  0  0  0  0
   20.9132   19.9066   24.6744 H   0  0  0  0  0  0  0  0  0  0  0  0
   19.6625   18.9468   25.4536 H   0  0  0  0  0  0  0  0  0  0  0  0
   19.2247   19.4483   23.3757 C   0  0  0  0  0  0  0  0  0  0  0  0
   19.3916   20.2858   22.6846 H   0  0  0  0  0  0  0  0  0  0  0  0
   18.1367   19.3367   23.4684 H   0  0  0  0  0  0  0  0  0  0  0  0
   19.7859   18.1443   22.7563 C   0  0  0  0  0  0  0  0  0  0  0  0
   19.6316   17.3095   23.4539 H   0  0  0  0  0  0  0  0  0  0  0  0
   19.1944   17.9111   21.8612 H   0  0  0  0  0  0  0  0  0  0  0  0
   21.2842   18.2336   22.3708 C   0  0  0  0  0  0  0  0  0  0  0  0
   21.8894   18.4194   23.2664 H   0  0  0  0  0  0  0  0  0  0  0  0
   21.4497   19.0844   21.6966 H   0  0  0  0  0  0  0  0  0  0  0  0
   21.8044   16.9436   21.7073 C   0  0  0  0  0  0  0  0  0  0  0  0
   22.8830   17.0279   21.5488 H   0  0  0  0  0  0  0  0  0  0  0  0
   21.6226   16.0910   22.3672 H   0  0  0  0  0  0  0  0  0  0  0  0
   21.1662   16.6450   20.3647 N   0  3  0  0  0  0  0  0  0  0  0  0
   20.1531   16.5155   20.4458 H   0  0  0  0  0  0  0  0  0  0  0  0
   21.5455   15.7892   19.9450 H   0  0  0  0  0  0  0  0  0  0  0  0
   21.3222   17.4028   19.6920 H   0  0  0  0  0  0  0  0  0  0  0  0
  1  2  1  0  0  0  0
  1  3  1  0  0  0  0
  1  4  1  0  0  0  0
  1  5  1  0  0  0  0
  5  6  1  0  0  0  0
  5  7  1  0  0  0  0
  5  8  1  0  0  0  0
  8  9  1  0  0  0  0
  8 10  1  0  0  0  0
  8 11  1  0  0  0  0
 11 12  1  0  0  0  0
 11 13  1  0  0  0  0
 11 14  1  0  0  0  0
 14 15  1  0  0  0  0
 14 16  1  0  0  0  0
 14 17  1  0  0  0  0
 17 18  1  0  0  0  0
 17 19  1  0  0  0  0
 17 20  1  0  0  0  0
 20 21  1  0  0  0  0
 20 22  1  0  0  0  0
 20 23  1  0  0  0  0
 23 24  1  0  0  0  0
 23 25  1  0  0  0  0
 23 26  1  0  0  0  0
M  END
> <VConfSearch Rank>
188

> <Conf_Id>
112

> <Delta U+W>
1.422

> <U+W>
-4.130

> <U>
49.323

> <W>
-53.453

> <W(PB)>
-55.749

> <W(SA)>
2.296

> <Valence>
3.408

> <Coulomb>
44.893

> <VdW>
1.021

> <VdW6>
-7.481

> <VdW12>
8.503

> <Bond>
0.239

> <Angle>
1.013

> <Pdih>
2.156

> <Idih>
0.000

> <Tether>
0.000

$$$$
VeraChem MOL file


 26 25  0  0  0  0  0  0  0  0999 V2000     
   18.8455   16.9841   26.2667 C   0  0  0  0  0  0  0  0  0  0  0  0
   18.2938   16.5439   27.1074 H   0  0  0  0  0  0  0  0  0  0  0  0
   18.7522   16.2983   25.4156 H   0  0  0  0  0  0  0  0  0  0  0  0
   19.9044   17.0378   26.5512 H   0  0  0  0  0  0  0  0  0  0  0  0
   18.2890   18.3859   25.9293 C   0  0  0  0  0  0  0  0  0  0  0  0
   18.2961   18.9994   26.8411 H   0  0  0  0  0  0  0  0  0  0  0  0
   17.2368   18.3020   25.6236 H   0  0  0  0  0  0  0  0  0  0  0  0
   19.0969   19.1183   24.8308 C   0  0  0  0  0  0  0  0  0  0  0  0
   18.6989   20.1369   24.7253 H   0  0  0  0  0  0  0  0  0  0  0  0
   20.1380   19.2234   25.1627 H   0  0  0  0  0  0  0  0  0  0  0  0
   19.0442   18.4078   23.4545 C   0  0  0  0  0  0  0  0  0  0  0  0
   17.9962   18.1957   23.2021 H   0  0  0  0  0  0  0  0  0  0  0  0
   19.5517   17.4358   23.5126 H   0  0  0  0  0  0  0  0  0  0  0  0
   19.6667   19.2388   22.3056 C   0  0  0  0  0  0  0  0  0  0  0  0
   19.4749   18.7132   21.3609 H   0  0  0  0  0  0  0  0  0  0  0  0
   19.1516   20.2066   22.2304 H   0  0  0  0  0  0  0  0  0  0  0  0
   21.1903   19.4699   22.4663 C   0  0  0  0  0  0  0  0  0  0  0  0
   21.7088   18.5072   22.5666 H   0  0  0  0  0  0  0  0  0  0  0  0
   21.3859   20.0301   23.3891 H   0  0  0  0  0  0  0  0  0  0  0  0
   21.7983   20.2614   21.2922 C   0  0  0  0  0  0  0  0  0  0  0  0
   21.2718   21.2128   21.1778 H   0  0  0  0  0  0  0  0  0  0  0  0
   22.8487   20.4768   21.5064 H   0  0  0  0  0  0  0  0  0  0  0  0
   21.7419   19.5291   19.9658 N   0  3  0  0  0  0  0  0  0  0  0  0
   20.7777   19.3278   19.6835 H   0  0  0  0  0  0  0  0  0  0  0  0
   22.2401   18.6340   20.0036 H   0  0  0  0  0  0  0  0  0  0  0  0
   22.1674   20.0771   19.2101 H   0  0  0  0  0  0  0  0  0  0  0  0
  1  2  1  0  0  0  0
  1  3  1  0  0  0  0
  1  4  1  0  0  0  0
  1  5  1  0  0  0  0
  5  6  1  0  0  0  0
  5  7  1  0  0  0  0
  5  8  1  0  0  0  0
  8  9  1  0  0  0  0
  8 10  1  0  0  0  0
  8 11  1  0  0  0  0
 11 12  1  0  0  0  0
 11 13  1  0  0  0  0
 11 14  1  0  0  0  0
 14 15  1  0  0  0  0
 14 16  1  0  0  0  0
 14 17  1  0  0  0  0
 17 18  1  0  0  0  0
 17 19  1  0  0  0  0
 17 20  1  0  0  0  0
 20 21  1  0  0  0  0
 20 22  1  0  0  0  0
 20 23  1  0  0  0  0
 23 24  1  0  0  0  0
 23 25  1  0  0  0  0
 23 26  1  0  0  0  0
M  END
> <VConfSearch Rank>
189

> <Conf_Id>
130

> <Delta U+W>
1.282

> <U+W>
-4.270

> <U>
49.153

> <W>
-53.422

> <W(PB)>
-55.725

> <W(SA)>
2.303

> <Valence>
3.298

> <Coulomb>
44.907

> <VdW>
0.948

> <VdW6>
-7.574

> <VdW12>
8.522

> <Bond>
0.229

> <Angle>
0.912

> <Pdih>
2.157

> <Idih>
0.000

> <Tether>
0.000

$$$$
VeraChem MOL file


 26 25  0  0  0  0  0  0  0  0999 V2000     
   20.9806   18.9546   26.6221 C   0  0  0  0  0  0  0  0  0  0  0  0
   20.1693   19.4262   27.1918 H   0  0  0  0  0  0  0  0  0  0  0  0
   21.8159   18.7761   27.3115 H   0  0  0  0  0  0  0  0  0  0  0  0
   21.3262   19.6660   25.8617 H   0  0  0  0  0  0  0  0  0  0  0  0
   20.5123   17.6274   25.9839 C   0  0  0  0  0  0  0  0  0  0  0  0
   20.2915   16.9085   26.7852 H   0  0  0  0  0  0  0  0  0  0  0  0
   21.3328   17.1852   25.4033 H   0  0  0  0  0  0  0  0  0  0  0  0
   19.2493   17.7804   25.0981 C   0  0  0  0  0  0  0  0  0  0  0  0
   18.9703   16.7926   24.7062 H   0  0  0  0  0  0  0  0  0  0  0  0
   18.4102   18.0998   25.7314 H   0  0  0  0  0  0  0  0  0  0  0  0
   19.3823   18.7731   23.9141 C   0  0  0  0  0  0  0  0  0  0  0  0
   19.5578   19.7879   24.2949 H   0  0  0  0  0  0  0  0  0  0  0  0
   18.4160   18.8090   23.3943 H   0  0  0  0  0  0  0  0  0  0  0  0
   20.4971   18.3906   22.9077 C   0  0  0  0  0  0  0  0  0  0  0  0
   21.4681   18.3838   23.4198 H   0  0  0  0  0  0  0  0  0  0  0  0
   20.3306   17.3688   22.5396 H   0  0  0  0  0  0  0  0  0  0  0  0
   20.5910   19.3628   21.7081 C   0  0  0  0  0  0  0  0  0  0  0  0
   21.4640   19.0926   21.0992 H   0  0  0  0  0  0  0  0  0  0  0  0
   20.7663   20.3836   22.0732 H   0  0  0  0  0  0  0  0  0  0  0  0
   19.3332   19.3384   20.8195 C   0  0  0  0  0  0  0  0  0  0  0  0
   19.1584   18.3217   20.4573 H   0  0  0  0  0  0  0  0  0  0  0  0
   18.4622   19.6517   21.4007 H   0  0  0  0  0  0  0  0  0  0  0  0
   19.4405   20.2518   19.6155 N   0  3  0  0  0  0  0  0  0  0  0  0
   19.5796   21.2300   19.8891 H   0  0  0  0  0  0  0  0  0  0  0  0
   18.5938   20.2210   19.0371 H   0  0  0  0  0  0  0  0  0  0  0  0
   20.2256   19.9935   19.0088 H   0  0  0  0  0  0  0  0  0  0  0  0
  1  2  1  0  0  0  0
  1  3  1  0  0  0  0
  1  4  1  0  0  0  0
  1  5  1  0  0  0  0
  5  6  1  0  0  0  0
  5  7  1  0  0  0  0
  5  8  1  0  0  0  0
  8  9  1  0  0  0  0
  8 10  1  0  0  0  0
  8 11  1  0  0  0  0
 11 12  1  0  0  0  0
 11 13  1  0  0  0  0
 11 14  1  0  0  0  0
 14 15  1  0  0  0  0
 14 16  1  0  0  0  0
 14 17  1  0  0  0  0
 17 18  1  0  0  0  0
 17 19  1  0  0  0  0
 17 20  1  0  0  0  0
 20 21  1  0  0  0  0
 20 22  1  0  0  0  0
 20 23  1  0  0  0  0
 23 24  1  0  0  0  0
 23 25  1  0  0  0  0
 23 26  1  0  0  0  0
M  END
> <VConfSearch Rank>
190

> <Conf_Id>
111

> <Delta U+W>
1.290

> <U+W>
-4.262

> <U>
49.209

> <W>
-53.471

> <W(PB)>
-55.745

> <W(SA)>
2.274

> <Valence>
3.465

> <Coulomb>
44.958

> <VdW>
0.786

> <VdW6>
-7.903

> <VdW12>
8.689

> <Bond>
0.237

> <Angle>
1.212

> <Pdih>
2.015

> <Idih>
0.000

> <Tether>
0.000

$$$$
VeraChem MOL file


 26 25  0  0  0  0  0  0  0  0999 V2000     
   16.9402   21.5101   23.9054 C   0  0  0  0  0  0  0  0  0  0  0  0
   16.2488   20.6913   24.1438 H   0  0  0  0  0  0  0  0  0  0  0  0
   17.0042   22.1694   24.7808 H   0  0  0  0  0  0  0  0  0  0  0  0
   16.5058   22.0883   23.0796 H   0  0  0  0  0  0  0  0  0  0  0  0
   18.3312   20.9658   23.5170 C   0  0  0  0  0  0  0  0  0  0  0  0
   18.9908   21.8052   23.2559 H   0  0  0  0  0  0  0  0  0  0  0  0
   18.2320   20.3461   22.6159 H   0  0  0  0  0  0  0  0  0  0  0  0
   18.9622   20.1429   24.6650 C   0  0  0  0  0  0  0  0  0  0  0  0
   18.9780   20.7563   25.5765 H   0  0  0  0  0  0  0  0  0  0  0  0
   18.3284   19.2740   24.8897 H   0  0  0  0  0  0  0  0  0  0  0  0
   20.4063   19.6695   24.3679 C   0  0  0  0  0  0  0  0  0  0  0  0
   20.8116   19.2004   25.2752 H   0  0  0  0  0  0  0  0  0  0  0  0
   21.0431   20.5406   24.1606 H   0  0  0  0  0  0  0  0  0  0  0  0
   20.4992   18.6627   23.1961 C   0  0  0  0  0  0  0  0  0  0  0  0
   19.8142   17.8252   23.3838 H   0  0  0  0  0  0  0  0  0  0  0  0
   20.1728   19.1416   22.2636 H   0  0  0  0  0  0  0  0  0  0  0  0
   21.9406   18.1317   23.0117 C   0  0  0  0  0  0  0  0  0  0  0  0
   22.2715   17.6152   23.9226 H   0  0  0  0  0  0  0  0  0  0  0  0
   22.6240   18.9789   22.8660 H   0  0  0  0  0  0  0  0  0  0  0  0
   22.0758   17.1830   21.8051 C   0  0  0  0  0  0  0  0  0  0  0  0
   21.7422   17.6924   20.8970 H   0  0  0  0  0  0  0  0  0  0  0  0
   23.1262   16.9084   21.6757 H   0  0  0  0  0  0  0  0  0  0  0  0
   21.2793   15.9005   21.9449 N   0  3  0  0  0  0  0  0  0  0  0  0
   21.4008   15.2865   21.1322 H   0  0  0  0  0  0  0  0  0  0  0  0
   20.2753   16.0849   22.0341 H   0  0  0  0  0  0  0  0  0  0  0  0
   21.5638   15.3638   22.7707 H   0  0  0  0  0  0  0  0  0  0  0  0
  1  2  1  0  0  0  0
  1  3  1  0  0  0  0
  1  4  1  0  0  0  0
  1  5  1  0  0  0  0
  5  6  1  0  0  0  0
  5  7  1  0  0  0  0
  5  8  1  0  0  0  0
  8  9  1  0  0  0  0
  8 10  1  0  0  0  0
  8 11  1  0  0  0  0
 11 12  1  0  0  0  0
 11 13  1  0  0  0  0
 11 14  1  0  0  0  0
 14 15  1  0  0  0  0
 14 16  1  0  0  0  0
 14 17  1  0  0  0  0
 17 18  1  0  0  0  0
 17 19  1  0  0  0  0
 17 20  1  0  0  0  0
 20 21  1  0  0  0  0
 20 22  1  0  0  0  0
 20 23  1  0  0  0  0
 23 24  1  0  0  0  0
 23 25  1  0  0  0  0
 23 26  1  0  0  0  0
M  END
> <VConfSearch Rank>
191

> <Conf_Id>
105

> <Delta U+W>
0.736

> <U+W>
-4.817

> <U>
48.735

> <W>
-53.552

> <W(PB)>
-55.889

> <W(SA)>
2.337

> <Valence>
2.803

> <Coulomb>
45.123

> <VdW>
0.809

> <VdW6>
-6.953

> <VdW12>
7.761

> <Bond>
0.188

> <Angle>
0.699

> <Pdih>
1.917

> <Idih>
0.000

> <Tether>
0.000

$$$$
VeraChem MOL file


 26 25  0  0  0  0  0  0  0  0999 V2000     
   23.2321   20.7736   22.8610 C   0  0  0  0  0  0  0  0  0  0  0  0
   23.4656   21.3039   21.9286 H   0  0  0  0  0  0  0  0  0  0  0  0
   22.8522   21.5061   23.5852 H   0  0  0  0  0  0  0  0  0  0  0  0
   24.1691   20.3620   23.2579 H   0  0  0  0  0  0  0  0  0  0  0  0
   22.2029   19.6494   22.6179 C   0  0  0  0  0  0  0  0  0  0  0  0
   22.0261   19.1182   23.5626 H   0  0  0  0  0  0  0  0  0  0  0  0
   22.6219   18.9174   21.9135 H   0  0  0  0  0  0  0  0  0  0  0  0
   20.8711   20.2059   22.0619 C   0  0  0  0  0  0  0  0  0  0  0  0
   20.4308   20.9064   22.7836 H   0  0  0  0  0  0  0  0  0  0  0  0
   21.0811   20.7973   21.1600 H   0  0  0  0  0  0  0  0  0  0  0  0
   19.8428   19.1052   21.6931 C   0  0  0  0  0  0  0  0  0  0  0  0
   20.2547   18.4942   20.8781 H   0  0  0  0  0  0  0  0  0  0  0  0
   18.9443   19.5860   21.2822 H   0  0  0  0  0  0  0  0  0  0  0  0
   19.4234   18.1665   22.8542 C   0  0  0  0  0  0  0  0  0  0  0  0
   18.7113   17.4323   22.4551 H   0  0  0  0  0  0  0  0  0  0  0  0
   20.2898   17.5878   23.2010 H   0  0  0  0  0  0  0  0  0  0  0  0
   18.7786   18.9106   24.0503 C   0  0  0  0  0  0  0  0  0  0  0  0
   17.9231   19.5068   23.7062 H   0  0  0  0  0  0  0  0  0  0  0  0
   19.5008   19.6153   24.4812 H   0  0  0  0  0  0  0  0  0  0  0  0
   18.3230   17.9543   25.1694 C   0  0  0  0  0  0  0  0  0  0  0  0
   19.1688   17.3459   25.5008 H   0  0  0  0  0  0  0  0  0  0  0  0
   17.9686   18.5388   26.0229 H   0  0  0  0  0  0  0  0  0  0  0  0
   17.2027   17.0195   24.7573 N   0  3  0  0  0  0  0  0  0  0  0  0
   17.4811   16.4117   23.9809 H   0  0  0  0  0  0  0  0  0  0  0  0
   16.3691   17.5343   24.4556 H   0  0  0  0  0  0  0  0  0  0  0  0
   16.9142   16.4079   25.5287 H   0  0  0  0  0  0  0  0  0  0  0  0
  1  2  1  0  0  0  0
  1  3  1  0  0  0  0
  1  4  1  0  0  0  0
  1  5  1  0  0  0  0
  5  6  1  0  0  0  0
  5  7  1  0  0  0  0
  5  8  1  0  0  0  0
  8  9  1  0  0  0  0
  8 10  1  0  0  0  0
  8 11  1  0  0  0  0
 11 12  1  0  0  0  0
 11 13  1  0  0  0  0
 11 14  1  0  0  0  0
 14 15  1  0  0  0  0
 14 16  1  0  0  0  0
 14 17  1  0  0  0  0
 17 18  1  0  0  0  0
 17 19  1  0  0  0  0
 17 20  1  0  0  0  0
 20 21  1  0  0  0  0
 20 22  1  0  0  0  0
 20 23  1  0  0  0  0
 23 24  1  0  0  0  0
 23 25  1  0  0  0  0
 23 26  1  0  0  0  0
M  END
> <VConfSearch Rank>
192

> <Conf_Id>
144

> <Delta U+W>
1.073

> <U+W>
-4.479

> <U>
49.231

> <W>
-53.710

> <W(PB)>
-55.983

> <W(SA)>
2.273

> <Valence>
3.276

> <Coulomb>
45.175

> <VdW>
0.779

> <VdW6>
-7.944

> <VdW12>
8.723

> <Bond>
0.239

> <Angle>
1.155

> <Pdih>
1.883

> <Idih>
0.000

> <Tether>
0.000

$$$$
VeraChem MOL file


 26 25  0  0  0  0  0  0  0  0999 V2000     
   19.3658   21.9965   21.4170 C   0  0  0  0  0  0  0  0  0  0  0  0
   19.9652   22.5275   22.1665 H   0  0  0  0  0  0  0  0  0  0  0  0
   19.4082   22.5806   20.4886 H   0  0  0  0  0  0  0  0  0  0  0  0
   18.3221   21.9832   21.7571 H   0  0  0  0  0  0  0  0  0  0  0  0
   19.8906   20.5624   21.1770 C   0  0  0  0  0  0  0  0  0  0  0  0
   20.9454   20.5994   20.8710 H   0  0  0  0  0  0  0  0  0  0  0  0
   19.3410   20.1248   20.3318 H   0  0  0  0  0  0  0  0  0  0  0  0
   19.7322   19.6318   22.4039 C   0  0  0  0  0  0  0  0  0  0  0  0
   18.6798   19.6147   22.7187 H   0  0  0  0  0  0  0  0  0  0  0  0
   19.9849   18.6132   22.0839 H   0  0  0  0  0  0  0  0  0  0  0  0
   20.6352   20.0261   23.5991 C   0  0  0  0  0  0  0  0  0  0  0  0
   20.4608   21.0778   23.8590 H   0  0  0  0  0  0  0  0  0  0  0  0
   21.6891   19.9572   23.2966 H   0  0  0  0  0  0  0  0  0  0  0  0
   20.4108   19.1823   24.8810 C   0  0  0  0  0  0  0  0  0  0  0  0
   21.0751   19.5815   25.6599 H   0  0  0  0  0  0  0  0  0  0  0  0
   19.3891   19.3321   25.2570 H   0  0  0  0  0  0  0  0  0  0  0  0
   20.7033   17.6683   24.7281 C   0  0  0  0  0  0  0  0  0  0  0  0
   21.0199   17.2731   25.7026 H   0  0  0  0  0  0  0  0  0  0  0  0
   21.5468   17.5135   24.0422 H   0  0  0  0  0  0  0  0  0  0  0  0
   19.4761   16.8610   24.2615 C   0  0  0  0  0  0  0  0  0  0  0  0
   18.6631   16.9825   24.9824 H   0  0  0  0  0  0  0  0  0  0  0  0
   19.1285   17.2247   23.2928 H   0  0  0  0  0  0  0  0  0  0  0  0
   19.7599   15.3791   24.1252 N   0  3  0  0  0  0  0  0  0  0  0  0
   20.0605   14.9647   25.0136 H   0  0  0  0  0  0  0  0  0  0  0  0
   20.4994   15.1929   23.4401 H   0  0  0  0  0  0  0  0  0  0  0  0
   18.9306   14.8587   23.8189 H   0  0  0  0  0  0  0  0  0  0  0  0
  1  2  1  0  0  0  0
  1  3  1  0  0  0  0
  1  4  1  0  0  0  0
  1  5  1  0  0  0  0
  5  6  1  0  0  0  0
  5  7  1  0  0  0  0
  5  8  1  0  0  0  0
  8  9  1  0  0  0  0
  8 10  1  0  0  0  0
  8 11  1  0  0  0  0
 11 12  1  0  0  0  0
 11 13  1  0  0  0  0
 11 14  1  0  0  0  0
 14 15  1  0  0  0  0
 14 16  1  0  0  0  0
 14 17  1  0  0  0  0
 17 18  1  0  0  0  0
 17 19  1  0  0  0  0
 17 20  1  0  0  0  0
 20 21  1  0  0  0  0
 20 22  1  0  0  0  0
 20 23  1  0  0  0  0
 23 24  1  0  0  0  0
 23 25  1  0  0  0  0
 23 26  1  0  0  0  0
M  END
> <VConfSearch Rank>
193

> <Conf_Id>
93

> <Delta U+W>
3.253

> <U+W>
-2.300

> <U>
51.609

> <W>
-53.909

> <W(PB)>
-56.178

> <W(SA)>
2.270

> <Valence>
5.204

> <Coulomb>
45.645

> <VdW>
0.760

> <VdW6>
-7.997

> <VdW12>
8.758

> <Bond>
0.240

> <Angle>
1.456

> <Pdih>
3.507

> <Idih>
0.000

> <Tether>
0.000

$$$$
VeraChem MOL file


 26 25  0  0  0  0  0  0  0  0999 V2000     
   17.5948   21.6043   23.9089 C   0  0  0  0  0  0  0  0  0  0  0  0
   17.2599   21.0441   24.7903 H   0  0  0  0  0  0  0  0  0  0  0  0
   18.4113   22.2714   24.2145 H   0  0  0  0  0  0  0  0  0  0  0  0
   16.7557   22.2309   23.5797 H   0  0  0  0  0  0  0  0  0  0  0  0
   18.0441   20.6615   22.7692 C   0  0  0  0  0  0  0  0  0  0  0  0
   18.2437   21.2653   21.8729 H   0  0  0  0  0  0  0  0  0  0  0  0
   17.2225   19.9814   22.5043 H   0  0  0  0  0  0  0  0  0  0  0  0
   19.3144   19.8438   23.1068 C   0  0  0  0  0  0  0  0  0  0  0  0
   19.6351   19.3332   22.1902 H   0  0  0  0  0  0  0  0  0  0  0  0
   20.1264   20.5270   23.3913 H   0  0  0  0  0  0  0  0  0  0  0  0
   19.0936   18.7917   24.2221 C   0  0  0  0  0  0  0  0  0  0  0  0
   18.3402   18.0638   23.8911 H   0  0  0  0  0  0  0  0  0  0  0  0
   18.6748   19.2813   25.1103 H   0  0  0  0  0  0  0  0  0  0  0  0
   20.3775   18.0407   24.6615 C   0  0  0  0  0  0  0  0  0  0  0  0
   21.0965   18.7472   25.0992 H   0  0  0  0  0  0  0  0  0  0  0  0
   20.0987   17.3583   25.4764 H   0  0  0  0  0  0  0  0  0  0  0  0
   21.0623   17.2076   23.5489 C   0  0  0  0  0  0  0  0  0  0  0  0
   20.3058   16.7728   22.8822 H   0  0  0  0  0  0  0  0  0  0  0  0
   21.5856   16.3628   24.0165 H   0  0  0  0  0  0  0  0  0  0  0  0
   22.0927   18.0169   22.7371 C   0  0  0  0  0  0  0  0  0  0  0  0
   21.6109   18.8696   22.2552 H   0  0  0  0  0  0  0  0  0  0  0  0
   22.8681   18.3979   23.4072 H   0  0  0  0  0  0  0  0  0  0  0  0
   22.7711   17.1976   21.6584 N   0  3  0  0  0  0  0  0  0  0  0  0
   23.2742   16.3941   22.0489 H   0  0  0  0  0  0  0  0  0  0  0  0
   23.4561   17.7517   21.1330 H   0  0  0  0  0  0  0  0  0  0  0  0
   22.0984   16.8303   20.9774 H   0  0  0  0  0  0  0  0  0  0  0  0
  1  2  1  0  0  0  0
  1  3  1  0  0  0  0
  1  4  1  0  0  0  0
  1  5  1  0  0  0  0
  5  6  1  0  0  0  0
  5  7  1  0  0  0  0
  5  8  1  0  0  0  0
  8  9  1  0  0  0  0
  8 10  1  0  0  0  0
  8 11  1  0  0  0  0
 11 12  1  0  0  0  0
 11 13  1  0  0  0  0
 11 14  1  0  0  0  0
 14 15  1  0  0  0  0
 14 16  1  0  0  0  0
 14 17  1  0  0  0  0
 17 18  1  0  0  0  0
 17 19  1  0  0  0  0
 17 20  1  0  0  0  0
 20 21  1  0  0  0  0
 20 22  1  0  0  0  0
 20 23  1  0  0  0  0
 23 24  1  0  0  0  0
 23 25  1  0  0  0  0
 23 26  1  0  0  0  0
M  END
> <VConfSearch Rank>
194

> <Conf_Id>
94

> <Delta U+W>
3.247

> <U+W>
-2.305

> <U>
51.609

> <W>
-53.914

> <W(PB)>
-56.221

> <W(SA)>
2.307

> <Valence>
5.204

> <Coulomb>
45.645

> <VdW>
0.760

> <VdW6>
-7.997

> <VdW12>
8.757

> <Bond>
0.240

> <Angle>
1.456

> <Pdih>
3.508

> <Idih>
0.000

> <Tether>
0.000

$$$$
VeraChem MOL file


 26 25  0  0  0  0  0  0  0  0999 V2000     
   22.5304   20.4708   20.3496 C   0  0  0  0  0  0  0  0  0  0  0  0
   22.0714   20.1133   19.4186 H   0  0  0  0  0  0  0  0  0  0  0  0
   22.1823   21.4961   20.5308 H   0  0  0  0  0  0  0  0  0  0  0  0
   23.6170   20.5057   20.1978 H   0  0  0  0  0  0  0  0  0  0  0  0
   22.1750   19.5469   21.5338 C   0  0  0  0  0  0  0  0  0  0  0  0
   22.6752   19.9102   22.4424 H   0  0  0  0  0  0  0  0  0  0  0  0
   22.5651   18.5381   21.3389 H   0  0  0  0  0  0  0  0  0  0  0  0
   20.6497   19.4798   21.7692 C   0  0  0  0  0  0  0  0  0  0  0  0
   20.2641   20.4906   21.9615 H   0  0  0  0  0  0  0  0  0  0  0  0
   20.1543   19.1189   20.8573 H   0  0  0  0  0  0  0  0  0  0  0  0
   20.2898   18.5551   22.9540 C   0  0  0  0  0  0  0  0  0  0  0  0
   20.7943   18.9174   23.8596 H   0  0  0  0  0  0  0  0  0  0  0  0
   20.6730   17.5439   22.7587 H   0  0  0  0  0  0  0  0  0  0  0  0
   18.7616   18.4914   23.1888 C   0  0  0  0  0  0  0  0  0  0  0  0
   18.3772   19.4964   23.4089 H   0  0  0  0  0  0  0  0  0  0  0  0
   18.2677   18.1729   22.2604 H   0  0  0  0  0  0  0  0  0  0  0  0
   18.3589   17.5133   24.3209 C   0  0  0  0  0  0  0  0  0  0  0  0
   18.6715   16.4965   24.0487 H   0  0  0  0  0  0  0  0  0  0  0  0
   17.2643   17.4850   24.4038 H   0  0  0  0  0  0  0  0  0  0  0  0
   18.9599   17.8635   25.6974 C   0  0  0  0  0  0  0  0  0  0  0  0
   18.6500   17.1135   26.4300 H   0  0  0  0  0  0  0  0  0  0  0  0
   20.0513   17.8496   25.6391 H   0  0  0  0  0  0  0  0  0  0  0  0
   18.5342   19.2216   26.2192 N   0  3  0  0  0  0  0  0  0  0  0  0
   17.5165   19.2870   26.3233 H   0  0  0  0  0  0  0  0  0  0  0  0
   18.8239   19.9758   25.5888 H   0  0  0  0  0  0  0  0  0  0  0  0
   18.9433   19.4223   27.1382 H   0  0  0  0  0  0  0  0  0  0  0  0
  1  2  1  0  0  0  0
  1  3  1  0  0  0  0
  1  4  1  0  0  0  0
  1  5  1  0  0  0  0
  5  6  1  0  0  0  0
  5  7  1  0  0  0  0
  5  8  1  0  0  0  0
  8  9  1  0  0  0  0
  8 10  1  0  0  0  0
  8 11  1  0  0  0  0
 11 12  1  0  0  0  0
 11 13  1  0  0  0  0
 11 14  1  0  0  0  0
 14 15  1  0  0  0  0
 14 16  1  0  0  0  0
 14 17  1  0  0  0  0
 17 18  1  0  0  0  0
 17 19  1  0  0  0  0
 17 20  1  0  0  0  0
 20 21  1  0  0  0  0
 20 22  1  0  0  0  0
 20 23  1  0  0  0  0
 23 24  1  0  0  0  0
 23 25  1  0  0  0  0
 23 26  1  0  0  0  0
M  END
> <VConfSearch Rank>
195

> <Conf_Id>
83

> <Delta U+W>
0.559

> <U+W>
-4.994

> <U>
48.668

> <W>
-53.661

> <W(PB)>
-55.972

> <W(SA)>
2.311

> <Valence>
2.543

> <Coulomb>
45.478

> <VdW>
0.646

> <VdW6>
-7.096

> <VdW12>
7.742

> <Bond>
0.176

> <Angle>
0.630

> <Pdih>
1.738

> <Idih>
0.000

> <Tether>
0.000

$$$$
VeraChem MOL file


 26 25  0  0  0  0  0  0  0  0999 V2000     
   16.5166   18.8064   24.9320 C   0  0  0  0  0  0  0  0  0  0  0  0
   15.7056   18.3345   24.3622 H   0  0  0  0  0  0  0  0  0  0  0  0
   16.7931   18.1336   25.7544 H   0  0  0  0  0  0  0  0  0  0  0  0
   16.1245   19.7326   25.3716 H   0  0  0  0  0  0  0  0  0  0  0  0
   17.7311   19.1041   24.0272 C   0  0  0  0  0  0  0  0  0  0  0  0
   18.5019   19.6113   24.6223 H   0  0  0  0  0  0  0  0  0  0  0  0
   17.4309   19.8014   23.2326 H   0  0  0  0  0  0  0  0  0  0  0  0
   18.3043   17.8116   23.3992 C   0  0  0  0  0  0  0  0  0  0  0  0
   18.6543   17.1375   24.1932 H   0  0  0  0  0  0  0  0  0  0  0  0
   17.4962   17.2799   22.8780 H   0  0  0  0  0  0  0  0  0  0  0  0
   19.4521   18.0671   22.3916 C   0  0  0  0  0  0  0  0  0  0  0  0
   19.0970   18.7296   21.5901 H   0  0  0  0  0  0  0  0  0  0  0  0
   19.7103   17.1132   21.9111 H   0  0  0  0  0  0  0  0  0  0  0  0
   20.7237   18.6657   23.0397 C   0  0  0  0  0  0  0  0  0  0  0  0
   20.4944   19.6525   23.4606 H   0  0  0  0  0  0  0  0  0  0  0  0
   21.0454   18.0273   23.8743 H   0  0  0  0  0  0  0  0  0  0  0  0
   21.8782   18.7974   22.0182 C   0  0  0  0  0  0  0  0  0  0  0  0
   21.5769   19.4560   21.1927 H   0  0  0  0  0  0  0  0  0  0  0  0
   22.0861   17.8144   21.5749 H   0  0  0  0  0  0  0  0  0  0  0  0
   23.1777   19.3293   22.6529 C   0  0  0  0  0  0  0  0  0  0  0  0
   23.4758   18.6800   23.4805 H   0  0  0  0  0  0  0  0  0  0  0  0
   23.9765   19.3183   21.9063 H   0  0  0  0  0  0  0  0  0  0  0  0
   23.0639   20.7453   23.1829 N   0  3  0  0  0  0  0  0  0  0  0  0
   22.3544   20.8198   23.9183 H   0  0  0  0  0  0  0  0  0  0  0  0
   22.8068   21.4086   22.4446 H   0  0  0  0  0  0  0  0  0  0  0  0
   23.9488   21.0732   23.5851 H   0  0  0  0  0  0  0  0  0  0  0  0
  1  2  1  0  0  0  0
  1  3  1  0  0  0  0
  1  4  1  0  0  0  0
  1  5  1  0  0  0  0
  5  6  1  0  0  0  0
  5  7  1  0  0  0  0
  5  8  1  0  0  0  0
  8  9  1  0  0  0  0
  8 10  1  0  0  0  0
  8 11  1  0  0  0  0
 11 12  1  0  0  0  0
 11 13  1  0  0  0  0
 11 14  1  0  0  0  0
 14 15  1  0  0  0  0
 14 16  1  0  0  0  0
 14 17  1  0  0  0  0
 17 18  1  0  0  0  0
 17 19  1  0  0  0  0
 17 20  1  0  0  0  0
 20 21  1  0  0  0  0
 20 22  1  0  0  0  0
 20 23  1  0  0  0  0
 23 24  1  0  0  0  0
 23 25  1  0  0  0  0
 23 26  1  0  0  0  0
M  END
> <VConfSearch Rank>
196

> <Conf_Id>
18

> <Delta U+W>
0.759

> <U+W>
-4.793

> <U>
48.945

> <W>
-53.738

> <W(PB)>
-56.051

> <W(SA)>
2.313

> <Valence>
2.802

> <Coulomb>
45.335

> <VdW>
0.807

> <VdW6>
-6.962

> <VdW12>
7.769

> <Bond>
0.189

> <Angle>
0.696

> <Pdih>
1.917

> <Idih>
0.000

> <Tether>
0.000

$$$$
VeraChem MOL file


 26 25  0  0  0  0  0  0  0  0999 V2000     
   20.8841   21.4410   26.1011 C   0  0  0  0  0  0  0  0  0  0  0  0
   19.8573   21.7340   26.3563 H   0  0  0  0  0  0  0  0  0  0  0  0
   21.3634   21.0494   27.0078 H   0  0  0  0  0  0  0  0  0  0  0  0
   21.4270   22.3454   25.7972 H   0  0  0  0  0  0  0  0  0  0  0  0
   20.8961   20.3919   24.9690 C   0  0  0  0  0  0  0  0  0  0  0  0
   21.9358   20.1409   24.7163 H   0  0  0  0  0  0  0  0  0  0  0  0
   20.4470   20.8339   24.0699 H   0  0  0  0  0  0  0  0  0  0  0  0
   20.1322   19.1087   25.3731 C   0  0  0  0  0  0  0  0  0  0  0  0
   20.5458   18.7305   26.3182 H   0  0  0  0  0  0  0  0  0  0  0  0
   19.0795   19.3518   25.5732 H   0  0  0  0  0  0  0  0  0  0  0  0
   20.2127   17.9795   24.3165 C   0  0  0  0  0  0  0  0  0  0  0  0
   19.7500   17.0765   24.7383 H   0  0  0  0  0  0  0  0  0  0  0  0
   21.2652   17.7270   24.1277 H   0  0  0  0  0  0  0  0  0  0  0  0
   19.5114   18.3289   22.9817 C   0  0  0  0  0  0  0  0  0  0  0  0
   18.4739   18.6312   23.1805 H   0  0  0  0  0  0  0  0  0  0  0  0
   20.0115   19.1867   22.5151 H   0  0  0  0  0  0  0  0  0  0  0  0
   19.5197   17.1322   22.0011 C   0  0  0  0  0  0  0  0  0  0  0  0
   19.0464   16.2652   22.4808 H   0  0  0  0  0  0  0  0  0  0  0  0
   20.5533   16.8390   21.7739 H   0  0  0  0  0  0  0  0  0  0  0  0
   18.7694   17.4318   20.6889 C   0  0  0  0  0  0  0  0  0  0  0  0
   18.7345   16.5265   20.0767 H   0  0  0  0  0  0  0  0  0  0  0  0
   17.7421   17.7318   20.9125 H   0  0  0  0  0  0  0  0  0  0  0  0
   19.4084   18.5254   19.8556 N   0  3  0  0  0  0  0  0  0  0  0  0
   20.3717   18.2911   19.5942 H   0  0  0  0  0  0  0  0  0  0  0  0
   19.4389   19.4175   20.3585 H   0  0  0  0  0  0  0  0  0  0  0  0
   18.8932   18.6896   18.9839 H   0  0  0  0  0  0  0  0  0  0  0  0
  1  2  1  0  0  0  0
  1  3  1  0  0  0  0
  1  4  1  0  0  0  0
  1  5  1  0  0  0  0
  5  6  1  0  0  0  0
  5  7  1  0  0  0  0
  5  8  1  0  0  0  0
  8  9  1  0  0  0  0
  8 10  1  0  0  0  0
  8 11  1  0  0  0  0
 11 12  1  0  0  0  0
 11 13  1  0  0  0  0
 11 14  1  0  0  0  0
 14 15  1  0  0  0  0
 14 16  1  0  0  0  0
 14 17  1  0  0  0  0
 17 18  1  0  0  0  0
 17 19  1  0  0  0  0
 17 20  1  0  0  0  0
 20 21  1  0  0  0  0
 20 22  1  0  0  0  0
 20 23  1  0  0  0  0
 23 24  1  0  0  0  0
 23 25  1  0  0  0  0
 23 26  1  0  0  0  0
M  END
> <VConfSearch Rank>
197

> <Conf_Id>
17

> <Delta U+W>
0.843

> <U+W>
-4.709

> <U>
48.945

> <W>
-53.653

> <W(PB)>
-55.991

> <W(SA)>
2.338

> <Valence>
2.802

> <Coulomb>
45.335

> <VdW>
0.807

> <VdW6>
-6.962

> <VdW12>
7.769

> <Bond>
0.189

> <Angle>
0.696

> <Pdih>
1.917

> <Idih>
0.000

> <Tether>
0.000

$$$$
VeraChem MOL file


 26 25  0  0  0  0  0  0  0  0999 V2000     
   21.4994   21.9636   23.2400 C   0  0  0  0  0  0  0  0  0  0  0  0
   21.8288   21.1570   23.9065 H   0  0  0  0  0  0  0  0  0  0  0  0
   21.9379   21.7920   22.2483 H   0  0  0  0  0  0  0  0  0  0  0  0
   21.9112   22.9030   23.6310 H   0  0  0  0  0  0  0  0  0  0  0  0
   19.9578   22.0410   23.1603 C   0  0  0  0  0  0  0  0  0  0  0  0
   19.6777   22.9346   22.5852 H   0  0  0  0  0  0  0  0  0  0  0  0
   19.5421   22.1813   24.1679 H   0  0  0  0  0  0  0  0  0  0  0  0
   19.3124   20.8009   22.4957 C   0  0  0  0  0  0  0  0  0  0  0  0
   18.2361   20.9890   22.3793 H   0  0  0  0  0  0  0  0  0  0  0  0
   19.7159   20.6767   21.4813 H   0  0  0  0  0  0  0  0  0  0  0  0
   19.5136   19.4947   23.3009 C   0  0  0  0  0  0  0  0  0  0  0  0
   19.1535   19.6393   24.3288 H   0  0  0  0  0  0  0  0  0  0  0  0
   20.5844   19.2649   23.3661 H   0  0  0  0  0  0  0  0  0  0  0  0
   18.7662   18.3034   22.6546 C   0  0  0  0  0  0  0  0  0  0  0  0
   17.7018   18.5564   22.5530 H   0  0  0  0  0  0  0  0  0  0  0  0
   19.1445   18.1371   21.6363 H   0  0  0  0  0  0  0  0  0  0  0  0
   18.8883   16.9949   23.4704 C   0  0  0  0  0  0  0  0  0  0  0  0
   18.2630   16.2234   23.0017 H   0  0  0  0  0  0  0  0  0  0  0  0
   18.4893   17.1517   24.4814 H   0  0  0  0  0  0  0  0  0  0  0  0
   20.3378   16.4816   23.5595 C   0  0  0  0  0  0  0  0  0  0  0  0
   20.7351   16.3248   22.5530 H   0  0  0  0  0  0  0  0  0  0  0  0
   20.9627   17.2223   24.0651 H   0  0  0  0  0  0  0  0  0  0  0  0
   20.4587   15.1761   24.3187 N   0  3  0  0  0  0  0  0  0  0  0  0
   21.4307   14.8516   24.3665 H   0  0  0  0  0  0  0  0  0  0  0  0
   19.9153   14.4264   23.8783 H   0  0  0  0  0  0  0  0  0  0  0  0
   20.1252   15.2632   25.2843 H   0  0  0  0  0  0  0  0  0  0  0  0
  1  2  1  0  0  0  0
  1  3  1  0  0  0  0
  1  4  1  0  0  0  0
  1  5  1  0  0  0  0
  5  6  1  0  0  0  0
  5  7  1  0  0  0  0
  5  8  1  0  0  0  0
  8  9  1  0  0  0  0
  8 10  1  0  0  0  0
  8 11  1  0  0  0  0
 11 12  1  0  0  0  0
 11 13  1  0  0  0  0
 11 14  1  0  0  0  0
 14 15  1  0  0  0  0
 14 16  1  0  0  0  0
 14 17  1  0  0  0  0
 17 18  1  0  0  0  0
 17 19  1  0  0  0  0
 17 20  1  0  0  0  0
 20 21  1  0  0  0  0
 20 22  1  0  0  0  0
 20 23  1  0  0  0  0
 23 24  1  0  0  0  0
 23 25  1  0  0  0  0
 23 26  1  0  0  0  0
M  END
> <VConfSearch Rank>
198

> <Conf_Id>
96

> <Delta U+W>
0.912

> <U+W>
-4.640

> <U>
48.723

> <W>
-53.364

> <W(PB)>
-55.683

> <W(SA)>
2.320

> <Valence>
2.962

> <Coulomb>
44.993

> <VdW>
0.768

> <VdW6>
-7.008

> <VdW12>
7.776

> <Bond>
0.188

> <Angle>
0.757

> <Pdih>
2.018

> <Idih>
0.000

> <Tether>
0.000

$$$$
VeraChem MOL file


 26 25  0  0  0  0  0  0  0  0999 V2000     
   22.1359   18.4540   20.5848 C   0  0  0  0  0  0  0  0  0  0  0  0
   23.0114   18.0980   20.0265 H   0  0  0  0  0  0  0  0  0  0  0  0
   21.6413   19.2236   19.9782 H   0  0  0  0  0  0  0  0  0  0  0  0
   22.5017   18.9239   21.5061 H   0  0  0  0  0  0  0  0  0  0  0  0
   21.1748   17.2821   20.8876 C   0  0  0  0  0  0  0  0  0  0  0  0
   21.6827   16.5416   21.5212 H   0  0  0  0  0  0  0  0  0  0  0  0
   20.9357   16.7683   19.9459 H   0  0  0  0  0  0  0  0  0  0  0  0
   19.8532   17.7272   21.5593 C   0  0  0  0  0  0  0  0  0  0  0  0
   19.3392   18.4520   20.9129 H   0  0  0  0  0  0  0  0  0  0  0  0
   19.1896   16.8547   21.6339 H   0  0  0  0  0  0  0  0  0  0  0  0
   20.0516   18.3341   22.9690 C   0  0  0  0  0  0  0  0  0  0  0  0
   20.6604   19.2438   22.8947 H   0  0  0  0  0  0  0  0  0  0  0  0
   20.6090   17.6257   23.5972 H   0  0  0  0  0  0  0  0  0  0  0  0
   18.6993   18.6690   23.6431 C   0  0  0  0  0  0  0  0  0  0  0  0
   18.1516   19.4000   23.0321 H   0  0  0  0  0  0  0  0  0  0  0  0
   18.0775   17.7637   23.6760 H   0  0  0  0  0  0  0  0  0  0  0  0
   18.8564   19.2142   25.0822 C   0  0  0  0  0  0  0  0  0  0  0  0
   19.3828   18.4755   25.7012 H   0  0  0  0  0  0  0  0  0  0  0  0
   17.8597   19.3425   25.5251 H   0  0  0  0  0  0  0  0  0  0  0  0
   19.6054   20.5591   25.1311 C   0  0  0  0  0  0  0  0  0  0  0  0
   20.6161   20.4349   24.7340 H   0  0  0  0  0  0  0  0  0  0  0  0
   19.0811   21.2948   24.5153 H   0  0  0  0  0  0  0  0  0  0  0  0
   19.7231   21.1213   26.5330 N   0  3  0  0  0  0  0  0  0  0  0  0
   20.2315   20.4869   27.1578 H   0  0  0  0  0  0  0  0  0  0  0  0
   18.8043   21.2890   26.9558 H   0  0  0  0  0  0  0  0  0  0  0  0
   20.2244   22.0163   26.5439 H   0  0  0  0  0  0  0  0  0  0  0  0
  1  2  1  0  0  0  0
  1  3  1  0  0  0  0
  1  4  1  0  0  0  0
  1  5  1  0  0  0  0
  5  6  1  0  0  0  0
  5  7  1  0  0  0  0
  5  8  1  0  0  0  0
  8  9  1  0  0  0  0
  8 10  1  0  0  0  0
  8 11  1  0  0  0  0
 11 12  1  0  0  0  0
 11 13  1  0  0  0  0
 11 14  1  0  0  0  0
 14 15  1  0  0  0  0
 14 16  1  0  0  0  0
 14 17  1  0  0  0  0
 17 18  1  0  0  0  0
 17 19  1  0  0  0  0
 17 20  1  0  0  0  0
 20 21  1  0  0  0  0
 20 22  1  0  0  0  0
 20 23  1  0  0  0  0
 23 24  1  0  0  0  0
 23 25  1  0  0  0  0
 23 26  1  0  0  0  0
M  END
> <VConfSearch Rank>
199

> <Conf_Id>
133

> <Delta U+W>
0.844

> <U+W>
-4.708

> <U>
48.723

> <W>
-53.431

> <W(PB)>
-55.776

> <W(SA)>
2.344

> <Valence>
2.962

> <Coulomb>
44.993

> <VdW>
0.768

> <VdW6>
-7.008

> <VdW12>
7.776

> <Bond>
0.188

> <Angle>
0.756

> <Pdih>
2.018

> <Idih>
0.000

> <Tether>
0.000

$$$$
VeraChem MOL file


 26 25  0  0  0  0  0  0  0  0999 V2000     
   20.1599   15.6863   22.3826 C   0  0  0  0  0  0  0  0  0  0  0  0
   21.0744   15.1389   22.6454 H   0  0  0  0  0  0  0  0  0  0  0  0
   19.7245   16.0920   23.3043 H   0  0  0  0  0  0  0  0  0  0  0  0
   19.4436   14.9650   21.9684 H   0  0  0  0  0  0  0  0  0  0  0  0
   20.4570   16.8038   21.3573 C   0  0  0  0  0  0  0  0  0  0  0  0
   19.5326   17.3495   21.1254 H   0  0  0  0  0  0  0  0  0  0  0  0
   20.7772   16.3415   20.4132 H   0  0  0  0  0  0  0  0  0  0  0  0
   21.5593   17.7896   21.8219 C   0  0  0  0  0  0  0  0  0  0  0  0
   22.5047   17.2400   21.9280 H   0  0  0  0  0  0  0  0  0  0  0  0
   21.7297   18.5295   21.0278 H   0  0  0  0  0  0  0  0  0  0  0  0
   21.2660   18.5345   23.1500 C   0  0  0  0  0  0  0  0  0  0  0  0
   22.1234   19.1826   23.3783 H   0  0  0  0  0  0  0  0  0  0  0  0
   21.2036   17.8147   23.9769 H   0  0  0  0  0  0  0  0  0  0  0  0
   19.9810   19.3955   23.1060 C   0  0  0  0  0  0  0  0  0  0  0  0
   20.0283   20.0831   22.2502 H   0  0  0  0  0  0  0  0  0  0  0  0
   19.1047   18.7521   22.9512 H   0  0  0  0  0  0  0  0  0  0  0  0
   19.7878   20.2048   24.4073 C   0  0  0  0  0  0  0  0  0  0  0  0
   20.6537   20.8611   24.5673 H   0  0  0  0  0  0  0  0  0  0  0  0
   19.7392   19.5201   25.2645 H   0  0  0  0  0  0  0  0  0  0  0  0
   18.5054   21.0538   24.3570 C   0  0  0  0  0  0  0  0  0  0  0  0
   18.5565   21.7484   23.5141 H   0  0  0  0  0  0  0  0  0  0  0  0
   17.6384   20.4030   24.2145 H   0  0  0  0  0  0  0  0  0  0  0  0
   18.2799   21.8637   25.6174 N   0  3  0  0  0  0  0  0  0  0  0  0
   17.4208   22.4218   25.5631 H   0  0  0  0  0  0  0  0  0  0  0  0
   19.0497   22.5176   25.7943 H   0  0  0  0  0  0  0  0  0  0  0  0
   18.1954   21.2658   26.4460 H   0  0  0  0  0  0  0  0  0  0  0  0
  1  2  1  0  0  0  0
  1  3  1  0  0  0  0
  1  4  1  0  0  0  0
  1  5  1  0  0  0  0
  5  6  1  0  0  0  0
  5  7  1  0  0  0  0
  5  8  1  0  0  0  0
  8  9  1  0  0  0  0
  8 10  1  0  0  0  0
  8 11  1  0  0  0  0
 11 12  1  0  0  0  0
 11 13  1  0  0  0  0
 11 14  1  0  0  0  0
 14 15  1  0  0  0  0
 14 16  1  0  0  0  0
 14 17  1  0  0  0  0
 17 18  1  0  0  0  0
 17 19  1  0  0  0  0
 17 20  1  0  0  0  0
 20 21  1  0  0  0  0
 20 22  1  0  0  0  0
 20 23  1  0  0  0  0
 23 24  1  0  0  0  0
 23 25  1  0  0  0  0
 23 26  1  0  0  0  0
M  END
> <VConfSearch Rank>
200

> <Conf_Id>
106

> <Delta U+W>
0.767

> <U+W>
-4.785

> <U>
48.494

> <W>
-53.279

> <W(PB)>
-55.569

> <W(SA)>
2.290

> <Valence>
3.117

> <Coulomb>
44.693

> <VdW>
0.684

> <VdW6>
-7.347

> <VdW12>
8.030

> <Bond>
0.208

> <Angle>
1.039

> <Pdih>
1.870

> <Idih>
0.000

> <Tether>
0.000

$$$$
VeraChem MOL file


 26 25  0  0  0  0  0  0  0  0999 V2000     
   20.3131   23.0388   25.0804 C   0  0  0  0  0  0  0  0  0  0  0  0
   21.3918   22.9833   25.2770 H   0  0  0  0  0  0  0  0  0  0  0  0
   20.1654   23.5719   24.1321 H   0  0  0  0  0  0  0  0  0  0  0  0
   19.8555   23.6377   25.8785 H   0  0  0  0  0  0  0  0  0  0  0  0
   19.6855   21.6297   25.0282 C   0  0  0  0  0  0  0  0  0  0  0  0
   18.6024   21.7190   24.8642 H   0  0  0  0  0  0  0  0  0  0  0  0
   19.8192   21.1349   26.0004 H   0  0  0  0  0  0  0  0  0  0  0  0
   20.3126   20.7651   23.9122 C   0  0  0  0  0  0  0  0  0  0  0  0
   20.1786   21.2649   22.9428 H   0  0  0  0  0  0  0  0  0  0  0  0
   21.3954   20.6807   24.0792 H   0  0  0  0  0  0  0  0  0  0  0  0
   19.6865   19.3532   23.8567 C   0  0  0  0  0  0  0  0  0  0  0  0
   18.6037   19.4386   23.6900 H   0  0  0  0  0  0  0  0  0  0  0  0
   19.8205   18.8544   24.8266 H   0  0  0  0  0  0  0  0  0  0  0  0
   20.3143   18.4885   22.7402 C   0  0  0  0  0  0  0  0  0  0  0  0
   20.1805   18.9871   21.7699 H   0  0  0  0  0  0  0  0  0  0  0  0
   21.3972   18.4028   22.9066 H   0  0  0  0  0  0  0  0  0  0  0  0
   19.6890   17.0773   22.6840 C   0  0  0  0  0  0  0  0  0  0  0  0
   18.6073   17.1585   22.5123 H   0  0  0  0  0  0  0  0  0  0  0  0
   19.8252   16.5736   23.6504 H   0  0  0  0  0  0  0  0  0  0  0  0
   20.3213   16.2253   21.5695 C   0  0  0  0  0  0  0  0  0  0  0  0
   20.1737   16.7149   20.6031 H   0  0  0  0  0  0  0  0  0  0  0  0
   21.3961   16.1280   21.7452 H   0  0  0  0  0  0  0  0  0  0  0  0
   19.7337   14.8315   21.4822 N   0  3  0  0  0  0  0  0  0  0  0  0
   20.1687   14.2809   20.7337 H   0  0  0  0  0  0  0  0  0  0  0  0
   18.7268   14.8525   21.2903 H   0  0  0  0  0  0  0  0  0  0  0  0
   19.8642   14.3064   22.3531 H   0  0  0  0  0  0  0  0  0  0  0  0
  1  2  1  0  0  0  0
  1  3  1  0  0  0  0
  1  4  1  0  0  0  0
  1  5  1  0  0  0  0
  5  6  1  0  0  0  0
  5  7  1  0  0  0  0
  5  8  1  0  0  0  0
  8  9  1  0  0  0  0
  8 10  1  0  0  0  0
  8 11  1  0  0  0  0
 11 12  1  0  0  0  0
 11 13  1  0  0  0  0
 11 14  1  0  0  0  0
 14 15  1  0  0  0  0
 14 16  1  0  0  0  0
 14 17  1  0  0  0  0
 17 18  1  0  0  0  0
 17 19  1  0  0  0  0
 17 20  1  0  0  0  0
 20 21  1  0  0  0  0
 20 22  1  0  0  0  0
 20 23  1  0  0  0  0
 23 24  1  0  0  0  0
 23 25  1  0  0  0  0
 23 26  1  0  0  0  0
M  END
> <VConfSearch Rank>
201

> <Conf_Id>
25

> <Delta U+W>
0.000

> <U+W>
-5.552

> <U>
47.192

> <W>
-52.745

> <W(PB)>
-55.134

> <W(SA)>
2.389

> <Valence>
2.156

> <Coulomb>
44.449

> <VdW>
0.587

> <VdW6>
-5.761

> <VdW12>
6.348

> <Bond>
0.129

> <Angle>
0.393

> <Pdih>
1.634

> <Idih>
0.000

> <Tether>
0.000

$$$$
VeraChem MOL file


 26 25  0  0  0  0  0  0  0  0999 V2000     
   18.7489   22.2230   25.8308 C   0  0  0  0  0  0  0  0  0  0  0  0
   19.0366   23.0210   25.1340 H   0  0  0  0  0  0  0  0  0  0  0  0
   17.6916   21.9829   25.6581 H   0  0  0  0  0  0  0  0  0  0  0  0
   18.8426   22.6167   26.8513 H   0  0  0  0  0  0  0  0  0  0  0  0
   19.6387   20.9758   25.6439 C   0  0  0  0  0  0  0  0  0  0  0  0
   19.3498   20.2089   26.3763 H   0  0  0  0  0  0  0  0  0  0  0  0
   20.6844   21.2390   25.8563 H   0  0  0  0  0  0  0  0  0  0  0  0
   19.5253   20.4011   24.2146 C   0  0  0  0  0  0  0  0  0  0  0  0
   18.4780   20.1419   24.0062 H   0  0  0  0  0  0  0  0  0  0  0  0
   19.8129   21.1719   23.4861 H   0  0  0  0  0  0  0  0  0  0  0  0
   20.4150   19.1519   24.0236 C   0  0  0  0  0  0  0  0  0  0  0  0
   20.1268   18.3815   24.7523 H   0  0  0  0  0  0  0  0  0  0  0  0
   21.4618   19.4121   24.2333 H   0  0  0  0  0  0  0  0  0  0  0  0
   20.3019   18.5775   22.5933 C   0  0  0  0  0  0  0  0  0  0  0  0
   19.2534   18.3240   22.3875 H   0  0  0  0  0  0  0  0  0  0  0  0
   20.5930   19.3471   21.8649 H   0  0  0  0  0  0  0  0  0  0  0  0
   21.1925   17.3267   22.4046 C   0  0  0  0  0  0  0  0  0  0  0  0
   20.8893   16.5391   23.1073 H   0  0  0  0  0  0  0  0  0  0  0  0
   22.2327   17.5808   22.6485 H   0  0  0  0  0  0  0  0  0  0  0  0
   21.1496   16.7768   20.9659 C   0  0  0  0  0  0  0  0  0  0  0  0
   21.4451   17.5606   20.2632 H   0  0  0  0  0  0  0  0  0  0  0  0
   21.8590   15.9500   20.8724 H   0  0  0  0  0  0  0  0  0  0  0  0
   19.7858   16.2614   20.5497 N   0  3  0  0  0  0  0  0  0  0  0  0
   19.0757   16.9995   20.5791 H   0  0  0  0  0  0  0  0  0  0  0  0
   19.4621   15.5045   21.1607 H   0  0  0  0  0  0  0  0  0  0  0  0
   19.7944   15.8911   19.5931 H   0  0  0  0  0  0  0  0  0  0  0  0
  1  2  1  0  0  0  0
  1  3  1  0  0  0  0
  1  4  1  0  0  0  0
  1  5  1  0  0  0  0
  5  6  1  0  0  0  0
  5  7  1  0  0  0  0
  5  8  1  0  0  0  0
  8  9  1  0  0  0  0
  8 10  1  0  0  0  0
  8 11  1  0  0  0  0
 11 12  1  0  0  0  0
 11 13  1  0  0  0  0
 11 14  1  0  0  0  0
 14 15  1  0  0  0  0
 14 16  1  0  0  0  0
 14 17  1  0  0  0  0
 17 18  1  0  0  0  0
 17 19  1  0  0  0  0
 17 20  1  0  0  0  0
 20 21  1  0  0  0  0
 20 22  1  0  0  0  0
 20 23  1  0  0  0  0
 23 24  1  0  0  0  0
 23 25  1  0  0  0  0
 23 26  1  0  0  0  0
M  END
> <VConfSearch Rank>
202

> <Conf_Id>
20

> <Delta U+W>
0.150

> <U+W>
-5.403

> <U>
47.845

> <W>
-53.248

> <W(PB)>
-55.599

> <W(SA)>
2.351

> <Valence>
2.258

> <Coulomb>
44.893

> <VdW>
0.694

> <VdW6>
-6.285

> <VdW12>
6.979

> <Bond>
0.149

> <Angle>
0.434

> <Pdih>
1.675

> <Idih>
0.000

> <Tether>
0.000

$$$$
VeraChem MOL file


 26 25  0  0  0  0  0  0  0  0999 V2000     
   24.0596   18.0926   24.3151 C   0  0  0  0  0  0  0  0  0  0  0  0
   24.4189   18.5014   23.3617 H   0  0  0  0  0  0  0  0  0  0  0  0
   24.1318   18.8820   25.0746 H   0  0  0  0  0  0  0  0  0  0  0  0
   24.7358   17.2793   24.6091 H   0  0  0  0  0  0  0  0  0  0  0  0
   22.6105   17.5770   24.1868 C   0  0  0  0  0  0  0  0  0  0  0  0
   22.2915   17.1439   25.1453 H   0  0  0  0  0  0  0  0  0  0  0  0
   22.5763   16.7663   23.4456 H   0  0  0  0  0  0  0  0  0  0  0  0
   21.6371   18.7031   23.7736 C   0  0  0  0  0  0  0  0  0  0  0  0
   21.6765   19.5120   24.5163 H   0  0  0  0  0  0  0  0  0  0  0  0
   21.9615   19.1344   22.8164 H   0  0  0  0  0  0  0  0  0  0  0  0
   20.1849   18.1906   23.6441 C   0  0  0  0  0  0  0  0  0  0  0  0
   19.8621   17.7584   24.6015 H   0  0  0  0  0  0  0  0  0  0  0  0
   20.1462   17.3819   22.9011 H   0  0  0  0  0  0  0  0  0  0  0  0
   19.2112   19.3176   23.2314 C   0  0  0  0  0  0  0  0  0  0  0  0
   19.2477   20.1249   23.9761 H   0  0  0  0  0  0  0  0  0  0  0  0
   19.5413   19.7490   22.2770 H   0  0  0  0  0  0  0  0  0  0  0  0
   17.7583   18.8023   23.1015 C   0  0  0  0  0  0  0  0  0  0  0  0
   17.4504   18.3396   24.0486 H   0  0  0  0  0  0  0  0  0  0  0  0
   17.7046   18.0160   22.3367 H   0  0  0  0  0  0  0  0  0  0  0  0
   16.7576   19.9227   22.7585 C   0  0  0  0  0  0  0  0  0  0  0  0
   15.7425   19.5162   22.7631 H   0  0  0  0  0  0  0  0  0  0  0  0
   16.8129   20.7100   23.5151 H   0  0  0  0  0  0  0  0  0  0  0  0
   16.9925   20.5567   21.4015 N   0  3  0  0  0  0  0  0  0  0  0  0
   16.9305   19.8688   20.6439 H   0  0  0  0  0  0  0  0  0  0  0  0
   17.9182   20.9920   21.3408 H   0  0  0  0  0  0  0  0  0  0  0  0
   16.3028   21.2885   21.1987 H   0  0  0  0  0  0  0  0  0  0  0  0
  1  2  1  0  0  0  0
  1  3  1  0  0  0  0
  1  4  1  0  0  0  0
  1  5  1  0  0  0  0
  5  6  1  0  0  0  0
  5  7  1  0  0  0  0
  5  8  1  0  0  0  0
  8  9  1  0  0  0  0
  8 10  1  0  0  0  0
  8 11  1  0  0  0  0
 11 12  1  0  0  0  0
 11 13  1  0  0  0  0
 11 14  1  0  0  0  0
 14 15  1  0  0  0  0
 14 16  1  0  0  0  0
 14 17  1  0  0  0  0
 17 18  1  0  0  0  0
 17 19  1  0  0  0  0
 17 20  1  0  0  0  0
 20 21  1  0  0  0  0
 20 22  1  0  0  0  0
 20 23  1  0  0  0  0
 23 24  1  0  0  0  0
 23 25  1  0  0  0  0
 23 26  1  0  0  0  0
M  END
> <VConfSearch Rank>
203

> <Conf_Id>
19

> <Delta U+W>
0.162

> <U+W>
-5.391

> <U>
47.845

> <W>
-53.235

> <W(PB)>
-55.585

> <W(SA)>
2.349

> <Valence>
2.258

> <Coulomb>
44.893

> <VdW>
0.694

> <VdW6>
-6.285

> <VdW12>
6.979

> <Bond>
0.149

> <Angle>
0.434

> <Pdih>
1.675

> <Idih>
0.000

> <Tether>
0.000

$$$$
VeraChem MOL file


 26 25  0  0  0  0  0  0  0  0999 V2000     
   17.2661   19.1349   26.4575 C   0  0  0  0  0  0  0  0  0  0  0  0
   17.2918   18.2837   27.1503 H   0  0  0  0  0  0  0  0  0  0  0  0
   17.7143   20.0005   26.9624 H   0  0  0  0  0  0  0  0  0  0  0  0
   16.2137   19.3713   26.2536 H   0  0  0  0  0  0  0  0  0  0  0  0
   18.0148   18.8080   25.1480 C   0  0  0  0  0  0  0  0  0  0  0  0
   17.9317   19.6654   24.4671 H   0  0  0  0  0  0  0  0  0  0  0  0
   17.5262   17.9579   24.6517 H   0  0  0  0  0  0  0  0  0  0  0  0
   19.5027   18.4753   25.4099 C   0  0  0  0  0  0  0  0  0  0  0  0
   20.0034   19.3448   25.8579 H   0  0  0  0  0  0  0  0  0  0  0  0
   19.5621   17.6688   26.1538 H   0  0  0  0  0  0  0  0  0  0  0  0
   20.2715   18.0299   24.1416 C   0  0  0  0  0  0  0  0  0  0  0  0
   19.7789   17.1510   23.7031 H   0  0  0  0  0  0  0  0  0  0  0  0
   21.2763   17.7022   24.4420 H   0  0  0  0  0  0  0  0  0  0  0  0
   20.4026   19.1430   23.0742 C   0  0  0  0  0  0  0  0  0  0  0  0
   19.4087   19.4296   22.7062 H   0  0  0  0  0  0  0  0  0  0  0  0
   20.8456   20.0393   23.5301 H   0  0  0  0  0  0  0  0  0  0  0  0
   21.2707   18.6916   21.8790 C   0  0  0  0  0  0  0  0  0  0  0  0
   20.8305   17.7964   21.4197 H   0  0  0  0  0  0  0  0  0  0  0  0
   22.2724   18.4132   22.2328 H   0  0  0  0  0  0  0  0  0  0  0  0
   21.3930   19.8021   20.8207 C   0  0  0  0  0  0  0  0  0  0  0  0
   20.3991   20.0713   20.4529 H   0  0  0  0  0  0  0  0  0  0  0  0
   21.8459   20.6903   21.2697 H   0  0  0  0  0  0  0  0  0  0  0  0
   22.2382   19.3971   19.6304 N   0  3  0  0  0  0  0  0  0  0  0  0
   21.8500   18.5812   19.1458 H   0  0  0  0  0  0  0  0  0  0  0  0
   23.1962   19.1571   19.9058 H   0  0  0  0  0  0  0  0  0  0  0  0
   22.3068   20.1508   18.9378 H   0  0  0  0  0  0  0  0  0  0  0  0
  1  2  1  0  0  0  0
  1  3  1  0  0  0  0
  1  4  1  0  0  0  0
  1  5  1  0  0  0  0
  5  6  1  0  0  0  0
  5  7  1  0  0  0  0
  5  8  1  0  0  0  0
  8  9  1  0  0  0  0
  8 10  1  0  0  0  0
  8 11  1  0  0  0  0
 11 12  1  0  0  0  0
 11 13  1  0  0  0  0
 11 14  1  0  0  0  0
 14 15  1  0  0  0  0
 14 16  1  0  0  0  0
 14 17  1  0  0  0  0
 17 18  1  0  0  0  0
 17 19  1  0  0  0  0
 17 20  1  0  0  0  0
 20 21  1  0  0  0  0
 20 22  1  0  0  0  0
 20 23  1  0  0  0  0
 23 24  1  0  0  0  0
 23 25  1  0  0  0  0
 23 26  1  0  0  0  0
M  END
> <VConfSearch Rank>
204

> <Conf_Id>
37

> <Delta U+W>
0.565

> <U+W>
-4.988

> <U>
48.035

> <W>
-53.022

> <W(PB)>
-55.379

> <W(SA)>
2.357

> <Valence>
2.701

> <Coulomb>
44.622

> <VdW>
0.712

> <VdW6>
-6.418

> <VdW12>
7.129

> <Bond>
0.168

> <Angle>
0.659

> <Pdih>
1.875

> <Idih>
0.000

> <Tether>
0.000

$$$$
VeraChem MOL file


 26 25  0  0  0  0  0  0  0  0999 V2000     
   19.3803   22.8400   22.6822 C   0  0  0  0  0  0  0  0  0  0  0  0
   19.8497   22.8989   23.6729 H   0  0  0  0  0  0  0  0  0  0  0  0
   20.1696   22.9266   21.9241 H   0  0  0  0  0  0  0  0  0  0  0  0
   18.7127   23.7047   22.5738 H   0  0  0  0  0  0  0  0  0  0  0  0
   18.5952   21.5214   22.5175 C   0  0  0  0  0  0  0  0  0  0  0  0
   18.1093   21.5077   21.5319 H   0  0  0  0  0  0  0  0  0  0  0  0
   17.7928   21.4787   23.2673 H   0  0  0  0  0  0  0  0  0  0  0  0
   19.5125   20.2871   22.6649 C   0  0  0  0  0  0  0  0  0  0  0  0
   20.3115   20.3334   21.9122 H   0  0  0  0  0  0  0  0  0  0  0  0
   19.9981   20.3181   23.6489 H   0  0  0  0  0  0  0  0  0  0  0  0
   18.7253   18.9643   22.5040 C   0  0  0  0  0  0  0  0  0  0  0  0
   18.1839   18.9847   21.5480 H   0  0  0  0  0  0  0  0  0  0  0  0
   17.9607   18.8899   23.2895 H   0  0  0  0  0  0  0  0  0  0  0  0
   19.6221   17.7022   22.5318 C   0  0  0  0  0  0  0  0  0  0  0  0
   19.0000   16.8276   22.2956 H   0  0  0  0  0  0  0  0  0  0  0  0
   20.3760   17.7682   21.7350 H   0  0  0  0  0  0  0  0  0  0  0  0
   20.3204   17.4683   23.8921 C   0  0  0  0  0  0  0  0  0  0  0  0
   19.5710   17.4529   24.6947 H   0  0  0  0  0  0  0  0  0  0  0  0
   21.0115   18.2924   24.1093 H   0  0  0  0  0  0  0  0  0  0  0  0
   21.1035   16.1436   23.8988 C   0  0  0  0  0  0  0  0  0  0  0  0
   20.4217   15.3119   23.7019 H   0  0  0  0  0  0  0  0  0  0  0  0
   21.8620   16.1605   23.1115 H   0  0  0  0  0  0  0  0  0  0  0  0
   21.8022   15.8735   25.2157 N   0  3  0  0  0  0  0  0  0  0  0  0
   21.1392   15.8184   25.9959 H   0  0  0  0  0  0  0  0  0  0  0  0
   22.4799   16.6073   25.4466 H   0  0  0  0  0  0  0  0  0  0  0  0
   22.3172   14.9863   25.1986 H   0  0  0  0  0  0  0  0  0  0  0  0
  1  2  1  0  0  0  0
  1  3  1  0  0  0  0
  1  4  1  0  0  0  0
  1  5  1  0  0  0  0
  5  6  1  0  0  0  0
  5  7  1  0  0  0  0
  5  8  1  0  0  0  0
  8  9  1  0  0  0  0
  8 10  1  0  0  0  0
  8 11  1  0  0  0  0
 11 12  1  0  0  0  0
 11 13  1  0  0  0  0
 11 14  1  0  0  0  0
 14 15  1  0  0  0  0
 14 16  1  0  0  0  0
 14 17  1  0  0  0  0
 17 18  1  0  0  0  0
 17 19  1  0  0  0  0
 17 20  1  0  0  0  0
 20 21  1  0  0  0  0
 20 22  1  0  0  0  0
 20 23  1  0  0  0  0
 23 24  1  0  0  0  0
 23 25  1  0  0  0  0
 23 26  1  0  0  0  0
M  END
> <VConfSearch Rank>
205

> <Conf_Id>
35

> <Delta U+W>
0.587

> <U+W>
-4.965

> <U>
48.214

> <W>
-53.179

> <W(PB)>
-55.527

> <W(SA)>
2.348

> <Valence>
2.697

> <Coulomb>
44.819

> <VdW>
0.699

> <VdW6>
-6.437

> <VdW12>
7.136

> <Bond>
0.168

> <Angle>
0.657

> <Pdih>
1.872

> <Idih>
0.000

> <Tether>
0.000

$$$$
VeraChem MOL file


 26 25  0  0  0  0  0  0  0  0999 V2000     
   16.0444   18.7264   23.2488 C   0  0  0  0  0  0  0  0  0  0  0  0
   16.0012   18.1382   22.3228 H   0  0  0  0  0  0  0  0  0  0  0  0
   16.2344   18.0380   24.0826 H   0  0  0  0  0  0  0  0  0  0  0  0
   15.0576   19.1810   23.4055 H   0  0  0  0  0  0  0  0  0  0  0  0
   17.1378   19.8125   23.1656 C   0  0  0  0  0  0  0  0  0  0  0  0
   17.1347   20.4048   24.0913 H   0  0  0  0  0  0  0  0  0  0  0  0
   16.9015   20.5049   22.3454 H   0  0  0  0  0  0  0  0  0  0  0  0
   18.5382   19.1989   22.9441 C   0  0  0  0  0  0  0  0  0  0  0  0
   18.7574   18.5033   23.7646 H   0  0  0  0  0  0  0  0  0  0  0  0
   18.5368   18.6097   22.0168 H   0  0  0  0  0  0  0  0  0  0  0  0
   19.6358   20.2872   22.8646 C   0  0  0  0  0  0  0  0  0  0  0  0
   19.6763   20.8429   23.8117 H   0  0  0  0  0  0  0  0  0  0  0  0
   19.3601   21.0169   22.0907 H   0  0  0  0  0  0  0  0  0  0  0  0
   21.0406   19.7272   22.5314 C   0  0  0  0  0  0  0  0  0  0  0  0
   21.0043   19.1862   21.5756 H   0  0  0  0  0  0  0  0  0  0  0  0
   21.7259   20.5730   22.3807 H   0  0  0  0  0  0  0  0  0  0  0  0
   21.6167   18.8047   23.6312 C   0  0  0  0  0  0  0  0  0  0  0  0
   20.9911   17.9100   23.7406 H   0  0  0  0  0  0  0  0  0  0  0  0
   21.6059   19.3284   24.5963 H   0  0  0  0  0  0  0  0  0  0  0  0
   23.0560   18.3715   23.3011 C   0  0  0  0  0  0  0  0  0  0  0  0
   23.0696   17.8352   22.3484 H   0  0  0  0  0  0  0  0  0  0  0  0
   23.6940   19.2545   23.2080 H   0  0  0  0  0  0  0  0  0  0  0  0
   23.6606   17.4671   24.3556 N   0  3  0  0  0  0  0  0  0  0  0  0
   23.1217   16.6027   24.4727 H   0  0  0  0  0  0  0  0  0  0  0  0
   23.7019   17.9237   25.2727 H   0  0  0  0  0  0  0  0  0  0  0  0
   24.6192   17.1909   24.1163 H   0  0  0  0  0  0  0  0  0  0  0  0
  1  2  1  0  0  0  0
  1  3  1  0  0  0  0
  1  4  1  0  0  0  0
  1  5  1  0  0  0  0
  5  6  1  0  0  0  0
  5  7  1  0  0  0  0
  5  8  1  0  0  0  0
  8  9  1  0  0  0  0
  8 10  1  0  0  0  0
  8 11  1  0  0  0  0
 11 12  1  0  0  0  0
 11 13  1  0  0  0  0
 11 14  1  0  0  0  0
 14 15  1  0  0  0  0
 14 16  1  0  0  0  0
 14 17  1  0  0  0  0
 17 18  1  0  0  0  0
 17 19  1  0  0  0  0
 17 20  1  0  0  0  0
 20 21  1  0  0  0  0
 20 22  1  0  0  0  0
 20 23  1  0  0  0  0
 23 24  1  0  0  0  0
 23 25  1  0  0  0  0
 23 26  1  0  0  0  0
M  END
> <VConfSearch Rank>
206

> <Conf_Id>
36

> <Delta U+W>
0.565

> <U+W>
-4.987

> <U>
48.214

> <W>
-53.201

> <W(PB)>
-55.543

> <W(SA)>
2.342

> <Valence>
2.697

> <Coulomb>
44.819

> <VdW>
0.698

> <VdW6>
-6.437

> <VdW12>
7.136

> <Bond>
0.168

> <Angle>
0.657

> <Pdih>
1.872

> <Idih>
0.000

> <Tether>
0.000

$$$$
VeraChem MOL file


 26 25  0  0  0  0  0  0  0  0999 V2000     
   22.8657   17.8860   26.3170 C   0  0  0  0  0  0  0  0  0  0  0  0
   23.8166   18.1364   25.8288 H   0  0  0  0  0  0  0  0  0  0  0  0
   22.9526   18.1493   27.3791 H   0  0  0  0  0  0  0  0  0  0  0  0
   22.7225   16.7996   26.2497 H   0  0  0  0  0  0  0  0  0  0  0  0
   21.6900   18.6420   25.6625 C   0  0  0  0  0  0  0  0  0  0  0  0
   21.8447   19.7243   25.7753 H   0  0  0  0  0  0  0  0  0  0  0  0
   20.7591   18.3978   26.1932 H   0  0  0  0  0  0  0  0  0  0  0  0
   21.5453   18.2891   24.1656 C   0  0  0  0  0  0  0  0  0  0  0  0
   22.4794   18.5324   23.6403 H   0  0  0  0  0  0  0  0  0  0  0  0
   21.3929   17.2062   24.0577 H   0  0  0  0  0  0  0  0  0  0  0  0
   20.3692   19.0445   23.5064 C   0  0  0  0  0  0  0  0  0  0  0  0
   20.5242   20.1271   23.6127 H   0  0  0  0  0  0  0  0  0  0  0  0
   19.4407   18.8016   24.0402 H   0  0  0  0  0  0  0  0  0  0  0  0
   20.2261   18.6879   22.0073 C   0  0  0  0  0  0  0  0  0  0  0  0
   21.1772   18.8899   21.4955 H   0  0  0  0  0  0  0  0  0  0  0  0
   20.0376   17.6107   21.8987 H   0  0  0  0  0  0  0  0  0  0  0  0
   19.1034   19.4817   21.2987 C   0  0  0  0  0  0  0  0  0  0  0  0
   19.1200   19.2427   20.2270 H   0  0  0  0  0  0  0  0  0  0  0  0
   19.3024   20.5584   21.3839 H   0  0  0  0  0  0  0  0  0  0  0  0
   17.7051   19.1673   21.8627 C   0  0  0  0  0  0  0  0  0  0  0  0
   17.5063   18.0956   21.7771 H   0  0  0  0  0  0  0  0  0  0  0  0
   17.6615   19.4425   22.9197 H   0  0  0  0  0  0  0  0  0  0  0  0
   16.5958   19.9078   21.1440 N   0  3  0  0  0  0  0  0  0  0  0  0
   15.6736   19.6848   21.5342 H   0  0  0  0  0  0  0  0  0  0  0  0
   16.5626   19.6718   20.1468 H   0  0  0  0  0  0  0  0  0  0  0  0
   16.7099   20.9246   21.2098 H   0  0  0  0  0  0  0  0  0  0  0  0
  1  2  1  0  0  0  0
  1  3  1  0  0  0  0
  1  4  1  0  0  0  0
  1  5  1  0  0  0  0
  5  6  1  0  0  0  0
  5  7  1  0  0  0  0
  5  8  1  0  0  0  0
  8  9  1  0  0  0  0
  8 10  1  0  0  0  0
  8 11  1  0  0  0  0
 11 12  1  0  0  0  0
 11 13  1  0  0  0  0
 11 14  1  0  0  0  0
 14 15  1  0  0  0  0
 14 16  1  0  0  0  0
 14 17  1  0  0  0  0
 17 18  1  0  0  0  0
 17 19  1  0  0  0  0
 17 20  1  0  0  0  0
 20 21  1  0  0  0  0
 20 22  1  0  0  0  0
 20 23  1  0  0  0  0
 23 24  1  0  0  0  0
 23 25  1  0  0  0  0
 23 26  1  0  0  0  0
M  END
> <VConfSearch Rank>
207

> <Conf_Id>
44

> <Delta U+W>
0.371

> <U+W>
-5.181

> <U>
48.002

> <W>
-53.183

> <W(PB)>
-55.533

> <W(SA)>
2.350

> <Valence>
2.459

> <Coulomb>
44.901

> <VdW>
0.643

> <VdW6>
-6.362

> <VdW12>
7.005

> <Bond>
0.151

> <Angle>
0.519

> <Pdih>
1.789

> <Idih>
0.000

> <Tether>
0.000

$$$$
VeraChem MOL file


 26 25  0  0  0  0  0  0  0  0999 V2000     
   19.2406   17.3839   19.7618 C   0  0  0  0  0  0  0  0  0  0  0  0
   19.5443   18.2972   19.2339 H   0  0  0  0  0  0  0  0  0  0  0  0
   19.1507   16.5812   19.0186 H   0  0  0  0  0  0  0  0  0  0  0  0
   18.2440   17.5487   20.1896 H   0  0  0  0  0  0  0  0  0  0  0  0
   20.2709   17.0010   20.8486 C   0  0  0  0  0  0  0  0  0  0  0  0
   21.2134   16.7218   20.3572 H   0  0  0  0  0  0  0  0  0  0  0  0
   19.9276   16.1056   21.3853 H   0  0  0  0  0  0  0  0  0  0  0  0
   20.5574   18.1393   21.8579 C   0  0  0  0  0  0  0  0  0  0  0  0
   21.3922   17.8226   22.4959 H   0  0  0  0  0  0  0  0  0  0  0  0
   20.9015   19.0311   21.3163 H   0  0  0  0  0  0  0  0  0  0  0  0
   19.3364   18.5019   22.7414 C   0  0  0  0  0  0  0  0  0  0  0  0
   18.9945   17.6112   23.2862 H   0  0  0  0  0  0  0  0  0  0  0  0
   18.5016   18.8102   22.0991 H   0  0  0  0  0  0  0  0  0  0  0  0
   19.6143   19.6490   23.7444 C   0  0  0  0  0  0  0  0  0  0  0  0
   19.9700   20.5351   23.2006 H   0  0  0  0  0  0  0  0  0  0  0  0
   18.6605   19.9341   24.2076 H   0  0  0  0  0  0  0  0  0  0  0  0
   20.6296   19.2734   24.8532 C   0  0  0  0  0  0  0  0  0  0  0  0
   21.6007   19.0324   24.4037 H   0  0  0  0  0  0  0  0  0  0  0  0
   20.2943   18.3709   25.3812 H   0  0  0  0  0  0  0  0  0  0  0  0
   20.8477   20.4116   25.8689 C   0  0  0  0  0  0  0  0  0  0  0  0
   21.6418   20.1281   26.5650 H   0  0  0  0  0  0  0  0  0  0  0  0
   21.1620   21.3180   25.3444 H   0  0  0  0  0  0  0  0  0  0  0  0
   19.6168   20.7446   26.6893 N   0  3  0  0  0  0  0  0  0  0  0  0
   18.8396   21.0567   26.0991 H   0  0  0  0  0  0  0  0  0  0  0  0
   19.8009   21.4948   27.3644 H   0  0  0  0  0  0  0  0  0  0  0  0
   19.2854   19.9353   27.2243 H   0  0  0  0  0  0  0  0  0  0  0  0
  1  2  1  0  0  0  0
  1  3  1  0  0  0  0
  1  4  1  0  0  0  0
  1  5  1  0  0  0  0
  5  6  1  0  0  0  0
  5  7  1  0  0  0  0
  5  8  1  0  0  0  0
  8  9  1  0  0  0  0
  8 10  1  0  0  0  0
  8 11  1  0  0  0  0
 11 12  1  0  0  0  0
 11 13  1  0  0  0  0
 11 14  1  0  0  0  0
 14 15  1  0  0  0  0
 14 16  1  0  0  0  0
 14 17  1  0  0  0  0
 17 18  1  0  0  0  0
 17 19  1  0  0  0  0
 17 20  1  0  0  0  0
 20 21  1  0  0  0  0
 20 22  1  0  0  0  0
 20 23  1  0  0  0  0
 23 24  1  0  0  0  0
 23 25  1  0  0  0  0
 23 26  1  0  0  0  0
M  END
> <VConfSearch Rank>
208

> <Conf_Id>
112

> <Delta U+W>
1.422

> <U+W>
-4.130

> <U>
49.323

> <W>
-53.453

> <W(PB)>
-55.749

> <W(SA)>
2.296

> <Valence>
3.408

> <Coulomb>
44.893

> <VdW>
1.021

> <VdW6>
-7.481

> <VdW12>
8.503

> <Bond>
0.239

> <Angle>
1.013

> <Pdih>
2.156

> <Idih>
0.000

> <Tether>
0.000

$$$$
VeraChem MOL file


 26 25  0  0  0  0  0  0  0  0999 V2000     
   16.4976   18.0545   22.3761 C   0  0  0  0  0  0  0  0  0  0  0  0
   15.5710   17.6334   21.9649 H   0  0  0  0  0  0  0  0  0  0  0  0
   16.6754   17.5752   23.3468 H   0  0  0  0  0  0  0  0  0  0  0  0
   16.3327   19.1263   22.5465 H   0  0  0  0  0  0  0  0  0  0  0  0
   17.6761   17.8212   21.4039 C   0  0  0  0  0  0  0  0  0  0  0  0
   17.4039   18.2161   20.4151 H   0  0  0  0  0  0  0  0  0  0  0  0
   17.8367   16.7422   21.2702 H   0  0  0  0  0  0  0  0  0  0  0  0
   18.9922   18.4938   21.8630 C   0  0  0  0  0  0  0  0  0  0  0  0
   19.7444   18.3649   21.0726 H   0  0  0  0  0  0  0  0  0  0  0  0
   18.8261   19.5745   21.9618 H   0  0  0  0  0  0  0  0  0  0  0  0
   19.5461   17.9153   23.1898 C   0  0  0  0  0  0  0  0  0  0  0  0
   19.5817   16.8198   23.1142 H   0  0  0  0  0  0  0  0  0  0  0  0
   18.8616   18.1468   24.0165 H   0  0  0  0  0  0  0  0  0  0  0  0
   20.9635   18.4286   23.5440 C   0  0  0  0  0  0  0  0  0  0  0  0
   21.3167   17.8764   24.4249 H   0  0  0  0  0  0  0  0  0  0  0  0
   21.6579   18.1848   22.7280 H   0  0  0  0  0  0  0  0  0  0  0  0
   21.0142   19.9496   23.8351 C   0  0  0  0  0  0  0  0  0  0  0  0
   20.3045   20.2042   24.6334 H   0  0  0  0  0  0  0  0  0  0  0  0
   20.7005   20.5089   22.9451 H   0  0  0  0  0  0  0  0  0  0  0  0
   22.4240   20.4327   24.2272 C   0  0  0  0  0  0  0  0  0  0  0  0
   23.1367   20.1642   23.4427 H   0  0  0  0  0  0  0  0  0  0  0  0
   22.4192   21.5218   24.3250 H   0  0  0  0  0  0  0  0  0  0  0  0
   22.9261   19.8574   25.5371 N   0  3  0  0  0  0  0  0  0  0  0  0
   22.9920   18.8355   25.5029 H   0  0  0  0  0  0  0  0  0  0  0  0
   22.3078   20.0954   26.3194 H   0  0  0  0  0  0  0  0  0  0  0  0
   23.8594   20.2104   25.7750 H   0  0  0  0  0  0  0  0  0  0  0  0
  1  2  1  0  0  0  0
  1  3  1  0  0  0  0
  1  4  1  0  0  0  0
  1  5  1  0  0  0  0
  5  6  1  0  0  0  0
  5  7  1  0  0  0  0
  5  8  1  0  0  0  0
  8  9  1  0  0  0  0
  8 10  1  0  0  0  0
  8 11  1  0  0  0  0
 11 12  1  0  0  0  0
 11 13  1  0  0  0  0
 11 14  1  0  0  0  0
 14 15  1  0  0  0  0
 14 16  1  0  0  0  0
 14 17  1  0  0  0  0
 17 18  1  0  0  0  0
 17 19  1  0  0  0  0
 17 20  1  0  0  0  0
 20 21  1  0  0  0  0
 20 22  1  0  0  0  0
 20 23  1  0  0  0  0
 23 24  1  0  0  0  0
 23 25  1  0  0  0  0
 23 26  1  0  0  0  0
M  END
> <VConfSearch Rank>
209

> <Conf_Id>
130

> <Delta U+W>
1.282

> <U+W>
-4.270

> <U>
49.153

> <W>
-53.422

> <W(PB)>
-55.725

> <W(SA)>
2.303

> <Valence>
3.298

> <Coulomb>
44.907

> <VdW>
0.948

> <VdW6>
-7.574

> <VdW12>
8.522

> <Bond>
0.229

> <Angle>
0.912

> <Pdih>
2.157

> <Idih>
0.000

> <Tether>
0.000

$$$$
VeraChem MOL file


 26 25  0  0  0  0  0  0  0  0999 V2000     
   16.8324   18.9983   22.0029 C   0  0  0  0  0  0  0  0  0  0  0  0
   16.6945   19.9977   21.5702 H   0  0  0  0  0  0  0  0  0  0  0  0
   15.8767   18.4638   21.9259 H   0  0  0  0  0  0  0  0  0  0  0  0
   17.0613   19.1135   23.0697 H   0  0  0  0  0  0  0  0  0  0  0  0
   17.9473   18.2229   21.2655 C   0  0  0  0  0  0  0  0  0  0  0  0
   17.6199   18.0282   20.2347 H   0  0  0  0  0  0  0  0  0  0  0  0
   18.0810   17.2360   21.7281 H   0  0  0  0  0  0  0  0  0  0  0  0
   19.2985   18.9811   21.2179 C   0  0  0  0  0  0  0  0  0  0  0  0
   20.0244   18.3758   20.6577 H   0  0  0  0  0  0  0  0  0  0  0  0
   19.1655   19.9039   20.6365 H   0  0  0  0  0  0  0  0  0  0  0  0
   19.9058   19.3476   22.5970 C   0  0  0  0  0  0  0  0  0  0  0  0
   19.2379   20.0387   23.1279 H   0  0  0  0  0  0  0  0  0  0  0  0
   20.8354   19.9038   22.4189 H   0  0  0  0  0  0  0  0  0  0  0  0
   20.2028   18.1160   23.4897 C   0  0  0  0  0  0  0  0  0  0  0  0
   19.2691   17.5759   23.6933 H   0  0  0  0  0  0  0  0  0  0  0  0
   20.8576   17.4166   22.9517 H   0  0  0  0  0  0  0  0  0  0  0  0
   20.8491   18.4904   24.8443 C   0  0  0  0  0  0  0  0  0  0  0  0
   20.9312   17.5855   25.4610 H   0  0  0  0  0  0  0  0  0  0  0  0
   20.1922   19.1826   25.3878 H   0  0  0  0  0  0  0  0  0  0  0  0
   22.2469   19.1178   24.6862 C   0  0  0  0  0  0  0  0  0  0  0  0
   22.9001   18.4288   24.1440 H   0  0  0  0  0  0  0  0  0  0  0  0
   22.1743   20.0462   24.1141 H   0  0  0  0  0  0  0  0  0  0  0  0
   22.9051   19.4403   26.0122 N   0  3  0  0  0  0  0  0  0  0  0  0
   22.3520   20.1064   26.5613 H   0  0  0  0  0  0  0  0  0  0  0  0
   23.8340   19.8565   25.8853 H   0  0  0  0  0  0  0  0  0  0  0  0
   23.0300   18.6028   26.5904 H   0  0  0  0  0  0  0  0  0  0  0  0
  1  2  1  0  0  0  0
  1  3  1  0  0  0  0
  1  4  1  0  0  0  0
  1  5  1  0  0  0  0
  5  6  1  0  0  0  0
  5  7  1  0  0  0  0
  5  8  1  0  0  0  0
  8  9  1  0  0  0  0
  8 10  1  0  0  0  0
  8 11  1  0  0  0  0
 11 12  1  0  0  0  0
 11 13  1  0  0  0  0
 11 14  1  0  0  0  0
 14 15  1  0  0  0  0
 14 16  1  0  0  0  0
 14 17  1  0  0  0  0
 17 18  1  0  0  0  0
 17 19  1  0  0  0  0
 17 20  1  0  0  0  0
 20 21  1  0  0  0  0
 20 22  1  0  0  0  0
 20 23  1  0  0  0  0
 23 24  1  0  0  0  0
 23 25  1  0  0  0  0
 23 26  1  0  0  0  0
M  END
> <VConfSearch Rank>
210

> <Conf_Id>
111

> <Delta U+W>
1.290

> <U+W>
-4.262

> <U>
49.209

> <W>
-53.471

> <W(PB)>
-55.745

> <W(SA)>
2.274

> <Valence>
3.465

> <Coulomb>
44.958

> <VdW>
0.786

> <VdW6>
-7.903

> <VdW12>
8.689

> <Bond>
0.237

> <Angle>
1.212

> <Pdih>
2.015

> <Idih>
0.000

> <Tether>
0.000

$$$$
VeraChem MOL file


 26 25  0  0  0  0  0  0  0  0999 V2000     
   22.0305   18.9148   26.7060 C   0  0  0  0  0  0  0  0  0  0  0  0
   22.9876   18.7674   26.1888 H   0  0  0  0  0  0  0  0  0  0  0  0
   22.0917   19.8493   27.2789 H   0  0  0  0  0  0  0  0  0  0  0  0
   21.9024   18.0904   27.4194 H   0  0  0  0  0  0  0  0  0  0  0  0
   20.8585   18.9543   25.7025 C   0  0  0  0  0  0  0  0  0  0  0  0
   19.9135   19.0729   26.2508 H   0  0  0  0  0  0  0  0  0  0  0  0
   20.8050   17.9901   25.1798 H   0  0  0  0  0  0  0  0  0  0  0  0
   21.0195   20.1068   24.6832 C   0  0  0  0  0  0  0  0  0  0  0  0
   21.1512   21.0507   25.2301 H   0  0  0  0  0  0  0  0  0  0  0  0
   21.9380   19.9589   24.0987 H   0  0  0  0  0  0  0  0  0  0  0  0
   19.8130   20.2602   23.7245 C   0  0  0  0  0  0  0  0  0  0  0  0
   19.9616   21.1668   23.1217 H   0  0  0  0  0  0  0  0  0  0  0  0
   18.8978   20.4255   24.3096 H   0  0  0  0  0  0  0  0  0  0  0  0
   19.6174   19.0521   22.7771 C   0  0  0  0  0  0  0  0  0  0  0  0
   20.5559   18.8570   22.2414 H   0  0  0  0  0  0  0  0  0  0  0  0
   19.3879   18.1511   23.3610 H   0  0  0  0  0  0  0  0  0  0  0  0
   18.4751   19.2998   21.7636 C   0  0  0  0  0  0  0  0  0  0  0  0
   18.7048   20.1765   21.1435 H   0  0  0  0  0  0  0  0  0  0  0  0
   17.5508   19.5345   22.3082 H   0  0  0  0  0  0  0  0  0  0  0  0
   18.2106   18.0832   20.8556 C   0  0  0  0  0  0  0  0  0  0  0  0
   17.9866   17.2070   21.4701 H   0  0  0  0  0  0  0  0  0  0  0  0
   17.3432   18.2858   20.2215 H   0  0  0  0  0  0  0  0  0  0  0  0
   19.3733   17.7358   19.9467 N   0  3  0  0  0  0  0  0  0  0  0  0
   19.1606   16.9309   19.3474 H   0  0  0  0  0  0  0  0  0  0  0  0
   20.2149   17.4981   20.4807 H   0  0  0  0  0  0  0  0  0  0  0  0
   19.6174   18.5146   19.3263 H   0  0  0  0  0  0  0  0  0  0  0  0
  1  2  1  0  0  0  0
  1  3  1  0  0  0  0
  1  4  1  0  0  0  0
  1  5  1  0  0  0  0
  5  6  1  0  0  0  0
  5  7  1  0  0  0  0
  5  8  1  0  0  0  0
  8  9  1  0  0  0  0
  8 10  1  0  0  0  0
  8 11  1  0  0  0  0
 11 12  1  0  0  0  0
 11 13  1  0  0  0  0
 11 14  1  0  0  0  0
 14 15  1  0  0  0  0
 14 16  1  0  0  0  0
 14 17  1  0  0  0  0
 17 18  1  0  0  0  0
 17 19  1  0  0  0  0
 17 20  1  0  0  0  0
 20 21  1  0  0  0  0
 20 22  1  0  0  0  0
 20 23  1  0  0  0  0
 23 24  1  0  0  0  0
 23 25  1  0  0  0  0
 23 26  1  0  0  0  0
M  END
> <VConfSearch Rank>
211

> <Conf_Id>
105

> <Delta U+W>
0.736

> <U+W>
-4.817

> <U>
48.735

> <W>
-53.552

> <W(PB)>
-55.889

> <W(SA)>
2.337

> <Valence>
2.803

> <Coulomb>
45.123

> <VdW>
0.809

> <VdW6>
-6.953

> <VdW12>
7.761

> <Bond>
0.188

> <Angle>
0.699

> <Pdih>
1.917

> <Idih>
0.000

> <Tether>
0.000

$$$$
VeraChem MOL file


 26 25  0  0  0  0  0  0  0  0999 V2000     
   22.3605   20.4153   25.7936 C   0  0  0  0  0  0  0  0  0  0  0  0
   22.2238   21.4331   26.1816 H   0  0  0  0  0  0  0  0  0  0  0  0
   21.9310   19.7121   26.5191 H   0  0  0  0  0  0  0  0  0  0  0  0
   23.4390   20.2202   25.7329 H   0  0  0  0  0  0  0  0  0  0  0  0
   21.6991   20.2556   24.4083 C   0  0  0  0  0  0  0  0  0  0  0  0
   21.8912   19.2401   24.0370 H   0  0  0  0  0  0  0  0  0  0  0  0
   22.1688   20.9497   23.6975 H   0  0  0  0  0  0  0  0  0  0  0  0
   20.1766   20.5217   24.4691 C   0  0  0  0  0  0  0  0  0  0  0  0
   19.7002   19.8018   25.1476 H   0  0  0  0  0  0  0  0  0  0  0  0
   20.0055   21.5115   24.9142 H   0  0  0  0  0  0  0  0  0  0  0  0
   19.4830   20.4856   23.0825 C   0  0  0  0  0  0  0  0  0  0  0  0
   19.8863   21.2987   22.4633 H   0  0  0  0  0  0  0  0  0  0  0  0
   18.4162   20.7122   23.2163 H   0  0  0  0  0  0  0  0  0  0  0  0
   19.6191   19.1525   22.3017 C   0  0  0  0  0  0  0  0  0  0  0  0
   19.1007   19.2690   21.3409 H   0  0  0  0  0  0  0  0  0  0  0  0
   20.6730   18.9678   22.0547 H   0  0  0  0  0  0  0  0  0  0  0  0
   19.0365   17.9309   23.0555 C   0  0  0  0  0  0  0  0  0  0  0  0
   17.9879   18.1179   23.3224 H   0  0  0  0  0  0  0  0  0  0  0  0
   19.5797   17.7829   23.9972 H   0  0  0  0  0  0  0  0  0  0  0  0
   19.1358   16.6269   22.2405 C   0  0  0  0  0  0  0  0  0  0  0  0
   20.1765   16.4483   21.9569 H   0  0  0  0  0  0  0  0  0  0  0  0
   18.8018   15.7882   22.8574 H   0  0  0  0  0  0  0  0  0  0  0  0
   18.2969   16.6292   20.9775 N   0  3  0  0  0  0  0  0  0  0  0  0
   18.5831   17.3721   20.3325 H   0  0  0  0  0  0  0  0  0  0  0  0
   17.3023   16.7713   21.1814 H   0  0  0  0  0  0  0  0  0  0  0  0
   18.3744   15.7426   20.4674 H   0  0  0  0  0  0  0  0  0  0  0  0
  1  2  1  0  0  0  0
  1  3  1  0  0  0  0
  1  4  1  0  0  0  0
  1  5  1  0  0  0  0
  5  6  1  0  0  0  0
  5  7  1  0  0  0  0
  5  8  1  0  0  0  0
  8  9  1  0  0  0  0
  8 10  1  0  0  0  0
  8 11  1  0  0  0  0
 11 12  1  0  0  0  0
 11 13  1  0  0  0  0
 11 14  1  0  0  0  0
 14 15  1  0  0  0  0
 14 16  1  0  0  0  0
 14 17  1  0  0  0  0
 17 18  1  0  0  0  0
 17 19  1  0  0  0  0
 17 20  1  0  0  0  0
 20 21  1  0  0  0  0
 20 22  1  0  0  0  0
 20 23  1  0  0  0  0
 23 24  1  0  0  0  0
 23 25  1  0  0  0  0
 23 26  1  0  0  0  0
M  END
> <VConfSearch Rank>
212

> <Conf_Id>
144

> <Delta U+W>
1.073

> <U+W>
-4.479

> <U>
49.231

> <W>
-53.710

> <W(PB)>
-55.983

> <W(SA)>
2.273

> <Valence>
3.276

> <Coulomb>
45.175

> <VdW>
0.779

> <VdW6>
-7.944

> <VdW12>
8.723

> <Bond>
0.239

> <Angle>
1.155

> <Pdih>
1.883

> <Idih>
0.000

> <Tether>
0.000

$$$$
VeraChem MOL file


 26 25  0  0  0  0  0  0  0  0999 V2000     
   17.0438   19.5030   21.1499 C   0  0  0  0  0  0  0  0  0  0  0  0
   16.8143   18.4324   21.2122 H   0  0  0  0  0  0  0  0  0  0  0  0
   16.1039   20.0286   20.9371 H   0  0  0  0  0  0  0  0  0  0  0  0
   17.7169   19.6620   20.2974 H   0  0  0  0  0  0  0  0  0  0  0  0
   17.6722   20.0300   22.4602 C   0  0  0  0  0  0  0  0  0  0  0  0
   16.9962   19.8293   23.3032 H   0  0  0  0  0  0  0  0  0  0  0  0
   17.7609   21.1233   22.3917 H   0  0  0  0  0  0  0  0  0  0  0  0
   19.0717   19.4387   22.7573 C   0  0  0  0  0  0  0  0  0  0  0  0
   19.7375   19.6236   21.9032 H   0  0  0  0  0  0  0  0  0  0  0  0
   19.4901   19.9864   23.6109 H   0  0  0  0  0  0  0  0  0  0  0  0
   19.0454   17.9259   23.0893 C   0  0  0  0  0  0  0  0  0  0  0  0
   18.5350   17.3826   22.2842 H   0  0  0  0  0  0  0  0  0  0  0  0
   18.4457   17.7631   23.9953 H   0  0  0  0  0  0  0  0  0  0  0  0
   20.4448   17.2837   23.2754 C   0  0  0  0  0  0  0  0  0  0  0  0
   20.2940   16.2119   23.4652 H   0  0  0  0  0  0  0  0  0  0  0  0
   21.0141   17.3415   22.3372 H   0  0  0  0  0  0  0  0  0  0  0  0
   21.2830   17.8659   24.4414 C   0  0  0  0  0  0  0  0  0  0  0  0
   21.9529   17.0807   24.8166 H   0  0  0  0  0  0  0  0  0  0  0  0
   20.6272   18.1398   25.2785 H   0  0  0  0  0  0  0  0  0  0  0  0
   22.1479   19.0700   24.0198 C   0  0  0  0  0  0  0  0  0  0  0  0
   22.8323   18.7672   23.2228 H   0  0  0  0  0  0  0  0  0  0  0  0
   21.5173   19.8753   23.6387 H   0  0  0  0  0  0  0  0  0  0  0  0
   22.9769   19.6299   25.1576 N   0  3  0  0  0  0  0  0  0  0  0  0
   23.6199   18.9299   25.5420 H   0  0  0  0  0  0  0  0  0  0  0  0
   22.3908   19.9585   25.9320 H   0  0  0  0  0  0  0  0  0  0  0  0
   23.5487   20.4266   24.8565 H   0  0  0  0  0  0  0  0  0  0  0  0
  1  2  1  0  0  0  0
  1  3  1  0  0  0  0
  1  4  1  0  0  0  0
  1  5  1  0  0  0  0
  5  6  1  0  0  0  0
  5  7  1  0  0  0  0
  5  8  1  0  0  0  0
  8  9  1  0  0  0  0
  8 10  1  0  0  0  0
  8 11  1  0  0  0  0
 11 12  1  0  0  0  0
 11 13  1  0  0  0  0
 11 14  1  0  0  0  0
 14 15  1  0  0  0  0
 14 16  1  0  0  0  0
 14 17  1  0  0  0  0
 17 18  1  0  0  0  0
 17 19  1  0  0  0  0
 17 20  1  0  0  0  0
 20 21  1  0  0  0  0
 20 22  1  0  0  0  0
 20 23  1  0  0  0  0
 23 24  1  0  0  0  0
 23 25  1  0  0  0  0
 23 26  1  0  0  0  0
M  END
> <VConfSearch Rank>
213

> <Conf_Id>
93

> <Delta U+W>
3.253

> <U+W>
-2.300

> <U>
51.609

> <W>
-53.909

> <W(PB)>
-56.178

> <W(SA)>
2.270

> <Valence>
5.204

> <Coulomb>
45.645

> <VdW>
0.760

> <VdW6>
-7.997

> <VdW12>
8.758

> <Bond>
0.240

> <Angle>
1.456

> <Pdih>
3.507

> <Idih>
0.000

> <Tether>
0.000

$$$$
VeraChem MOL file


 26 25  0  0  0  0  0  0  0  0999 V2000     
   21.2809   17.3704   20.2150 C   0  0  0  0  0  0  0  0  0  0  0  0
   20.2404   17.2890   19.8780 H   0  0  0  0  0  0  0  0  0  0  0  0
   21.6740   18.3416   19.8875 H   0  0  0  0  0  0  0  0  0  0  0  0
   21.8542   16.5869   19.7028 H   0  0  0  0  0  0  0  0  0  0  0  0
   21.3991   17.2111   21.7480 C   0  0  0  0  0  0  0  0  0  0  0  0
   22.4644   17.1705   22.0152 H   0  0  0  0  0  0  0  0  0  0  0  0
   20.9687   16.2478   22.0556 H   0  0  0  0  0  0  0  0  0  0  0  0
   20.7342   18.3610   22.5431 C   0  0  0  0  0  0  0  0  0  0  0  0
   21.0068   18.2370   23.5986 H   0  0  0  0  0  0  0  0  0  0  0  0
   21.1526   19.3231   22.2171 H   0  0  0  0  0  0  0  0  0  0  0  0
   19.1904   18.3864   22.4180 C   0  0  0  0  0  0  0  0  0  0  0  0
   18.7773   17.4537   22.8259 H   0  0  0  0  0  0  0  0  0  0  0  0
   18.9087   18.4065   21.3577 H   0  0  0  0  0  0  0  0  0  0  0  0
   18.5089   19.5969   23.1079 C   0  0  0  0  0  0  0  0  0  0  0  0
   18.8311   20.5331   22.6312 H   0  0  0  0  0  0  0  0  0  0  0  0
   17.4296   19.5223   22.9155 H   0  0  0  0  0  0  0  0  0  0  0  0
   18.7201   19.6816   24.6406 C   0  0  0  0  0  0  0  0  0  0  0  0
   18.7454   18.6735   25.0751 H   0  0  0  0  0  0  0  0  0  0  0  0
   17.8537   20.1892   25.0854 H   0  0  0  0  0  0  0  0  0  0  0  0
   19.9867   20.4677   25.0322 C   0  0  0  0  0  0  0  0  0  0  0  0
   20.8737   19.9943   24.6073 H   0  0  0  0  0  0  0  0  0  0  0  0
   19.9219   21.4853   24.6378 H   0  0  0  0  0  0  0  0  0  0  0  0
   20.1848   20.5612   26.5313 N   0  3  0  0  0  0  0  0  0  0  0  0
   19.3975   21.0293   26.9920 H   0  0  0  0  0  0  0  0  0  0  0  0
   21.0292   21.0917   26.7719 H   0  0  0  0  0  0  0  0  0  0  0  0
   20.2800   19.6361   26.9628 H   0  0  0  0  0  0  0  0  0  0  0  0
  1  2  1  0  0  0  0
  1  3  1  0  0  0  0
  1  4  1  0  0  0  0
  1  5  1  0  0  0  0
  5  6  1  0  0  0  0
  5  7  1  0  0  0  0
  5  8  1  0  0  0  0
  8  9  1  0  0  0  0
  8 10  1  0  0  0  0
  8 11  1  0  0  0  0
 11 12  1  0  0  0  0
 11 13  1  0  0  0  0
 11 14  1  0  0  0  0
 14 15  1  0  0  0  0
 14 16  1  0  0  0  0
 14 17  1  0  0  0  0
 17 18  1  0  0  0  0
 17 19  1  0  0  0  0
 17 20  1  0  0  0  0
 20 21  1  0  0  0  0
 20 22  1  0  0  0  0
 20 23  1  0  0  0  0
 23 24  1  0  0  0  0
 23 25  1  0  0  0  0
 23 26  1  0  0  0  0
M  END
> <VConfSearch Rank>
214

> <Conf_Id>
94

> <Delta U+W>
3.247

> <U+W>
-2.305

> <U>
51.609

> <W>
-53.914

> <W(PB)>
-56.221

> <W(SA)>
2.307

> <Valence>
5.204

> <Coulomb>
45.645

> <VdW>
0.760

> <VdW6>
-7.997

> <VdW12>
8.757

> <Bond>
0.240

> <Angle>
1.456

> <Pdih>
3.508

> <Idih>
0.000

> <Tether>
0.000

$$$$
VeraChem MOL file


 26 25  0  0  0  0  0  0  0  0999 V2000     
   22.5478   18.7632   26.5090 C   0  0  0  0  0  0  0  0  0  0  0  0
   22.3472   19.7036   27.0388 H   0  0  0  0  0  0  0  0  0  0  0  0
   21.9412   17.9738   26.9718 H   0  0  0  0  0  0  0  0  0  0  0  0
   23.6048   18.5092   26.6618 H   0  0  0  0  0  0  0  0  0  0  0  0
   22.2312   18.8958   25.0042 C   0  0  0  0  0  0  0  0  0  0  0  0
   22.4736   17.9518   24.4962 H   0  0  0  0  0  0  0  0  0  0  0  0
   22.8764   19.6682   24.5626 H   0  0  0  0  0  0  0  0  0  0  0  0
   20.7482   19.2534   24.7610 C   0  0  0  0  0  0  0  0  0  0  0  0
   20.1073   18.4796   25.2058 H   0  0  0  0  0  0  0  0  0  0  0  0
   20.5104   20.1960   25.2731 H   0  0  0  0  0  0  0  0  0  0  0  0
   20.4275   19.3875   23.2552 C   0  0  0  0  0  0  0  0  0  0  0  0
   20.6747   18.4448   22.7491 H   0  0  0  0  0  0  0  0  0  0  0  0
   21.0666   20.1640   22.8125 H   0  0  0  0  0  0  0  0  0  0  0  0
   18.9408   19.7437   23.0145 C   0  0  0  0  0  0  0  0  0  0  0  0
   18.2979   18.9581   23.4336 H   0  0  0  0  0  0  0  0  0  0  0  0
   18.6973   20.6628   23.5651 H   0  0  0  0  0  0  0  0  0  0  0  0
   18.6005   19.9613   21.5187 C   0  0  0  0  0  0  0  0  0  0  0  0
   19.1862   20.8066   21.1337 H   0  0  0  0  0  0  0  0  0  0  0  0
   17.5458   20.2521   21.4251 H   0  0  0  0  0  0  0  0  0  0  0  0
   18.8652   18.7301   20.6284 C   0  0  0  0  0  0  0  0  0  0  0  0
   18.6254   18.9750   19.5901 H   0  0  0  0  0  0  0  0  0  0  0  0
   19.9228   18.4586   20.6770 H   0  0  0  0  0  0  0  0  0  0  0  0
   18.0489   17.5129   21.0155 N   0  3  0  0  0  0  0  0  0  0  0  0
   17.0420   17.6973   20.9615 H   0  0  0  0  0  0  0  0  0  0  0  0
   18.2514   17.2121   21.9739 H   0  0  0  0  0  0  0  0  0  0  0  0
   18.2409   16.7140   20.4014 H   0  0  0  0  0  0  0  0  0  0  0  0
  1  2  1  0  0  0  0
  1  3  1  0  0  0  0
  1  4  1  0  0  0  0
  1  5  1  0  0  0  0
  5  6  1  0  0  0  0
  5  7  1  0  0  0  0
  5  8  1  0  0  0  0
  8  9  1  0  0  0  0
  8 10  1  0  0  0  0
  8 11  1  0  0  0  0
 11 12  1  0  0  0  0
 11 13  1  0  0  0  0
 11 14  1  0  0  0  0
 14 15  1  0  0  0  0
 14 16  1  0  0  0  0
 14 17  1  0  0  0  0
 17 18  1  0  0  0  0
 17 19  1  0  0  0  0
 17 20  1  0  0  0  0
 20 21  1  0  0  0  0
 20 22  1  0  0  0  0
 20 23  1  0  0  0  0
 23 24  1  0  0  0  0
 23 25  1  0  0  0  0
 23 26  1  0  0  0  0
M  END
> <VConfSearch Rank>
215

> <Conf_Id>
83

> <Delta U+W>
0.559

> <U+W>
-4.994

> <U>
48.668

> <W>
-53.661

> <W(PB)>
-55.972

> <W(SA)>
2.311

> <Valence>
2.543

> <Coulomb>
45.478

> <VdW>
0.646

> <VdW6>
-7.096

> <VdW12>
7.742

> <Bond>
0.176

> <Angle>
0.630

> <Pdih>
1.738

> <Idih>
0.000

> <Tether>
0.000

$$$$
VeraChem MOL file


 26 25  0  0  0  0  0  0  0  0999 V2000     
   16.7543   17.3075   24.5497 C   0  0  0  0  0  0  0  0  0  0  0  0
   15.8729   17.9491   24.6783 H   0  0  0  0  0  0  0  0  0  0  0  0
   16.5876   16.6692   23.6721 H   0  0  0  0  0  0  0  0  0  0  0  0
   16.8284   16.6567   25.4306 H   0  0  0  0  0  0  0  0  0  0  0  0
   18.0364   18.1511   24.3860 C   0  0  0  0  0  0  0  0  0  0  0  0
   18.8980   17.4758   24.3018 H   0  0  0  0  0  0  0  0  0  0  0  0
   18.1921   18.7561   25.2901 H   0  0  0  0  0  0  0  0  0  0  0  0
   17.9570   19.0740   23.1469 C   0  0  0  0  0  0  0  0  0  0  0  0
   17.8558   18.4656   22.2376 H   0  0  0  0  0  0  0  0  0  0  0  0
   17.0442   19.6822   23.2134 H   0  0  0  0  0  0  0  0  0  0  0  0
   19.1701   20.0257   23.0027 C   0  0  0  0  0  0  0  0  0  0  0  0
   19.2618   20.6439   23.9065 H   0  0  0  0  0  0  0  0  0  0  0  0
   18.9702   20.7190   22.1741 H   0  0  0  0  0  0  0  0  0  0  0  0
   20.5055   19.2908   22.7343 C   0  0  0  0  0  0  0  0  0  0  0  0
   20.7521   18.6485   23.5889 H   0  0  0  0  0  0  0  0  0  0  0  0
   20.3936   18.6339   21.8606 H   0  0  0  0  0  0  0  0  0  0  0  0
   21.6650   20.2845   22.4858 C   0  0  0  0  0  0  0  0  0  0  0  0
   21.8036   20.9285   23.3645 H   0  0  0  0  0  0  0  0  0  0  0  0
   21.4038   20.9471   21.6499 H   0  0  0  0  0  0  0  0  0  0  0  0
   22.9931   19.5788   22.1503 C   0  0  0  0  0  0  0  0  0  0  0  0
   22.8561   18.9305   21.2806 H   0  0  0  0  0  0  0  0  0  0  0  0
   23.7489   20.3285   21.9009 H   0  0  0  0  0  0  0  0  0  0  0  0
   23.5402   18.7348   23.2849 N   0  3  0  0  0  0  0  0  0  0  0  0
   22.8940   17.9837   23.5455 H   0  0  0  0  0  0  0  0  0  0  0  0
   23.7114   19.2940   24.1270 H   0  0  0  0  0  0  0  0  0  0  0  0
   24.4306   18.2913   23.0340 H   0  0  0  0  0  0  0  0  0  0  0  0
  1  2  1  0  0  0  0
  1  3  1  0  0  0  0
  1  4  1  0  0  0  0
  1  5  1  0  0  0  0
  5  6  1  0  0  0  0
  5  7  1  0  0  0  0
  5  8  1  0  0  0  0
  8  9  1  0  0  0  0
  8 10  1  0  0  0  0
  8 11  1  0  0  0  0
 11 12  1  0  0  0  0
 11 13  1  0  0  0  0
 11 14  1  0  0  0  0
 14 15  1  0  0  0  0
 14 16  1  0  0  0  0
 14 17  1  0  0  0  0
 17 18  1  0  0  0  0
 17 19  1  0  0  0  0
 17 20  1  0  0  0  0
 20 21  1  0  0  0  0
 20 22  1  0  0  0  0
 20 23  1  0  0  0  0
 23 24  1  0  0  0  0
 23 25  1  0  0  0  0
 23 26  1  0  0  0  0
M  END
> <VConfSearch Rank>
216

> <Conf_Id>
18

> <Delta U+W>
0.759

> <U+W>
-4.793

> <U>
48.945

> <W>
-53.738

> <W(PB)>
-56.051

> <W(SA)>
2.313

> <Valence>
2.802

> <Coulomb>
45.335

> <VdW>
0.807

> <VdW6>
-6.962

> <VdW12>
7.769

> <Bond>
0.189

> <Angle>
0.696

> <Pdih>
1.917

> <Idih>
0.000

> <Tether>
0.000

$$$$
VeraChem MOL file


 26 25  0  0  0  0  0  0  0  0999 V2000     
   16.0052   19.0238   23.4962 C   0  0  0  0  0  0  0  0  0  0  0  0
   15.8386   19.5069   22.5245 H   0  0  0  0  0  0  0  0  0  0  0  0
   15.4556   18.0735   23.5044 H   0  0  0  0  0  0  0  0  0  0  0  0
   15.5732   19.6693   24.2719 H   0  0  0  0  0  0  0  0  0  0  0  0
   17.5104   18.7972   23.7518 C   0  0  0  0  0  0  0  0  0  0  0  0
   17.6468   18.3403   24.7419 H   0  0  0  0  0  0  0  0  0  0  0  0
   18.0173   19.7708   23.7772 H   0  0  0  0  0  0  0  0  0  0  0  0
   18.1428   17.8930   22.6674 C   0  0  0  0  0  0  0  0  0  0  0  0
   17.5690   16.9581   22.6039 H   0  0  0  0  0  0  0  0  0  0  0  0
   18.0542   18.3759   21.6844 H   0  0  0  0  0  0  0  0  0  0  0  0
   19.6256   17.5399   22.9407 C   0  0  0  0  0  0  0  0  0  0  0  0
   19.9504   16.8043   22.1919 H   0  0  0  0  0  0  0  0  0  0  0  0
   19.7114   17.0439   23.9174 H   0  0  0  0  0  0  0  0  0  0  0  0
   20.5730   18.7627   22.8904 C   0  0  0  0  0  0  0  0  0  0  0  0
   20.4460   19.2861   21.9325 H   0  0  0  0  0  0  0  0  0  0  0  0
   20.3026   19.4725   23.6819 H   0  0  0  0  0  0  0  0  0  0  0  0
   22.0537   18.3460   23.0564 C   0  0  0  0  0  0  0  0  0  0  0  0
   22.3145   17.6121   22.2822 H   0  0  0  0  0  0  0  0  0  0  0  0
   22.1977   17.8458   24.0234 H   0  0  0  0  0  0  0  0  0  0  0  0
   23.0244   19.5375   22.9438 C   0  0  0  0  0  0  0  0  0  0  0  0
   24.0539   19.1711   22.9820 H   0  0  0  0  0  0  0  0  0  0  0  0
   22.8777   20.0425   21.9852 H   0  0  0  0  0  0  0  0  0  0  0  0
   22.8614   20.5648   24.0469 N   0  3  0  0  0  0  0  0  0  0  0  0
   23.0096   20.1542   24.9745 H   0  0  0  0  0  0  0  0  0  0  0  0
   21.9243   20.9792   24.0446 H   0  0  0  0  0  0  0  0  0  0  0  0
   23.5309   21.3361   23.9504 H   0  0  0  0  0  0  0  0  0  0  0  0
  1  2  1  0  0  0  0
  1  3  1  0  0  0  0
  1  4  1  0  0  0  0
  1  5  1  0  0  0  0
  5  6  1  0  0  0  0
  5  7  1  0  0  0  0
  5  8  1  0  0  0  0
  8  9  1  0  0  0  0
  8 10  1  0  0  0  0
  8 11  1  0  0  0  0
 11 12  1  0  0  0  0
 11 13  1  0  0  0  0
 11 14  1  0  0  0  0
 14 15  1  0  0  0  0
 14 16  1  0  0  0  0
 14 17  1  0  0  0  0
 17 18  1  0  0  0  0
 17 19  1  0  0  0  0
 17 20  1  0  0  0  0
 20 21  1  0  0  0  0
 20 22  1  0  0  0  0
 20 23  1  0  0  0  0
 23 24  1  0  0  0  0
 23 25  1  0  0  0  0
 23 26  1  0  0  0  0
M  END
> <VConfSearch Rank>
217

> <Conf_Id>
17

> <Delta U+W>
0.843

> <U+W>
-4.709

> <U>
48.945

> <W>
-53.653

> <W(PB)>
-55.991

> <W(SA)>
2.338

> <Valence>
2.802

> <Coulomb>
45.335

> <VdW>
0.807

> <VdW6>
-6.962

> <VdW12>
7.769

> <Bond>
0.189

> <Angle>
0.696

> <Pdih>
1.917

> <Idih>
0.000

> <Tether>
0.000

$$$$
VeraChem MOL file


 26 25  0  0  0  0  0  0  0  0999 V2000     
   17.9680   16.2233   22.2810 C   0  0  0  0  0  0  0  0  0  0  0  0
   19.0573   16.1401   22.3808 H   0  0  0  0  0  0  0  0  0  0  0  0
   17.5193   16.0819   23.2728 H   0  0  0  0  0  0  0  0  0  0  0  0
   17.6320   15.3982   21.6398 H   0  0  0  0  0  0  0  0  0  0  0  0
   17.5553   17.5830   21.6729 C   0  0  0  0  0  0  0  0  0  0  0  0
   16.4738   17.5698   21.4782 H   0  0  0  0  0  0  0  0  0  0  0  0
   18.0418   17.7141   20.6962 H   0  0  0  0  0  0  0  0  0  0  0  0
   17.8803   18.7900   22.5858 C   0  0  0  0  0  0  0  0  0  0  0  0
   17.4552   19.6952   22.1306 H   0  0  0  0  0  0  0  0  0  0  0  0
   17.3753   18.6645   23.5535 H   0  0  0  0  0  0  0  0  0  0  0  0
   19.3966   19.0019   22.8120 C   0  0  0  0  0  0  0  0  0  0  0  0
   19.9044   19.0778   21.8407 H   0  0  0  0  0  0  0  0  0  0  0  0
   19.8167   18.1280   23.3255 H   0  0  0  0  0  0  0  0  0  0  0  0
   19.6784   20.2766   23.6433 C   0  0  0  0  0  0  0  0  0  0  0  0
   19.2186   21.1418   23.1458 H   0  0  0  0  0  0  0  0  0  0  0  0
   19.1962   20.1916   24.6271 H   0  0  0  0  0  0  0  0  0  0  0  0
   21.1877   20.5581   23.8311 C   0  0  0  0  0  0  0  0  0  0  0  0
   21.3091   21.5190   24.3486 H   0  0  0  0  0  0  0  0  0  0  0  0
   21.6678   20.6669   22.8494 H   0  0  0  0  0  0  0  0  0  0  0  0
   21.9028   19.4583   24.6383 C   0  0  0  0  0  0  0  0  0  0  0  0
   21.4253   19.3502   25.6159 H   0  0  0  0  0  0  0  0  0  0  0  0
   21.8281   18.5038   24.1109 H   0  0  0  0  0  0  0  0  0  0  0  0
   23.3721   19.7499   24.8650 N   0  3  0  0  0  0  0  0  0  0  0  0
   23.8294   19.0064   25.4040 H   0  0  0  0  0  0  0  0  0  0  0  0
   23.5128   20.6234   25.3830 H   0  0  0  0  0  0  0  0  0  0  0  0
   23.8851   19.8370   23.9816 H   0  0  0  0  0  0  0  0  0  0  0  0
  1  2  1  0  0  0  0
  1  3  1  0  0  0  0
  1  4  1  0  0  0  0
  1  5  1  0  0  0  0
  5  6  1  0  0  0  0
  5  7  1  0  0  0  0
  5  8  1  0  0  0  0
  8  9  1  0  0  0  0
  8 10  1  0  0  0  0
  8 11  1  0  0  0  0
 11 12  1  0  0  0  0
 11 13  1  0  0  0  0
 11 14  1  0  0  0  0
 14 15  1  0  0  0  0
 14 16  1  0  0  0  0
 14 17  1  0  0  0  0
 17 18  1  0  0  0  0
 17 19  1  0  0  0  0
 17 20  1  0  0  0  0
 20 21  1  0  0  0  0
 20 22  1  0  0  0  0
 20 23  1  0  0  0  0
 23 24  1  0  0  0  0
 23 25  1  0  0  0  0
 23 26  1  0  0  0  0
M  END
> <VConfSearch Rank>
218

> <Conf_Id>
96

> <Delta U+W>
0.912

> <U+W>
-4.640

> <U>
48.723

> <W>
-53.364

> <W(PB)>
-55.683

> <W(SA)>
2.320

> <Valence>
2.962

> <Coulomb>
44.993

> <VdW>
0.768

> <VdW6>
-7.008

> <VdW12>
7.776

> <Bond>
0.188

> <Angle>
0.757

> <Pdih>
2.018

> <Idih>
0.000

> <Tether>
0.000

$$$$
VeraChem MOL file


 26 25  0  0  0  0  0  0  0  0999 V2000     
   16.6961   19.5667   23.7368 C   0  0  0  0  0  0  0  0  0  0  0  0
   15.7409   19.6654   24.2686 H   0  0  0  0  0  0  0  0  0  0  0  0
   16.4746   19.4488   22.6682 H   0  0  0  0  0  0  0  0  0  0  0  0
   17.1773   18.6471   24.0923 H   0  0  0  0  0  0  0  0  0  0  0  0
   17.5846   20.8063   23.9870 C   0  0  0  0  0  0  0  0  0  0  0  0
   17.8178   20.8839   25.0581 H   0  0  0  0  0  0  0  0  0  0  0  0
   17.0126   21.7091   23.7308 H   0  0  0  0  0  0  0  0  0  0  0  0
   18.8961   20.8000   23.1648 C   0  0  0  0  0  0  0  0  0  0  0  0
   18.6573   20.7427   22.0939 H   0  0  0  0  0  0  0  0  0  0  0  0
   19.4067   21.7610   23.3166 H   0  0  0  0  0  0  0  0  0  0  0  0
   19.8584   19.6499   23.5472 C   0  0  0  0  0  0  0  0  0  0  0  0
   19.3794   18.6854   23.3373 H   0  0  0  0  0  0  0  0  0  0  0  0
   20.0555   19.6816   24.6276 H   0  0  0  0  0  0  0  0  0  0  0  0
   21.1965   19.7430   22.7751 C   0  0  0  0  0  0  0  0  0  0  0  0
   21.0059   19.6821   21.6945 H   0  0  0  0  0  0  0  0  0  0  0  0
   21.6503   20.7274   22.9554 H   0  0  0  0  0  0  0  0  0  0  0  0
   22.2105   18.6483   23.1826 C   0  0  0  0  0  0  0  0  0  0  0  0
   22.4208   18.7219   24.2579 H   0  0  0  0  0  0  0  0  0  0  0  0
   23.1605   18.8317   22.6632 H   0  0  0  0  0  0  0  0  0  0  0  0
   21.7199   17.2274   22.8468 C   0  0  0  0  0  0  0  0  0  0  0  0
   20.7974   17.0151   23.3932 H   0  0  0  0  0  0  0  0  0  0  0  0
   21.5111   17.1538   21.7761 H   0  0  0  0  0  0  0  0  0  0  0  0
   22.7276   16.1531   23.2017 N   0  3  0  0  0  0  0  0  0  0  0  0
   22.9477   16.1515   24.2031 H   0  0  0  0  0  0  0  0  0  0  0  0
   23.6121   16.2777   22.6986 H   0  0  0  0  0  0  0  0  0  0  0  0
   22.3822   15.2153   22.9704 H   0  0  0  0  0  0  0  0  0  0  0  0
  1  2  1  0  0  0  0
  1  3  1  0  0  0  0
  1  4  1  0  0  0  0
  1  5  1  0  0  0  0
  5  6  1  0  0  0  0
  5  7  1  0  0  0  0
  5  8  1  0  0  0  0
  8  9  1  0  0  0  0
  8 10  1  0  0  0  0
  8 11  1  0  0  0  0
 11 12  1  0  0  0  0
 11 13  1  0  0  0  0
 11 14  1  0  0  0  0
 14 15  1  0  0  0  0
 14 16  1  0  0  0  0
 14 17  1  0  0  0  0
 17 18  1  0  0  0  0
 17 19  1  0  0  0  0
 17 20  1  0  0  0  0
 20 21  1  0  0  0  0
 20 22  1  0  0  0  0
 20 23  1  0  0  0  0
 23 24  1  0  0  0  0
 23 25  1  0  0  0  0
 23 26  1  0  0  0  0
M  END
> <VConfSearch Rank>
219

> <Conf_Id>
133

> <Delta U+W>
0.844

> <U+W>
-4.708

> <U>
48.723

> <W>
-53.431

> <W(PB)>
-55.776

> <W(SA)>
2.344

> <Valence>
2.962

> <Coulomb>
44.993

> <VdW>
0.768

> <VdW6>
-7.008

> <VdW12>
7.776

> <Bond>
0.188

> <Angle>
0.756

> <Pdih>
2.018

> <Idih>
0.000

> <Tether>
0.000

$$$$
VeraChem MOL file


 26 25  0  0  0  0  0  0  0  0999 V2000     
   20.9836   22.1000   23.4807 C   0  0  0  0  0  0  0  0  0  0  0  0
   21.5618   22.4884   22.6323 H   0  0  0  0  0  0  0  0  0  0  0  0
   20.0281   21.7182   23.1002 H   0  0  0  0  0  0  0  0  0  0  0  0
   20.7606   22.9417   24.1490 H   0  0  0  0  0  0  0  0  0  0  0  0
   21.7711   21.0044   24.2343 C   0  0  0  0  0  0  0  0  0  0  0  0
   21.1657   20.6177   25.0650 H   0  0  0  0  0  0  0  0  0  0  0  0
   22.6576   21.4607   24.6964 H   0  0  0  0  0  0  0  0  0  0  0  0
   22.2350   19.8405   23.3217 C   0  0  0  0  0  0  0  0  0  0  0  0
   22.9371   20.2344   22.5740 H   0  0  0  0  0  0  0  0  0  0  0  0
   22.8099   19.1250   23.9257 H   0  0  0  0  0  0  0  0  0  0  0  0
   21.1003   19.0816   22.5862 C   0  0  0  0  0  0  0  0  0  0  0  0
   21.5560   18.3002   21.9625 H   0  0  0  0  0  0  0  0  0  0  0  0
   20.5854   19.7591   21.8923 H   0  0  0  0  0  0  0  0  0  0  0  0
   20.0724   18.4285   23.5410 C   0  0  0  0  0  0  0  0  0  0  0  0
   20.5968   17.7864   24.2623 H   0  0  0  0  0  0  0  0  0  0  0  0
   19.5549   19.2044   24.1208 H   0  0  0  0  0  0  0  0  0  0  0  0
   19.0259   17.5921   22.7723 C   0  0  0  0  0  0  0  0  0  0  0  0
   19.5311   16.8050   22.1968 H   0  0  0  0  0  0  0  0  0  0  0  0
   18.4993   18.2315   22.0512 H   0  0  0  0  0  0  0  0  0  0  0  0
   18.0051   16.9510   23.7287 C   0  0  0  0  0  0  0  0  0  0  0  0
   18.5236   16.3008   24.4386 H   0  0  0  0  0  0  0  0  0  0  0  0
   17.4874   17.7320   24.2922 H   0  0  0  0  0  0  0  0  0  0  0  0
   16.9599   16.1210   23.0116 N   0  3  0  0  0  0  0  0  0  0  0  0
   16.2901   15.7030   23.6667 H   0  0  0  0  0  0  0  0  0  0  0  0
   17.3810   15.3499   22.4830 H   0  0  0  0  0  0  0  0  0  0  0  0
   16.4168   16.6815   22.3468 H   0  0  0  0  0  0  0  0  0  0  0  0
  1  2  1  0  0  0  0
  1  3  1  0  0  0  0
  1  4  1  0  0  0  0
  1  5  1  0  0  0  0
  5  6  1  0  0  0  0
  5  7  1  0  0  0  0
  5  8  1  0  0  0  0
  8  9  1  0  0  0  0
  8 10  1  0  0  0  0
  8 11  1  0  0  0  0
 11 12  1  0  0  0  0
 11 13  1  0  0  0  0
 11 14  1  0  0  0  0
 14 15  1  0  0  0  0
 14 16  1  0  0  0  0
 14 17  1  0  0  0  0
 17 18  1  0  0  0  0
 17 19  1  0  0  0  0
 17 20  1  0  0  0  0
 20 21  1  0  0  0  0
 20 22  1  0  0  0  0
 20 23  1  0  0  0  0
 23 24  1  0  0  0  0
 23 25  1  0  0  0  0
 23 26  1  0  0  0  0
M  END
> <VConfSearch Rank>
220

> <Conf_Id>
106

> <Delta U+W>
0.767

> <U+W>
-4.785

> <U>
48.494

> <W>
-53.279

> <W(PB)>
-55.569

> <W(SA)>
2.290

> <Valence>
3.117

> <Coulomb>
44.693

> <VdW>
0.684

> <VdW6>
-7.347

> <VdW12>
8.030

> <Bond>
0.208

> <Angle>
1.039

> <Pdih>
1.870

> <Idih>
0.000

> <Tether>
0.000

$$$$
VeraChem MOL file


 26 25  0  0  0  0  0  0  0  0999 V2000     
   19.9716   15.4661   26.1593 C   0  0  0  0  0  0  0  0  0  0  0  0
   19.2219   14.8854   25.6061 H   0  0  0  0  0  0  0  0  0  0  0  0
   20.9661   15.0940   25.8807 H   0  0  0  0  0  0  0  0  0  0  0  0
   19.8265   15.2708   27.2298 H   0  0  0  0  0  0  0  0  0  0  0  0
   19.8388   16.9739   25.8576 C   0  0  0  0  0  0  0  0  0  0  0  0
   20.5782   17.5307   26.4502 H   0  0  0  0  0  0  0  0  0  0  0  0
   18.8473   17.3238   26.1778 H   0  0  0  0  0  0  0  0  0  0  0  0
   20.0388   17.2767   24.3560 C   0  0  0  0  0  0  0  0  0  0  0  0
   21.0300   16.9230   24.0401 H   0  0  0  0  0  0  0  0  0  0  0  0
   19.2990   16.7162   23.7678 H   0  0  0  0  0  0  0  0  0  0  0  0
   19.9067   18.7857   24.0499 C   0  0  0  0  0  0  0  0  0  0  0  0
   20.6466   19.3454   24.6388 H   0  0  0  0  0  0  0  0  0  0  0  0
   18.9154   19.1386   24.3666 H   0  0  0  0  0  0  0  0  0  0  0  0
   20.1067   19.0880   22.5475 C   0  0  0  0  0  0  0  0  0  0  0  0
   21.0980   18.7351   22.2303 H   0  0  0  0  0  0  0  0  0  0  0  0
   19.3668   18.5285   21.9583 H   0  0  0  0  0  0  0  0  0  0  0  0
   19.9749   20.5961   22.2408 C   0  0  0  0  0  0  0  0  0  0  0  0
   20.7165   21.1584   22.8238 H   0  0  0  0  0  0  0  0  0  0  0  0
   18.9834   20.9515   22.5517 H   0  0  0  0  0  0  0  0  0  0  0  0
   20.1756   20.8856   20.7428 C   0  0  0  0  0  0  0  0  0  0  0  0
   21.1682   20.5482   20.4324 H   0  0  0  0  0  0  0  0  0  0  0  0
   19.4288   20.3404   20.1592 H   0  0  0  0  0  0  0  0  0  0  0  0
   20.0535   22.3566   20.4010 N   0  3  0  0  0  0  0  0  0  0  0  0
   20.1905   22.5274   19.3988 H   0  0  0  0  0  0  0  0  0  0  0  0
   20.7485   22.9234   20.8980 H   0  0  0  0  0  0  0  0  0  0  0  0
   19.1300   22.7301   20.6438 H   0  0  0  0  0  0  0  0  0  0  0  0
  1  2  1  0  0  0  0
  1  3  1  0  0  0  0
  1  4  1  0  0  0  0
  1  5  1  0  0  0  0
  5  6  1  0  0  0  0
  5  7  1  0  0  0  0
  5  8  1  0  0  0  0
  8  9  1  0  0  0  0
  8 10  1  0  0  0  0
  8 11  1  0  0  0  0
 11 12  1  0  0  0  0
 11 13  1  0  0  0  0
 11 14  1  0  0  0  0
 14 15  1  0  0  0  0
 14 16  1  0  0  0  0
 14 17  1  0  0  0  0
 17 18  1  0  0  0  0
 17 19  1  0  0  0  0
 17 20  1  0  0  0  0
 20 21  1  0  0  0  0
 20 22  1  0  0  0  0
 20 23  1  0  0  0  0
 23 24  1  0  0  0  0
 23 25  1  0  0  0  0
 23 26  1  0  0  0  0
M  END
> <VConfSearch Rank>
221

> <Conf_Id>
25

> <Delta U+W>
0.000

> <U+W>
-5.552

> <U>
47.192

> <W>
-52.745

> <W(PB)>
-55.134

> <W(SA)>
2.389

> <Valence>
2.156

> <Coulomb>
44.449

> <VdW>
0.587

> <VdW6>
-5.761

> <VdW12>
6.348

> <Bond>
0.129

> <Angle>
0.393

> <Pdih>
1.634

> <Idih>
0.000

> <Tether>
0.000

$$$$
VeraChem MOL file


 26 25  0  0  0  0  0  0  0  0999 V2000     
   18.2075   18.8335   19.3547 C   0  0  0  0  0  0  0  0  0  0  0  0
   18.7763   19.6793   18.9469 H   0  0  0  0  0  0  0  0  0  0  0  0
   18.7438   17.9087   19.1051 H   0  0  0  0  0  0  0  0  0  0  0  0
   17.2343   18.8061   18.8475 H   0  0  0  0  0  0  0  0  0  0  0  0
   18.0230   18.9733   20.8807 C   0  0  0  0  0  0  0  0  0  0  0  0
   17.4225   18.1319   21.2539 H   0  0  0  0  0  0  0  0  0  0  0  0
   17.4547   19.8888   21.0968 H   0  0  0  0  0  0  0  0  0  0  0  0
   19.3790   19.0145   21.6195 C   0  0  0  0  0  0  0  0  0  0  0  0
   19.9443   18.0985   21.3985 H   0  0  0  0  0  0  0  0  0  0  0  0
   19.9765   19.8557   21.2416 H   0  0  0  0  0  0  0  0  0  0  0  0
   19.1983   19.1543   23.1480 C   0  0  0  0  0  0  0  0  0  0  0  0
   18.6008   18.3127   23.5252 H   0  0  0  0  0  0  0  0  0  0  0  0
   18.6319   20.0700   23.3677 H   0  0  0  0  0  0  0  0  0  0  0  0
   20.5551   19.1961   23.8868 C   0  0  0  0  0  0  0  0  0  0  0  0
   21.1186   18.2812   23.6598 H   0  0  0  0  0  0  0  0  0  0  0  0
   21.1513   20.0395   23.5116 H   0  0  0  0  0  0  0  0  0  0  0  0
   20.3719   19.3352   25.4167 C   0  0  0  0  0  0  0  0  0  0  0  0
   19.8035   18.4805   25.8072 H   0  0  0  0  0  0  0  0  0  0  0  0
   19.7759   20.2323   25.6315 H   0  0  0  0  0  0  0  0  0  0  0  0
   21.7119   19.4487   26.1690 C   0  0  0  0  0  0  0  0  0  0  0  0
   22.2829   20.2953   25.7782 H   0  0  0  0  0  0  0  0  0  0  0  0
   21.5180   19.6289   27.2299 H   0  0  0  0  0  0  0  0  0  0  0  0
   22.5777   18.2085   26.0642 N   0  3  0  0  0  0  0  0  0  0  0  0
   22.8289   18.0017   25.0925 H   0  0  0  0  0  0  0  0  0  0  0  0
   22.1031   17.3801   26.4378 H   0  0  0  0  0  0  0  0  0  0  0  0
   23.4551   18.3116   26.5856 H   0  0  0  0  0  0  0  0  0  0  0  0
  1  2  1  0  0  0  0
  1  3  1  0  0  0  0
  1  4  1  0  0  0  0
  1  5  1  0  0  0  0
  5  6  1  0  0  0  0
  5  7  1  0  0  0  0
  5  8  1  0  0  0  0
  8  9  1  0  0  0  0
  8 10  1  0  0  0  0
  8 11  1  0  0  0  0
 11 12  1  0  0  0  0
 11 13  1  0  0  0  0
 11 14  1  0  0  0  0
 14 15  1  0  0  0  0
 14 16  1  0  0  0  0
 14 17  1  0  0  0  0
 17 18  1  0  0  0  0
 17 19  1  0  0  0  0
 17 20  1  0  0  0  0
 20 21  1  0  0  0  0
 20 22  1  0  0  0  0
 20 23  1  0  0  0  0
 23 24  1  0  0  0  0
 23 25  1  0  0  0  0
 23 26  1  0  0  0  0
M  END
> <VConfSearch Rank>
222

> <Conf_Id>
20

> <Delta U+W>
0.150

> <U+W>
-5.403

> <U>
47.845

> <W>
-53.248

> <W(PB)>
-55.599

> <W(SA)>
2.351

> <Valence>
2.258

> <Coulomb>
44.893

> <VdW>
0.694

> <VdW6>
-6.285

> <VdW12>
6.979

> <Bond>
0.149

> <Angle>
0.434

> <Pdih>
1.675

> <Idih>
0.000

> <Tether>
0.000

$$$$
VeraChem MOL file


 26 25  0  0  0  0  0  0  0  0999 V2000     
   24.1287   19.6393   24.1136 C   0  0  0  0  0  0  0  0  0  0  0  0
   24.4080   19.4278   23.0731 H   0  0  0  0  0  0  0  0  0  0  0  0
   24.0245   20.7264   24.2255 H   0  0  0  0  0  0  0  0  0  0  0  0
   24.9554   19.3120   24.7575 H   0  0  0  0  0  0  0  0  0  0  0  0
   22.8207   18.9144   24.4953 C   0  0  0  0  0  0  0  0  0  0  0  0
   22.5859   19.1172   25.5496 H   0  0  0  0  0  0  0  0  0  0  0  0
   22.9663   17.8286   24.4061 H   0  0  0  0  0  0  0  0  0  0  0  0
   21.6399   19.3573   23.6033 C   0  0  0  0  0  0  0  0  0  0  0  0
   21.4997   20.4434   23.6941 H   0  0  0  0  0  0  0  0  0  0  0  0
   21.8803   19.1548   22.5504 H   0  0  0  0  0  0  0  0  0  0  0  0
   20.3282   18.6334   23.9826 C   0  0  0  0  0  0  0  0  0  0  0  0
   20.0894   18.8357   25.0359 H   0  0  0  0  0  0  0  0  0  0  0  0
   20.4690   17.5474   23.8913 H   0  0  0  0  0  0  0  0  0  0  0  0
   19.1468   19.0774   23.0905 C   0  0  0  0  0  0  0  0  0  0  0  0
   19.0042   20.1630   23.1842 H   0  0  0  0  0  0  0  0  0  0  0  0
   19.3928   18.8776   22.0390 H   0  0  0  0  0  0  0  0  0  0  0  0
   17.8350   18.3509   23.4712 C   0  0  0  0  0  0  0  0  0  0  0  0
   17.6174   18.5260   24.5332 H   0  0  0  0  0  0  0  0  0  0  0  0
   17.9568   17.2661   23.3510 H   0  0  0  0  0  0  0  0  0  0  0  0
   16.6277   18.8281   22.6412 C   0  0  0  0  0  0  0  0  0  0  0  0
   15.7196   18.3437   23.0104 H   0  0  0  0  0  0  0  0  0  0  0  0
   16.5074   19.9090   22.7541 H   0  0  0  0  0  0  0  0  0  0  0  0
   16.7439   18.5196   21.1613 N   0  3  0  0  0  0  0  0  0  0  0  0
   16.8369   17.5134   20.9883 H   0  0  0  0  0  0  0  0  0  0  0  0
   17.5593   18.9763   20.7411 H   0  0  0  0  0  0  0  0  0  0  0  0
   15.9197   18.8382   20.6402 H   0  0  0  0  0  0  0  0  0  0  0  0
  1  2  1  0  0  0  0
  1  3  1  0  0  0  0
  1  4  1  0  0  0  0
  1  5  1  0  0  0  0
  5  6  1  0  0  0  0
  5  7  1  0  0  0  0
  5  8  1  0  0  0  0
  8  9  1  0  0  0  0
  8 10  1  0  0  0  0
  8 11  1  0  0  0  0
 11 12  1  0  0  0  0
 11 13  1  0  0  0  0
 11 14  1  0  0  0  0
 14 15  1  0  0  0  0
 14 16  1  0  0  0  0
 14 17  1  0  0  0  0
 17 18  1  0  0  0  0
 17 19  1  0  0  0  0
 17 20  1  0  0  0  0
 20 21  1  0  0  0  0
 20 22  1  0  0  0  0
 20 23  1  0  0  0  0
 23 24  1  0  0  0  0
 23 25  1  0  0  0  0
 23 26  1  0  0  0  0
M  END
> <VConfSearch Rank>
223

> <Conf_Id>
19

> <Delta U+W>
0.162

> <U+W>
-5.391

> <U>
47.845

> <W>
-53.235

> <W(PB)>
-55.585

> <W(SA)>
2.349

> <Valence>
2.258

> <Coulomb>
44.893

> <VdW>
0.694

> <VdW6>
-6.285

> <VdW12>
6.979

> <Bond>
0.149

> <Angle>
0.434

> <Pdih>
1.675

> <Idih>
0.000

> <Tether>
0.000

$$$$
VeraChem MOL file


 26 25  0  0  0  0  0  0  0  0999 V2000     
   22.1052   22.5419   23.9627 C   0  0  0  0  0  0  0  0  0  0  0  0
   21.8582   23.0620   24.8975 H   0  0  0  0  0  0  0  0  0  0  0  0
   23.0976   22.0864   24.0767 H   0  0  0  0  0  0  0  0  0  0  0  0
   22.1692   23.2942   23.1658 H   0  0  0  0  0  0  0  0  0  0  0  0
   21.0419   21.4762   23.6221 C   0  0  0  0  0  0  0  0  0  0  0  0
   21.3014   21.0086   22.6632 H   0  0  0  0  0  0  0  0  0  0  0  0
   20.0672   21.9651   23.4854 H   0  0  0  0  0  0  0  0  0  0  0  0
   20.9367   20.4017   24.7301 C   0  0  0  0  0  0  0  0  0  0  0  0
   21.8969   19.8771   24.8298 H   0  0  0  0  0  0  0  0  0  0  0  0
   20.7561   20.8990   25.6931 H   0  0  0  0  0  0  0  0  0  0  0  0
   19.8050   19.3722   24.4904 C   0  0  0  0  0  0  0  0  0  0  0  0
   18.8430   19.8965   24.4061 H   0  0  0  0  0  0  0  0  0  0  0  0
   19.7283   18.7280   25.3772 H   0  0  0  0  0  0  0  0  0  0  0  0
   20.0287   18.4858   23.2415 C   0  0  0  0  0  0  0  0  0  0  0  0
   20.0315   19.1064   22.3358 H   0  0  0  0  0  0  0  0  0  0  0  0
   21.0152   18.0057   23.3032 H   0  0  0  0  0  0  0  0  0  0  0  0
   18.9370   17.4016   23.1050 C   0  0  0  0  0  0  0  0  0  0  0  0
   17.9492   17.8776   23.0418 H   0  0  0  0  0  0  0  0  0  0  0  0
   18.9320   16.7660   24.0006 H   0  0  0  0  0  0  0  0  0  0  0  0
   19.1643   16.5273   21.8592 C   0  0  0  0  0  0  0  0  0  0  0  0
   19.1534   17.1535   20.9629 H   0  0  0  0  0  0  0  0  0  0  0  0
   20.1400   16.0385   21.9256 H   0  0  0  0  0  0  0  0  0  0  0  0
   18.1122   15.4503   21.6900 N   0  3  0  0  0  0  0  0  0  0  0  0
   17.1715   15.8466   21.5941 H   0  0  0  0  0  0  0  0  0  0  0  0
   18.0895   14.8091   22.4898 H   0  0  0  0  0  0  0  0  0  0  0  0
   18.2822   14.8795   20.8547 H   0  0  0  0  0  0  0  0  0  0  0  0
  1  2  1  0  0  0  0
  1  3  1  0  0  0  0
  1  4  1  0  0  0  0
  1  5  1  0  0  0  0
  5  6  1  0  0  0  0
  5  7  1  0  0  0  0
  5  8  1  0  0  0  0
  8  9  1  0  0  0  0
  8 10  1  0  0  0  0
  8 11  1  0  0  0  0
 11 12  1  0  0  0  0
 11 13  1  0  0  0  0
 11 14  1  0  0  0  0
 14 15  1  0  0  0  0
 14 16  1  0  0  0  0
 14 17  1  0  0  0  0
 17 18  1  0  0  0  0
 17 19  1  0  0  0  0
 17 20  1  0  0  0  0
 20 21  1  0  0  0  0
 20 22  1  0  0  0  0
 20 23  1  0  0  0  0
 23 24  1  0  0  0  0
 23 25  1  0  0  0  0
 23 26  1  0  0  0  0
M  END
> <VConfSearch Rank>
224

> <Conf_Id>
37

> <Delta U+W>
0.565

> <U+W>
-4.988

> <U>
48.035

> <W>
-53.022

> <W(PB)>
-55.379

> <W(SA)>
2.357

> <Valence>
2.701

> <Coulomb>
44.622

> <VdW>
0.712

> <VdW6>
-6.418

> <VdW12>
7.129

> <Bond>
0.168

> <Angle>
0.659

> <Pdih>
1.875

> <Idih>
0.000

> <Tether>
0.000

$$$$
VeraChem MOL file


 26 25  0  0  0  0  0  0  0  0999 V2000     
   17.2664   16.0639   24.3897 C   0  0  0  0  0  0  0  0  0  0  0  0
   17.7055   15.5384   23.5317 H   0  0  0  0  0  0  0  0  0  0  0  0
   17.8166   15.7654   25.2917 H   0  0  0  0  0  0  0  0  0  0  0  0
   16.2290   15.7221   24.4993 H   0  0  0  0  0  0  0  0  0  0  0  0
   17.3179   17.5934   24.1894 C   0  0  0  0  0  0  0  0  0  0  0  0
   16.8408   18.0892   25.0464 H   0  0  0  0  0  0  0  0  0  0  0  0
   16.7322   17.8646   23.2998 H   0  0  0  0  0  0  0  0  0  0  0  0
   18.7684   18.1016   24.0332 C   0  0  0  0  0  0  0  0  0  0  0  0
   19.3491   17.8300   24.9255 H   0  0  0  0  0  0  0  0  0  0  0  0
   19.2358   17.5922   23.1804 H   0  0  0  0  0  0  0  0  0  0  0  0
   18.8207   19.6347   23.8281 C   0  0  0  0  0  0  0  0  0  0  0  0
   18.2811   20.1239   24.6508 H   0  0  0  0  0  0  0  0  0  0  0  0
   18.2867   19.9040   22.9063 H   0  0  0  0  0  0  0  0  0  0  0  0
   20.2598   20.2047   23.7792 C   0  0  0  0  0  0  0  0  0  0  0  0
   20.1991   21.3015   23.7494 H   0  0  0  0  0  0  0  0  0  0  0  0
   20.7884   19.9506   24.7085 H   0  0  0  0  0  0  0  0  0  0  0  0
   21.0792   19.7144   22.5623 C   0  0  0  0  0  0  0  0  0  0  0  0
   20.5272   19.9231   21.6363 H   0  0  0  0  0  0  0  0  0  0  0  0
   21.2235   18.6281   22.6162 H   0  0  0  0  0  0  0  0  0  0  0  0
   22.4559   20.3995   22.5019 C   0  0  0  0  0  0  0  0  0  0  0  0
   22.3252   21.4826   22.4291 H   0  0  0  0  0  0  0  0  0  0  0  0
   23.0160   20.1812   23.4152 H   0  0  0  0  0  0  0  0  0  0  0  0
   23.2920   19.9492   21.3215 N   0  3  0  0  0  0  0  0  0  0  0  0
   22.8318   20.1514   20.4278 H   0  0  0  0  0  0  0  0  0  0  0  0
   23.4754   18.9407   21.3453 H   0  0  0  0  0  0  0  0  0  0  0  0
   24.2043   20.4180   21.3001 H   0  0  0  0  0  0  0  0  0  0  0  0
  1  2  1  0  0  0  0
  1  3  1  0  0  0  0
  1  4  1  0  0  0  0
  1  5  1  0  0  0  0
  5  6  1  0  0  0  0
  5  7  1  0  0  0  0
  5  8  1  0  0  0  0
  8  9  1  0  0  0  0
  8 10  1  0  0  0  0
  8 11  1  0  0  0  0
 11 12  1  0  0  0  0
 11 13  1  0  0  0  0
 11 14  1  0  0  0  0
 14 15  1  0  0  0  0
 14 16  1  0  0  0  0
 14 17  1  0  0  0  0
 17 18  1  0  0  0  0
 17 19  1  0  0  0  0
 17 20  1  0  0  0  0
 20 21  1  0  0  0  0
 20 22  1  0  0  0  0
 20 23  1  0  0  0  0
 23 24  1  0  0  0  0
 23 25  1  0  0  0  0
 23 26  1  0  0  0  0
M  END
> <VConfSearch Rank>
225

> <Conf_Id>
35

> <Delta U+W>
0.587

> <U+W>
-4.965

> <U>
48.214

> <W>
-53.179

> <W(PB)>
-55.527

> <W(SA)>
2.348

> <Valence>
2.697

> <Coulomb>
44.819

> <VdW>
0.699

> <VdW6>
-6.437

> <VdW12>
7.136

> <Bond>
0.168

> <Angle>
0.657

> <Pdih>
1.872

> <Idih>
0.000

> <Tether>
0.000

$$$$
VeraChem MOL file


 26 25  0  0  0  0  0  0  0  0999 V2000     
   18.6085   20.2352   26.8419 C   0  0  0  0  0  0  0  0  0  0  0  0
   17.6247   19.7679   26.7041 H   0  0  0  0  0  0  0  0  0  0  0  0
   19.3000   19.4711   27.2204 H   0  0  0  0  0  0  0  0  0  0  0  0
   18.5083   21.0104   27.6127 H   0  0  0  0  0  0  0  0  0  0  0  0
   19.1235   20.8440   25.5204 C   0  0  0  0  0  0  0  0  0  0  0  0
   20.0922   21.3323   25.6970 H   0  0  0  0  0  0  0  0  0  0  0  0
   18.4296   21.6279   25.1860 H   0  0  0  0  0  0  0  0  0  0  0  0
   19.2730   19.7732   24.4170 C   0  0  0  0  0  0  0  0  0  0  0  0
   19.9606   18.9925   24.7673 H   0  0  0  0  0  0  0  0  0  0  0  0
   18.3019   19.2896   24.2428 H   0  0  0  0  0  0  0  0  0  0  0  0
   19.7932   20.3822   23.0927 C   0  0  0  0  0  0  0  0  0  0  0  0
   20.7889   20.8190   23.2513 H   0  0  0  0  0  0  0  0  0  0  0  0
   19.1359   21.2121   22.7985 H   0  0  0  0  0  0  0  0  0  0  0  0
   19.8523   19.3669   21.9248 C   0  0  0  0  0  0  0  0  0  0  0  0
   18.8530   18.9428   21.7545 H   0  0  0  0  0  0  0  0  0  0  0  0
   20.1179   19.9081   21.0060 H   0  0  0  0  0  0  0  0  0  0  0  0
   20.8723   18.2255   22.1472 C   0  0  0  0  0  0  0  0  0  0  0  0
   20.5792   17.6197   23.0138 H   0  0  0  0  0  0  0  0  0  0  0  0
   21.8606   18.6504   22.3675 H   0  0  0  0  0  0  0  0  0  0  0  0
   20.9716   17.3148   20.9107 C   0  0  0  0  0  0  0  0  0  0  0  0
   19.9930   16.8765   20.6969 H   0  0  0  0  0  0  0  0  0  0  0  0
   21.2815   17.9041   20.0435 H   0  0  0  0  0  0  0  0  0  0  0  0
   21.9633   16.1827   21.0851 N   0  3  0  0  0  0  0  0  0  0  0  0
   21.7129   15.5726   21.8701 H   0  0  0  0  0  0  0  0  0  0  0  0
   22.9117   16.5294   21.2627 H   0  0  0  0  0  0  0  0  0  0  0  0
   22.0141   15.5890   20.2501 H   0  0  0  0  0  0  0  0  0  0  0  0
  1  2  1  0  0  0  0
  1  3  1  0  0  0  0
  1  4  1  0  0  0  0
  1  5  1  0  0  0  0
  5  6  1  0  0  0  0
  5  7  1  0  0  0  0
  5  8  1  0  0  0  0
  8  9  1  0  0  0  0
  8 10  1  0  0  0  0
  8 11  1  0  0  0  0
 11 12  1  0  0  0  0
 11 13  1  0  0  0  0
 11 14  1  0  0  0  0
 14 15  1  0  0  0  0
 14 16  1  0  0  0  0
 14 17  1  0  0  0  0
 17 18  1  0  0  0  0
 17 19  1  0  0  0  0
 17 20  1  0  0  0  0
 20 21  1  0  0  0  0
 20 22  1  0  0  0  0
 20 23  1  0  0  0  0
 23 24  1  0  0  0  0
 23 25  1  0  0  0  0
 23 26  1  0  0  0  0
M  END
> <VConfSearch Rank>
226

> <Conf_Id>
36

> <Delta U+W>
0.565

> <U+W>
-4.987

> <U>
48.214

> <W>
-53.201

> <W(PB)>
-55.543

> <W(SA)>
2.342

> <Valence>
2.697

> <Coulomb>
44.819

> <VdW>
0.698

> <VdW6>
-6.437

> <VdW12>
7.136

> <Bond>
0.168

> <Angle>
0.657

> <Pdih>
1.872

> <Idih>
0.000

> <Tether>
0.000

$$$$
VeraChem MOL file


 26 25  0  0  0  0  0  0  0  0999 V2000     
   16.9005   21.1273   21.3052 C   0  0  0  0  0  0  0  0  0  0  0  0
   16.1874   20.3412   21.0242 H   0  0  0  0  0  0  0  0  0  0  0  0
   16.3253   22.0179   21.5898 H   0  0  0  0  0  0  0  0  0  0  0  0
   17.4972   21.3803   20.4191 H   0  0  0  0  0  0  0  0  0  0  0  0
   17.8035   20.6668   22.4691 C   0  0  0  0  0  0  0  0  0  0  0  0
   17.1821   20.4536   23.3503 H   0  0  0  0  0  0  0  0  0  0  0  0
   18.4817   21.4848   22.7499 H   0  0  0  0  0  0  0  0  0  0  0  0
   18.6249   19.4133   22.0946 C   0  0  0  0  0  0  0  0  0  0  0  0
   17.9425   18.5997   21.8120 H   0  0  0  0  0  0  0  0  0  0  0  0
   19.2429   19.6305   21.2123 H   0  0  0  0  0  0  0  0  0  0  0  0
   19.5302   18.9488   23.2578 C   0  0  0  0  0  0  0  0  0  0  0  0
   18.9108   18.7294   24.1385 H   0  0  0  0  0  0  0  0  0  0  0  0
   20.2047   19.7686   23.5388 H   0  0  0  0  0  0  0  0  0  0  0  0
   20.3527   17.6938   22.8791 C   0  0  0  0  0  0  0  0  0  0  0  0
   19.6684   16.8981   22.5535 H   0  0  0  0  0  0  0  0  0  0  0  0
   20.9985   17.9192   22.0189 H   0  0  0  0  0  0  0  0  0  0  0  0
   21.2160   17.1586   24.0457 C   0  0  0  0  0  0  0  0  0  0  0  0
   21.6986   16.2235   23.7320 H   0  0  0  0  0  0  0  0  0  0  0  0
   20.5703   16.9086   24.8981 H   0  0  0  0  0  0  0  0  0  0  0  0
   22.2991   18.1586   24.4921 C   0  0  0  0  0  0  0  0  0  0  0  0
   22.9427   18.4068   23.6438 H   0  0  0  0  0  0  0  0  0  0  0  0
   21.8292   19.0787   24.8490 H   0  0  0  0  0  0  0  0  0  0  0  0
   23.1772   17.6237   25.6048 N   0  3  0  0  0  0  0  0  0  0  0  0
   23.8913   18.3040   25.8872 H   0  0  0  0  0  0  0  0  0  0  0  0
   23.6723   16.7708   25.3243 H   0  0  0  0  0  0  0  0  0  0  0  0
   22.6342   17.3952   26.4439 H   0  0  0  0  0  0  0  0  0  0  0  0
  1  2  1  0  0  0  0
  1  3  1  0  0  0  0
  1  4  1  0  0  0  0
  1  5  1  0  0  0  0
  5  6  1  0  0  0  0
  5  7  1  0  0  0  0
  5  8  1  0  0  0  0
  8  9  1  0  0  0  0
  8 10  1  0  0  0  0
  8 11  1  0  0  0  0
 11 12  1  0  0  0  0
 11 13  1  0  0  0  0
 11 14  1  0  0  0  0
 14 15  1  0  0  0  0
 14 16  1  0  0  0  0
 14 17  1  0  0  0  0
 17 18  1  0  0  0  0
 17 19  1  0  0  0  0
 17 20  1  0  0  0  0
 20 21  1  0  0  0  0
 20 22  1  0  0  0  0
 20 23  1  0  0  0  0
 23 24  1  0  0  0  0
 23 25  1  0  0  0  0
 23 26  1  0  0  0  0
M  END
> <VConfSearch Rank>
227

> <Conf_Id>
44

> <Delta U+W>
0.371

> <U+W>
-5.181

> <U>
48.002

> <W>
-53.183

> <W(PB)>
-55.533

> <W(SA)>
2.350

> <Valence>
2.459

> <Coulomb>
44.901

> <VdW>
0.643

> <VdW6>
-6.362

> <VdW12>
7.005

> <Bond>
0.151

> <Angle>
0.519

> <Pdih>
1.789

> <Idih>
0.000

> <Tether>
0.000

$$$$
VeraChem MOL file


 26 25  0  0  0  0  0  0  0  0999 V2000     
   17.5620   16.8960   20.9533 C   0  0  0  0  0  0  0  0  0  0  0  0
   17.1271   17.8031   20.5140 H   0  0  0  0  0  0  0  0  0  0  0  0
   17.2461   16.0419   20.3404 H   0  0  0  0  0  0  0  0  0  0  0  0
   17.1341   16.7585   21.9539 H   0  0  0  0  0  0  0  0  0  0  0  0
   19.1044   16.9855   21.0007 C   0  0  0  0  0  0  0  0  0  0  0  0
   19.4885   16.9914   19.9710 H   0  0  0  0  0  0  0  0  0  0  0  0
   19.5134   16.0828   21.4756 H   0  0  0  0  0  0  0  0  0  0  0  0
   19.6288   18.2454   21.7316 C   0  0  0  0  0  0  0  0  0  0  0  0
   20.7163   18.2886   21.5919 H   0  0  0  0  0  0  0  0  0  0  0  0
   19.2182   19.1446   21.2520 H   0  0  0  0  0  0  0  0  0  0  0  0
   19.2982   18.2623   23.2459 C   0  0  0  0  0  0  0  0  0  0  0  0
   19.7121   17.3652   23.7266 H   0  0  0  0  0  0  0  0  0  0  0  0
   18.2102   18.2108   23.3811 H   0  0  0  0  0  0  0  0  0  0  0  0
   19.8098   19.5269   23.9793 C   0  0  0  0  0  0  0  0  0  0  0  0
   19.4072   20.4244   23.4896 H   0  0  0  0  0  0  0  0  0  0  0  0
   19.3973   19.5200   24.9969 H   0  0  0  0  0  0  0  0  0  0  0  0
   21.3548   19.6204   24.0539 C   0  0  0  0  0  0  0  0  0  0  0  0
   21.7745   19.6758   23.0421 H   0  0  0  0  0  0  0  0  0  0  0  0
   21.7654   18.7128   24.5160 H   0  0  0  0  0  0  0  0  0  0  0  0
   21.8377   20.8580   24.8349 C   0  0  0  0  0  0  0  0  0  0  0  0
   22.9272   20.9243   24.7700 H   0  0  0  0  0  0  0  0  0  0  0  0
   21.4143   21.7625   24.3900 H   0  0  0  0  0  0  0  0  0  0  0  0
   21.4669   20.8378   26.3050 N   0  3  0  0  0  0  0  0  0  0  0  0
   20.4516   20.8140   26.4406 H   0  0  0  0  0  0  0  0  0  0  0  0
   21.8160   21.6675   26.7970 H   0  0  0  0  0  0  0  0  0  0  0  0
   21.8562   20.0196   26.7846 H   0  0  0  0  0  0  0  0  0  0  0  0
  1  2  1  0  0  0  0
  1  3  1  0  0  0  0
  1  4  1  0  0  0  0
  1  5  1  0  0  0  0
  5  6  1  0  0  0  0
  5  7  1  0  0  0  0
  5  8  1  0  0  0  0
  8  9  1  0  0  0  0
  8 10  1  0  0  0  0
  8 11  1  0  0  0  0
 11 12  1  0  0  0  0
 11 13  1  0  0  0  0
 11 14  1  0  0  0  0
 14 15  1  0  0  0  0
 14 16  1  0  0  0  0
 14 17  1  0  0  0  0
 17 18  1  0  0  0  0
 17 19  1  0  0  0  0
 17 20  1  0  0  0  0
 20 21  1  0  0  0  0
 20 22  1  0  0  0  0
 20 23  1  0  0  0  0
 23 24  1  0  0  0  0
 23 25  1  0  0  0  0
 23 26  1  0  0  0  0
M  END
> <VConfSearch Rank>
228

> <Conf_Id>
112

> <Delta U+W>
1.422

> <U+W>
-4.130

> <U>
49.323

> <W>
-53.453

> <W(PB)>
-55.749

> <W(SA)>
2.296

> <Valence>
3.408

> <Coulomb>
44.893

> <VdW>
1.021

> <VdW6>
-7.481

> <VdW12>
8.503

> <Bond>
0.239

> <Angle>
1.013

> <Pdih>
2.156

> <Idih>
0.000

> <Tether>
0.000

$$$$
VeraChem MOL file


 26 25  0  0  0  0  0  0  0  0999 V2000     
   22.7551   18.9360   25.7469 C   0  0  0  0  0  0  0  0  0  0  0  0
   23.7043   18.8426   26.2901 H   0  0  0  0  0  0  0  0  0  0  0  0
   22.7355   19.9312   25.2856 H   0  0  0  0  0  0  0  0  0  0  0  0
   21.9410   18.8809   26.4813 H   0  0  0  0  0  0  0  0  0  0  0  0
   22.6252   17.8175   24.6882 C   0  0  0  0  0  0  0  0  0  0  0  0
   22.7667   16.8451   25.1804 H   0  0  0  0  0  0  0  0  0  0  0  0
   23.4355   17.9099   23.9517 H   0  0  0  0  0  0  0  0  0  0  0  0
   21.2572   17.8141   23.9644 C   0  0  0  0  0  0  0  0  0  0  0  0
   21.2118   16.9345   23.3077 H   0  0  0  0  0  0  0  0  0  0  0  0
   20.4593   17.6893   24.7080 H   0  0  0  0  0  0  0  0  0  0  0  0
   21.0064   19.0901   23.1213 C   0  0  0  0  0  0  0  0  0  0  0  0
   21.8774   19.2683   22.4757 H   0  0  0  0  0  0  0  0  0  0  0  0
   20.9237   19.9658   23.7786 H   0  0  0  0  0  0  0  0  0  0  0  0
   19.7440   19.0031   22.2286 C   0  0  0  0  0  0  0  0  0  0  0  0
   19.7181   19.8929   21.5858 H   0  0  0  0  0  0  0  0  0  0  0  0
   19.8280   18.1385   21.5557 H   0  0  0  0  0  0  0  0  0  0  0  0
   18.4237   18.9110   23.0341 C   0  0  0  0  0  0  0  0  0  0  0  0
   18.3449   19.7595   23.7266 H   0  0  0  0  0  0  0  0  0  0  0  0
   18.4261   18.0024   23.6490 H   0  0  0  0  0  0  0  0  0  0  0  0
   17.1773   18.8686   22.1290 C   0  0  0  0  0  0  0  0  0  0  0  0
   17.2612   18.0358   21.4256 H   0  0  0  0  0  0  0  0  0  0  0  0
   16.2883   18.7065   22.7445 H   0  0  0  0  0  0  0  0  0  0  0  0
   16.9566   20.1389   21.3311 N   0  3  0  0  0  0  0  0  0  0  0  0
   17.7405   20.3325   20.7003 H   0  0  0  0  0  0  0  0  0  0  0  0
   16.8479   20.9567   21.9396 H   0  0  0  0  0  0  0  0  0  0  0  0
   16.1120   20.0825   20.7515 H   0  0  0  0  0  0  0  0  0  0  0  0
  1  2  1  0  0  0  0
  1  3  1  0  0  0  0
  1  4  1  0  0  0  0
  1  5  1  0  0  0  0
  5  6  1  0  0  0  0
  5  7  1  0  0  0  0
  5  8  1  0  0  0  0
  8  9  1  0  0  0  0
  8 10  1  0  0  0  0
  8 11  1  0  0  0  0
 11 12  1  0  0  0  0
 11 13  1  0  0  0  0
 11 14  1  0  0  0  0
 14 15  1  0  0  0  0
 14 16  1  0  0  0  0
 14 17  1  0  0  0  0
 17 18  1  0  0  0  0
 17 19  1  0  0  0  0
 17 20  1  0  0  0  0
 20 21  1  0  0  0  0
 20 22  1  0  0  0  0
 20 23  1  0  0  0  0
 23 24  1  0  0  0  0
 23 25  1  0  0  0  0
 23 26  1  0  0  0  0
M  END
> <VConfSearch Rank>
229

> <Conf_Id>
130

> <Delta U+W>
1.282

> <U+W>
-4.270

> <U>
49.153

> <W>
-53.422

> <W(PB)>
-55.725

> <W(SA)>
2.303

> <Valence>
3.298

> <Coulomb>
44.907

> <VdW>
0.948

> <VdW6>
-7.574

> <VdW12>
8.522

> <Bond>
0.229

> <Angle>
0.912

> <Pdih>
2.157

> <Idih>
0.000

> <Tether>
0.000

$$$$
VeraChem MOL file


 26 25  0  0  0  0  0  0  0  0999 V2000     
   18.0926   19.8553   20.6349 C   0  0  0  0  0  0  0  0  0  0  0  0
   17.6699   20.8394   20.8755 H   0  0  0  0  0  0  0  0  0  0  0  0
   17.6690   19.5329   19.6750 H   0  0  0  0  0  0  0  0  0  0  0  0
   17.7601   19.1415   21.3990 H   0  0  0  0  0  0  0  0  0  0  0  0
   19.6345   19.9184   20.5524 C   0  0  0  0  0  0  0  0  0  0  0  0
   19.9171   20.5499   19.6986 H   0  0  0  0  0  0  0  0  0  0  0  0
   20.0352   18.9201   20.3315 H   0  0  0  0  0  0  0  0  0  0  0  0
   20.2979   20.4927   21.8303 C   0  0  0  0  0  0  0  0  0  0  0  0
   21.3857   20.5267   21.6795 H   0  0  0  0  0  0  0  0  0  0  0  0
   19.9796   21.5369   21.9548 H   0  0  0  0  0  0  0  0  0  0  0  0
   19.9948   19.7226   23.1418 C   0  0  0  0  0  0  0  0  0  0  0  0
   18.9203   19.7691   23.3629 H   0  0  0  0  0  0  0  0  0  0  0  0
   20.4951   20.2492   23.9651 H   0  0  0  0  0  0  0  0  0  0  0  0
   20.4610   18.2449   23.1140 C   0  0  0  0  0  0  0  0  0  0  0  0
   19.9390   17.7098   22.3101 H   0  0  0  0  0  0  0  0  0  0  0  0
   21.5327   18.1980   22.8761 H   0  0  0  0  0  0  0  0  0  0  0  0
   20.1939   17.4994   24.4428 C   0  0  0  0  0  0  0  0  0  0  0  0
   20.4498   16.4394   24.3132 H   0  0  0  0  0  0  0  0  0  0  0  0
   19.1219   17.5373   24.6782 H   0  0  0  0  0  0  0  0  0  0  0  0
   21.0045   18.0703   25.6216 C   0  0  0  0  0  0  0  0  0  0  0  0
   22.0716   18.0335   25.3862 H   0  0  0  0  0  0  0  0  0  0  0  0
   20.7253   19.1129   25.7934 H   0  0  0  0  0  0  0  0  0  0  0  0
   20.7844   17.3120   26.9145 N   0  3  0  0  0  0  0  0  0  0  0  0
   19.8016   17.3310   27.2061 H   0  0  0  0  0  0  0  0  0  0  0  0
   21.3326   17.7073   27.6862 H   0  0  0  0  0  0  0  0  0  0  0  0
   21.0551   16.3267   26.8304 H   0  0  0  0  0  0  0  0  0  0  0  0
  1  2  1  0  0  0  0
  1  3  1  0  0  0  0
  1  4  1  0  0  0  0
  1  5  1  0  0  0  0
  5  6  1  0  0  0  0
  5  7  1  0  0  0  0
  5  8  1  0  0  0  0
  8  9  1  0  0  0  0
  8 10  1  0  0  0  0
  8 11  1  0  0  0  0
 11 12  1  0  0  0  0
 11 13  1  0  0  0  0
 11 14  1  0  0  0  0
 14 15  1  0  0  0  0
 14 16  1  0  0  0  0
 14 17  1  0  0  0  0
 17 18  1  0  0  0  0
 17 19  1  0  0  0  0
 17 20  1  0  0  0  0
 20 21  1  0  0  0  0
 20 22  1  0  0  0  0
 20 23  1  0  0  0  0
 23 24  1  0  0  0  0
 23 25  1  0  0  0  0
 23 26  1  0  0  0  0
M  END
> <VConfSearch Rank>
230

> <Conf_Id>
111

> <Delta U+W>
1.290

> <U+W>
-4.262

> <U>
49.209

> <W>
-53.471

> <W(PB)>
-55.745

> <W(SA)>
2.274

> <Valence>
3.465

> <Coulomb>
44.958

> <VdW>
0.786

> <VdW6>
-7.903

> <VdW12>
8.689

> <Bond>
0.237

> <Angle>
1.212

> <Pdih>
2.015

> <Idih>
0.000

> <Tether>
0.000

$$$$
VeraChem MOL file


 26 25  0  0  0  0  0  0  0  0999 V2000     
   22.6357   18.2336   26.1649 C   0  0  0  0  0  0  0  0  0  0  0  0
   22.4714   17.1502   26.0975 H   0  0  0  0  0  0  0  0  0  0  0  0
   23.6925   18.4335   25.9448 H   0  0  0  0  0  0  0  0  0  0  0  0
   22.4440   18.5397   27.2015 H   0  0  0  0  0  0  0  0  0  0  0  0
   21.7117   18.9960   25.1917 C   0  0  0  0  0  0  0  0  0  0  0  0
   21.8779   20.0766   25.3030 H   0  0  0  0  0  0  0  0  0  0  0  0
   20.6668   18.8039   25.4690 H   0  0  0  0  0  0  0  0  0  0  0  0
   21.9609   18.5776   23.7233 C   0  0  0  0  0  0  0  0  0  0  0  0
   23.0280   18.7032   23.4929 H   0  0  0  0  0  0  0  0  0  0  0  0
   21.7435   17.5076   23.6010 H   0  0  0  0  0  0  0  0  0  0  0  0
   21.1386   19.3953   22.6971 C   0  0  0  0  0  0  0  0  0  0  0  0
   21.4650   19.1130   21.6866 H   0  0  0  0  0  0  0  0  0  0  0  0
   21.3700   20.4636   22.8087 H   0  0  0  0  0  0  0  0  0  0  0  0
   19.6108   19.1761   22.8124 C   0  0  0  0  0  0  0  0  0  0  0  0
   19.3949   18.1007   22.7605 H   0  0  0  0  0  0  0  0  0  0  0  0
   19.2542   19.5284   23.7892 H   0  0  0  0  0  0  0  0  0  0  0  0
   18.8408   19.9214   21.6966 C   0  0  0  0  0  0  0  0  0  0  0  0
   19.1571   19.5551   20.7108 H   0  0  0  0  0  0  0  0  0  0  0  0
   19.0951   20.9892   21.7305 H   0  0  0  0  0  0  0  0  0  0  0  0
   17.3123   19.7797   21.8312 C   0  0  0  0  0  0  0  0  0  0  0  0
   16.9944   20.1388   22.8137 H   0  0  0  0  0  0  0  0  0  0  0  0
   16.8228   20.3925   21.0694 H   0  0  0  0  0  0  0  0  0  0  0  0
   16.8145   18.3571   21.6663 N   0  3  0  0  0  0  0  0  0  0  0  0
   15.7936   18.2991   21.7487 H   0  0  0  0  0  0  0  0  0  0  0  0
   17.2087   17.7322   22.3763 H   0  0  0  0  0  0  0  0  0  0  0  0
   17.0633   17.9705   20.7500 H   0  0  0  0  0  0  0  0  0  0  0  0
  1  2  1  0  0  0  0
  1  3  1  0  0  0  0
  1  4  1  0  0  0  0
  1  5  1  0  0  0  0
  5  6  1  0  0  0  0
  5  7  1  0  0  0  0
  5  8  1  0  0  0  0
  8  9  1  0  0  0  0
  8 10  1  0  0  0  0
  8 11  1  0  0  0  0
 11 12  1  0  0  0  0
 11 13  1  0  0  0  0
 11 14  1  0  0  0  0
 14 15  1  0  0  0  0
 14 16  1  0  0  0  0
 14 17  1  0  0  0  0
 17 18  1  0  0  0  0
 17 19  1  0  0  0  0
 17 20  1  0  0  0  0
 20 21  1  0  0  0  0
 20 22  1  0  0  0  0
 20 23  1  0  0  0  0
 23 24  1  0  0  0  0
 23 25  1  0  0  0  0
 23 26  1  0  0  0  0
M  END
> <VConfSearch Rank>
231

> <Conf_Id>
105

> <Delta U+W>
0.736

> <U+W>
-4.817

> <U>
48.735

> <W>
-53.552

> <W(PB)>
-55.889

> <W(SA)>
2.337

> <Valence>
2.803

> <Coulomb>
45.123

> <VdW>
0.809

> <VdW6>
-6.953

> <VdW12>
7.761

> <Bond>
0.188

> <Angle>
0.699

> <Pdih>
1.917

> <Idih>
0.000

> <Tether>
0.000

$$$$
VeraChem MOL file


 26 25  0  0  0  0  0  0  0  0999 V2000     
   23.2752   18.2517   21.6673 C   0  0  0  0  0  0  0  0  0  0  0  0
   23.3265   17.7742   20.6801 H   0  0  0  0  0  0  0  0  0  0  0  0
   23.3758   19.3360   21.5283 H   0  0  0  0  0  0  0  0  0  0  0  0
   24.1363   17.9057   22.2537 H   0  0  0  0  0  0  0  0  0  0  0  0
   21.9531   17.9049   22.3841 C   0  0  0  0  0  0  0  0  0  0  0  0
   21.9568   18.3662   23.3806 H   0  0  0  0  0  0  0  0  0  0  0  0
   21.8945   16.8180   22.5355 H   0  0  0  0  0  0  0  0  0  0  0  0
   20.7240   18.3868   21.5781 C   0  0  0  0  0  0  0  0  0  0  0  0
   20.7603   19.4779   21.4617 H   0  0  0  0  0  0  0  0  0  0  0  0
   20.7811   17.9748   20.5611 H   0  0  0  0  0  0  0  0  0  0  0  0
   19.3677   17.9625   22.1991 C   0  0  0  0  0  0  0  0  0  0  0  0
   19.3000   16.8659   22.1870 H   0  0  0  0  0  0  0  0  0  0  0  0
   18.5562   18.3197   21.5503 H   0  0  0  0  0  0  0  0  0  0  0  0
   19.1103   18.4599   23.6453 C   0  0  0  0  0  0  0  0  0  0  0  0
   18.1315   18.0786   23.9648 H   0  0  0  0  0  0  0  0  0  0  0  0
   19.8444   18.0168   24.3312 H   0  0  0  0  0  0  0  0  0  0  0  0
   19.1307   20.0029   23.7825 C   0  0  0  0  0  0  0  0  0  0  0  0
   18.4120   20.4527   23.0847 H   0  0  0  0  0  0  0  0  0  0  0  0
   20.1207   20.3864   23.5060 H   0  0  0  0  0  0  0  0  0  0  0  0
   18.8218   20.4762   25.2161 C   0  0  0  0  0  0  0  0  0  0  0  0
   19.5240   20.0146   25.9155 H   0  0  0  0  0  0  0  0  0  0  0  0
   18.9466   21.5609   25.2738 H   0  0  0  0  0  0  0  0  0  0  0  0
   17.4146   20.1516   25.6780 N   0  3  0  0  0  0  0  0  0  0  0  0
   17.2401   19.1420   25.6845 H   0  0  0  0  0  0  0  0  0  0  0  0
   16.7069   20.5777   25.0708 H   0  0  0  0  0  0  0  0  0  0  0  0
   17.2379   20.4929   26.6290 H   0  0  0  0  0  0  0  0  0  0  0  0
  1  2  1  0  0  0  0
  1  3  1  0  0  0  0
  1  4  1  0  0  0  0
  1  5  1  0  0  0  0
  5  6  1  0  0  0  0
  5  7  1  0  0  0  0
  5  8  1  0  0  0  0
  8  9  1  0  0  0  0
  8 10  1  0  0  0  0
  8 11  1  0  0  0  0
 11 12  1  0  0  0  0
 11 13  1  0  0  0  0
 11 14  1  0  0  0  0
 14 15  1  0  0  0  0
 14 16  1  0  0  0  0
 14 17  1  0  0  0  0
 17 18  1  0  0  0  0
 17 19  1  0  0  0  0
 17 20  1  0  0  0  0
 20 21  1  0  0  0  0
 20 22  1  0  0  0  0
 20 23  1  0  0  0  0
 23 24  1  0  0  0  0
 23 25  1  0  0  0  0
 23 26  1  0  0  0  0
M  END
> <VConfSearch Rank>
232

> <Conf_Id>
144

> <Delta U+W>
1.073

> <U+W>
-4.479

> <U>
49.231

> <W>
-53.710

> <W(PB)>
-55.983

> <W(SA)>
2.273

> <Valence>
3.276

> <Coulomb>
45.175

> <VdW>
0.779

> <VdW6>
-7.944

> <VdW12>
8.723

> <Bond>
0.239

> <Angle>
1.155

> <Pdih>
1.883

> <Idih>
0.000

> <Tether>
0.000

$$$$
VeraChem MOL file


 26 25  0  0  0  0  0  0  0  0999 V2000     
   21.6222   18.0168   20.1322 C   0  0  0  0  0  0  0  0  0  0  0  0
   21.8852   19.0747   20.0108 H   0  0  0  0  0  0  0  0  0  0  0  0
   22.3559   17.4288   19.5658 H   0  0  0  0  0  0  0  0  0  0  0  0
   20.6372   17.8524   19.6762 H   0  0  0  0  0  0  0  0  0  0  0  0
   21.6240   17.5945   21.6192 C   0  0  0  0  0  0  0  0  0  0  0  0
   22.6084   17.8001   22.0624 H   0  0  0  0  0  0  0  0  0  0  0  0
   21.4837   16.5059   21.6747 H   0  0  0  0  0  0  0  0  0  0  0  0
   20.5173   18.2784   22.4583 C   0  0  0  0  0  0  0  0  0  0  0  0
   19.5375   18.0875   21.9996 H   0  0  0  0  0  0  0  0  0  0  0  0
   20.5047   17.8000   23.4456 H   0  0  0  0  0  0  0  0  0  0  0  0
   20.7298   19.8024   22.6363 C   0  0  0  0  0  0  0  0  0  0  0  0
   20.8463   20.2737   21.6523 H   0  0  0  0  0  0  0  0  0  0  0  0
   21.6728   19.9777   23.1722 H   0  0  0  0  0  0  0  0  0  0  0  0
   19.5756   20.5313   23.3725 C   0  0  0  0  0  0  0  0  0  0  0  0
   19.8245   21.6012   23.3997 H   0  0  0  0  0  0  0  0  0  0  0  0
   18.6487   20.4573   22.7868 H   0  0  0  0  0  0  0  0  0  0  0  0
   19.3239   20.0583   24.8264 C   0  0  0  0  0  0  0  0  0  0  0  0
   18.9112   20.8983   25.4010 H   0  0  0  0  0  0  0  0  0  0  0  0
   20.2745   19.7914   25.3071 H   0  0  0  0  0  0  0  0  0  0  0  0
   18.3287   18.8847   24.9150 C   0  0  0  0  0  0  0  0  0  0  0  0
   17.3710   19.1841   24.4808 H   0  0  0  0  0  0  0  0  0  0  0  0
   18.7029   18.0265   24.3539 H   0  0  0  0  0  0  0  0  0  0  0  0
   18.0734   18.4319   26.3380 N   0  3  0  0  0  0  0  0  0  0  0  0
   17.6865   19.1860   26.9150 H   0  0  0  0  0  0  0  0  0  0  0  0
   18.9321   18.1112   26.7971 H   0  0  0  0  0  0  0  0  0  0  0  0
   17.4054   17.6543   26.3766 H   0  0  0  0  0  0  0  0  0  0  0  0
  1  2  1  0  0  0  0
  1  3  1  0  0  0  0
  1  4  1  0  0  0  0
  1  5  1  0  0  0  0
  5  6  1  0  0  0  0
  5  7  1  0  0  0  0
  5  8  1  0  0  0  0
  8  9  1  0  0  0  0
  8 10  1  0  0  0  0
  8 11  1  0  0  0  0
 11 12  1  0  0  0  0
 11 13  1  0  0  0  0
 11 14  1  0  0  0  0
 14 15  1  0  0  0  0
 14 16  1  0  0  0  0
 14 17  1  0  0  0  0
 17 18  1  0  0  0  0
 17 19  1  0  0  0  0
 17 20  1  0  0  0  0
 20 21  1  0  0  0  0
 20 22  1  0  0  0  0
 20 23  1  0  0  0  0
 23 24  1  0  0  0  0
 23 25  1  0  0  0  0
 23 26  1  0  0  0  0
M  END
> <VConfSearch Rank>
233

> <Conf_Id>
93

> <Delta U+W>
3.253

> <U+W>
-2.300

> <U>
51.609

> <W>
-53.909

> <W(PB)>
-56.178

> <W(SA)>
2.270

> <Valence>
5.204

> <Coulomb>
45.645

> <VdW>
0.760

> <VdW6>
-7.997

> <VdW12>
8.758

> <Bond>
0.240

> <Angle>
1.456

> <Pdih>
3.507

> <Idih>
0.000

> <Tether>
0.000

$$$$
VeraChem MOL file


 26 25  0  0  0  0  0  0  0  0999 V2000     
   16.3881   18.9204   23.1883 C   0  0  0  0  0  0  0  0  0  0  0  0
   16.4017   19.9886   23.4368 H   0  0  0  0  0  0  0  0  0  0  0  0
   16.4324   18.8203   22.0961 H   0  0  0  0  0  0  0  0  0  0  0  0
   15.4234   18.5176   23.5228 H   0  0  0  0  0  0  0  0  0  0  0  0
   17.5533   18.1616   23.8638 C   0  0  0  0  0  0  0  0  0  0  0  0
   17.4182   17.0849   23.6898 H   0  0  0  0  0  0  0  0  0  0  0  0
   17.5078   18.3046   24.9525 H   0  0  0  0  0  0  0  0  0  0  0  0
   18.9492   18.5756   23.3378 C   0  0  0  0  0  0  0  0  0  0  0  0
   19.6840   17.8788   23.7600 H   0  0  0  0  0  0  0  0  0  0  0  0
   18.9825   18.4509   22.2468 H   0  0  0  0  0  0  0  0  0  0  0  0
   19.3477   20.0237   23.7168 C   0  0  0  0  0  0  0  0  0  0  0  0
   19.3941   20.1133   24.8108 H   0  0  0  0  0  0  0  0  0  0  0  0
   18.5644   20.7178   23.3871 H   0  0  0  0  0  0  0  0  0  0  0  0
   20.6889   20.5034   23.1031 C   0  0  0  0  0  0  0  0  0  0  0  0
   20.6158   20.5246   22.0069 H   0  0  0  0  0  0  0  0  0  0  0  0
   20.8382   21.5477   23.4106 H   0  0  0  0  0  0  0  0  0  0  0  0
   21.9353   19.6910   23.5363 C   0  0  0  0  0  0  0  0  0  0  0  0
   21.8301   19.3647   24.5795 H   0  0  0  0  0  0  0  0  0  0  0  0
   22.8117   20.3520   23.5052 H   0  0  0  0  0  0  0  0  0  0  0  0
   22.2157   18.4830   22.6209 C   0  0  0  0  0  0  0  0  0  0  0  0
   21.3648   17.7994   22.6234 H   0  0  0  0  0  0  0  0  0  0  0  0
   22.3711   18.8296   21.5957 H   0  0  0  0  0  0  0  0  0  0  0  0
   23.4422   17.6974   23.0377 N   0  3  0  0  0  0  0  0  0  0  0  0
   24.2887   18.2757   23.0244 H   0  0  0  0  0  0  0  0  0  0  0  0
   23.6150   16.9013   22.4142 H   0  0  0  0  0  0  0  0  0  0  0  0
   23.3500   17.3194   23.9862 H   0  0  0  0  0  0  0  0  0  0  0  0
  1  2  1  0  0  0  0
  1  3  1  0  0  0  0
  1  4  1  0  0  0  0
  1  5  1  0  0  0  0
  5  6  1  0  0  0  0
  5  7  1  0  0  0  0
  5  8  1  0  0  0  0
  8  9  1  0  0  0  0
  8 10  1  0  0  0  0
  8 11  1  0  0  0  0
 11 12  1  0  0  0  0
 11 13  1  0  0  0  0
 11 14  1  0  0  0  0
 14 15  1  0  0  0  0
 14 16  1  0  0  0  0
 14 17  1  0  0  0  0
 17 18  1  0  0  0  0
 17 19  1  0  0  0  0
 17 20  1  0  0  0  0
 20 21  1  0  0  0  0
 20 22  1  0  0  0  0
 20 23  1  0  0  0  0
 23 24  1  0  0  0  0
 23 25  1  0  0  0  0
 23 26  1  0  0  0  0
M  END
> <VConfSearch Rank>
234

> <Conf_Id>
94

> <Delta U+W>
3.247

> <U+W>
-2.305

> <U>
51.609

> <W>
-53.914

> <W(PB)>
-56.221

> <W(SA)>
2.307

> <Valence>
5.204

> <Coulomb>
45.645

> <VdW>
0.760

> <VdW6>
-7.997

> <VdW12>
8.757

> <Bond>
0.240

> <Angle>
1.456

> <Pdih>
3.508

> <Idih>
0.000

> <Tether>
0.000

$$$$
VeraChem MOL file


 26 25  0  0  0  0  0  0  0  0999 V2000     
   21.1253   21.8307   20.5283 C   0  0  0  0  0  0  0  0  0  0  0  0
   20.5330   22.7027   20.8352 H   0  0  0  0  0  0  0  0  0  0  0  0
   22.1292   21.9296   20.9614 H   0  0  0  0  0  0  0  0  0  0  0  0
   21.2254   21.8591   19.4355 H   0  0  0  0  0  0  0  0  0  0  0  0
   20.4532   20.5168   20.9800 C   0  0  0  0  0  0  0  0  0  0  0  0
   21.0499   19.6630   20.6297 H   0  0  0  0  0  0  0  0  0  0  0  0
   19.4661   20.4301   20.5046 H   0  0  0  0  0  0  0  0  0  0  0  0
   20.2999   20.4512   22.5158 C   0  0  0  0  0  0  0  0  0  0  0  0
   21.2887   20.5404   22.9866 H   0  0  0  0  0  0  0  0  0  0  0  0
   19.7051   21.3082   22.8611 H   0  0  0  0  0  0  0  0  0  0  0  0
   19.6267   19.1370   22.9719 C   0  0  0  0  0  0  0  0  0  0  0  0
   20.2222   18.2854   22.6169 H   0  0  0  0  0  0  0  0  0  0  0  0
   18.6367   19.0509   22.5031 H   0  0  0  0  0  0  0  0  0  0  0  0
   19.4764   19.0731   24.5108 C   0  0  0  0  0  0  0  0  0  0  0  0
   20.4657   19.1340   24.9837 H   0  0  0  0  0  0  0  0  0  0  0  0
   18.9193   19.9556   24.8549 H   0  0  0  0  0  0  0  0  0  0  0  0
   18.7360   17.8027   24.9988 C   0  0  0  0  0  0  0  0  0  0  0  0
   17.7171   17.7979   24.5892 H   0  0  0  0  0  0  0  0  0  0  0  0
   18.6264   17.8434   26.0907 H   0  0  0  0  0  0  0  0  0  0  0  0
   19.4312   16.4819   24.6106 C   0  0  0  0  0  0  0  0  0  0  0  0
   18.8337   15.6388   24.9679 H   0  0  0  0  0  0  0  0  0  0  0  0
   19.5047   16.4082   23.5226 H   0  0  0  0  0  0  0  0  0  0  0  0
   20.8256   16.3363   25.1870 N   0  3  0  0  0  0  0  0  0  0  0  0
   20.8189   16.3689   26.2116 H   0  0  0  0  0  0  0  0  0  0  0  0
   21.4475   17.0838   24.8637 H   0  0  0  0  0  0  0  0  0  0  0  0
   21.2583   15.4461   24.9180 H   0  0  0  0  0  0  0  0  0  0  0  0
  1  2  1  0  0  0  0
  1  3  1  0  0  0  0
  1  4  1  0  0  0  0
  1  5  1  0  0  0  0
  5  6  1  0  0  0  0
  5  7  1  0  0  0  0
  5  8  1  0  0  0  0
  8  9  1  0  0  0  0
  8 10  1  0  0  0  0
  8 11  1  0  0  0  0
 11 12  1  0  0  0  0
 11 13  1  0  0  0  0
 11 14  1  0  0  0  0
 14 15  1  0  0  0  0
 14 16  1  0  0  0  0
 14 17  1  0  0  0  0
 17 18  1  0  0  0  0
 17 19  1  0  0  0  0
 17 20  1  0  0  0  0
 20 21  1  0  0  0  0
 20 22  1  0  0  0  0
 20 23  1  0  0  0  0
 23 24  1  0  0  0  0
 23 25  1  0  0  0  0
 23 26  1  0  0  0  0
M  END
> <VConfSearch Rank>
235

> <Conf_Id>
83

> <Delta U+W>
0.559

> <U+W>
-4.994

> <U>
48.668

> <W>
-53.661

> <W(PB)>
-55.972

> <W(SA)>
2.311

> <Valence>
2.543

> <Coulomb>
45.478

> <VdW>
0.646

> <VdW6>
-7.096

> <VdW12>
7.742

> <Bond>
0.176

> <Angle>
0.630

> <Pdih>
1.738

> <Idih>
0.000

> <Tether>
0.000

$$$$
VeraChem MOL file


 26 25  0  0  0  0  0  0  0  0999 V2000     
   22.4189   19.8241   26.3234 C   0  0  0  0  0  0  0  0  0  0  0  0
   22.3842   19.1600   27.1969 H   0  0  0  0  0  0  0  0  0  0  0  0
   23.3715   19.6564   25.8040 H   0  0  0  0  0  0  0  0  0  0  0  0
   22.4113   20.8597   26.6874 H   0  0  0  0  0  0  0  0  0  0  0  0
   21.2221   19.5682   25.3830 C   0  0  0  0  0  0  0  0  0  0  0  0
   21.2697   20.2771   24.5459 H   0  0  0  0  0  0  0  0  0  0  0  0
   20.2860   19.7721   25.9213 H   0  0  0  0  0  0  0  0  0  0  0  0
   21.2143   18.1147   24.8532 C   0  0  0  0  0  0  0  0  0  0  0  0
   22.1260   17.9283   24.2691 H   0  0  0  0  0  0  0  0  0  0  0  0
   21.2493   17.4240   25.7071 H   0  0  0  0  0  0  0  0  0  0  0  0
   19.9700   17.7725   23.9972 C   0  0  0  0  0  0  0  0  0  0  0  0
   19.0592   17.9454   24.5870 H   0  0  0  0  0  0  0  0  0  0  0  0
   19.9905   16.6977   23.7699 H   0  0  0  0  0  0  0  0  0  0  0  0
   19.8927   18.5670   22.6713 C   0  0  0  0  0  0  0  0  0  0  0  0
   19.7992   19.6385   22.8874 H   0  0  0  0  0  0  0  0  0  0  0  0
   20.8269   18.4333   22.1084 H   0  0  0  0  0  0  0  0  0  0  0  0
   18.6978   18.1113   21.8005 C   0  0  0  0  0  0  0  0  0  0  0  0
   17.7559   18.2663   22.3434 H   0  0  0  0  0  0  0  0  0  0  0  0
   18.7761   17.0326   21.6106 H   0  0  0  0  0  0  0  0  0  0  0  0
   18.6362   18.8406   20.4445 C   0  0  0  0  0  0  0  0  0  0  0  0
   19.5760   18.6949   19.9050 H   0  0  0  0  0  0  0  0  0  0  0  0
   17.8281   18.4173   19.8417 H   0  0  0  0  0  0  0  0  0  0  0  0
   18.3880   20.3316   20.5632 N   0  3  0  0  0  0  0  0  0  0  0  0
   19.1330   20.8002   21.0879 H   0  0  0  0  0  0  0  0  0  0  0  0
   17.5051   20.5335   21.0436 H   0  0  0  0  0  0  0  0  0  0  0  0
   18.3386   20.7835   19.6436 H   0  0  0  0  0  0  0  0  0  0  0  0
  1  2  1  0  0  0  0
  1  3  1  0  0  0  0
  1  4  1  0  0  0  0
  1  5  1  0  0  0  0
  5  6  1  0  0  0  0
  5  7  1  0  0  0  0
  5  8  1  0  0  0  0
  8  9  1  0  0  0  0
  8 10  1  0  0  0  0
  8 11  1  0  0  0  0
 11 12  1  0  0  0  0
 11 13  1  0  0  0  0
 11 14  1  0  0  0  0
 14 15  1  0  0  0  0
 14 16  1  0  0  0  0
 14 17  1  0  0  0  0
 17 18  1  0  0  0  0
 17 19  1  0  0  0  0
 17 20  1  0  0  0  0
 20 21  1  0  0  0  0
 20 22  1  0  0  0  0
 20 23  1  0  0  0  0
 23 24  1  0  0  0  0
 23 25  1  0  0  0  0
 23 26  1  0  0  0  0
M  END
> <VConfSearch Rank>
236

> <Conf_Id>
18

> <Delta U+W>
0.759

> <U+W>
-4.793

> <U>
48.945

> <W>
-53.738

> <W(PB)>
-56.051

> <W(SA)>
2.313

> <Valence>
2.802

> <Coulomb>
45.335

> <VdW>
0.807

> <VdW6>
-6.962

> <VdW12>
7.769

> <Bond>
0.189

> <Angle>
0.696

> <Pdih>
1.917

> <Idih>
0.000

> <Tether>
0.000

$$$$
VeraChem MOL file


 26 25  0  0  0  0  0  0  0  0999 V2000     
   17.8627   16.6524   25.7642 C   0  0  0  0  0  0  0  0  0  0  0  0
   17.7672   17.4065   26.5564 H   0  0  0  0  0  0  0  0  0  0  0  0
   16.8534   16.3433   25.4628 H   0  0  0  0  0  0  0  0  0  0  0  0
   18.3693   15.7772   26.1913 H   0  0  0  0  0  0  0  0  0  0  0  0
   18.6556   17.2084   24.5624 C   0  0  0  0  0  0  0  0  0  0  0  0
   18.7596   16.4235   23.8003 H   0  0  0  0  0  0  0  0  0  0  0  0
   19.6697   17.4671   24.8944 H   0  0  0  0  0  0  0  0  0  0  0  0
   17.9624   18.4466   23.9460 C   0  0  0  0  0  0  0  0  0  0  0  0
   16.9243   18.1866   23.6968 H   0  0  0  0  0  0  0  0  0  0  0  0
   17.9075   19.2506   24.6929 H   0  0  0  0  0  0  0  0  0  0  0  0
   18.6562   18.9735   22.6658 C   0  0  0  0  0  0  0  0  0  0  0  0
   18.0317   19.7685   22.2353 H   0  0  0  0  0  0  0  0  0  0  0  0
   18.6976   18.1732   21.9141 H   0  0  0  0  0  0  0  0  0  0  0  0
   20.0787   19.5296   22.9162 C   0  0  0  0  0  0  0  0  0  0  0  0
   20.0405   20.2930   23.7056 H   0  0  0  0  0  0  0  0  0  0  0  0
   20.7311   18.7257   23.2789 H   0  0  0  0  0  0  0  0  0  0  0  0
   20.6856   20.1460   21.6335 C   0  0  0  0  0  0  0  0  0  0  0  0
   20.0163   20.9296   21.2542 H   0  0  0  0  0  0  0  0  0  0  0  0
   20.7539   19.3839   20.8457 H   0  0  0  0  0  0  0  0  0  0  0  0
   22.0759   20.7668   21.8708 C   0  0  0  0  0  0  0  0  0  0  0  0
   22.4136   21.2601   20.9553 H   0  0  0  0  0  0  0  0  0  0  0  0
   22.0126   21.5204   22.6605 H   0  0  0  0  0  0  0  0  0  0  0  0
   23.1361   19.7579   22.2668 N   0  3  0  0  0  0  0  0  0  0  0  0
   23.2581   19.0334   21.5517 H   0  0  0  0  0  0  0  0  0  0  0  0
   22.8998   19.2826   23.1432 H   0  0  0  0  0  0  0  0  0  0  0  0
   24.0512   20.2012   22.4029 H   0  0  0  0  0  0  0  0  0  0  0  0
  1  2  1  0  0  0  0
  1  3  1  0  0  0  0
  1  4  1  0  0  0  0
  1  5  1  0  0  0  0
  5  6  1  0  0  0  0
  5  7  1  0  0  0  0
  5  8  1  0  0  0  0
  8  9  1  0  0  0  0
  8 10  1  0  0  0  0
  8 11  1  0  0  0  0
 11 12  1  0  0  0  0
 11 13  1  0  0  0  0
 11 14  1  0  0  0  0
 14 15  1  0  0  0  0
 14 16  1  0  0  0  0
 14 17  1  0  0  0  0
 17 18  1  0  0  0  0
 17 19  1  0  0  0  0
 17 20  1  0  0  0  0
 20 21  1  0  0  0  0
 20 22  1  0  0  0  0
 20 23  1  0  0  0  0
 23 24  1  0  0  0  0
 23 25  1  0  0  0  0
 23 26  1  0  0  0  0
M  END
> <VConfSearch Rank>
237

> <Conf_Id>
17

> <Delta U+W>
0.843

> <U+W>
-4.709

> <U>
48.945

> <W>
-53.653

> <W(PB)>
-55.991

> <W(SA)>
2.338

> <Valence>
2.802

> <Coulomb>
45.335

> <VdW>
0.807

> <VdW6>
-6.962

> <VdW12>
7.769

> <Bond>
0.189

> <Angle>
0.696

> <Pdih>
1.917

> <Idih>
0.000

> <Tether>
0.000

$$$$
VeraChem MOL file


 26 25  0  0  0  0  0  0  0  0999 V2000     
   16.7260   18.1872   24.4275 C   0  0  0  0  0  0  0  0  0  0  0  0
   17.0428   17.9766   23.3985 H   0  0  0  0  0  0  0  0  0  0  0  0
   17.0563   17.3579   25.0663 H   0  0  0  0  0  0  0  0  0  0  0  0
   15.6285   18.2022   24.4378 H   0  0  0  0  0  0  0  0  0  0  0  0
   17.2898   19.5353   24.9309 C   0  0  0  0  0  0  0  0  0  0  0  0
   16.8472   19.7598   25.9115 H   0  0  0  0  0  0  0  0  0  0  0  0
   16.9715   20.3436   24.2578 H   0  0  0  0  0  0  0  0  0  0  0  0
   18.8315   19.5453   25.0685 C   0  0  0  0  0  0  0  0  0  0  0  0
   19.1333   20.4934   25.5347 H   0  0  0  0  0  0  0  0  0  0  0  0
   19.1434   18.7488   25.7581 H   0  0  0  0  0  0  0  0  0  0  0  0
   19.5724   19.3868   23.7190 C   0  0  0  0  0  0  0  0  0  0  0  0
   19.2215   20.1552   23.0165 H   0  0  0  0  0  0  0  0  0  0  0  0
   19.3266   18.4130   23.2774 H   0  0  0  0  0  0  0  0  0  0  0  0
   21.1059   19.5057   23.8909 C   0  0  0  0  0  0  0  0  0  0  0  0
   21.3426   20.4646   24.3724 H   0  0  0  0  0  0  0  0  0  0  0  0
   21.4647   18.7201   24.5703 H   0  0  0  0  0  0  0  0  0  0  0  0
   21.8757   19.4209   22.5519 C   0  0  0  0  0  0  0  0  0  0  0  0
   22.9419   19.6025   22.7420 H   0  0  0  0  0  0  0  0  0  0  0  0
   21.5357   20.2197   21.8795 H   0  0  0  0  0  0  0  0  0  0  0  0
   21.7142   18.0556   21.8575 C   0  0  0  0  0  0  0  0  0  0  0  0
   22.0533   17.2601   22.5266 H   0  0  0  0  0  0  0  0  0  0  0  0
   20.6611   17.8821   21.6218 H   0  0  0  0  0  0  0  0  0  0  0  0
   22.5022   17.9496   20.5679 N   0  3  0  0  0  0  0  0  0  0  0  0
   22.3815   17.0338   20.1216 H   0  0  0  0  0  0  0  0  0  0  0  0
   23.5078   18.0753   20.7232 H   0  0  0  0  0  0  0  0  0  0  0  0
   22.2120   18.6557   19.8836 H   0  0  0  0  0  0  0  0  0  0  0  0
  1  2  1  0  0  0  0
  1  3  1  0  0  0  0
  1  4  1  0  0  0  0
  1  5  1  0  0  0  0
  5  6  1  0  0  0  0
  5  7  1  0  0  0  0
  5  8  1  0  0  0  0
  8  9  1  0  0  0  0
  8 10  1  0  0  0  0
  8 11  1  0  0  0  0
 11 12  1  0  0  0  0
 11 13  1  0  0  0  0
 11 14  1  0  0  0  0
 14 15  1  0  0  0  0
 14 16  1  0  0  0  0
 14 17  1  0  0  0  0
 17 18  1  0  0  0  0
 17 19  1  0  0  0  0
 17 20  1  0  0  0  0
 20 21  1  0  0  0  0
 20 22  1  0  0  0  0
 20 23  1  0  0  0  0
 23 24  1  0  0  0  0
 23 25  1  0  0  0  0
 23 26  1  0  0  0  0
M  END
> <VConfSearch Rank>
238

> <Conf_Id>
96

> <Delta U+W>
0.912

> <U+W>
-4.640

> <U>
48.723

> <W>
-53.364

> <W(PB)>
-55.683

> <W(SA)>
2.320

> <Valence>
2.962

> <Coulomb>
44.993

> <VdW>
0.768

> <VdW6>
-7.008

> <VdW12>
7.776

> <Bond>
0.188

> <Angle>
0.757

> <Pdih>
2.018

> <Idih>
0.000

> <Tether>
0.000

$$$$
VeraChem MOL file


 26 25  0  0  0  0  0  0  0  0999 V2000     
   20.4675   18.8501   19.8816 C   0  0  0  0  0  0  0  0  0  0  0  0
   20.2827   18.5206   18.8509 H   0  0  0  0  0  0  0  0  0  0  0  0
   21.4459   19.3474   19.9046 H   0  0  0  0  0  0  0  0  0  0  0  0
   20.5227   17.9522   20.5094 H   0  0  0  0  0  0  0  0  0  0  0  0
   19.3474   19.8051   20.3529 C   0  0  0  0  0  0  0  0  0  0  0  0
   18.3847   19.2751   20.3510 H   0  0  0  0  0  0  0  0  0  0  0  0
   19.2497   20.6224   19.6247 H   0  0  0  0  0  0  0  0  0  0  0  0
   19.6064   20.4152   21.7517 C   0  0  0  0  0  0  0  0  0  0  0  0
   20.5599   20.9610   21.7430 H   0  0  0  0  0  0  0  0  0  0  0  0
   18.8255   21.1606   21.9563 H   0  0  0  0  0  0  0  0  0  0  0  0
   19.6155   19.3667   22.8900 C   0  0  0  0  0  0  0  0  0  0  0  0
   20.4348   18.6553   22.7272 H   0  0  0  0  0  0  0  0  0  0  0  0
   18.6805   18.7903   22.8641 H   0  0  0  0  0  0  0  0  0  0  0  0
   19.7743   20.0313   24.2786 C   0  0  0  0  0  0  0  0  0  0  0  0
   20.7228   20.5848   24.3183 H   0  0  0  0  0  0  0  0  0  0  0  0
   18.9758   20.7731   24.4180 H   0  0  0  0  0  0  0  0  0  0  0  0
   19.7187   19.0188   25.4467 C   0  0  0  0  0  0  0  0  0  0  0  0
   18.7617   18.4806   25.4234 H   0  0  0  0  0  0  0  0  0  0  0  0
   19.7469   19.5690   26.3967 H   0  0  0  0  0  0  0  0  0  0  0  0
   20.8816   18.0092   25.4156 C   0  0  0  0  0  0  0  0  0  0  0  0
   20.8387   17.4230   24.4941 H   0  0  0  0  0  0  0  0  0  0  0  0
   21.8344   18.5448   25.4394 H   0  0  0  0  0  0  0  0  0  0  0  0
   20.8589   17.0429   26.5822 N   0  3  0  0  0  0  0  0  0  0  0  0
   19.9972   16.4876   26.6018 H   0  0  0  0  0  0  0  0  0  0  0  0
   20.9249   17.5291   27.4824 H   0  0  0  0  0  0  0  0  0  0  0  0
   21.6407   16.3798   26.5431 H   0  0  0  0  0  0  0  0  0  0  0  0
  1  2  1  0  0  0  0
  1  3  1  0  0  0  0
  1  4  1  0  0  0  0
  1  5  1  0  0  0  0
  5  6  1  0  0  0  0
  5  7  1  0  0  0  0
  5  8  1  0  0  0  0
  8  9  1  0  0  0  0
  8 10  1  0  0  0  0
  8 11  1  0  0  0  0
 11 12  1  0  0  0  0
 11 13  1  0  0  0  0
 11 14  1  0  0  0  0
 14 15  1  0  0  0  0
 14 16  1  0  0  0  0
 14 17  1  0  0  0  0
 17 18  1  0  0  0  0
 17 19  1  0  0  0  0
 17 20  1  0  0  0  0
 20 21  1  0  0  0  0
 20 22  1  0  0  0  0
 20 23  1  0  0  0  0
 23 24  1  0  0  0  0
 23 25  1  0  0  0  0
 23 26  1  0  0  0  0
M  END
> <VConfSearch Rank>
239

> <Conf_Id>
133

> <Delta U+W>
0.844

> <U+W>
-4.708

> <U>
48.723

> <W>
-53.431

> <W(PB)>
-55.776

> <W(SA)>
2.344

> <Valence>
2.962

> <Coulomb>
44.993

> <VdW>
0.768

> <VdW6>
-7.008

> <VdW12>
7.776

> <Bond>
0.188

> <Angle>
0.756

> <Pdih>
2.018

> <Idih>
0.000

> <Tether>
0.000

$$$$
VeraChem MOL file


 26 25  0  0  0  0  0  0  0  0999 V2000     
   19.1173   21.2446   25.5997 C   0  0  0  0  0  0  0  0  0  0  0  0
   19.6163   21.2043   26.5765 H   0  0  0  0  0  0  0  0  0  0  0  0
   19.8884   21.3009   24.8212 H   0  0  0  0  0  0  0  0  0  0  0  0
   18.5363   22.1749   25.5571 H   0  0  0  0  0  0  0  0  0  0  0  0
   18.1957   20.0209   25.3959 C   0  0  0  0  0  0  0  0  0  0  0  0
   17.7239   20.0729   24.4056 H   0  0  0  0  0  0  0  0  0  0  0  0
   17.3733   20.0728   26.1230 H   0  0  0  0  0  0  0  0  0  0  0  0
   18.9243   18.6642   25.5722 C   0  0  0  0  0  0  0  0  0  0  0  0
   19.2803   18.5850   26.6086 H   0  0  0  0  0  0  0  0  0  0  0  0
   18.1960   17.8520   25.4421 H   0  0  0  0  0  0  0  0  0  0  0  0
   20.1216   18.4253   24.6162 C   0  0  0  0  0  0  0  0  0  0  0  0
   20.5611   17.4463   24.8521 H   0  0  0  0  0  0  0  0  0  0  0  0
   20.9098   19.1645   24.8114 H   0  0  0  0  0  0  0  0  0  0  0  0
   19.7334   18.4557   23.1185 C   0  0  0  0  0  0  0  0  0  0  0  0
   18.9137   17.7469   22.9367 H   0  0  0  0  0  0  0  0  0  0  0  0
   19.3599   19.4526   22.8491 H   0  0  0  0  0  0  0  0  0  0  0  0
   20.9306   18.1036   22.2083 C   0  0  0  0  0  0  0  0  0  0  0  0
   21.3063   17.1031   22.4609 H   0  0  0  0  0  0  0  0  0  0  0  0
   21.7513   18.8111   22.3870 H   0  0  0  0  0  0  0  0  0  0  0  0
   20.5371   18.1414   20.7211 C   0  0  0  0  0  0  0  0  0  0  0  0
   19.7308   17.4267   20.5354 H   0  0  0  0  0  0  0  0  0  0  0  0
   20.1779   19.1407   20.4606 H   0  0  0  0  0  0  0  0  0  0  0  0
   21.6863   17.8012   19.7943 N   0  3  0  0  0  0  0  0  0  0  0  0
   21.4029   17.8321   18.8088 H   0  0  0  0  0  0  0  0  0  0  0  0
   22.0531   16.8600   19.9698 H   0  0  0  0  0  0  0  0  0  0  0  0
   22.4691   18.4548   19.9002 H   0  0  0  0  0  0  0  0  0  0  0  0
  1  2  1  0  0  0  0
  1  3  1  0  0  0  0
  1  4  1  0  0  0  0
  1  5  1  0  0  0  0
  5  6  1  0  0  0  0
  5  7  1  0  0  0  0
  5  8  1  0  0  0  0
  8  9  1  0  0  0  0
  8 10  1  0  0  0  0
  8 11  1  0  0  0  0
 11 12  1  0  0  0  0
 11 13  1  0  0  0  0
 11 14  1  0  0  0  0
 14 15  1  0  0  0  0
 14 16  1  0  0  0  0
 14 17  1  0  0  0  0
 17 18  1  0  0  0  0
 17 19  1  0  0  0  0
 17 20  1  0  0  0  0
 20 21  1  0  0  0  0
 20 22  1  0  0  0  0
 20 23  1  0  0  0  0
 23 24  1  0  0  0  0
 23 25  1  0  0  0  0
 23 26  1  0  0  0  0
M  END
> <VConfSearch Rank>
240

> <Conf_Id>
106

> <Delta U+W>
0.767

> <U+W>
-4.785

> <U>
48.494

> <W>
-53.279

> <W(PB)>
-55.569

> <W(SA)>
2.290

> <Valence>
3.117

> <Coulomb>
44.693

> <VdW>
0.684

> <VdW6>
-7.347

> <VdW12>
8.030

> <Bond>
0.208

> <Angle>
1.039

> <Pdih>
1.870

> <Idih>
0.000

> <Tether>
0.000

$$$$
VeraChem MOL file


 26 25  0  0  0  0  0  0  0  0999 V2000     
   23.0945   22.1406   22.7035 C   0  0  0  0  0  0  0  0  0  0  0  0
   22.9253   22.6218   23.6757 H   0  0  0  0  0  0  0  0  0  0  0  0
   23.9581   21.4696   22.7998 H   0  0  0  0  0  0  0  0  0  0  0  0
   23.3556   22.9242   21.9805 H   0  0  0  0  0  0  0  0  0  0  0  0
   21.8408   21.3682   22.2411 C   0  0  0  0  0  0  0  0  0  0  0  0
   22.0286   20.9270   21.2522 H   0  0  0  0  0  0  0  0  0  0  0  0
   21.0037   22.0703   22.1212 H   0  0  0  0  0  0  0  0  0  0  0  0
   21.4511   20.2581   23.2422 C   0  0  0  0  0  0  0  0  0  0  0  0
   22.2917   19.5603   23.3605 H   0  0  0  0  0  0  0  0  0  0  0  0
   21.2666   20.7037   24.2295 H   0  0  0  0  0  0  0  0  0  0  0  0
   20.1961   19.4823   22.7825 C   0  0  0  0  0  0  0  0  0  0  0  0
   20.3814   19.0373   21.7950 H   0  0  0  0  0  0  0  0  0  0  0  0
   19.3562   20.1809   22.6639 H   0  0  0  0  0  0  0  0  0  0  0  0
   19.8066   18.3719   23.7845 C   0  0  0  0  0  0  0  0  0  0  0  0
   20.6463   17.6730   23.9033 H   0  0  0  0  0  0  0  0  0  0  0  0
   19.6211   18.8166   24.7722 H   0  0  0  0  0  0  0  0  0  0  0  0
   18.5523   17.5960   23.3256 C   0  0  0  0  0  0  0  0  0  0  0  0
   18.7356   17.1454   22.3410 H   0  0  0  0  0  0  0  0  0  0  0  0
   17.7093   18.2904   23.2106 H   0  0  0  0  0  0  0  0  0  0  0  0
   18.1735   16.4935   24.3302 C   0  0  0  0  0  0  0  0  0  0  0  0
   19.0041   15.7903   24.4355 H   0  0  0  0  0  0  0  0  0  0  0  0
   17.9741   16.9395   25.3084 H   0  0  0  0  0  0  0  0  0  0  0  0
   16.9459   15.7086   23.9150 N   0  3  0  0  0  0  0  0  0  0  0  0
   16.7110   14.9797   24.5976 H   0  0  0  0  0  0  0  0  0  0  0  0
   17.0786   15.2405   23.0125 H   0  0  0  0  0  0  0  0  0  0  0  0
   16.1203   16.3098   23.8247 H   0  0  0  0  0  0  0  0  0  0  0  0
  1  2  1  0  0  0  0
  1  3  1  0  0  0  0
  1  4  1  0  0  0  0
  1  5  1  0  0  0  0
  5  6  1  0  0  0  0
  5  7  1  0  0  0  0
  5  8  1  0  0  0  0
  8  9  1  0  0  0  0
  8 10  1  0  0  0  0
  8 11  1  0  0  0  0
 11 12  1  0  0  0  0
 11 13  1  0  0  0  0
 11 14  1  0  0  0  0
 14 15  1  0  0  0  0
 14 16  1  0  0  0  0
 14 17  1  0  0  0  0
 17 18  1  0  0  0  0
 17 19  1  0  0  0  0
 17 20  1  0  0  0  0
 20 21  1  0  0  0  0
 20 22  1  0  0  0  0
 20 23  1  0  0  0  0
 23 24  1  0  0  0  0
 23 25  1  0  0  0  0
 23 26  1  0  0  0  0
M  END
> <VConfSearch Rank>
241

> <Conf_Id>
25

> <Delta U+W>
0.000

> <U+W>
-5.552

> <U>
47.192

> <W>
-52.745

> <W(PB)>
-55.134

> <W(SA)>
2.389

> <Valence>
2.156

> <Coulomb>
44.449

> <VdW>
0.587

> <VdW6>
-5.761

> <VdW12>
6.348

> <Bond>
0.129

> <Angle>
0.393

> <Pdih>
1.634

> <Idih>
0.000

> <Tether>
0.000

$$$$
VeraChem MOL file


 26 25  0  0  0  0  0  0  0  0999 V2000     
   17.2163   21.7518   21.5112 C   0  0  0  0  0  0  0  0  0  0  0  0
   17.0260   22.3050   22.4401 H   0  0  0  0  0  0  0  0  0  0  0  0
   18.0163   22.2673   20.9639 H   0  0  0  0  0  0  0  0  0  0  0  0
   16.3060   21.7973   20.8994 H   0  0  0  0  0  0  0  0  0  0  0  0
   17.6014   20.2867   21.8070 C   0  0  0  0  0  0  0  0  0  0  0  0
   17.7521   19.7509   20.8593 H   0  0  0  0  0  0  0  0  0  0  0  0
   16.7693   19.7884   22.3241 H   0  0  0  0  0  0  0  0  0  0  0  0
   18.8808   20.1940   22.6678 C   0  0  0  0  0  0  0  0  0  0  0  0
   19.7088   20.6955   22.1479 H   0  0  0  0  0  0  0  0  0  0  0  0
   18.7261   20.7328   23.6129 H   0  0  0  0  0  0  0  0  0  0  0  0
   19.2696   18.7283   22.9660 C   0  0  0  0  0  0  0  0  0  0  0  0
   19.4242   18.1902   22.0205 H   0  0  0  0  0  0  0  0  0  0  0  0
   18.4403   18.2276   23.4848 H   0  0  0  0  0  0  0  0  0  0  0  0
   20.5492   18.6359   23.8276 C   0  0  0  0  0  0  0  0  0  0  0  0
   21.3730   19.1420   23.3068 H   0  0  0  0  0  0  0  0  0  0  0  0
   20.3934   19.1716   24.7745 H   0  0  0  0  0  0  0  0  0  0  0  0
   20.9371   17.1680   24.1243 C   0  0  0  0  0  0  0  0  0  0  0  0
   21.1257   16.6311   23.1850 H   0  0  0  0  0  0  0  0  0  0  0  0
   20.0939   16.6603   24.6114 H   0  0  0  0  0  0  0  0  0  0  0  0
   22.1709   17.0515   25.0400 C   0  0  0  0  0  0  0  0  0  0  0  0
   21.9885   17.5903   25.9737 H   0  0  0  0  0  0  0  0  0  0  0  0
   22.3450   15.9995   25.2818 H   0  0  0  0  0  0  0  0  0  0  0  0
   23.4433   17.5977   24.4223 N   0  3  0  0  0  0  0  0  0  0  0  0
   23.3613   18.5953   24.2034 H   0  0  0  0  0  0  0  0  0  0  0  0
   23.6811   17.1143   23.5501 H   0  0  0  0  0  0  0  0  0  0  0  0
   24.2470   17.4934   25.0512 H   0  0  0  0  0  0  0  0  0  0  0  0
  1  2  1  0  0  0  0
  1  3  1  0  0  0  0
  1  4  1  0  0  0  0
  1  5  1  0  0  0  0
  5  6  1  0  0  0  0
  5  7  1  0  0  0  0
  5  8  1  0  0  0  0
  8  9  1  0  0  0  0
  8 10  1  0  0  0  0
  8 11  1  0  0  0  0
 11 12  1  0  0  0  0
 11 13  1  0  0  0  0
 11 14  1  0  0  0  0
 14 15  1  0  0  0  0
 14 16  1  0  0  0  0
 14 17  1  0  0  0  0
 17 18  1  0  0  0  0
 17 19  1  0  0  0  0
 17 20  1  0  0  0  0
 20 21  1  0  0  0  0
 20 22  1  0  0  0  0
 20 23  1  0  0  0  0
 23 24  1  0  0  0  0
 23 25  1  0  0  0  0
 23 26  1  0  0  0  0
M  END
> <VConfSearch Rank>
242

> <Conf_Id>
20

> <Delta U+W>
0.150

> <U+W>
-5.403

> <U>
47.845

> <W>
-53.248

> <W(PB)>
-55.599

> <W(SA)>
2.351

> <Valence>
2.258

> <Coulomb>
44.893

> <VdW>
0.694

> <VdW6>
-6.285

> <VdW12>
6.979

> <Bond>
0.149

> <Angle>
0.434

> <Pdih>
1.675

> <Idih>
0.000

> <Tether>
0.000

$$$$
VeraChem MOL file


 26 25  0  0  0  0  0  0  0  0999 V2000     
   20.6177   15.4292   20.8182 C   0  0  0  0  0  0  0  0  0  0  0  0
   19.6752   14.9758   21.1520 H   0  0  0  0  0  0  0  0  0  0  0  0
   20.4327   15.9389   19.8636 H   0  0  0  0  0  0  0  0  0  0  0  0
   21.3348   14.6188   20.6340 H   0  0  0  0  0  0  0  0  0  0  0  0
   21.1655   16.4119   21.8747 C   0  0  0  0  0  0  0  0  0  0  0  0
   22.1241   16.8228   21.5281 H   0  0  0  0  0  0  0  0  0  0  0  0
   21.3724   15.8672   22.8066 H   0  0  0  0  0  0  0  0  0  0  0  0
   20.1744   17.5638   22.1529 C   0  0  0  0  0  0  0  0  0  0  0  0
   19.9690   18.1038   21.2183 H   0  0  0  0  0  0  0  0  0  0  0  0
   19.2171   17.1481   22.4967 H   0  0  0  0  0  0  0  0  0  0  0  0
   20.7195   18.5500   23.2106 C   0  0  0  0  0  0  0  0  0  0  0  0
   21.6773   18.9641   22.8662 H   0  0  0  0  0  0  0  0  0  0  0  0
   20.9245   18.0093   24.1450 H   0  0  0  0  0  0  0  0  0  0  0  0
   19.7281   19.7026   23.4881 C   0  0  0  0  0  0  0  0  0  0  0  0
   19.5256   20.2451   22.5541 H   0  0  0  0  0  0  0  0  0  0  0  0
   18.7716   19.2830   23.8271 H   0  0  0  0  0  0  0  0  0  0  0  0
   20.2753   20.6881   24.5478 C   0  0  0  0  0  0  0  0  0  0  0  0
   21.2490   21.0737   24.2173 H   0  0  0  0  0  0  0  0  0  0  0  0
   20.4518   20.1622   25.4955 H   0  0  0  0  0  0  0  0  0  0  0  0
   19.3345   21.8841   24.7906 C   0  0  0  0  0  0  0  0  0  0  0  0
   19.8101   22.5850   25.4820 H   0  0  0  0  0  0  0  0  0  0  0  0
   19.1520   22.4064   23.8476 H   0  0  0  0  0  0  0  0  0  0  0  0
   17.9930   21.4955   25.3806 N   0  3  0  0  0  0  0  0  0  0  0  0
   18.0972   21.0191   26.2824 H   0  0  0  0  0  0  0  0  0  0  0  0
   17.4747   20.8640   24.7621 H   0  0  0  0  0  0  0  0  0  0  0  0
   17.3964   22.3144   25.5417 H   0  0  0  0  0  0  0  0  0  0  0  0
  1  2  1  0  0  0  0
  1  3  1  0  0  0  0
  1  4  1  0  0  0  0
  1  5  1  0  0  0  0
  5  6  1  0  0  0  0
  5  7  1  0  0  0  0
  5  8  1  0  0  0  0
  8  9  1  0  0  0  0
  8 10  1  0  0  0  0
  8 11  1  0  0  0  0
 11 12  1  0  0  0  0
 11 13  1  0  0  0  0
 11 14  1  0  0  0  0
 14 15  1  0  0  0  0
 14 16  1  0  0  0  0
 14 17  1  0  0  0  0
 17 18  1  0  0  0  0
 17 19  1  0  0  0  0
 17 20  1  0  0  0  0
 20 21  1  0  0  0  0
 20 22  1  0  0  0  0
 20 23  1  0  0  0  0
 23 24  1  0  0  0  0
 23 25  1  0  0  0  0
 23 26  1  0  0  0  0
M  END
> <VConfSearch Rank>
243

> <Conf_Id>
19

> <Delta U+W>
0.162

> <U+W>
-5.391

> <U>
47.845

> <W>
-53.235

> <W(PB)>
-55.585

> <W(SA)>
2.349

> <Valence>
2.258

> <Coulomb>
44.893

> <VdW>
0.694

> <VdW6>
-6.285

> <VdW12>
6.979

> <Bond>
0.149

> <Angle>
0.434

> <Pdih>
1.675

> <Idih>
0.000

> <Tether>
0.000

$$$$
VeraChem MOL file


 26 25  0  0  0  0  0  0  0  0999 V2000     
   20.3193   14.8366   24.0174 C   0  0  0  0  0  0  0  0  0  0  0  0
   19.8121   14.1955   23.2846 H   0  0  0  0  0  0  0  0  0  0  0  0
   21.4012   14.7610   23.8472 H   0  0  0  0  0  0  0  0  0  0  0  0
   20.1068   14.4376   25.0178 H   0  0  0  0  0  0  0  0  0  0  0  0
   19.8407   16.2994   23.9011 C   0  0  0  0  0  0  0  0  0  0  0  0
   20.3382   16.8990   24.6748 H   0  0  0  0  0  0  0  0  0  0  0  0
   18.7619   16.3468   24.1051 H   0  0  0  0  0  0  0  0  0  0  0  0
   20.1338   16.8852   22.4996 C   0  0  0  0  0  0  0  0  0  0  0  0
   21.2173   16.8862   22.3176 H   0  0  0  0  0  0  0  0  0  0  0  0
   19.6944   16.2257   21.7385 H   0  0  0  0  0  0  0  0  0  0  0  0
   19.5715   18.3134   22.2942 C   0  0  0  0  0  0  0  0  0  0  0  0
   18.4855   18.3083   22.4613 H   0  0  0  0  0  0  0  0  0  0  0  0
   19.7202   18.5971   21.2431 H   0  0  0  0  0  0  0  0  0  0  0  0
   20.2353   19.3767   23.2019 C   0  0  0  0  0  0  0  0  0  0  0  0
   20.0313   19.1505   24.2568 H   0  0  0  0  0  0  0  0  0  0  0  0
   21.3260   19.3415   23.0725 H   0  0  0  0  0  0  0  0  0  0  0  0
   19.7257   20.8000   22.8850 C   0  0  0  0  0  0  0  0  0  0  0  0
   18.6358   20.8396   23.0144 H   0  0  0  0  0  0  0  0  0  0  0  0
   19.9348   21.0430   21.8346 H   0  0  0  0  0  0  0  0  0  0  0  0
   20.3875   21.8505   23.7941 C   0  0  0  0  0  0  0  0  0  0  0  0
   20.1681   21.6224   24.8406 H   0  0  0  0  0  0  0  0  0  0  0  0
   21.4719   21.8258   23.6565 H   0  0  0  0  0  0  0  0  0  0  0  0
   19.9126   23.2616   23.5136 N   0  3  0  0  0  0  0  0  0  0  0  0
   18.9014   23.3593   23.6520 H   0  0  0  0  0  0  0  0  0  0  0  0
   20.1144   23.5485   22.5502 H   0  0  0  0  0  0  0  0  0  0  0  0
   20.3655   23.9455   24.1297 H   0  0  0  0  0  0  0  0  0  0  0  0
  1  2  1  0  0  0  0
  1  3  1  0  0  0  0
  1  4  1  0  0  0  0
  1  5  1  0  0  0  0
  5  6  1  0  0  0  0
  5  7  1  0  0  0  0
  5  8  1  0  0  0  0
  8  9  1  0  0  0  0
  8 10  1  0  0  0  0
  8 11  1  0  0  0  0
 11 12  1  0  0  0  0
 11 13  1  0  0  0  0
 11 14  1  0  0  0  0
 14 15  1  0  0  0  0
 14 16  1  0  0  0  0
 14 17  1  0  0  0  0
 17 18  1  0  0  0  0
 17 19  1  0  0  0  0
 17 20  1  0  0  0  0
 20 21  1  0  0  0  0
 20 22  1  0  0  0  0
 20 23  1  0  0  0  0
 23 24  1  0  0  0  0
 23 25  1  0  0  0  0
 23 26  1  0  0  0  0
M  END
> <VConfSearch Rank>
244

> <Conf_Id>
37

> <Delta U+W>
0.565

> <U+W>
-4.988

> <U>
48.035

> <W>
-53.022

> <W(PB)>
-55.379

> <W(SA)>
2.357

> <Valence>
2.701

> <Coulomb>
44.622

> <VdW>
0.712

> <VdW6>
-6.418

> <VdW12>
7.129

> <Bond>
0.168

> <Angle>
0.659

> <Pdih>
1.875

> <Idih>
0.000

> <Tether>
0.000

$$$$
VeraChem MOL file


 26 25  0  0  0  0  0  0  0  0999 V2000     
   18.9778   22.3135   21.3813 C   0  0  0  0  0  0  0  0  0  0  0  0
   18.1550   22.3043   22.1080 H   0  0  0  0  0  0  0  0  0  0  0  0
   19.8068   22.8912   21.8106 H   0  0  0  0  0  0  0  0  0  0  0  0
   18.6289   22.8408   20.4839 H   0  0  0  0  0  0  0  0  0  0  0  0
   19.4248   20.8784   21.0308 C   0  0  0  0  0  0  0  0  0  0  0  0
   20.2236   20.9197   20.2771 H   0  0  0  0  0  0  0  0  0  0  0  0
   18.5851   20.3363   20.5736 H   0  0  0  0  0  0  0  0  0  0  0  0
   19.9220   20.1133   22.2774 C   0  0  0  0  0  0  0  0  0  0  0  0
   20.7623   20.6579   22.7296 H   0  0  0  0  0  0  0  0  0  0  0  0
   19.1185   20.0876   23.0250 H   0  0  0  0  0  0  0  0  0  0  0  0
   20.3665   18.6727   21.9276 C   0  0  0  0  0  0  0  0  0  0  0  0
   21.1144   18.7149   21.1237 H   0  0  0  0  0  0  0  0  0  0  0  0
   19.5135   18.1088   21.5256 H   0  0  0  0  0  0  0  0  0  0  0  0
   20.9780   17.9048   23.1253 C   0  0  0  0  0  0  0  0  0  0  0  0
   21.3684   16.9445   22.7605 H   0  0  0  0  0  0  0  0  0  0  0  0
   21.8419   18.4600   23.5165 H   0  0  0  0  0  0  0  0  0  0  0  0
   19.9706   17.6353   24.2677 C   0  0  0  0  0  0  0  0  0  0  0  0
   19.0846   17.1253   23.8669 H   0  0  0  0  0  0  0  0  0  0  0  0
   19.6301   18.5830   24.7033 H   0  0  0  0  0  0  0  0  0  0  0  0
   20.5991   16.7723   25.3761 C   0  0  0  0  0  0  0  0  0  0  0  0
   20.9258   15.8165   24.9577 H   0  0  0  0  0  0  0  0  0  0  0  0
   21.4727   17.2835   25.7897 H   0  0  0  0  0  0  0  0  0  0  0  0
   19.6441   16.4817   26.5158 N   0  3  0  0  0  0  0  0  0  0  0  0
   18.8110   15.9763   26.1969 H   0  0  0  0  0  0  0  0  0  0  0  0
   19.3201   17.3409   26.9717 H   0  0  0  0  0  0  0  0  0  0  0  0
   20.0826   15.9054   27.2425 H   0  0  0  0  0  0  0  0  0  0  0  0
  1  2  1  0  0  0  0
  1  3  1  0  0  0  0
  1  4  1  0  0  0  0
  1  5  1  0  0  0  0
  5  6  1  0  0  0  0
  5  7  1  0  0  0  0
  5  8  1  0  0  0  0
  8  9  1  0  0  0  0
  8 10  1  0  0  0  0
  8 11  1  0  0  0  0
 11 12  1  0  0  0  0
 11 13  1  0  0  0  0
 11 14  1  0  0  0  0
 14 15  1  0  0  0  0
 14 16  1  0  0  0  0
 14 17  1  0  0  0  0
 17 18  1  0  0  0  0
 17 19  1  0  0  0  0
 17 20  1  0  0  0  0
 20 21  1  0  0  0  0
 20 22  1  0  0  0  0
 20 23  1  0  0  0  0
 23 24  1  0  0  0  0
 23 25  1  0  0  0  0
 23 26  1  0  0  0  0
M  END
> <VConfSearch Rank>
245

> <Conf_Id>
35

> <Delta U+W>
0.587

> <U+W>
-4.965

> <U>
48.214

> <W>
-53.179

> <W(PB)>
-55.527

> <W(SA)>
2.348

> <Valence>
2.697

> <Coulomb>
44.819

> <VdW>
0.699

> <VdW6>
-6.437

> <VdW12>
7.136

> <Bond>
0.168

> <Angle>
0.657

> <Pdih>
1.872

> <Idih>
0.000

> <Tether>
0.000

$$$$
VeraChem MOL file


 26 25  0  0  0  0  0  0  0  0999 V2000     
   17.7022   16.2992   25.1663 C   0  0  0  0  0  0  0  0  0  0  0  0
   18.2149   15.4206   24.7535 H   0  0  0  0  0  0  0  0  0  0  0  0
   18.2676   16.6453   26.0414 H   0  0  0  0  0  0  0  0  0  0  0  0
   16.7103   15.9793   25.5110 H   0  0  0  0  0  0  0  0  0  0  0  0
   17.5775   17.4164   24.1088 C   0  0  0  0  0  0  0  0  0  0  0  0
   17.0321   18.2676   24.5400 H   0  0  0  0  0  0  0  0  0  0  0  0
   16.9782   17.0517   23.2627 H   0  0  0  0  0  0  0  0  0  0  0  0
   18.9608   17.8850   23.6054 C   0  0  0  0  0  0  0  0  0  0  0  0
   19.5518   18.2377   24.4607 H   0  0  0  0  0  0  0  0  0  0  0  0
   19.5012   17.0313   23.1735 H   0  0  0  0  0  0  0  0  0  0  0  0
   18.8369   19.0082   22.5479 C   0  0  0  0  0  0  0  0  0  0  0  0
   18.3451   19.8841   22.9932 H   0  0  0  0  0  0  0  0  0  0  0  0
   18.1794   18.6647   21.7372 H   0  0  0  0  0  0  0  0  0  0  0  0
   20.1930   19.4319   21.9321 C   0  0  0  0  0  0  0  0  0  0  0  0
   20.6770   18.5596   21.4713 H   0  0  0  0  0  0  0  0  0  0  0  0
   19.9984   20.1426   21.1167 H   0  0  0  0  0  0  0  0  0  0  0  0
   21.1574   20.0869   22.9487 C   0  0  0  0  0  0  0  0  0  0  0  0
   21.4315   19.3658   23.7289 H   0  0  0  0  0  0  0  0  0  0  0  0
   20.6556   20.9279   23.4456 H   0  0  0  0  0  0  0  0  0  0  0  0
   22.4384   20.5907   22.2606 C   0  0  0  0  0  0  0  0  0  0  0  0
   22.9503   19.7538   21.7778 H   0  0  0  0  0  0  0  0  0  0  0  0
   22.1795   21.3248   21.4928 H   0  0  0  0  0  0  0  0  0  0  0  0
   23.4115   21.2428   23.2215 N   0  3  0  0  0  0  0  0  0  0  0  0
   23.7169   20.5947   23.9549 H   0  0  0  0  0  0  0  0  0  0  0  0
   22.9990   22.0562   23.6899 H   0  0  0  0  0  0  0  0  0  0  0  0
   24.2571   21.5714   22.7425 H   0  0  0  0  0  0  0  0  0  0  0  0
  1  2  1  0  0  0  0
  1  3  1  0  0  0  0
  1  4  1  0  0  0  0
  1  5  1  0  0  0  0
  5  6  1  0  0  0  0
  5  7  1  0  0  0  0
  5  8  1  0  0  0  0
  8  9  1  0  0  0  0
  8 10  1  0  0  0  0
  8 11  1  0  0  0  0
 11 12  1  0  0  0  0
 11 13  1  0  0  0  0
 11 14  1  0  0  0  0
 14 15  1  0  0  0  0
 14 16  1  0  0  0  0
 14 17  1  0  0  0  0
 17 18  1  0  0  0  0
 17 19  1  0  0  0  0
 17 20  1  0  0  0  0
 20 21  1  0  0  0  0
 20 22  1  0  0  0  0
 20 23  1  0  0  0  0
 23 24  1  0  0  0  0
 23 25  1  0  0  0  0
 23 26  1  0  0  0  0
M  END
> <VConfSearch Rank>
246

> <Conf_Id>
36

> <Delta U+W>
0.565

> <U+W>
-4.987

> <U>
48.214

> <W>
-53.201

> <W(PB)>
-55.543

> <W(SA)>
2.342

> <Valence>
2.697

> <Coulomb>
44.819

> <VdW>
0.698

> <VdW6>
-6.437

> <VdW12>
7.136

> <Bond>
0.168

> <Angle>
0.657

> <Pdih>
1.872

> <Idih>
0.000

> <Tether>
0.000

$$$$
VeraChem MOL file


 26 25  0  0  0  0  0  0  0  0999 V2000     
   21.3063   22.9807   23.2482 C   0  0  0  0  0  0  0  0  0  0  0  0
   20.7596   23.4078   24.0991 H   0  0  0  0  0  0  0  0  0  0  0  0
   22.3004   23.4454   23.2190 H   0  0  0  0  0  0  0  0  0  0  0  0
   20.7771   23.2589   22.3274 H   0  0  0  0  0  0  0  0  0  0  0  0
   21.4250   21.4474   23.3783 C   0  0  0  0  0  0  0  0  0  0  0  0
   21.9876   21.2014   24.2898 H   0  0  0  0  0  0  0  0  0  0  0  0
   22.0050   21.0537   22.5318 H   0  0  0  0  0  0  0  0  0  0  0  0
   20.0384   20.7679   23.4217 C   0  0  0  0  0  0  0  0  0  0  0  0
   19.4617   21.1670   24.2677 H   0  0  0  0  0  0  0  0  0  0  0  0
   19.4791   21.0182   22.5096 H   0  0  0  0  0  0  0  0  0  0  0  0
   20.1530   19.2323   23.5523 C   0  0  0  0  0  0  0  0  0  0  0  0
   20.7102   18.9833   24.4661 H   0  0  0  0  0  0  0  0  0  0  0  0
   20.7356   18.8413   22.7074 H   0  0  0  0  0  0  0  0  0  0  0  0
   18.7624   18.5544   23.5942 C   0  0  0  0  0  0  0  0  0  0  0  0
   18.1731   18.9894   24.4132 H   0  0  0  0  0  0  0  0  0  0  0  0
   18.2148   18.7736   22.6670 H   0  0  0  0  0  0  0  0  0  0  0  0
   18.8393   17.0230   23.7978 C   0  0  0  0  0  0  0  0  0  0  0  0
   17.8209   16.6264   23.9056 H   0  0  0  0  0  0  0  0  0  0  0  0
   19.3640   16.8013   24.7367 H   0  0  0  0  0  0  0  0  0  0  0  0
   19.5391   16.3017   22.6306 C   0  0  0  0  0  0  0  0  0  0  0  0
   19.0161   16.5214   21.6959 H   0  0  0  0  0  0  0  0  0  0  0  0
   20.5692   16.6559   22.5406 H   0  0  0  0  0  0  0  0  0  0  0  0
   19.5786   14.7969   22.8020 N   0  3  0  0  0  0  0  0  0  0  0  0
   20.0482   14.3360   22.0149 H   0  0  0  0  0  0  0  0  0  0  0  0
   18.6377   14.3946   22.8649 H   0  0  0  0  0  0  0  0  0  0  0  0
   20.0817   14.5222   23.6520 H   0  0  0  0  0  0  0  0  0  0  0  0
  1  2  1  0  0  0  0
  1  3  1  0  0  0  0
  1  4  1  0  0  0  0
  1  5  1  0  0  0  0
  5  6  1  0  0  0  0
  5  7  1  0  0  0  0
  5  8  1  0  0  0  0
  8  9  1  0  0  0  0
  8 10  1  0  0  0  0
  8 11  1  0  0  0  0
 11 12  1  0  0  0  0
 11 13  1  0  0  0  0
 11 14  1  0  0  0  0
 14 15  1  0  0  0  0
 14 16  1  0  0  0  0
 14 17  1  0  0  0  0
 17 18  1  0  0  0  0
 17 19  1  0  0  0  0
 17 20  1  0  0  0  0
 20 21  1  0  0  0  0
 20 22  1  0  0  0  0
 20 23  1  0  0  0  0
 23 24  1  0  0  0  0
 23 25  1  0  0  0  0
 23 26  1  0  0  0  0
M  END
> <VConfSearch Rank>
247

> <Conf_Id>
44

> <Delta U+W>
0.371

> <U+W>
-5.181

> <U>
48.002

> <W>
-53.183

> <W(PB)>
-55.533

> <W(SA)>
2.350

> <Valence>
2.459

> <Coulomb>
44.901

> <VdW>
0.643

> <VdW6>
-6.362

> <VdW12>
7.005

> <Bond>
0.151

> <Angle>
0.519

> <Pdih>
1.789

> <Idih>
0.000

> <Tether>
0.000

$$$$
VeraChem MOL file


 26 25  0  0  0  0  0  0  0  0999 V2000     
   22.0380   18.7092   26.6025 C   0  0  0  0  0  0  0  0  0  0  0  0
   21.6689   19.6771   26.9659 H   0  0  0  0  0  0  0  0  0  0  0  0
   22.5402   18.2063   27.4391 H   0  0  0  0  0  0  0  0  0  0  0  0
   22.7940   18.8967   25.8302 H   0  0  0  0  0  0  0  0  0  0  0  0
   20.8792   17.8382   26.0659 C   0  0  0  0  0  0  0  0  0  0  0  0
   20.2209   17.5726   26.9049 H   0  0  0  0  0  0  0  0  0  0  0  0
   21.2776   16.8909   25.6765 H   0  0  0  0  0  0  0  0  0  0  0  0
   20.0327   18.5384   24.9752 C   0  0  0  0  0  0  0  0  0  0  0  0
   19.1642   17.9026   24.7619 H   0  0  0  0  0  0  0  0  0  0  0  0
   19.6359   19.4837   25.3701 H   0  0  0  0  0  0  0  0  0  0  0  0
   20.8155   18.8061   23.6643 C   0  0  0  0  0  0  0  0  0  0  0  0
   21.2091   17.8605   23.2669 H   0  0  0  0  0  0  0  0  0  0  0  0
   21.6875   19.4355   23.8836 H   0  0  0  0  0  0  0  0  0  0  0  0
   19.9765   19.5180   22.5742 C   0  0  0  0  0  0  0  0  0  0  0  0
   19.5711   20.4567   22.9765 H   0  0  0  0  0  0  0  0  0  0  0  0
   20.6517   19.7998   21.7555 H   0  0  0  0  0  0  0  0  0  0  0  0
   18.8235   18.6494   22.0107 C   0  0  0  0  0  0  0  0  0  0  0  0
   18.1170   18.4017   22.8122 H   0  0  0  0  0  0  0  0  0  0  0  0
   19.2188   17.6969   21.6337 H   0  0  0  0  0  0  0  0  0  0  0  0
   18.0383   19.3591   20.8905 C   0  0  0  0  0  0  0  0  0  0  0  0
   17.1822   18.7429   20.6024 H   0  0  0  0  0  0  0  0  0  0  0  0
   17.6604   20.3177   21.2561 H   0  0  0  0  0  0  0  0  0  0  0  0
   18.8558   19.6205   19.6405 N   0  3  0  0  0  0  0  0  0  0  0  0
   19.6589   20.2274   19.8315 H   0  0  0  0  0  0  0  0  0  0  0  0
   18.2995   20.0797   18.9111 H   0  0  0  0  0  0  0  0  0  0  0  0
   19.2212   18.7522   19.2361 H   0  0  0  0  0  0  0  0  0  0  0  0
  1  2  1  0  0  0  0
  1  3  1  0  0  0  0
  1  4  1  0  0  0  0
  1  5  1  0  0  0  0
  5  6  1  0  0  0  0
  5  7  1  0  0  0  0
  5  8  1  0  0  0  0
  8  9  1  0  0  0  0
  8 10  1  0  0  0  0
  8 11  1  0  0  0  0
 11 12  1  0  0  0  0
 11 13  1  0  0  0  0
 11 14  1  0  0  0  0
 14 15  1  0  0  0  0
 14 16  1  0  0  0  0
 14 17  1  0  0  0  0
 17 18  1  0  0  0  0
 17 19  1  0  0  0  0
 17 20  1  0  0  0  0
 20 21  1  0  0  0  0
 20 22  1  0  0  0  0
 20 23  1  0  0  0  0
 23 24  1  0  0  0  0
 23 25  1  0  0  0  0
 23 26  1  0  0  0  0
M  END
> <VConfSearch Rank>
248

> <Conf_Id>
112

> <Delta U+W>
1.422

> <U+W>
-4.130

> <U>
49.323

> <W>
-53.453

> <W(PB)>
-55.749

> <W(SA)>
2.296

> <Valence>
3.408

> <Coulomb>
44.893

> <VdW>
1.021

> <VdW6>
-7.481

> <VdW12>
8.503

> <Bond>
0.239

> <Angle>
1.013

> <Pdih>
2.156

> <Idih>
0.000

> <Tether>
0.000

$$$$
VeraChem MOL file


 26 25  0  0  0  0  0  0  0  0999 V2000     
   18.2285   16.5058   25.5316 C   0  0  0  0  0  0  0  0  0  0  0  0
   17.5269   15.9737   26.1869 H   0  0  0  0  0  0  0  0  0  0  0  0
   18.0755   16.1320   24.5116 H   0  0  0  0  0  0  0  0  0  0  0  0
   19.2469   16.2424   25.8456 H   0  0  0  0  0  0  0  0  0  0  0  0
   17.9977   18.0316   25.6171 C   0  0  0  0  0  0  0  0  0  0  0  0
   18.0467   18.3393   26.6710 H   0  0  0  0  0  0  0  0  0  0  0  0
   16.9816   18.2713   25.2739 H   0  0  0  0  0  0  0  0  0  0  0  0
   19.0309   18.8543   24.8103 C   0  0  0  0  0  0  0  0  0  0  0  0
   18.8569   19.9213   25.0057 H   0  0  0  0  0  0  0  0  0  0  0  0
   20.0382   18.6292   25.1845 H   0  0  0  0  0  0  0  0  0  0  0  0
   18.9594   18.6000   23.2832 C   0  0  0  0  0  0  0  0  0  0  0  0
   17.9169   18.7040   22.9524 H   0  0  0  0  0  0  0  0  0  0  0  0
   19.2538   17.5661   23.0592 H   0  0  0  0  0  0  0  0  0  0  0  0
   19.8362   19.5697   22.4532 C   0  0  0  0  0  0  0  0  0  0  0  0
   19.6276   19.3937   21.3897 H   0  0  0  0  0  0  0  0  0  0  0  0
   19.5350   20.6062   22.6594 H   0  0  0  0  0  0  0  0  0  0  0  0
   21.3546   19.4059   22.7142 C   0  0  0  0  0  0  0  0  0  0  0  0
   21.6579   18.3661   22.5336 H   0  0  0  0  0  0  0  0  0  0  0  0
   21.5758   19.6196   23.7673 H   0  0  0  0  0  0  0  0  0  0  0  0
   22.2115   20.3493   21.8480 C   0  0  0  0  0  0  0  0  0  0  0  0
   21.8995   21.3843   22.0116 H   0  0  0  0  0  0  0  0  0  0  0  0
   23.2604   20.2589   22.1433 H   0  0  0  0  0  0  0  0  0  0  0  0
   22.1275   20.0610   20.3618 N   0  3  0  0  0  0  0  0  0  0  0  0
   21.1716   20.1653   20.0079 H   0  0  0  0  0  0  0  0  0  0  0  0
   22.4302   19.1067   20.1413 H   0  0  0  0  0  0  0  0  0  0  0  0
   22.7202   20.6966   19.8167 H   0  0  0  0  0  0  0  0  0  0  0  0
  1  2  1  0  0  0  0
  1  3  1  0  0  0  0
  1  4  1  0  0  0  0
  1  5  1  0  0  0  0
  5  6  1  0  0  0  0
  5  7  1  0  0  0  0
  5  8  1  0  0  0  0
  8  9  1  0  0  0  0
  8 10  1  0  0  0  0
  8 11  1  0  0  0  0
 11 12  1  0  0  0  0
 11 13  1  0  0  0  0
 11 14  1  0  0  0  0
 14 15  1  0  0  0  0
 14 16  1  0  0  0  0
 14 17  1  0  0  0  0
 17 18  1  0  0  0  0
 17 19  1  0  0  0  0
 17 20  1  0  0  0  0
 20 21  1  0  0  0  0
 20 22  1  0  0  0  0
 20 23  1  0  0  0  0
 23 24  1  0  0  0  0
 23 25  1  0  0  0  0
 23 26  1  0  0  0  0
M  END
> <VConfSearch Rank>
249

> <Conf_Id>
130

> <Delta U+W>
1.282

> <U+W>
-4.270

> <U>
49.153

> <W>
-53.422

> <W(PB)>
-55.725

> <W(SA)>
2.303

> <Valence>
3.298

> <Coulomb>
44.907

> <VdW>
0.948

> <VdW6>
-7.574

> <VdW12>
8.522

> <Bond>
0.229

> <Angle>
0.912

> <Pdih>
2.157

> <Idih>
0.000

> <Tether>
0.000

$$$$
VeraChem MOL file


 26 25  0  0  0  0  0  0  0  0999 V2000     
   17.5983   20.9359   21.9926 C   0  0  0  0  0  0  0  0  0  0  0  0
   17.6342   20.8279   20.9008 H   0  0  0  0  0  0  0  0  0  0  0  0
   16.8705   21.7228   22.2289 H   0  0  0  0  0  0  0  0  0  0  0  0
   18.5812   21.2809   22.3371 H   0  0  0  0  0  0  0  0  0  0  0  0
   17.1964   19.6059   22.6692 C   0  0  0  0  0  0  0  0  0  0  0  0
   16.1620   19.3645   22.3874 H   0  0  0  0  0  0  0  0  0  0  0  0
   17.1873   19.7326   23.7600 H   0  0  0  0  0  0  0  0  0  0  0  0
   18.1051   18.4135   22.2747 C   0  0  0  0  0  0  0  0  0  0  0  0
   17.7376   17.5076   22.7759 H   0  0  0  0  0  0  0  0  0  0  0  0
   17.9945   18.2263   21.1977 H   0  0  0  0  0  0  0  0  0  0  0  0
   19.6123   18.5902   22.5946 C   0  0  0  0  0  0  0  0  0  0  0  0
   20.0208   19.4308   22.0183 H   0  0  0  0  0  0  0  0  0  0  0  0
   20.1395   17.6957   22.2381 H   0  0  0  0  0  0  0  0  0  0  0  0
   19.9051   18.7966   24.1024 C   0  0  0  0  0  0  0  0  0  0  0  0
   19.4027   19.7076   24.4530 H   0  0  0  0  0  0  0  0  0  0  0  0
   19.4814   17.9638   24.6805 H   0  0  0  0  0  0  0  0  0  0  0  0
   21.4145   18.9271   24.4149 C   0  0  0  0  0  0  0  0  0  0  0  0
   21.5371   19.1761   25.4774 H   0  0  0  0  0  0  0  0  0  0  0  0
   21.8383   19.7646   23.8449 H   0  0  0  0  0  0  0  0  0  0  0  0
   22.2016   17.6393   24.1077 C   0  0  0  0  0  0  0  0  0  0  0  0
   21.7785   16.8056   24.6745 H   0  0  0  0  0  0  0  0  0  0  0  0
   22.1281   17.4046   23.0428 H   0  0  0  0  0  0  0  0  0  0  0  0
   23.6716   17.7453   24.4591 N   0  3  0  0  0  0  0  0  0  0  0  0
   24.1357   18.4965   23.9381 H   0  0  0  0  0  0  0  0  0  0  0  0
   24.1774   16.8783   24.2474 H   0  0  0  0  0  0  0  0  0  0  0  0
   23.8132   17.9374   25.4562 H   0  0  0  0  0  0  0  0  0  0  0  0
  1  2  1  0  0  0  0
  1  3  1  0  0  0  0
  1  4  1  0  0  0  0
  1  5  1  0  0  0  0
  5  6  1  0  0  0  0
  5  7  1  0  0  0  0
  5  8  1  0  0  0  0
  8  9  1  0  0  0  0
  8 10  1  0  0  0  0
  8 11  1  0  0  0  0
 11 12  1  0  0  0  0
 11 13  1  0  0  0  0
 11 14  1  0  0  0  0
 14 15  1  0  0  0  0
 14 16  1  0  0  0  0
 14 17  1  0  0  0  0
 17 18  1  0  0  0  0
 17 19  1  0  0  0  0
 17 20  1  0  0  0  0
 20 21  1  0  0  0  0
 20 22  1  0  0  0  0
 20 23  1  0  0  0  0
 23 24  1  0  0  0  0
 23 25  1  0  0  0  0
 23 26  1  0  0  0  0
M  END
> <VConfSearch Rank>
250

> <Conf_Id>
111

> <Delta U+W>
1.290

> <U+W>
-4.262

> <U>
49.209

> <W>
-53.471

> <W(PB)>
-55.745

> <W(SA)>
2.274

> <Valence>
3.465

> <Coulomb>
44.958

> <VdW>
0.786

> <VdW6>
-7.903

> <VdW12>
8.689

> <Bond>
0.237

> <Angle>
1.212

> <Pdih>
2.015

> <Idih>
0.000

> <Tether>
0.000

$$$$
VeraChem MOL file


 26 25  0  0  0  0  0  0  0  0999 V2000     
   19.5095   22.8285   24.3097 C   0  0  0  0  0  0  0  0  0  0  0  0
   20.2222   22.7435   25.1404 H   0  0  0  0  0  0  0  0  0  0  0  0
   19.8855   23.5890   23.6129 H   0  0  0  0  0  0  0  0  0  0  0  0
   18.5565   23.1884   24.7186 H   0  0  0  0  0  0  0  0  0  0  0  0
   19.3202   21.4706   23.6007 C   0  0  0  0  0  0  0  0  0  0  0  0
   18.5811   21.5805   22.7948 H   0  0  0  0  0  0  0  0  0  0  0  0
   18.9055   20.7497   24.3176 H   0  0  0  0  0  0  0  0  0  0  0  0
   20.6522   20.9406   23.0192 C   0  0  0  0  0  0  0  0  0  0  0  0
   21.0883   21.7105   22.3677 H   0  0  0  0  0  0  0  0  0  0  0  0
   21.3738   20.7808   23.8323 H   0  0  0  0  0  0  0  0  0  0  0  0
   20.4959   19.6361   22.1996 C   0  0  0  0  0  0  0  0  0  0  0  0
   21.4623   19.4019   21.7321 H   0  0  0  0  0  0  0  0  0  0  0  0
   19.7874   19.8023   21.3763 H   0  0  0  0  0  0  0  0  0  0  0  0
   20.0392   18.4238   23.0463 C   0  0  0  0  0  0  0  0  0  0  0  0
   20.7185   18.3028   23.9005 H   0  0  0  0  0  0  0  0  0  0  0  0
   19.0377   18.6089   23.4564 H   0  0  0  0  0  0  0  0  0  0  0  0
   20.0083   17.1222   22.2106 C   0  0  0  0  0  0  0  0  0  0  0  0
   21.0112   16.8995   21.8226 H   0  0  0  0  0  0  0  0  0  0  0  0
   19.3592   17.2668   21.3367 H   0  0  0  0  0  0  0  0  0  0  0  0
   19.4868   15.9131   23.0108 C   0  0  0  0  0  0  0  0  0  0  0  0
   18.4903   16.1334   23.4031 H   0  0  0  0  0  0  0  0  0  0  0  0
   19.4086   15.0465   22.3487 H   0  0  0  0  0  0  0  0  0  0  0  0
   20.3754   15.5229   24.1756 N   0  3  0  0  0  0  0  0  0  0  0  0
   20.0074   14.7083   24.6789 H   0  0  0  0  0  0  0  0  0  0  0  0
   20.4628   16.2826   24.8577 H   0  0  0  0  0  0  0  0  0  0  0  0
   21.3228   15.2814   23.8674 H   0  0  0  0  0  0  0  0  0  0  0  0
  1  2  1  0  0  0  0
  1  3  1  0  0  0  0
  1  4  1  0  0  0  0
  1  5  1  0  0  0  0
  5  6  1  0  0  0  0
  5  7  1  0  0  0  0
  5  8  1  0  0  0  0
  8  9  1  0  0  0  0
  8 10  1  0  0  0  0
  8 11  1  0  0  0  0
 11 12  1  0  0  0  0
 11 13  1  0  0  0  0
 11 14  1  0  0  0  0
 14 15  1  0  0  0  0
 14 16  1  0  0  0  0
 14 17  1  0  0  0  0
 17 18  1  0  0  0  0
 17 19  1  0  0  0  0
 17 20  1  0  0  0  0
 20 21  1  0  0  0  0
 20 22  1  0  0  0  0
 20 23  1  0  0  0  0
 23 24  1  0  0  0  0
 23 25  1  0  0  0  0
 23 26  1  0  0  0  0
M  END
> <VConfSearch Rank>
251

> <Conf_Id>
105

> <Delta U+W>
0.736

> <U+W>
-4.817

> <U>
48.735

> <W>
-53.552

> <W(PB)>
-55.889

> <W(SA)>
2.337

> <Valence>
2.803

> <Coulomb>
45.123

> <VdW>
0.809

> <VdW6>
-6.953

> <VdW12>
7.761

> <Bond>
0.188

> <Angle>
0.699

> <Pdih>
1.917

> <Idih>
0.000

> <Tether>
0.000

$$$$
VeraChem MOL file


 26 25  0  0  0  0  0  0  0  0999 V2000     
   22.3391   21.5995   22.0744 C   0  0  0  0  0  0  0  0  0  0  0  0
   22.6269   22.4456   22.7120 H   0  0  0  0  0  0  0  0  0  0  0  0
   23.1305   20.8410   22.1348 H   0  0  0  0  0  0  0  0  0  0  0  0
   22.2949   21.9587   21.0380 H   0  0  0  0  0  0  0  0  0  0  0  0
   20.9775   21.0158   22.5074 C   0  0  0  0  0  0  0  0  0  0  0  0
   20.7060   20.2005   21.8236 H   0  0  0  0  0  0  0  0  0  0  0  0
   20.2016   21.7876   22.4082 H   0  0  0  0  0  0  0  0  0  0  0  0
   21.0162   20.4986   23.9647 C   0  0  0  0  0  0  0  0  0  0  0  0
   21.7625   19.6985   24.0555 H   0  0  0  0  0  0  0  0  0  0  0  0
   21.3636   21.3084   24.6209 H   0  0  0  0  0  0  0  0  0  0  0  0
   19.6414   20.0058   24.4864 C   0  0  0  0  0  0  0  0  0  0  0  0
   18.9452   20.8555   24.5077 H   0  0  0  0  0  0  0  0  0  0  0  0
   19.7553   19.6859   25.5314 H   0  0  0  0  0  0  0  0  0  0  0  0
   18.9933   18.8531   23.6763 C   0  0  0  0  0  0  0  0  0  0  0  0
   18.0271   18.6153   24.1402 H   0  0  0  0  0  0  0  0  0  0  0  0
   18.7627   19.1931   22.6579 H   0  0  0  0  0  0  0  0  0  0  0  0
   19.8636   17.5728   23.6159 C   0  0  0  0  0  0  0  0  0  0  0  0
   20.1138   17.2391   24.6316 H   0  0  0  0  0  0  0  0  0  0  0  0
   20.8138   17.7940   23.1139 H   0  0  0  0  0  0  0  0  0  0  0  0
   19.1786   16.4241   22.8505 C   0  0  0  0  0  0  0  0  0  0  0  0
   18.9111   16.7597   21.8450 H   0  0  0  0  0  0  0  0  0  0  0  0
   19.8749   15.5863   22.7562 H   0  0  0  0  0  0  0  0  0  0  0  0
   17.9236   15.9033   23.5231 N   0  3  0  0  0  0  0  0  0  0  0  0
   17.2088   16.6322   23.6104 H   0  0  0  0  0  0  0  0  0  0  0  0
   18.1153   15.5520   24.4669 H   0  0  0  0  0  0  0  0  0  0  0  0
   17.5017   15.1309   22.9960 H   0  0  0  0  0  0  0  0  0  0  0  0
  1  2  1  0  0  0  0
  1  3  1  0  0  0  0
  1  4  1  0  0  0  0
  1  5  1  0  0  0  0
  5  6  1  0  0  0  0
  5  7  1  0  0  0  0
  5  8  1  0  0  0  0
  8  9  1  0  0  0  0
  8 10  1  0  0  0  0
  8 11  1  0  0  0  0
 11 12  1  0  0  0  0
 11 13  1  0  0  0  0
 11 14  1  0  0  0  0
 14 15  1  0  0  0  0
 14 16  1  0  0  0  0
 14 17  1  0  0  0  0
 17 18  1  0  0  0  0
 17 19  1  0  0  0  0
 17 20  1  0  0  0  0
 20 21  1  0  0  0  0
 20 22  1  0  0  0  0
 20 23  1  0  0  0  0
 23 24  1  0  0  0  0
 23 25  1  0  0  0  0
 23 26  1  0  0  0  0
M  END
> <VConfSearch Rank>
252

> <Conf_Id>
144

> <Delta U+W>
1.073

> <U+W>
-4.479

> <U>
49.231

> <W>
-53.710

> <W(PB)>
-55.983

> <W(SA)>
2.273

> <Valence>
3.276

> <Coulomb>
45.175

> <VdW>
0.779

> <VdW6>
-7.944

> <VdW12>
8.723

> <Bond>
0.239

> <Angle>
1.155

> <Pdih>
1.883

> <Idih>
0.000

> <Tether>
0.000

$$$$
VeraChem MOL file


 26 25  0  0  0  0  0  0  0  0999 V2000     
   17.0063   20.5750   24.6560 C   0  0  0  0  0  0  0  0  0  0  0  0
   16.8256   21.0022   23.6622 H   0  0  0  0  0  0  0  0  0  0  0  0
   16.0424   20.5436   25.1802 H   0  0  0  0  0  0  0  0  0  0  0  0
   17.6663   21.2560   25.2088 H   0  0  0  0  0  0  0  0  0  0  0  0
   17.6185   19.1584   24.5663 C   0  0  0  0  0  0  0  0  0  0  0  0
   16.9575   18.5046   23.9803 H   0  0  0  0  0  0  0  0  0  0  0  0
   17.6575   18.7287   25.5771 H   0  0  0  0  0  0  0  0  0  0  0  0
   19.0450   19.1373   23.9653 C   0  0  0  0  0  0  0  0  0  0  0  0
   19.6965   19.8082   24.5418 H   0  0  0  0  0  0  0  0  0  0  0  0
   19.4436   18.1227   24.0898 H   0  0  0  0  0  0  0  0  0  0  0  0
   19.0888   19.5185   22.4646 C   0  0  0  0  0  0  0  0  0  0  0  0
   18.5983   20.4890   22.3183 H   0  0  0  0  0  0  0  0  0  0  0  0
   18.5026   18.7902   21.8874 H   0  0  0  0  0  0  0  0  0  0  0  0
   20.5168   19.6194   21.8678 C   0  0  0  0  0  0  0  0  0  0  0  0
   20.4155   19.9320   20.8193 H   0  0  0  0  0  0  0  0  0  0  0  0
   21.0770   20.4239   22.3644 H   0  0  0  0  0  0  0  0  0  0  0  0
   21.3352   18.3040   21.9012 C   0  0  0  0  0  0  0  0  0  0  0  0
   22.0420   18.3105   21.0608 H   0  0  0  0  0  0  0  0  0  0  0  0
   20.6729   17.4425   21.7425 H   0  0  0  0  0  0  0  0  0  0  0  0
   22.1424   18.1288   23.2025 C   0  0  0  0  0  0  0  0  0  0  0  0
   22.8348   18.9670   23.3187 H   0  0  0  0  0  0  0  0  0  0  0  0
   21.4739   18.1181   24.0653 H   0  0  0  0  0  0  0  0  0  0  0  0
   22.9524   16.8488   23.2282 N   0  3  0  0  0  0  0  0  0  0  0  0
   23.6286   16.8094   22.4585 H   0  0  0  0  0  0  0  0  0  0  0  0
   22.3570   16.0180   23.1494 H   0  0  0  0  0  0  0  0  0  0  0  0
   23.4860   16.7528   24.0991 H   0  0  0  0  0  0  0  0  0  0  0  0
  1  2  1  0  0  0  0
  1  3  1  0  0  0  0
  1  4  1  0  0  0  0
  1  5  1  0  0  0  0
  5  6  1  0  0  0  0
  5  7  1  0  0  0  0
  5  8  1  0  0  0  0
  8  9  1  0  0  0  0
  8 10  1  0  0  0  0
  8 11  1  0  0  0  0
 11 12  1  0  0  0  0
 11 13  1  0  0  0  0
 11 14  1  0  0  0  0
 14 15  1  0  0  0  0
 14 16  1  0  0  0  0
 14 17  1  0  0  0  0
 17 18  1  0  0  0  0
 17 19  1  0  0  0  0
 17 20  1  0  0  0  0
 20 21  1  0  0  0  0
 20 22  1  0  0  0  0
 20 23  1  0  0  0  0
 23 24  1  0  0  0  0
 23 25  1  0  0  0  0
 23 26  1  0  0  0  0
M  END
> <VConfSearch Rank>
253

> <Conf_Id>
93

> <Delta U+W>
3.253

> <U+W>
-2.300

> <U>
51.609

> <W>
-53.909

> <W(PB)>
-56.178

> <W(SA)>
2.270

> <Valence>
5.204

> <Coulomb>
45.645

> <VdW>
0.760

> <VdW6>
-7.997

> <VdW12>
8.758

> <Bond>
0.240

> <Angle>
1.456

> <Pdih>
3.507

> <Idih>
0.000

> <Tether>
0.000

$$$$
VeraChem MOL file


 26 25  0  0  0  0  0  0  0  0999 V2000     
   19.0430   20.1431   26.6062 C   0  0  0  0  0  0  0  0  0  0  0  0
   18.4581   19.2227   26.7235 H   0  0  0  0  0  0  0  0  0  0  0  0
   20.0614   19.9526   26.9692 H   0  0  0  0  0  0  0  0  0  0  0  0
   18.5924   20.9038   27.2567 H   0  0  0  0  0  0  0  0  0  0  0  0
   19.0575   20.6278   25.1385 C   0  0  0  0  0  0  0  0  0  0  0  0
   19.5424   21.6133   25.0995 H   0  0  0  0  0  0  0  0  0  0  0  0
   18.0272   20.7787   24.7870 H   0  0  0  0  0  0  0  0  0  0  0  0
   19.8051   19.6713   24.1779 C   0  0  0  0  0  0  0  0  0  0  0  0
   19.8929   20.1757   23.2075 H   0  0  0  0  0  0  0  0  0  0  0  0
   20.8275   19.5071   24.5450 H   0  0  0  0  0  0  0  0  0  0  0  0
   19.0899   18.3117   23.9796 C   0  0  0  0  0  0  0  0  0  0  0  0
   18.1011   18.4830   23.5324 H   0  0  0  0  0  0  0  0  0  0  0  0
   18.9063   17.8480   24.9570 H   0  0  0  0  0  0  0  0  0  0  0  0
   19.8761   17.2911   23.1160 C   0  0  0  0  0  0  0  0  0  0  0  0
   20.8207   17.0264   23.6115 H   0  0  0  0  0  0  0  0  0  0  0  0
   19.2882   16.3633   23.0836 H   0  0  0  0  0  0  0  0  0  0  0  0
   20.1491   17.7394   21.6581 C   0  0  0  0  0  0  0  0  0  0  0  0
   19.3028   18.3274   21.2786 H   0  0  0  0  0  0  0  0  0  0  0  0
   20.2144   16.8453   21.0237 H   0  0  0  0  0  0  0  0  0  0  0  0
   21.4637   18.5295   21.5062 C   0  0  0  0  0  0  0  0  0  0  0  0
   21.4394   19.4291   22.1240 H   0  0  0  0  0  0  0  0  0  0  0  0
   22.3022   17.9112   21.8379 H   0  0  0  0  0  0  0  0  0  0  0  0
   21.7359   18.9557   20.0781 N   0  3  0  0  0  0  0  0  0  0  0  0
   21.8049   18.1513   19.4462 H   0  0  0  0  0  0  0  0  0  0  0  0
   22.6167   19.4753   19.9967 H   0  0  0  0  0  0  0  0  0  0  0  0
   20.9956   19.5636   19.7128 H   0  0  0  0  0  0  0  0  0  0  0  0
  1  2  1  0  0  0  0
  1  3  1  0  0  0  0
  1  4  1  0  0  0  0
  1  5  1  0  0  0  0
  5  6  1  0  0  0  0
  5  7  1  0  0  0  0
  5  8  1  0  0  0  0
  8  9  1  0  0  0  0
  8 10  1  0  0  0  0
  8 11  1  0  0  0  0
 11 12  1  0  0  0  0
 11 13  1  0  0  0  0
 11 14  1  0  0  0  0
 14 15  1  0  0  0  0
 14 16  1  0  0  0  0
 14 17  1  0  0  0  0
 17 18  1  0  0  0  0
 17 19  1  0  0  0  0
 17 20  1  0  0  0  0
 20 21  1  0  0  0  0
 20 22  1  0  0  0  0
 20 23  1  0  0  0  0
 23 24  1  0  0  0  0
 23 25  1  0  0  0  0
 23 26  1  0  0  0  0
M  END
> <VConfSearch Rank>
254

> <Conf_Id>
94

> <Delta U+W>
3.247

> <U+W>
-2.305

> <U>
51.609

> <W>
-53.914

> <W(PB)>
-56.221

> <W(SA)>
2.307

> <Valence>
5.204

> <Coulomb>
45.645

> <VdW>
0.760

> <VdW6>
-7.997

> <VdW12>
8.757

> <Bond>
0.240

> <Angle>
1.456

> <Pdih>
3.508

> <Idih>
0.000

> <Tether>
0.000

$$$$
VeraChem MOL file


 26 25  0  0  0  0  0  0  0  0999 V2000     
   17.0154   20.1235   20.7873 C   0  0  0  0  0  0  0  0  0  0  0  0
   16.8447   19.2374   20.1620 H   0  0  0  0  0  0  0  0  0  0  0  0
   16.2900   20.1055   21.6111 H   0  0  0  0  0  0  0  0  0  0  0  0
   16.8094   21.0118   20.1762 H   0  0  0  0  0  0  0  0  0  0  0  0
   18.4626   20.1541   21.3229 C   0  0  0  0  0  0  0  0  0  0  0  0
   18.6126   21.0675   21.9155 H   0  0  0  0  0  0  0  0  0  0  0  0
   19.1631   20.2059   20.4776 H   0  0  0  0  0  0  0  0  0  0  0  0
   18.7791   18.9135   22.1872 C   0  0  0  0  0  0  0  0  0  0  0  0
   18.0751   18.8648   23.0295 H   0  0  0  0  0  0  0  0  0  0  0  0
   18.6248   18.0033   21.5912 H   0  0  0  0  0  0  0  0  0  0  0  0
   20.2276   18.9404   22.7250 C   0  0  0  0  0  0  0  0  0  0  0  0
   20.3765   19.8559   23.3129 H   0  0  0  0  0  0  0  0  0  0  0  0
   20.9305   18.9855   21.8816 H   0  0  0  0  0  0  0  0  0  0  0  0
   20.5412   17.6975   23.5921 C   0  0  0  0  0  0  0  0  0  0  0  0
   19.8571   17.6611   24.4505 H   0  0  0  0  0  0  0  0  0  0  0  0
   20.3425   16.7900   23.0054 H   0  0  0  0  0  0  0  0  0  0  0  0
   22.0092   17.6530   24.0855 C   0  0  0  0  0  0  0  0  0  0  0  0
   22.6809   17.6012   23.2183 H   0  0  0  0  0  0  0  0  0  0  0  0
   22.1728   16.7283   24.6548 H   0  0  0  0  0  0  0  0  0  0  0  0
   22.4168   18.8596   24.9553 C   0  0  0  0  0  0  0  0  0  0  0  0
   23.4687   18.7642   25.2379 H   0  0  0  0  0  0  0  0  0  0  0  0
   22.3021   19.7838   24.3832 H   0  0  0  0  0  0  0  0  0  0  0  0
   21.6068   18.9919   26.2297 N   0  3  0  0  0  0  0  0  0  0  0  0
   21.6972   18.1626   26.8256 H   0  0  0  0  0  0  0  0  0  0  0  0
   20.6091   19.1159   26.0315 H   0  0  0  0  0  0  0  0  0  0  0  0
   21.9058   19.7976   26.7896 H   0  0  0  0  0  0  0  0  0  0  0  0
  1  2  1  0  0  0  0
  1  3  1  0  0  0  0
  1  4  1  0  0  0  0
  1  5  1  0  0  0  0
  5  6  1  0  0  0  0
  5  7  1  0  0  0  0
  5  8  1  0  0  0  0
  8  9  1  0  0  0  0
  8 10  1  0  0  0  0
  8 11  1  0  0  0  0
 11 12  1  0  0  0  0
 11 13  1  0  0  0  0
 11 14  1  0  0  0  0
 14 15  1  0  0  0  0
 14 16  1  0  0  0  0
 14 17  1  0  0  0  0
 17 18  1  0  0  0  0
 17 19  1  0  0  0  0
 17 20  1  0  0  0  0
 20 21  1  0  0  0  0
 20 22  1  0  0  0  0
 20 23  1  0  0  0  0
 23 24  1  0  0  0  0
 23 25  1  0  0  0  0
 23 26  1  0  0  0  0
M  END
> <VConfSearch Rank>
255

> <Conf_Id>
83

> <Delta U+W>
0.559

> <U+W>
-4.994

> <U>
48.668

> <W>
-53.661

> <W(PB)>
-55.972

> <W(SA)>
2.311

> <Valence>
2.543

> <Coulomb>
45.478

> <VdW>
0.646

> <VdW6>
-7.096

> <VdW12>
7.742

> <Bond>
0.176

> <Angle>
0.630

> <Pdih>
1.738

> <Idih>
0.000

> <Tether>
0.000

$$$$
VeraChem MOL file


 26 25  0  0  0  0  0  0  0  0999 V2000     
   23.5515   17.1225   23.4135 C   0  0  0  0  0  0  0  0  0  0  0  0
   24.2057   17.1860   22.5342 H   0  0  0  0  0  0  0  0  0  0  0  0
   23.9901   17.7362   24.2112 H   0  0  0  0  0  0  0  0  0  0  0  0
   23.5467   16.0792   23.7549 H   0  0  0  0  0  0  0  0  0  0  0  0
   22.1204   17.5922   23.0762 C   0  0  0  0  0  0  0  0  0  0  0  0
   21.4886   17.4751   23.9665 H   0  0  0  0  0  0  0  0  0  0  0  0
   21.6980   16.9421   22.2972 H   0  0  0  0  0  0  0  0  0  0  0  0
   22.1015   19.0628   22.5964 C   0  0  0  0  0  0  0  0  0  0  0  0
   22.4733   19.7183   23.3960 H   0  0  0  0  0  0  0  0  0  0  0  0
   22.8023   19.1730   21.7573 H   0  0  0  0  0  0  0  0  0  0  0  0
   20.7050   19.5475   22.1350 C   0  0  0  0  0  0  0  0  0  0  0  0
   20.3402   18.9003   21.3254 H   0  0  0  0  0  0  0  0  0  0  0  0
   20.8122   20.5517   21.7021 H   0  0  0  0  0  0  0  0  0  0  0  0
   19.6592   19.5987   23.2748 C   0  0  0  0  0  0  0  0  0  0  0  0
   19.4906   18.5882   23.6672 H   0  0  0  0  0  0  0  0  0  0  0  0
   20.0499   20.2043   24.1043 H   0  0  0  0  0  0  0  0  0  0  0  0
   18.3155   20.1942   22.7915 C   0  0  0  0  0  0  0  0  0  0  0  0
   17.9021   19.5805   21.9800 H   0  0  0  0  0  0  0  0  0  0  0  0
   18.4904   21.1933   22.3707 H   0  0  0  0  0  0  0  0  0  0  0  0
   17.2772   20.3180   23.9233 C   0  0  0  0  0  0  0  0  0  0  0  0
   17.6891   20.9219   24.7363 H   0  0  0  0  0  0  0  0  0  0  0  0
   16.3847   20.8222   23.5427 H   0  0  0  0  0  0  0  0  0  0  0  0
   16.8409   18.9858   24.5008 N   0  3  0  0  0  0  0  0  0  0  0  0
   17.6277   18.4739   24.9115 H   0  0  0  0  0  0  0  0  0  0  0  0
   16.4237   18.3797   23.7870 H   0  0  0  0  0  0  0  0  0  0  0  0
   16.1401   19.1031   25.2408 H   0  0  0  0  0  0  0  0  0  0  0  0
  1  2  1  0  0  0  0
  1  3  1  0  0  0  0
  1  4  1  0  0  0  0
  1  5  1  0  0  0  0
  5  6  1  0  0  0  0
  5  7  1  0  0  0  0
  5  8  1  0  0  0  0
  8  9  1  0  0  0  0
  8 10  1  0  0  0  0
  8 11  1  0  0  0  0
 11 12  1  0  0  0  0
 11 13  1  0  0  0  0
 11 14  1  0  0  0  0
 14 15  1  0  0  0  0
 14 16  1  0  0  0  0
 14 17  1  0  0  0  0
 17 18  1  0  0  0  0
 17 19  1  0  0  0  0
 17 20  1  0  0  0  0
 20 21  1  0  0  0  0
 20 22  1  0  0  0  0
 20 23  1  0  0  0  0
 23 24  1  0  0  0  0
 23 25  1  0  0  0  0
 23 26  1  0  0  0  0
M  END
> <VConfSearch Rank>
256

> <Conf_Id>
18

> <Delta U+W>
0.759

> <U+W>
-4.793

> <U>
48.945

> <W>
-53.738

> <W(PB)>
-56.051

> <W(SA)>
2.313

> <Valence>
2.802

> <Coulomb>
45.335

> <VdW>
0.807

> <VdW6>
-6.962

> <VdW12>
7.769

> <Bond>
0.189

> <Angle>
0.696

> <Pdih>
1.917

> <Idih>
0.000

> <Tether>
0.000

$$$$
VeraChem MOL file


 26 25  0  0  0  0  0  0  0  0999 V2000     
   19.4285   15.2704   24.7520 C   0  0  0  0  0  0  0  0  0  0  0  0
   20.3568   15.2439   25.3374 H   0  0  0  0  0  0  0  0  0  0  0  0
   18.5867   15.1100   25.4382 H   0  0  0  0  0  0  0  0  0  0  0  0
   19.4515   14.4306   24.0454 H   0  0  0  0  0  0  0  0  0  0  0  0
   19.2850   16.6110   24.0007 C   0  0  0  0  0  0  0  0  0  0  0  0
   18.3635   16.5961   23.4021 H   0  0  0  0  0  0  0  0  0  0  0  0
   20.1210   16.7153   23.2966 H   0  0  0  0  0  0  0  0  0  0  0  0
   19.2547   17.8109   24.9767 C   0  0  0  0  0  0  0  0  0  0  0  0
   18.4636   17.6450   25.7210 H   0  0  0  0  0  0  0  0  0  0  0  0
   20.1991   17.8571   25.5365 H   0  0  0  0  0  0  0  0  0  0  0  0
   18.9960   19.1703   24.2817 C   0  0  0  0  0  0  0  0  0  0  0  0
   18.8712   19.9382   25.0577 H   0  0  0  0  0  0  0  0  0  0  0  0
   18.0443   19.1280   23.7342 H   0  0  0  0  0  0  0  0  0  0  0  0
   20.1318   19.6021   23.3231 C   0  0  0  0  0  0  0  0  0  0  0  0
   21.0897   19.5927   23.8614 H   0  0  0  0  0  0  0  0  0  0  0  0
   20.2178   18.8789   22.5027 H   0  0  0  0  0  0  0  0  0  0  0  0
   19.8828   21.0138   22.7409 C   0  0  0  0  0  0  0  0  0  0  0  0
   19.7661   21.7316   23.5637 H   0  0  0  0  0  0  0  0  0  0  0  0
   18.9405   21.0275   22.1772 H   0  0  0  0  0  0  0  0  0  0  0  0
   21.0320   21.4957   21.8344 C   0  0  0  0  0  0  0  0  0  0  0  0
   20.8412   22.5269   21.5248 H   0  0  0  0  0  0  0  0  0  0  0  0
   21.9730   21.4754   22.3907 H   0  0  0  0  0  0  0  0  0  0  0  0
   21.2093   20.6647   20.5787 N   0  3  0  0  0  0  0  0  0  0  0  0
   20.3626   20.6628   20.0007 H   0  0  0  0  0  0  0  0  0  0  0  0
   21.4297   19.6882   20.7974 H   0  0  0  0  0  0  0  0  0  0  0  0
   21.9718   21.0203   19.9917 H   0  0  0  0  0  0  0  0  0  0  0  0
  1  2  1  0  0  0  0
  1  3  1  0  0  0  0
  1  4  1  0  0  0  0
  1  5  1  0  0  0  0
  5  6  1  0  0  0  0
  5  7  1  0  0  0  0
  5  8  1  0  0  0  0
  8  9  1  0  0  0  0
  8 10  1  0  0  0  0
  8 11  1  0  0  0  0
 11 12  1  0  0  0  0
 11 13  1  0  0  0  0
 11 14  1  0  0  0  0
 14 15  1  0  0  0  0
 14 16  1  0  0  0  0
 14 17  1  0  0  0  0
 17 18  1  0  0  0  0
 17 19  1  0  0  0  0
 17 20  1  0  0  0  0
 20 21  1  0  0  0  0
 20 22  1  0  0  0  0
 20 23  1  0  0  0  0
 23 24  1  0  0  0  0
 23 25  1  0  0  0  0
 23 26  1  0  0  0  0
M  END
> <VConfSearch Rank>
257

> <Conf_Id>
17

> <Delta U+W>
0.843

> <U+W>
-4.709

> <U>
48.945

> <W>
-53.653

> <W(PB)>
-55.991

> <W(SA)>
2.338

> <Valence>
2.802

> <Coulomb>
45.335

> <VdW>
0.807

> <VdW6>
-6.962

> <VdW12>
7.769

> <Bond>
0.189

> <Angle>
0.696

> <Pdih>
1.917

> <Idih>
0.000

> <Tether>
0.000

$$$$
VeraChem MOL file


 26 25  0  0  0  0  0  0  0  0999 V2000     
   18.0192   16.0896   22.5828 C   0  0  0  0  0  0  0  0  0  0  0  0
   18.6159   16.6030   21.8188 H   0  0  0  0  0  0  0  0  0  0  0  0
   18.6799   15.4105   23.1372 H   0  0  0  0  0  0  0  0  0  0  0  0
   17.2713   15.4785   22.0612 H   0  0  0  0  0  0  0  0  0  0  0  0
   17.3290   17.0933   23.5342 C   0  0  0  0  0  0  0  0  0  0  0  0
   16.6494   16.5412   24.1983 H   0  0  0  0  0  0  0  0  0  0  0  0
   16.6990   17.7806   22.9525 H   0  0  0  0  0  0  0  0  0  0  0  0
   18.3228   17.9020   24.4026 C   0  0  0  0  0  0  0  0  0  0  0  0
   17.7482   18.5023   25.1215 H   0  0  0  0  0  0  0  0  0  0  0  0
   18.9363   17.2114   24.9975 H   0  0  0  0  0  0  0  0  0  0  0  0
   19.2400   18.8387   23.5802 C   0  0  0  0  0  0  0  0  0  0  0  0
   18.6232   19.4942   22.9502 H   0  0  0  0  0  0  0  0  0  0  0  0
   19.8646   18.2407   22.9049 H   0  0  0  0  0  0  0  0  0  0  0  0
   20.1435   19.7014   24.4940 C   0  0  0  0  0  0  0  0  0  0  0  0
   19.5142   20.2654   25.1963 H   0  0  0  0  0  0  0  0  0  0  0  0
   20.7832   19.0492   25.1049 H   0  0  0  0  0  0  0  0  0  0  0  0
   21.0257   20.6998   23.7081 C   0  0  0  0  0  0  0  0  0  0  0  0
   21.5678   21.3344   24.4218 H   0  0  0  0  0  0  0  0  0  0  0  0
   20.3877   21.3682   23.1147 H   0  0  0  0  0  0  0  0  0  0  0  0
   22.0412   19.9994   22.7858 C   0  0  0  0  0  0  0  0  0  0  0  0
   22.6769   19.3343   23.3766 H   0  0  0  0  0  0  0  0  0  0  0  0
   21.5126   19.3990   22.0410 H   0  0  0  0  0  0  0  0  0  0  0  0
   22.9392   20.9706   22.0472 N   0  3  0  0  0  0  0  0  0  0  0  0
   23.6076   20.4847   21.4392 H   0  0  0  0  0  0  0  0  0  0  0  0
   23.4882   21.5491   22.6915 H   0  0  0  0  0  0  0  0  0  0  0  0
   22.4028   21.6091   21.4508 H   0  0  0  0  0  0  0  0  0  0  0  0
  1  2  1  0  0  0  0
  1  3  1  0  0  0  0
  1  4  1  0  0  0  0
  1  5  1  0  0  0  0
  5  6  1  0  0  0  0
  5  7  1  0  0  0  0
  5  8  1  0  0  0  0
  8  9  1  0  0  0  0
  8 10  1  0  0  0  0
  8 11  1  0  0  0  0
 11 12  1  0  0  0  0
 11 13  1  0  0  0  0
 11 14  1  0  0  0  0
 14 15  1  0  0  0  0
 14 16  1  0  0  0  0
 14 17  1  0  0  0  0
 17 18  1  0  0  0  0
 17 19  1  0  0  0  0
 17 20  1  0  0  0  0
 20 21  1  0  0  0  0
 20 22  1  0  0  0  0
 20 23  1  0  0  0  0
 23 24  1  0  0  0  0
 23 25  1  0  0  0  0
 23 26  1  0  0  0  0
M  END
> <VConfSearch Rank>
258

> <Conf_Id>
96

> <Delta U+W>
0.912

> <U+W>
-4.640

> <U>
48.723

> <W>
-53.364

> <W(PB)>
-55.683

> <W(SA)>
2.320

> <Valence>
2.962

> <Coulomb>
44.993

> <VdW>
0.768

> <VdW6>
-7.008

> <VdW12>
7.776

> <Bond>
0.188

> <Angle>
0.757

> <Pdih>
2.018

> <Idih>
0.000

> <Tether>
0.000

$$$$
VeraChem MOL file


 26 25  0  0  0  0  0  0  0  0999 V2000     
   19.5060   22.2749   22.4151 C   0  0  0  0  0  0  0  0  0  0  0  0
   18.9869   23.1262   21.9560 H   0  0  0  0  0  0  0  0  0  0  0  0
   20.5407   22.5814   22.6159 H   0  0  0  0  0  0  0  0  0  0  0  0
   19.5241   21.4634   21.6772 H   0  0  0  0  0  0  0  0  0  0  0  0
   18.7915   21.8440   23.7162 C   0  0  0  0  0  0  0  0  0  0  0  0
   17.7697   21.5125   23.4844 H   0  0  0  0  0  0  0  0  0  0  0  0
   18.6890   22.7209   24.3706 H   0  0  0  0  0  0  0  0  0  0  0  0
   19.5398   20.7320   24.4904 C   0  0  0  0  0  0  0  0  0  0  0  0
   20.5537   21.0757   24.7375 H   0  0  0  0  0  0  0  0  0  0  0  0
   19.0266   20.5691   25.4482 H   0  0  0  0  0  0  0  0  0  0  0  0
   19.6162   19.3903   23.7229 C   0  0  0  0  0  0  0  0  0  0  0  0
   20.1839   19.5303   22.7945 H   0  0  0  0  0  0  0  0  0  0  0  0
   18.6037   19.0752   23.4351 H   0  0  0  0  0  0  0  0  0  0  0  0
   20.2799   18.2812   24.5742 C   0  0  0  0  0  0  0  0  0  0  0  0
   21.3036   18.5803   24.8394 H   0  0  0  0  0  0  0  0  0  0  0  0
   19.7322   18.1754   25.5209 H   0  0  0  0  0  0  0  0  0  0  0  0
   20.3114   16.9073   23.8642 C   0  0  0  0  0  0  0  0  0  0  0  0
   19.2875   16.5951   23.6190 H   0  0  0  0  0  0  0  0  0  0  0  0
   20.7112   16.1566   24.5588 H   0  0  0  0  0  0  0  0  0  0  0  0
   21.1701   16.9172   22.5856 C   0  0  0  0  0  0  0  0  0  0  0  0
   20.7561   17.6288   21.8668 H   0  0  0  0  0  0  0  0  0  0  0  0
   22.1897   17.2275   22.8297 H   0  0  0  0  0  0  0  0  0  0  0  0
   21.2423   15.5632   21.9097 N   0  3  0  0  0  0  0  0  0  0  0  0
   20.3154   15.2257   21.6302 H   0  0  0  0  0  0  0  0  0  0  0  0
   21.6503   14.8508   22.5239 H   0  0  0  0  0  0  0  0  0  0  0  0
   21.8184   15.5910   21.0613 H   0  0  0  0  0  0  0  0  0  0  0  0
  1  2  1  0  0  0  0
  1  3  1  0  0  0  0
  1  4  1  0  0  0  0
  1  5  1  0  0  0  0
  5  6  1  0  0  0  0
  5  7  1  0  0  0  0
  5  8  1  0  0  0  0
  8  9  1  0  0  0  0
  8 10  1  0  0  0  0
  8 11  1  0  0  0  0
 11 12  1  0  0  0  0
 11 13  1  0  0  0  0
 11 14  1  0  0  0  0
 14 15  1  0  0  0  0
 14 16  1  0  0  0  0
 14 17  1  0  0  0  0
 17 18  1  0  0  0  0
 17 19  1  0  0  0  0
 17 20  1  0  0  0  0
 20 21  1  0  0  0  0
 20 22  1  0  0  0  0
 20 23  1  0  0  0  0
 23 24  1  0  0  0  0
 23 25  1  0  0  0  0
 23 26  1  0  0  0  0
M  END
> <VConfSearch Rank>
259

> <Conf_Id>
133

> <Delta U+W>
0.844

> <U+W>
-4.708

> <U>
48.723

> <W>
-53.431

> <W(PB)>
-55.776

> <W(SA)>
2.344

> <Valence>
2.962

> <Coulomb>
44.993

> <VdW>
0.768

> <VdW6>
-7.008

> <VdW12>
7.776

> <Bond>
0.188

> <Angle>
0.756

> <Pdih>
2.018

> <Idih>
0.000

> <Tether>
0.000

$$$$
VeraChem MOL file


 26 25  0  0  0  0  0  0  0  0999 V2000     
   20.3812   15.5792   23.1093 C   0  0  0  0  0  0  0  0  0  0  0  0
   21.4118   15.2020   23.0839 H   0  0  0  0  0  0  0  0  0  0  0  0
   20.2591   16.1867   24.0147 H   0  0  0  0  0  0  0  0  0  0  0  0
   19.7092   14.7158   23.1976 H   0  0  0  0  0  0  0  0  0  0  0  0
   20.0555   16.3908   21.8352 C   0  0  0  0  0  0  0  0  0  0  0  0
   19.0279   16.7741   21.8923 H   0  0  0  0  0  0  0  0  0  0  0  0
   20.0752   15.7135   20.9699 H   0  0  0  0  0  0  0  0  0  0  0  0
   21.0475   17.5529   21.5739 C   0  0  0  0  0  0  0  0  0  0  0  0
   22.0472   17.1327   21.3977 H   0  0  0  0  0  0  0  0  0  0  0  0
   20.7643   18.0562   20.6392 H   0  0  0  0  0  0  0  0  0  0  0  0
   21.1447   18.6088   22.7053 C   0  0  0  0  0  0  0  0  0  0  0  0
   21.8880   19.3624   22.4106 H   0  0  0  0  0  0  0  0  0  0  0  0
   21.5344   18.1426   23.6199 H   0  0  0  0  0  0  0  0  0  0  0  0
   19.8024   19.3167   23.0084 C   0  0  0  0  0  0  0  0  0  0  0  0
   19.3941   19.7429   22.0815 H   0  0  0  0  0  0  0  0  0  0  0  0
   19.0688   18.5863   23.3749 H   0  0  0  0  0  0  0  0  0  0  0  0
   19.9683   20.4351   24.0605 C   0  0  0  0  0  0  0  0  0  0  0  0
   20.6921   21.1783   23.7001 H   0  0  0  0  0  0  0  0  0  0  0  0
   20.3755   20.0119   24.9886 H   0  0  0  0  0  0  0  0  0  0  0  0
   18.6282   21.1299   24.3596 C   0  0  0  0  0  0  0  0  0  0  0  0
   18.2270   21.5667   23.4411 H   0  0  0  0  0  0  0  0  0  0  0  0
   17.9091   20.3967   24.7348 H   0  0  0  0  0  0  0  0  0  0  0  0
   18.7494   22.2350   25.3889 N   0  3  0  0  0  0  0  0  0  0  0  0
   17.8458   22.6845   25.5733 H   0  0  0  0  0  0  0  0  0  0  0  0
   19.3927   22.9727   25.0837 H   0  0  0  0  0  0  0  0  0  0  0  0
   19.0970   21.8841   26.2874 H   0  0  0  0  0  0  0  0  0  0  0  0
  1  2  1  0  0  0  0
  1  3  1  0  0  0  0
  1  4  1  0  0  0  0
  1  5  1  0  0  0  0
  5  6  1  0  0  0  0
  5  7  1  0  0  0  0
  5  8  1  0  0  0  0
  8  9  1  0  0  0  0
  8 10  1  0  0  0  0
  8 11  1  0  0  0  0
 11 12  1  0  0  0  0
 11 13  1  0  0  0  0
 11 14  1  0  0  0  0
 14 15  1  0  0  0  0
 14 16  1  0  0  0  0
 14 17  1  0  0  0  0
 17 18  1  0  0  0  0
 17 19  1  0  0  0  0
 17 20  1  0  0  0  0
 20 21  1  0  0  0  0
 20 22  1  0  0  0  0
 20 23  1  0  0  0  0
 23 24  1  0  0  0  0
 23 25  1  0  0  0  0
 23 26  1  0  0  0  0
M  END
> <VConfSearch Rank>
260

> <Conf_Id>
106

> <Delta U+W>
0.767

> <U+W>
-4.785

> <U>
48.494

> <W>
-53.279

> <W(PB)>
-55.569

> <W(SA)>
2.290

> <Valence>
3.117

> <Coulomb>
44.693

> <VdW>
0.684

> <VdW6>
-7.347

> <VdW12>
8.030

> <Bond>
0.208

> <Angle>
1.039

> <Pdih>
1.870

> <Idih>
0.000

> <Tether>
0.000

$$$$
VeraChem MOL file


 26 25  0  0  0  0  0  0  0  0999 V2000     
   18.1043   18.6830   19.2294 C   0  0  0  0  0  0  0  0  0  0  0  0
   19.0252   18.9022   18.6734 H   0  0  0  0  0  0  0  0  0  0  0  0
   17.9671   17.5939   19.2479 H   0  0  0  0  0  0  0  0  0  0  0  0
   17.2636   19.1191   18.6744 H   0  0  0  0  0  0  0  0  0  0  0  0
   18.1697   19.2582   20.6601 C   0  0  0  0  0  0  0  0  0  0  0  0
   17.2230   19.0529   21.1792 H   0  0  0  0  0  0  0  0  0  0  0  0
   18.2728   20.3512   20.6092 H   0  0  0  0  0  0  0  0  0  0  0  0
   19.3456   18.6603   21.4640 C   0  0  0  0  0  0  0  0  0  0  0  0
   19.2395   17.5676   21.5100 H   0  0  0  0  0  0  0  0  0  0  0  0
   20.2894   18.8661   20.9401 H   0  0  0  0  0  0  0  0  0  0  0  0
   19.4144   19.2338   22.8974 C   0  0  0  0  0  0  0  0  0  0  0  0
   18.4701   19.0278   23.4204 H   0  0  0  0  0  0  0  0  0  0  0  0
   19.5199   20.3266   22.8504 H   0  0  0  0  0  0  0  0  0  0  0  0
   20.5910   18.6354   23.7011 C   0  0  0  0  0  0  0  0  0  0  0  0
   20.4858   17.5425   23.7483 H   0  0  0  0  0  0  0  0  0  0  0  0
   21.5356   18.8414   23.1784 H   0  0  0  0  0  0  0  0  0  0  0  0
   20.6603   19.2081   25.1338 C   0  0  0  0  0  0  0  0  0  0  0  0
   19.7200   18.9996   25.6615 H   0  0  0  0  0  0  0  0  0  0  0  0
   20.7707   20.3000   25.0909 H   0  0  0  0  0  0  0  0  0  0  0  0
   21.8351   18.6059   25.9247 C   0  0  0  0  0  0  0  0  0  0  0  0
   21.7207   17.5202   25.9842 H   0  0  0  0  0  0  0  0  0  0  0  0
   22.7753   18.8252   25.4114 H   0  0  0  0  0  0  0  0  0  0  0  0
   21.9371   19.1436   27.3375 N   0  3  0  0  0  0  0  0  0  0  0  0
   22.7258   18.7297   27.8465 H   0  0  0  0  0  0  0  0  0  0  0  0
   21.0924   18.9454   27.8838 H   0  0  0  0  0  0  0  0  0  0  0  0
   22.0737   20.1597   27.3509 H   0  0  0  0  0  0  0  0  0  0  0  0
  1  2  1  0  0  0  0
  1  3  1  0  0  0  0
  1  4  1  0  0  0  0
  1  5  1  0  0  0  0
  5  6  1  0  0  0  0
  5  7  1  0  0  0  0
  5  8  1  0  0  0  0
  8  9  1  0  0  0  0
  8 10  1  0  0  0  0
  8 11  1  0  0  0  0
 11 12  1  0  0  0  0
 11 13  1  0  0  0  0
 11 14  1  0  0  0  0
 14 15  1  0  0  0  0
 14 16  1  0  0  0  0
 14 17  1  0  0  0  0
 17 18  1  0  0  0  0
 17 19  1  0  0  0  0
 17 20  1  0  0  0  0
 20 21  1  0  0  0  0
 20 22  1  0  0  0  0
 20 23  1  0  0  0  0
 23 24  1  0  0  0  0
 23 25  1  0  0  0  0
 23 26  1  0  0  0  0
M  END
> <VConfSearch Rank>
261

> <Conf_Id>
25

> <Delta U+W>
0.000

> <U+W>
-5.552

> <U>
47.192

> <W>
-52.745

> <W(PB)>
-55.134

> <W(SA)>
2.389

> <Valence>
2.156

> <Coulomb>
44.449

> <VdW>
0.587

> <VdW6>
-5.761

> <VdW12>
6.348

> <Bond>
0.129

> <Angle>
0.393

> <Pdih>
1.634

> <Idih>
0.000

> <Tether>
0.000

$$$$
VeraChem MOL file


 26 25  0  0  0  0  0  0  0  0999 V2000     
   18.9837   20.6547   19.4243 C   0  0  0  0  0  0  0  0  0  0  0  0
   20.0004   20.9888   19.1798 H   0  0  0  0  0  0  0  0  0  0  0  0
   18.8394   19.6552   18.9937 H   0  0  0  0  0  0  0  0  0  0  0  0
   18.2776   21.3377   18.9345 H   0  0  0  0  0  0  0  0  0  0  0  0
   18.7568   20.6391   20.9509 C   0  0  0  0  0  0  0  0  0  0  0  0
   17.7224   20.3340   21.1626 H   0  0  0  0  0  0  0  0  0  0  0  0
   18.8744   21.6574   21.3473 H   0  0  0  0  0  0  0  0  0  0  0  0
   19.7388   19.6845   21.6655 C   0  0  0  0  0  0  0  0  0  0  0  0
   19.6192   18.6686   21.2643 H   0  0  0  0  0  0  0  0  0  0  0  0
   20.7713   19.9922   21.4491 H   0  0  0  0  0  0  0  0  0  0  0  0
   19.5147   19.6663   23.1945 C   0  0  0  0  0  0  0  0  0  0  0  0
   18.4821   19.3584   23.4101 H   0  0  0  0  0  0  0  0  0  0  0  0
   19.6335   20.6828   23.5944 H   0  0  0  0  0  0  0  0  0  0  0  0
   20.4977   18.7116   23.9093 C   0  0  0  0  0  0  0  0  0  0  0  0
   20.3781   17.6986   23.5024 H   0  0  0  0  0  0  0  0  0  0  0  0
   21.5302   19.0214   23.6960 H   0  0  0  0  0  0  0  0  0  0  0  0
   20.2710   18.6941   25.4395 C   0  0  0  0  0  0  0  0  0  0  0  0
   19.2509   18.3557   25.6653 H   0  0  0  0  0  0  0  0  0  0  0  0
   20.3558   19.7165   25.8314 H   0  0  0  0  0  0  0  0  0  0  0  0
   21.2849   17.8020   26.1815 C   0  0  0  0  0  0  0  0  0  0  0  0
   22.3018   18.1327   25.9539 H   0  0  0  0  0  0  0  0  0  0  0  0
   21.1292   17.8956   27.2597 H   0  0  0  0  0  0  0  0  0  0  0  0
   21.1778   16.3316   25.8277 N   0  3  0  0  0  0  0  0  0  0  0  0
   21.3504   16.1673   24.8311 H   0  0  0  0  0  0  0  0  0  0  0  0
   20.2482   15.9554   26.0406 H   0  0  0  0  0  0  0  0  0  0  0  0
   21.8566   15.7646   26.3474 H   0  0  0  0  0  0  0  0  0  0  0  0
  1  2  1  0  0  0  0
  1  3  1  0  0  0  0
  1  4  1  0  0  0  0
  1  5  1  0  0  0  0
  5  6  1  0  0  0  0
  5  7  1  0  0  0  0
  5  8  1  0  0  0  0
  8  9  1  0  0  0  0
  8 10  1  0  0  0  0
  8 11  1  0  0  0  0
 11 12  1  0  0  0  0
 11 13  1  0  0  0  0
 11 14  1  0  0  0  0
 14 15  1  0  0  0  0
 14 16  1  0  0  0  0
 14 17  1  0  0  0  0
 17 18  1  0  0  0  0
 17 19  1  0  0  0  0
 17 20  1  0  0  0  0
 20 21  1  0  0  0  0
 20 22  1  0  0  0  0
 20 23  1  0  0  0  0
 23 24  1  0  0  0  0
 23 25  1  0  0  0  0
 23 26  1  0  0  0  0
M  END
> <VConfSearch Rank>
262

> <Conf_Id>
20

> <Delta U+W>
0.150

> <U+W>
-5.403

> <U>
47.845

> <W>
-53.248

> <W(PB)>
-55.599

> <W(SA)>
2.351

> <Valence>
2.258

> <Coulomb>
44.893

> <VdW>
0.694

> <VdW6>
-6.285

> <VdW12>
6.979

> <Bond>
0.149

> <Angle>
0.434

> <Pdih>
1.675

> <Idih>
0.000

> <Tether>
0.000

$$$$
VeraChem MOL file


 26 25  0  0  0  0  0  0  0  0999 V2000     
   18.8636   16.7966   19.6667 C   0  0  0  0  0  0  0  0  0  0  0  0
   18.1463   16.1716   20.2144 H   0  0  0  0  0  0  0  0  0  0  0  0
   18.3140   17.6338   19.2169 H   0  0  0  0  0  0  0  0  0  0  0  0
   19.2834   16.1926   18.8519 H   0  0  0  0  0  0  0  0  0  0  0  0
   19.9824   17.3052   20.6003 C   0  0  0  0  0  0  0  0  0  0  0  0
   20.7017   17.8981   20.0180 H   0  0  0  0  0  0  0  0  0  0  0  0
   20.5352   16.4472   21.0079 H   0  0  0  0  0  0  0  0  0  0  0  0
   19.4180   18.1593   21.7572 C   0  0  0  0  0  0  0  0  0  0  0  0
   18.8645   19.0143   21.3449 H   0  0  0  0  0  0  0  0  0  0  0  0
   18.6979   17.5633   22.3347 H   0  0  0  0  0  0  0  0  0  0  0  0
   20.5355   18.6704   22.6944 C   0  0  0  0  0  0  0  0  0  0  0  0
   21.2556   19.2653   22.1155 H   0  0  0  0  0  0  0  0  0  0  0  0
   21.0884   17.8149   23.1065 H   0  0  0  0  0  0  0  0  0  0  0  0
   19.9706   19.5255   23.8512 C   0  0  0  0  0  0  0  0  0  0  0  0
   19.4203   20.3827   23.4389 H   0  0  0  0  0  0  0  0  0  0  0  0
   19.2482   18.9279   24.4231 H   0  0  0  0  0  0  0  0  0  0  0  0
   21.0907   20.0353   24.7886 C   0  0  0  0  0  0  0  0  0  0  0  0
   21.8274   20.5998   24.2016 H   0  0  0  0  0  0  0  0  0  0  0  0
   21.6275   19.1855   25.2310 H   0  0  0  0  0  0  0  0  0  0  0  0
   20.5589   20.9480   25.9105 C   0  0  0  0  0  0  0  0  0  0  0  0
   21.4004   21.3430   26.4861 H   0  0  0  0  0  0  0  0  0  0  0  0
   20.0187   21.7921   25.4733 H   0  0  0  0  0  0  0  0  0  0  0  0
   19.6286   20.2452   26.8797 N   0  3  0  0  0  0  0  0  0  0  0  0
   20.0875   19.4532   27.3415 H   0  0  0  0  0  0  0  0  0  0  0  0
   18.7949   19.8802   26.4089 H   0  0  0  0  0  0  0  0  0  0  0  0
   19.3032   20.8760   27.6203 H   0  0  0  0  0  0  0  0  0  0  0  0
  1  2  1  0  0  0  0
  1  3  1  0  0  0  0
  1  4  1  0  0  0  0
  1  5  1  0  0  0  0
  5  6  1  0  0  0  0
  5  7  1  0  0  0  0
  5  8  1  0  0  0  0
  8  9  1  0  0  0  0
  8 10  1  0  0  0  0
  8 11  1  0  0  0  0
 11 12  1  0  0  0  0
 11 13  1  0  0  0  0
 11 14  1  0  0  0  0
 14 15  1  0  0  0  0
 14 16  1  0  0  0  0
 14 17  1  0  0  0  0
 17 18  1  0  0  0  0
 17 19  1  0  0  0  0
 17 20  1  0  0  0  0
 20 21  1  0  0  0  0
 20 22  1  0  0  0  0
 20 23  1  0  0  0  0
 23 24  1  0  0  0  0
 23 25  1  0  0  0  0
 23 26  1  0  0  0  0
M  END
> <VConfSearch Rank>
263

> <Conf_Id>
19

> <Delta U+W>
0.162

> <U+W>
-5.391

> <U>
47.845

> <W>
-53.235

> <W(PB)>
-55.585

> <W(SA)>
2.349

> <Valence>
2.258

> <Coulomb>
44.893

> <VdW>
0.694

> <VdW6>
-6.285

> <VdW12>
6.979

> <Bond>
0.149

> <Angle>
0.434

> <Pdih>
1.675

> <Idih>
0.000

> <Tether>
0.000

$$$$
VeraChem MOL file


 26 25  0  0  0  0  0  0  0  0999 V2000     
   15.9322   19.1208   24.2156 C   0  0  0  0  0  0  0  0  0  0  0  0
   15.4875   20.1244   24.2010 H   0  0  0  0  0  0  0  0  0  0  0  0
   15.5870   18.5807   23.3243 H   0  0  0  0  0  0  0  0  0  0  0  0
   15.5470   18.5948   25.0987 H   0  0  0  0  0  0  0  0  0  0  0  0
   17.4733   19.1967   24.2555 C   0  0  0  0  0  0  0  0  0  0  0  0
   17.8783   18.1776   24.3109 H   0  0  0  0  0  0  0  0  0  0  0  0
   17.7887   19.7157   25.1714 H   0  0  0  0  0  0  0  0  0  0  0  0
   18.0401   19.9309   23.0174 C   0  0  0  0  0  0  0  0  0  0  0  0
   17.7689   19.3821   22.1049 H   0  0  0  0  0  0  0  0  0  0  0  0
   17.5615   20.9167   22.9374 H   0  0  0  0  0  0  0  0  0  0  0  0
   19.5746   20.1335   23.0648 C   0  0  0  0  0  0  0  0  0  0  0  0
   19.8432   20.6957   23.9698 H   0  0  0  0  0  0  0  0  0  0  0  0
   19.8681   20.7622   22.2128 H   0  0  0  0  0  0  0  0  0  0  0  0
   20.3757   18.8102   23.0140 C   0  0  0  0  0  0  0  0  0  0  0  0
   20.1518   18.2012   23.8997 H   0  0  0  0  0  0  0  0  0  0  0  0
   20.0648   18.2255   22.1370 H   0  0  0  0  0  0  0  0  0  0  0  0
   21.8980   19.0637   22.9497 C   0  0  0  0  0  0  0  0  0  0  0  0
   22.2129   19.6470   23.8253 H   0  0  0  0  0  0  0  0  0  0  0  0
   22.1366   19.6625   22.0605 H   0  0  0  0  0  0  0  0  0  0  0  0
   22.6873   17.7435   22.9034 C   0  0  0  0  0  0  0  0  0  0  0  0
   22.4659   17.1507   23.7951 H   0  0  0  0  0  0  0  0  0  0  0  0
   22.3886   17.1667   22.0239 H   0  0  0  0  0  0  0  0  0  0  0  0
   24.1868   17.9504   22.8398 N   0  3  0  0  0  0  0  0  0  0  0  0
   24.5366   18.4649   23.6548 H   0  0  0  0  0  0  0  0  0  0  0  0
   24.4646   18.4797   22.0068 H   0  0  0  0  0  0  0  0  0  0  0  0
   24.6935   17.0589   22.8096 H   0  0  0  0  0  0  0  0  0  0  0  0
  1  2  1  0  0  0  0
  1  3  1  0  0  0  0
  1  4  1  0  0  0  0
  1  5  1  0  0  0  0
  5  6  1  0  0  0  0
  5  7  1  0  0  0  0
  5  8  1  0  0  0  0
  8  9  1  0  0  0  0
  8 10  1  0  0  0  0
  8 11  1  0  0  0  0
 11 12  1  0  0  0  0
 11 13  1  0  0  0  0
 11 14  1  0  0  0  0
 14 15  1  0  0  0  0
 14 16  1  0  0  0  0
 14 17  1  0  0  0  0
 17 18  1  0  0  0  0
 17 19  1  0  0  0  0
 17 20  1  0  0  0  0
 20 21  1  0  0  0  0
 20 22  1  0  0  0  0
 20 23  1  0  0  0  0
 23 24  1  0  0  0  0
 23 25  1  0  0  0  0
 23 26  1  0  0  0  0
M  END
> <VConfSearch Rank>
264

> <Conf_Id>
37

> <Delta U+W>
0.565

> <U+W>
-4.988

> <U>
48.035

> <W>
-53.022

> <W(PB)>
-55.379

> <W(SA)>
2.357

> <Valence>
2.701

> <Coulomb>
44.622

> <VdW>
0.712

> <VdW6>
-6.418

> <VdW12>
7.129

> <Bond>
0.168

> <Angle>
0.659

> <Pdih>
1.875

> <Idih>
0.000

> <Tether>
0.000

$$$$
VeraChem MOL file


 26 25  0  0  0  0  0  0  0  0999 V2000     
   15.9302   19.3530   23.4971 C   0  0  0  0  0  0  0  0  0  0  0  0
   15.9491   18.4085   22.9378 H   0  0  0  0  0  0  0  0  0  0  0  0
   15.8665   19.1156   24.5671 H   0  0  0  0  0  0  0  0  0  0  0  0
   15.0162   19.8923   23.2166 H   0  0  0  0  0  0  0  0  0  0  0  0
   17.1808   20.2042   23.1913 C   0  0  0  0  0  0  0  0  0  0  0  0
   17.1159   21.1558   23.7373 H   0  0  0  0  0  0  0  0  0  0  0  0
   17.1995   20.4534   22.1210 H   0  0  0  0  0  0  0  0  0  0  0  0
   18.4827   19.4680   23.5779 C   0  0  0  0  0  0  0  0  0  0  0  0
   18.4601   19.2229   24.6487 H   0  0  0  0  0  0  0  0  0  0  0  0
   18.5303   18.5161   23.0331 H   0  0  0  0  0  0  0  0  0  0  0  0
   19.7375   20.3192   23.2677 C   0  0  0  0  0  0  0  0  0  0  0  0
   19.6360   21.2972   23.7582 H   0  0  0  0  0  0  0  0  0  0  0  0
   19.7921   20.5199   22.1888 H   0  0  0  0  0  0  0  0  0  0  0  0
   21.0604   19.6687   23.7419 C   0  0  0  0  0  0  0  0  0  0  0  0
   21.8770   20.3879   23.5878 H   0  0  0  0  0  0  0  0  0  0  0  0
   21.0129   19.4840   24.8242 H   0  0  0  0  0  0  0  0  0  0  0  0
   21.4038   18.3539   23.0031 C   0  0  0  0  0  0  0  0  0  0  0  0
   21.4014   18.5274   21.9188 H   0  0  0  0  0  0  0  0  0  0  0  0
   20.6416   17.5926   23.2115 H   0  0  0  0  0  0  0  0  0  0  0  0
   22.7800   17.8144   23.4312 C   0  0  0  0  0  0  0  0  0  0  0  0
   23.5514   18.5574   23.2112 H   0  0  0  0  0  0  0  0  0  0  0  0
   22.7822   17.6246   24.5079 H   0  0  0  0  0  0  0  0  0  0  0  0
   23.1577   16.5263   22.7284 N   0  3  0  0  0  0  0  0  0  0  0  0
   23.2000   16.6444   21.7108 H   0  0  0  0  0  0  0  0  0  0  0  0
   22.4851   15.7761   22.9177 H   0  0  0  0  0  0  0  0  0  0  0  0
   24.0777   16.1849   23.0277 H   0  0  0  0  0  0  0  0  0  0  0  0
  1  2  1  0  0  0  0
  1  3  1  0  0  0  0
  1  4  1  0  0  0  0
  1  5  1  0  0  0  0
  5  6  1  0  0  0  0
  5  7  1  0  0  0  0
  5  8  1  0  0  0  0
  8  9  1  0  0  0  0
  8 10  1  0  0  0  0
  8 11  1  0  0  0  0
 11 12  1  0  0  0  0
 11 13  1  0  0  0  0
 11 14  1  0  0  0  0
 14 15  1  0  0  0  0
 14 16  1  0  0  0  0
 14 17  1  0  0  0  0
 17 18  1  0  0  0  0
 17 19  1  0  0  0  0
 17 20  1  0  0  0  0
 20 21  1  0  0  0  0
 20 22  1  0  0  0  0
 20 23  1  0  0  0  0
 23 24  1  0  0  0  0
 23 25  1  0  0  0  0
 23 26  1  0  0  0  0
M  END
> <VConfSearch Rank>
265

> <Conf_Id>
35

> <Delta U+W>
0.587

> <U+W>
-4.965

> <U>
48.214

> <W>
-53.179

> <W(PB)>
-55.527

> <W(SA)>
2.348

> <Valence>
2.697

> <Coulomb>
44.819

> <VdW>
0.699

> <VdW6>
-6.437

> <VdW12>
7.136

> <Bond>
0.168

> <Angle>
0.657

> <Pdih>
1.872

> <Idih>
0.000

> <Tether>
0.000

$$$$
VeraChem MOL file


 26 25  0  0  0  0  0  0  0  0999 V2000     
   19.9055   15.1376   24.5296 C   0  0  0  0  0  0  0  0  0  0  0  0
   20.9747   15.0728   24.7702 H   0  0  0  0  0  0  0  0  0  0  0  0
   19.3904   15.5985   25.3825 H   0  0  0  0  0  0  0  0  0  0  0  0
   19.5228   14.1148   24.4175 H   0  0  0  0  0  0  0  0  0  0  0  0
   19.6759   15.9500   23.2375 C   0  0  0  0  0  0  0  0  0  0  0  0
   18.6020   15.9691   23.0047 H   0  0  0  0  0  0  0  0  0  0  0  0
   20.1735   15.4457   22.3972 H   0  0  0  0  0  0  0  0  0  0  0  0
   20.2068   17.3948   23.3680 C   0  0  0  0  0  0  0  0  0  0  0  0
   19.7090   17.8834   24.2157 H   0  0  0  0  0  0  0  0  0  0  0  0
   21.2808   17.3703   23.5986 H   0  0  0  0  0  0  0  0  0  0  0  0
   19.9734   18.2114   22.0741 C   0  0  0  0  0  0  0  0  0  0  0  0
   18.8960   18.2837   21.8707 H   0  0  0  0  0  0  0  0  0  0  0  0
   20.4115   17.6686   21.2251 H   0  0  0  0  0  0  0  0  0  0  0  0
   20.5895   19.6314   22.1179 C   0  0  0  0  0  0  0  0  0  0  0  0
   21.6701   19.5586   22.3041 H   0  0  0  0  0  0  0  0  0  0  0  0
   20.4781   20.0901   21.1255 H   0  0  0  0  0  0  0  0  0  0  0  0
   19.9397   20.5564   23.1737 C   0  0  0  0  0  0  0  0  0  0  0  0
   20.1114   20.1590   24.1819 H   0  0  0  0  0  0  0  0  0  0  0  0
   18.8531   20.5889   23.0183 H   0  0  0  0  0  0  0  0  0  0  0  0
   20.5100   21.9835   23.0945 C   0  0  0  0  0  0  0  0  0  0  0  0
   21.5897   21.9583   23.2647 H   0  0  0  0  0  0  0  0  0  0  0  0
   20.3282   22.3979   22.0992 H   0  0  0  0  0  0  0  0  0  0  0  0
   19.8980   22.9249   24.1117 N   0  3  0  0  0  0  0  0  0  0  0  0
   20.0582   22.6060   25.0728 H   0  0  0  0  0  0  0  0  0  0  0  0
   18.8841   23.0143   23.9882 H   0  0  0  0  0  0  0  0  0  0  0  0
   20.2915   23.8697   24.0412 H   0  0  0  0  0  0  0  0  0  0  0  0
  1  2  1  0  0  0  0
  1  3  1  0  0  0  0
  1  4  1  0  0  0  0
  1  5  1  0  0  0  0
  5  6  1  0  0  0  0
  5  7  1  0  0  0  0
  5  8  1  0  0  0  0
  8  9  1  0  0  0  0
  8 10  1  0  0  0  0
  8 11  1  0  0  0  0
 11 12  1  0  0  0  0
 11 13  1  0  0  0  0
 11 14  1  0  0  0  0
 14 15  1  0  0  0  0
 14 16  1  0  0  0  0
 14 17  1  0  0  0  0
 17 18  1  0  0  0  0
 17 19  1  0  0  0  0
 17 20  1  0  0  0  0
 20 21  1  0  0  0  0
 20 22  1  0  0  0  0
 20 23  1  0  0  0  0
 23 24  1  0  0  0  0
 23 25  1  0  0  0  0
 23 26  1  0  0  0  0
M  END
> <VConfSearch Rank>
266

> <Conf_Id>
36

> <Delta U+W>
0.565

> <U+W>
-4.987

> <U>
48.214

> <W>
-53.201

> <W(PB)>
-55.543

> <W(SA)>
2.342

> <Valence>
2.697

> <Coulomb>
44.819

> <VdW>
0.698

> <VdW6>
-6.437

> <VdW12>
7.136

> <Bond>
0.168

> <Angle>
0.657

> <Pdih>
1.872

> <Idih>
0.000

> <Tether>
0.000

$$$$
VeraChem MOL file


 26 25  0  0  0  0  0  0  0  0999 V2000     
   23.0098   15.8888   23.8889 C   0  0  0  0  0  0  0  0  0  0  0  0
   22.7106   15.4486   24.8490 H   0  0  0  0  0  0  0  0  0  0  0  0
   23.3983   15.0815   23.2546 H   0  0  0  0  0  0  0  0  0  0  0  0
   23.8299   16.5940   24.0768 H   0  0  0  0  0  0  0  0  0  0  0  0
   21.8181   16.5929   23.2060 C   0  0  0  0  0  0  0  0  0  0  0  0
   21.0286   15.8564   23.0004 H   0  0  0  0  0  0  0  0  0  0  0  0
   22.1394   16.9929   22.2341 H   0  0  0  0  0  0  0  0  0  0  0  0
   21.2517   17.7348   24.0788 C   0  0  0  0  0  0  0  0  0  0  0  0
   20.9348   17.3302   25.0500 H   0  0  0  0  0  0  0  0  0  0  0  0
   22.0448   18.4673   24.2833 H   0  0  0  0  0  0  0  0  0  0  0  0
   20.0579   18.4422   23.3985 C   0  0  0  0  0  0  0  0  0  0  0  0
   19.2646   17.7091   23.1971 H   0  0  0  0  0  0  0  0  0  0  0  0
   20.3803   18.8383   22.4263 H   0  0  0  0  0  0  0  0  0  0  0  0
   19.4936   19.5863   24.2747 C   0  0  0  0  0  0  0  0  0  0  0  0
   19.2208   19.1853   25.2607 H   0  0  0  0  0  0  0  0  0  0  0  0
   20.2751   20.3386   24.4508 H   0  0  0  0  0  0  0  0  0  0  0  0
   18.2511   20.2687   23.6559 C   0  0  0  0  0  0  0  0  0  0  0  0
   17.8564   21.0045   24.3692 H   0  0  0  0  0  0  0  0  0  0  0  0
   17.4590   19.5237   23.5021 H   0  0  0  0  0  0  0  0  0  0  0  0
   18.5622   20.9763   22.3236 C   0  0  0  0  0  0  0  0  0  0  0  0
   19.3500   21.7189   22.4767 H   0  0  0  0  0  0  0  0  0  0  0  0
   18.9143   20.2466   21.5901 H   0  0  0  0  0  0  0  0  0  0  0  0
   17.3599   21.6848   21.7338 N   0  3  0  0  0  0  0  0  0  0  0  0
   17.5879   22.1491   20.8480 H   0  0  0  0  0  0  0  0  0  0  0  0
   16.9948   22.4067   22.3637 H   0  0  0  0  0  0  0  0  0  0  0  0
   16.5903   21.0353   21.5410 H   0  0  0  0  0  0  0  0  0  0  0  0
  1  2  1  0  0  0  0
  1  3  1  0  0  0  0
  1  4  1  0  0  0  0
  1  5  1  0  0  0  0
  5  6  1  0  0  0  0
  5  7  1  0  0  0  0
  5  8  1  0  0  0  0
  8  9  1  0  0  0  0
  8 10  1  0  0  0  0
  8 11  1  0  0  0  0
 11 12  1  0  0  0  0
 11 13  1  0  0  0  0
 11 14  1  0  0  0  0
 14 15  1  0  0  0  0
 14 16  1  0  0  0  0
 14 17  1  0  0  0  0
 17 18  1  0  0  0  0
 17 19  1  0  0  0  0
 17 20  1  0  0  0  0
 20 21  1  0  0  0  0
 20 22  1  0  0  0  0
 20 23  1  0  0  0  0
 23 24  1  0  0  0  0
 23 25  1  0  0  0  0
 23 26  1  0  0  0  0
M  END
> <VConfSearch Rank>
267

> <Conf_Id>
44

> <Delta U+W>
0.371

> <U+W>
-5.181

> <U>
48.002

> <W>
-53.183

> <W(PB)>
-55.533

> <W(SA)>
2.350

> <Valence>
2.459

> <Coulomb>
44.901

> <VdW>
0.643

> <VdW6>
-6.362

> <VdW12>
7.005

> <Bond>
0.151

> <Angle>
0.519

> <Pdih>
1.789

> <Idih>
0.000

> <Tether>
0.000

$$$$
VeraChem MOL file


 26 25  0  0  0  0  0  0  0  0999 V2000     
   17.2109   18.6602   26.0484 C   0  0  0  0  0  0  0  0  0  0  0  0
   16.6812   17.8446   25.5393 H   0  0  0  0  0  0  0  0  0  0  0  0
   16.8044   18.7412   27.0648 H   0  0  0  0  0  0  0  0  0  0  0  0
   16.9819   19.5978   25.5273 H   0  0  0  0  0  0  0  0  0  0  0  0
   18.7324   18.3913   26.0950 C   0  0  0  0  0  0  0  0  0  0  0  0
   18.9158   17.5165   26.7346 H   0  0  0  0  0  0  0  0  0  0  0  0
   19.2433   19.2365   26.5770 H   0  0  0  0  0  0  0  0  0  0  0  0
   19.3566   18.1263   24.7034 C   0  0  0  0  0  0  0  0  0  0  0  0
   20.3973   17.8127   24.8544 H   0  0  0  0  0  0  0  0  0  0  0  0
   18.8434   17.2799   24.2268 H   0  0  0  0  0  0  0  0  0  0  0  0
   19.3163   19.3591   23.7645 C   0  0  0  0  0  0  0  0  0  0  0  0
   19.8330   20.2046   24.2391 H   0  0  0  0  0  0  0  0  0  0  0  0
   18.2746   19.6742   23.6228 H   0  0  0  0  0  0  0  0  0  0  0  0
   19.9284   19.0954   22.3664 C   0  0  0  0  0  0  0  0  0  0  0  0
   19.4211   18.2406   21.8979 H   0  0  0  0  0  0  0  0  0  0  0  0
   19.7148   19.9658   21.7321 H   0  0  0  0  0  0  0  0  0  0  0  0
   21.4574   18.8450   22.3940 C   0  0  0  0  0  0  0  0  0  0  0  0
   21.6781   17.9490   22.9867 H   0  0  0  0  0  0  0  0  0  0  0  0
   21.9676   19.6828   22.8876 H   0  0  0  0  0  0  0  0  0  0  0  0
   22.0509   18.6395   20.9867 C   0  0  0  0  0  0  0  0  0  0  0  0
   23.1070   18.3705   21.0752 H   0  0  0  0  0  0  0  0  0  0  0  0
   21.5314   17.8192   20.4842 H   0  0  0  0  0  0  0  0  0  0  0  0
   21.9636   19.8663   20.1000 N   0  3  0  0  0  0  0  0  0  0  0  0
   20.9926   20.1533   19.9426 H   0  0  0  0  0  0  0  0  0  0  0  0
   22.3804   19.6996   19.1776 H   0  0  0  0  0  0  0  0  0  0  0  0
   22.4542   20.6679   20.5096 H   0  0  0  0  0  0  0  0  0  0  0  0
  1  2  1  0  0  0  0
  1  3  1  0  0  0  0
  1  4  1  0  0  0  0
  1  5  1  0  0  0  0
  5  6  1  0  0  0  0
  5  7  1  0  0  0  0
  5  8  1  0  0  0  0
  8  9  1  0  0  0  0
  8 10  1  0  0  0  0
  8 11  1  0  0  0  0
 11 12  1  0  0  0  0
 11 13  1  0  0  0  0
 11 14  1  0  0  0  0
 14 15  1  0  0  0  0
 14 16  1  0  0  0  0
 14 17  1  0  0  0  0
 17 18  1  0  0  0  0
 17 19  1  0  0  0  0
 17 20  1  0  0  0  0
 20 21  1  0  0  0  0
 20 22  1  0  0  0  0
 20 23  1  0  0  0  0
 23 24  1  0  0  0  0
 23 25  1  0  0  0  0
 23 26  1  0  0  0  0
M  END
> <VConfSearch Rank>
268

> <Conf_Id>
112

> <Delta U+W>
1.422

> <U+W>
-4.130

> <U>
49.323

> <W>
-53.453

> <W(PB)>
-55.749

> <W(SA)>
2.296

> <Valence>
3.408

> <Coulomb>
44.893

> <VdW>
1.021

> <VdW6>
-7.481

> <VdW12>
8.503

> <Bond>
0.239

> <Angle>
1.013

> <Pdih>
2.156

> <Idih>
0.000

> <Tether>
0.000

$$$$
VeraChem MOL file


 26 25  0  0  0  0  0  0  0  0999 V2000     
   18.2233   18.0386   20.1562 C   0  0  0  0  0  0  0  0  0  0  0  0
   17.5801   18.0036   19.2674 H   0  0  0  0  0  0  0  0  0  0  0  0
   19.1723   18.5017   19.8587 H   0  0  0  0  0  0  0  0  0  0  0  0
   18.4265   17.0048   20.4646 H   0  0  0  0  0  0  0  0  0  0  0  0
   17.5360   18.8320   21.2905 C   0  0  0  0  0  0  0  0  0  0  0  0
   16.5416   18.4010   21.4728 H   0  0  0  0  0  0  0  0  0  0  0  0
   17.3669   19.8685   20.9665 H   0  0  0  0  0  0  0  0  0  0  0  0
   18.3335   18.8213   22.6169 C   0  0  0  0  0  0  0  0  0  0  0  0
   17.7314   19.3176   23.3904 H   0  0  0  0  0  0  0  0  0  0  0  0
   18.4675   17.7823   22.9452 H   0  0  0  0  0  0  0  0  0  0  0  0
   19.7079   19.5295   22.5116 C   0  0  0  0  0  0  0  0  0  0  0  0
   19.5652   20.5205   22.0591 H   0  0  0  0  0  0  0  0  0  0  0  0
   20.3683   18.9719   21.8344 H   0  0  0  0  0  0  0  0  0  0  0  0
   20.4158   19.7114   23.8768 C   0  0  0  0  0  0  0  0  0  0  0  0
   21.3131   20.3239   23.7176 H   0  0  0  0  0  0  0  0  0  0  0  0
   19.7674   20.2841   24.5543 H   0  0  0  0  0  0  0  0  0  0  0  0
   20.8179   18.3734   24.5467 C   0  0  0  0  0  0  0  0  0  0  0  0
   21.4464   17.7848   23.8652 H   0  0  0  0  0  0  0  0  0  0  0  0
   19.9214   17.7731   24.7452 H   0  0  0  0  0  0  0  0  0  0  0  0
   21.5586   18.5768   25.8826 C   0  0  0  0  0  0  0  0  0  0  0  0
   20.9432   19.1784   26.5569 H   0  0  0  0  0  0  0  0  0  0  0  0
   21.7296   17.6048   26.3533 H   0  0  0  0  0  0  0  0  0  0  0  0
   22.9050   19.2592   25.7384 N   0  3  0  0  0  0  0  0  0  0  0  0
   22.8145   20.1970   25.3357 H   0  0  0  0  0  0  0  0  0  0  0  0
   23.5379   18.7282   25.1314 H   0  0  0  0  0  0  0  0  0  0  0  0
   23.3766   19.3654   26.6431 H   0  0  0  0  0  0  0  0  0  0  0  0
  1  2  1  0  0  0  0
  1  3  1  0  0  0  0
  1  4  1  0  0  0  0
  1  5  1  0  0  0  0
  5  6  1  0  0  0  0
  5  7  1  0  0  0  0
  5  8  1  0  0  0  0
  8  9  1  0  0  0  0
  8 10  1  0  0  0  0
  8 11  1  0  0  0  0
 11 12  1  0  0  0  0
 11 13  1  0  0  0  0
 11 14  1  0  0  0  0
 14 15  1  0  0  0  0
 14 16  1  0  0  0  0
 14 17  1  0  0  0  0
 17 18  1  0  0  0  0
 17 19  1  0  0  0  0
 17 20  1  0  0  0  0
 20 21  1  0  0  0  0
 20 22  1  0  0  0  0
 20 23  1  0  0  0  0
 23 24  1  0  0  0  0
 23 25  1  0  0  0  0
 23 26  1  0  0  0  0
M  END
> <VConfSearch Rank>
269

> <Conf_Id>
130

> <Delta U+W>
1.282

> <U+W>
-4.270

> <U>
49.153

> <W>
-53.422

> <W(PB)>
-55.725

> <W(SA)>
2.303

> <Valence>
3.298

> <Coulomb>
44.907

> <VdW>
0.948

> <VdW6>
-7.574

> <VdW12>
8.522

> <Bond>
0.229

> <Angle>
0.912

> <Pdih>
2.157

> <Idih>
0.000

> <Tether>
0.000

$$$$
VeraChem MOL file


 26 25  0  0  0  0  0  0  0  0999 V2000     
   17.1816   18.1642   21.4878 C   0  0  0  0  0  0  0  0  0  0  0  0
   16.3199   18.5404   22.0544 H   0  0  0  0  0  0  0  0  0  0  0  0
   16.7988   17.6348   20.6057 H   0  0  0  0  0  0  0  0  0  0  0  0
   17.7093   17.4307   22.1100 H   0  0  0  0  0  0  0  0  0  0  0  0
   18.1143   19.3208   21.0627 C   0  0  0  0  0  0  0  0  0  0  0  0
   17.5795   19.9614   20.3476 H   0  0  0  0  0  0  0  0  0  0  0  0
   18.9780   18.9190   20.5163 H   0  0  0  0  0  0  0  0  0  0  0  0
   18.5900   20.1978   22.2490 C   0  0  0  0  0  0  0  0  0  0  0  0
   19.2238   21.0063   21.8595 H   0  0  0  0  0  0  0  0  0  0  0  0
   17.7161   20.6909   22.6966 H   0  0  0  0  0  0  0  0  0  0  0  0
   19.3610   19.4468   23.3655 C   0  0  0  0  0  0  0  0  0  0  0  0
   18.7052   18.7035   23.8378 H   0  0  0  0  0  0  0  0  0  0  0  0
   19.6086   20.1727   24.1510 H   0  0  0  0  0  0  0  0  0  0  0  0
   20.6584   18.7605   22.8680 C   0  0  0  0  0  0  0  0  0  0  0  0
   20.4090   18.0129   22.1038 H   0  0  0  0  0  0  0  0  0  0  0  0
   21.3070   19.5014   22.3805 H   0  0  0  0  0  0  0  0  0  0  0  0
   21.4420   18.0524   23.9983 C   0  0  0  0  0  0  0  0  0  0  0  0
   22.2843   17.5034   23.5567 H   0  0  0  0  0  0  0  0  0  0  0  0
   20.7984   17.3051   24.4813 H   0  0  0  0  0  0  0  0  0  0  0  0
   21.9822   19.0333   25.0559 C   0  0  0  0  0  0  0  0  0  0  0  0
   22.6218   19.7778   24.5743 H   0  0  0  0  0  0  0  0  0  0  0  0
   21.1508   19.5534   25.5384 H   0  0  0  0  0  0  0  0  0  0  0  0
   22.7928   18.3502   26.1383 N   0  3  0  0  0  0  0  0  0  0  0  0
   22.2392   17.6542   26.6485 H   0  0  0  0  0  0  0  0  0  0  0  0
   23.1433   19.0199   26.8319 H   0  0  0  0  0  0  0  0  0  0  0  0
   23.6096   17.8636   25.7543 H   0  0  0  0  0  0  0  0  0  0  0  0
  1  2  1  0  0  0  0
  1  3  1  0  0  0  0
  1  4  1  0  0  0  0
  1  5  1  0  0  0  0
  5  6  1  0  0  0  0
  5  7  1  0  0  0  0
  5  8  1  0  0  0  0
  8  9  1  0  0  0  0
  8 10  1  0  0  0  0
  8 11  1  0  0  0  0
 11 12  1  0  0  0  0
 11 13  1  0  0  0  0
 11 14  1  0  0  0  0
 14 15  1  0  0  0  0
 14 16  1  0  0  0  0
 14 17  1  0  0  0  0
 17 18  1  0  0  0  0
 17 19  1  0  0  0  0
 17 20  1  0  0  0  0
 20 21  1  0  0  0  0
 20 22  1  0  0  0  0
 20 23  1  0  0  0  0
 23 24  1  0  0  0  0
 23 25  1  0  0  0  0
 23 26  1  0  0  0  0
M  END
> <VConfSearch Rank>
270

> <Conf_Id>
111

> <Delta U+W>
1.290

> <U+W>
-4.262

> <U>
49.209

> <W>
-53.471

> <W(PB)>
-55.745

> <W(SA)>
2.274

> <Valence>
3.465

> <Coulomb>
44.958

> <VdW>
0.786

> <VdW6>
-7.903

> <VdW12>
8.689

> <Bond>
0.237

> <Angle>
1.212

> <Pdih>
2.015

> <Idih>
0.000

> <Tether>
0.000

$$$$
VeraChem MOL file


 26 25  0  0  0  0  0  0  0  0999 V2000     
   22.6700   19.3268   20.3340 C   0  0  0  0  0  0  0  0  0  0  0  0
   23.4888   19.5263   21.0376 H   0  0  0  0  0  0  0  0  0  0  0  0
   22.9162   18.4164   19.7721 H   0  0  0  0  0  0  0  0  0  0  0  0
   22.6269   20.1608   19.6216 H   0  0  0  0  0  0  0  0  0  0  0  0
   21.3256   19.1746   21.0769 C   0  0  0  0  0  0  0  0  0  0  0  0
   20.5228   19.0055   20.3457 H   0  0  0  0  0  0  0  0  0  0  0  0
   21.0949   20.1166   21.5916 H   0  0  0  0  0  0  0  0  0  0  0  0
   21.3636   18.0066   22.0906 C   0  0  0  0  0  0  0  0  0  0  0  0
   21.6741   17.0911   21.5684 H   0  0  0  0  0  0  0  0  0  0  0  0
   22.1312   18.2019   22.8522 H   0  0  0  0  0  0  0  0  0  0  0  0
   20.0034   17.7398   22.7808 C   0  0  0  0  0  0  0  0  0  0  0  0
   20.0949   16.8285   23.3880 H   0  0  0  0  0  0  0  0  0  0  0  0
   19.2404   17.5274   22.0191 H   0  0  0  0  0  0  0  0  0  0  0  0
   19.5296   18.9023   23.6859 C   0  0  0  0  0  0  0  0  0  0  0  0
   20.3229   19.1475   24.4046 H   0  0  0  0  0  0  0  0  0  0  0  0
   19.3556   19.8017   23.0807 H   0  0  0  0  0  0  0  0  0  0  0  0
   18.2279   18.5444   24.4416 C   0  0  0  0  0  0  0  0  0  0  0  0
   18.3929   17.6681   25.0826 H   0  0  0  0  0  0  0  0  0  0  0  0
   17.4533   18.2609   23.7166 H   0  0  0  0  0  0  0  0  0  0  0  0
   17.6942   19.7116   25.2942 C   0  0  0  0  0  0  0  0  0  0  0  0
   17.5336   20.5876   24.6599 H   0  0  0  0  0  0  0  0  0  0  0  0
   16.7342   19.4294   25.7351 H   0  0  0  0  0  0  0  0  0  0  0  0
   18.6194   20.1136   26.4261 N   0  3  0  0  0  0  0  0  0  0  0  0
   18.2298   20.8833   26.9811 H   0  0  0  0  0  0  0  0  0  0  0  0
   19.5312   20.4260   26.0784 H   0  0  0  0  0  0  0  0  0  0  0  0
   18.7911   19.3360   27.0717 H   0  0  0  0  0  0  0  0  0  0  0  0
  1  2  1  0  0  0  0
  1  3  1  0  0  0  0
  1  4  1  0  0  0  0
  1  5  1  0  0  0  0
  5  6  1  0  0  0  0
  5  7  1  0  0  0  0
  5  8  1  0  0  0  0
  8  9  1  0  0  0  0
  8 10  1  0  0  0  0
  8 11  1  0  0  0  0
 11 12  1  0  0  0  0
 11 13  1  0  0  0  0
 11 14  1  0  0  0  0
 14 15  1  0  0  0  0
 14 16  1  0  0  0  0
 14 17  1  0  0  0  0
 17 18  1  0  0  0  0
 17 19  1  0  0  0  0
 17 20  1  0  0  0  0
 20 21  1  0  0  0  0
 20 22  1  0  0  0  0
 20 23  1  0  0  0  0
 23 24  1  0  0  0  0
 23 25  1  0  0  0  0
 23 26  1  0  0  0  0
M  END
> <VConfSearch Rank>
271

> <Conf_Id>
105

> <Delta U+W>
0.736

> <U+W>
-4.817

> <U>
48.735

> <W>
-53.552

> <W(PB)>
-55.889

> <W(SA)>
2.337

> <Valence>
2.803

> <Coulomb>
45.123

> <VdW>
0.809

> <VdW6>
-6.953

> <VdW12>
7.761

> <Bond>
0.188

> <Angle>
0.699

> <Pdih>
1.917

> <Idih>
0.000

> <Tether>
0.000

$$$$
VeraChem MOL file


 26 25  0  0  0  0  0  0  0  0999 V2000     
   18.3436   22.3022   23.1668 C   0  0  0  0  0  0  0  0  0  0  0  0
   18.4043   23.0012   24.0112 H   0  0  0  0  0  0  0  0  0  0  0  0
   19.1074   22.5869   22.4315 H   0  0  0  0  0  0  0  0  0  0  0  0
   17.3597   22.4272   22.6964 H   0  0  0  0  0  0  0  0  0  0  0  0
   18.5420   20.8454   23.6364 C   0  0  0  0  0  0  0  0  0  0  0  0
   18.4348   20.1753   22.7731 H   0  0  0  0  0  0  0  0  0  0  0  0
   17.7473   20.5799   24.3474 H   0  0  0  0  0  0  0  0  0  0  0  0
   19.9247   20.6433   24.2996 C   0  0  0  0  0  0  0  0  0  0  0  0
   20.7201   20.8687   23.5771 H   0  0  0  0  0  0  0  0  0  0  0  0
   20.0409   21.3749   25.1111 H   0  0  0  0  0  0  0  0  0  0  0  0
   20.1294   19.2244   24.8911 C   0  0  0  0  0  0  0  0  0  0  0  0
   19.4034   19.0701   25.7013 H   0  0  0  0  0  0  0  0  0  0  0  0
   21.1200   19.1796   25.3643 H   0  0  0  0  0  0  0  0  0  0  0  0
   20.0021   18.0546   23.8809 C   0  0  0  0  0  0  0  0  0  0  0  0
   20.1524   17.1158   24.4300 H   0  0  0  0  0  0  0  0  0  0  0  0
   18.9792   18.0106   23.4840 H   0  0  0  0  0  0  0  0  0  0  0  0
   21.0144   18.1336   22.7108 C   0  0  0  0  0  0  0  0  0  0  0  0
   22.0384   18.1975   23.1022 H   0  0  0  0  0  0  0  0  0  0  0  0
   20.8408   19.0492   22.1318 H   0  0  0  0  0  0  0  0  0  0  0  0
   20.9049   16.9354   21.7482 C   0  0  0  0  0  0  0  0  0  0  0  0
   19.8813   16.8579   21.3717 H   0  0  0  0  0  0  0  0  0  0  0  0
   21.5705   17.0942   20.8954 H   0  0  0  0  0  0  0  0  0  0  0  0
   21.2769   15.6076   22.3787 N   0  3  0  0  0  0  0  0  0  0  0  0
   20.6645   15.3764   23.1669 H   0  0  0  0  0  0  0  0  0  0  0  0
   22.2389   15.6108   22.7330 H   0  0  0  0  0  0  0  0  0  0  0  0
   21.2073   14.8348   21.7078 H   0  0  0  0  0  0  0  0  0  0  0  0
  1  2  1  0  0  0  0
  1  3  1  0  0  0  0
  1  4  1  0  0  0  0
  1  5  1  0  0  0  0
  5  6  1  0  0  0  0
  5  7  1  0  0  0  0
  5  8  1  0  0  0  0
  8  9  1  0  0  0  0
  8 10  1  0  0  0  0
  8 11  1  0  0  0  0
 11 12  1  0  0  0  0
 11 13  1  0  0  0  0
 11 14  1  0  0  0  0
 14 15  1  0  0  0  0
 14 16  1  0  0  0  0
 14 17  1  0  0  0  0
 17 18  1  0  0  0  0
 17 19  1  0  0  0  0
 17 20  1  0  0  0  0
 20 21  1  0  0  0  0
 20 22  1  0  0  0  0
 20 23  1  0  0  0  0
 23 24  1  0  0  0  0
 23 25  1  0  0  0  0
 23 26  1  0  0  0  0
M  END
> <VConfSearch Rank>
272

> <Conf_Id>
144

> <Delta U+W>
1.073

> <U+W>
-4.479

> <U>
49.231

> <W>
-53.710

> <W(PB)>
-55.983

> <W(SA)>
2.273

> <Valence>
3.276

> <Coulomb>
45.175

> <VdW>
0.779

> <VdW6>
-7.944

> <VdW12>
8.723

> <Bond>
0.239

> <Angle>
1.155

> <Pdih>
1.883

> <Idih>
0.000

> <Tether>
0.000

$$$$
VeraChem MOL file


 26 25  0  0  0  0  0  0  0  0999 V2000     
   16.9208   17.7219   21.6081 C   0  0  0  0  0  0  0  0  0  0  0  0
   17.5555   17.1337   20.9343 H   0  0  0  0  0  0  0  0  0  0  0  0
   15.9357   17.2384   21.6369 H   0  0  0  0  0  0  0  0  0  0  0  0
   16.7908   18.7216   21.1737 H   0  0  0  0  0  0  0  0  0  0  0  0
   17.5218   17.8073   23.0298 C   0  0  0  0  0  0  0  0  0  0  0  0
   17.6745   16.7951   23.4298 H   0  0  0  0  0  0  0  0  0  0  0  0
   16.7900   18.2916   23.6913 H   0  0  0  0  0  0  0  0  0  0  0  0
   18.8483   18.6028   23.0944 C   0  0  0  0  0  0  0  0  0  0  0  0
   18.6957   19.6064   22.6742 H   0  0  0  0  0  0  0  0  0  0  0  0
   19.1048   18.7369   24.1527 H   0  0  0  0  0  0  0  0  0  0  0  0
   20.0254   17.9009   22.3726 C   0  0  0  0  0  0  0  0  0  0  0  0
   19.7371   17.6709   21.3392 H   0  0  0  0  0  0  0  0  0  0  0  0
   20.2241   16.9347   22.8563 H   0  0  0  0  0  0  0  0  0  0  0  0
   21.3350   18.7303   22.3211 C   0  0  0  0  0  0  0  0  0  0  0  0
   22.0739   18.1465   21.7548 H   0  0  0  0  0  0  0  0  0  0  0  0
   21.1763   19.6502   21.7412 H   0  0  0  0  0  0  0  0  0  0  0  0
   21.9482   19.0729   23.7023 C   0  0  0  0  0  0  0  0  0  0  0  0
   23.0360   19.1707   23.5874 H   0  0  0  0  0  0  0  0  0  0  0  0
   21.7840   18.2449   24.4047 H   0  0  0  0  0  0  0  0  0  0  0  0
   21.4098   20.3918   24.2907 C   0  0  0  0  0  0  0  0  0  0  0  0
   21.6285   21.2144   23.6045 H   0  0  0  0  0  0  0  0  0  0  0  0
   20.3274   20.3358   24.4201 H   0  0  0  0  0  0  0  0  0  0  0  0
   22.0200   20.7323   25.6349 N   0  3  0  0  0  0  0  0  0  0  0  0
   23.0386   20.8335   25.5772 H   0  0  0  0  0  0  0  0  0  0  0  0
   21.8280   20.0093   26.3361 H   0  0  0  0  0  0  0  0  0  0  0  0
   21.6532   21.6149   26.0075 H   0  0  0  0  0  0  0  0  0  0  0  0
  1  2  1  0  0  0  0
  1  3  1  0  0  0  0
  1  4  1  0  0  0  0
  1  5  1  0  0  0  0
  5  6  1  0  0  0  0
  5  7  1  0  0  0  0
  5  8  1  0  0  0  0
  8  9  1  0  0  0  0
  8 10  1  0  0  0  0
  8 11  1  0  0  0  0
 11 12  1  0  0  0  0
 11 13  1  0  0  0  0
 11 14  1  0  0  0  0
 14 15  1  0  0  0  0
 14 16  1  0  0  0  0
 14 17  1  0  0  0  0
 17 18  1  0  0  0  0
 17 19  1  0  0  0  0
 17 20  1  0  0  0  0
 20 21  1  0  0  0  0
 20 22  1  0  0  0  0
 20 23  1  0  0  0  0
 23 24  1  0  0  0  0
 23 25  1  0  0  0  0
 23 26  1  0  0  0  0
M  END
> <VConfSearch Rank>
273

> <Conf_Id>
93

> <Delta U+W>
3.253

> <U+W>
-2.300

> <U>
51.609

> <W>
-53.909

> <W(PB)>
-56.178

> <W(SA)>
2.270

> <Valence>
5.204

> <Coulomb>
45.645

> <VdW>
0.760

> <VdW6>
-7.997

> <VdW12>
8.758

> <Bond>
0.240

> <Angle>
1.456

> <Pdih>
3.507

> <Idih>
0.000

> <Tether>
0.000

$$$$
VeraChem MOL file


 26 25  0  0  0  0  0  0  0  0999 V2000     
   16.8690   20.5911   22.4924 C   0  0  0  0  0  0  0  0  0  0  0  0
   16.9850   21.1910   23.4032 H   0  0  0  0  0  0  0  0  0  0  0  0
   17.3625   21.1198   21.6666 H   0  0  0  0  0  0  0  0  0  0  0  0
   15.7961   20.5425   22.2655 H   0  0  0  0  0  0  0  0  0  0  0  0
   17.4486   19.1688   22.6672 C   0  0  0  0  0  0  0  0  0  0  0  0
   17.1918   18.5739   21.7795 H   0  0  0  0  0  0  0  0  0  0  0  0
   16.9642   18.6725   23.5197 H   0  0  0  0  0  0  0  0  0  0  0  0
   18.9857   19.1448   22.8500 C   0  0  0  0  0  0  0  0  0  0  0  0
   19.3097   18.0974   22.8076 H   0  0  0  0  0  0  0  0  0  0  0  0
   19.4641   19.6604   22.0060 H   0  0  0  0  0  0  0  0  0  0  0  0
   19.4586   19.7679   24.1869 C   0  0  0  0  0  0  0  0  0  0  0  0
   19.0420   19.1912   25.0241 H   0  0  0  0  0  0  0  0  0  0  0  0
   19.0515   20.7823   24.2831 H   0  0  0  0  0  0  0  0  0  0  0  0
   20.9988   19.8634   24.3430 C   0  0  0  0  0  0  0  0  0  0  0  0
   21.4150   20.5305   23.5753 H   0  0  0  0  0  0  0  0  0  0  0  0
   21.2037   20.3539   25.3048 H   0  0  0  0  0  0  0  0  0  0  0  0
   21.7444   18.5052   24.3266 C   0  0  0  0  0  0  0  0  0  0  0  0
   21.1341   17.7329   24.8134 H   0  0  0  0  0  0  0  0  0  0  0  0
   22.6592   18.6012   24.9267 H   0  0  0  0  0  0  0  0  0  0  0  0
   22.1487   18.0563   22.9086 C   0  0  0  0  0  0  0  0  0  0  0  0
   21.2643   17.9495   22.2778 H   0  0  0  0  0  0  0  0  0  0  0  0
   22.7993   18.8106   22.4580 H   0  0  0  0  0  0  0  0  0  0  0  0
   22.8893   16.7347   22.8953 N   0  3  0  0  0  0  0  0  0  0  0  0
   23.7536   16.7759   23.4453 H   0  0  0  0  0  0  0  0  0  0  0  0
   23.1539   16.4556   21.9443 H   0  0  0  0  0  0  0  0  0  0  0  0
   22.3213   15.9742   23.2827 H   0  0  0  0  0  0  0  0  0  0  0  0
  1  2  1  0  0  0  0
  1  3  1  0  0  0  0
  1  4  1  0  0  0  0
  1  5  1  0  0  0  0
  5  6  1  0  0  0  0
  5  7  1  0  0  0  0
  5  8  1  0  0  0  0
  8  9  1  0  0  0  0
  8 10  1  0  0  0  0
  8 11  1  0  0  0  0
 11 12  1  0  0  0  0
 11 13  1  0  0  0  0
 11 14  1  0  0  0  0
 14 15  1  0  0  0  0
 14 16  1  0  0  0  0
 14 17  1  0  0  0  0
 17 18  1  0  0  0  0
 17 19  1  0  0  0  0
 17 20  1  0  0  0  0
 20 21  1  0  0  0  0
 20 22  1  0  0  0  0
 20 23  1  0  0  0  0
 23 24  1  0  0  0  0
 23 25  1  0  0  0  0
 23 26  1  0  0  0  0
M  END
> <VConfSearch Rank>
274

> <Conf_Id>
94

> <Delta U+W>
3.247

> <U+W>
-2.305

> <U>
51.609

> <W>
-53.914

> <W(PB)>
-56.221

> <W(SA)>
2.307

> <Valence>
5.204

> <Coulomb>
45.645

> <VdW>
0.760

> <VdW6>
-7.997

> <VdW12>
8.757

> <Bond>
0.240

> <Angle>
1.456

> <Pdih>
3.508

> <Idih>
0.000

> <Tether>
0.000

$$$$
VeraChem MOL file


 26 25  0  0  0  0  0  0  0  0999 V2000     
   23.1541   19.9392   25.7662 C   0  0  0  0  0  0  0  0  0  0  0  0
   22.6565   20.0861   26.7336 H   0  0  0  0  0  0  0  0  0  0  0  0
   23.5525   18.9166   25.7383 H   0  0  0  0  0  0  0  0  0  0  0  0
   24.0032   20.6331   25.7152 H   0  0  0  0  0  0  0  0  0  0  0  0
   22.1775   20.1863   24.5968 C   0  0  0  0  0  0  0  0  0  0  0  0
   22.7118   20.0655   23.6440 H   0  0  0  0  0  0  0  0  0  0  0  0
   21.8226   21.2259   24.6317 H   0  0  0  0  0  0  0  0  0  0  0  0
   20.9719   19.2217   24.6449 C   0  0  0  0  0  0  0  0  0  0  0  0
   21.3316   18.1840   24.6119 H   0  0  0  0  0  0  0  0  0  0  0  0
   20.4430   19.3444   25.6002 H   0  0  0  0  0  0  0  0  0  0  0  0
   19.9914   19.4664   23.4757 C   0  0  0  0  0  0  0  0  0  0  0  0
   20.5284   19.3496   22.5250 H   0  0  0  0  0  0  0  0  0  0  0  0
   19.6298   20.5034   23.5121 H   0  0  0  0  0  0  0  0  0  0  0  0
   18.7858   18.4974   23.5252 C   0  0  0  0  0  0  0  0  0  0  0  0
   19.1402   17.4598   23.4643 H   0  0  0  0  0  0  0  0  0  0  0  0
   18.2874   18.5925   24.4999 H   0  0  0  0  0  0  0  0  0  0  0  0
   17.7427   18.7645   22.4111 C   0  0  0  0  0  0  0  0  0  0  0  0
   17.3313   19.7750   22.5355 H   0  0  0  0  0  0  0  0  0  0  0  0
   16.8980   18.0734   22.5316 H   0  0  0  0  0  0  0  0  0  0  0  0
   18.3031   18.6315   20.9805 C   0  0  0  0  0  0  0  0  0  0  0  0
   17.5141   18.8606   20.2591 H   0  0  0  0  0  0  0  0  0  0  0  0
   19.1155   19.3478   20.8331 H   0  0  0  0  0  0  0  0  0  0  0  0
   18.8328   17.2476   20.6611 N   0  3  0  0  0  0  0  0  0  0  0  0
   18.1054   16.5312   20.7541 H   0  0  0  0  0  0  0  0  0  0  0  0
   19.6004   16.9837   21.2865 H   0  0  0  0  0  0  0  0  0  0  0  0
   19.1910   17.1885   19.7017 H   0  0  0  0  0  0  0  0  0  0  0  0
  1  2  1  0  0  0  0
  1  3  1  0  0  0  0
  1  4  1  0  0  0  0
  1  5  1  0  0  0  0
  5  6  1  0  0  0  0
  5  7  1  0  0  0  0
  5  8  1  0  0  0  0
  8  9  1  0  0  0  0
  8 10  1  0  0  0  0
  8 11  1  0  0  0  0
 11 12  1  0  0  0  0
 11 13  1  0  0  0  0
 11 14  1  0  0  0  0
 14 15  1  0  0  0  0
 14 16  1  0  0  0  0
 14 17  1  0  0  0  0
 17 18  1  0  0  0  0
 17 19  1  0  0  0  0
 17 20  1  0  0  0  0
 20 21  1  0  0  0  0
 20 22  1  0  0  0  0
 20 23  1  0  0  0  0
 23 24  1  0  0  0  0
 23 25  1  0  0  0  0
 23 26  1  0  0  0  0
M  END
> <VConfSearch Rank>
275

> <Conf_Id>
83

> <Delta U+W>
0.559

> <U+W>
-4.994

> <U>
48.668

> <W>
-53.661

> <W(PB)>
-55.972

> <W(SA)>
2.311

> <Valence>
2.543

> <Coulomb>
45.478

> <VdW>
0.646

> <VdW6>
-7.096

> <VdW12>
7.742

> <Bond>
0.176

> <Angle>
0.630

> <Pdih>
1.738

> <Idih>
0.000

> <Tether>
0.000

$$$$
VeraChem MOL file


 26 25  0  0  0  0  0  0  0  0999 V2000     
   19.1981   18.5698   27.0845 C   0  0  0  0  0  0  0  0  0  0  0  0
   19.9896   18.2227   27.7614 H   0  0  0  0  0  0  0  0  0  0  0  0
   19.0169   19.6335   27.2871 H   0  0  0  0  0  0  0  0  0  0  0  0
   18.2805   18.0191   27.3291 H   0  0  0  0  0  0  0  0  0  0  0  0
   19.5913   18.3457   25.6089 C   0  0  0  0  0  0  0  0  0  0  0  0
   18.7602   18.6660   24.9669 H   0  0  0  0  0  0  0  0  0  0  0  0
   19.7370   17.2712   25.4301 H   0  0  0  0  0  0  0  0  0  0  0  0
   20.8807   19.1165   25.2393 C   0  0  0  0  0  0  0  0  0  0  0  0
   20.7167   20.1954   25.3665 H   0  0  0  0  0  0  0  0  0  0  0  0
   21.6757   18.8406   25.9458 H   0  0  0  0  0  0  0  0  0  0  0  0
   21.3829   18.8335   23.8020 C   0  0  0  0  0  0  0  0  0  0  0  0
   21.5604   17.7560   23.6801 H   0  0  0  0  0  0  0  0  0  0  0  0
   22.3581   19.3230   23.6729 H   0  0  0  0  0  0  0  0  0  0  0  0
   20.4182   19.3323   22.6993 C   0  0  0  0  0  0  0  0  0  0  0  0
   19.4634   18.7972   22.7739 H   0  0  0  0  0  0  0  0  0  0  0  0
   20.2021   20.3983   22.8556 H   0  0  0  0  0  0  0  0  0  0  0  0
   21.0127   19.1298   21.2853 C   0  0  0  0  0  0  0  0  0  0  0  0
   21.2072   18.0637   21.1080 H   0  0  0  0  0  0  0  0  0  0  0  0
   21.9830   19.6401   21.2218 H   0  0  0  0  0  0  0  0  0  0  0  0
   20.1006   19.6788   20.1712 C   0  0  0  0  0  0  0  0  0  0  0  0
   19.8985   20.7384   20.3495 H   0  0  0  0  0  0  0  0  0  0  0  0
   20.6094   19.5863   19.2078 H   0  0  0  0  0  0  0  0  0  0  0  0
   18.7712   18.9583   20.0593 N   0  3  0  0  0  0  0  0  0  0  0  0
   18.2223   19.0379   20.9209 H   0  0  0  0  0  0  0  0  0  0  0  0
   18.8948   17.9585   19.8692 H   0  0  0  0  0  0  0  0  0  0  0  0
   18.1952   19.3384   19.3003 H   0  0  0  0  0  0  0  0  0  0  0  0
  1  2  1  0  0  0  0
  1  3  1  0  0  0  0
  1  4  1  0  0  0  0
  1  5  1  0  0  0  0
  5  6  1  0  0  0  0
  5  7  1  0  0  0  0
  5  8  1  0  0  0  0
  8  9  1  0  0  0  0
  8 10  1  0  0  0  0
  8 11  1  0  0  0  0
 11 12  1  0  0  0  0
 11 13  1  0  0  0  0
 11 14  1  0  0  0  0
 14 15  1  0  0  0  0
 14 16  1  0  0  0  0
 14 17  1  0  0  0  0
 17 18  1  0  0  0  0
 17 19  1  0  0  0  0
 17 20  1  0  0  0  0
 20 21  1  0  0  0  0
 20 22  1  0  0  0  0
 20 23  1  0  0  0  0
 23 24  1  0  0  0  0
 23 25  1  0  0  0  0
 23 26  1  0  0  0  0
M  END
> <VConfSearch Rank>
276

> <Conf_Id>
18

> <Delta U+W>
0.759

> <U+W>
-4.793

> <U>
48.945

> <W>
-53.738

> <W(PB)>
-56.051

> <W(SA)>
2.313

> <Valence>
2.802

> <Coulomb>
45.335

> <VdW>
0.807

> <VdW6>
-6.962

> <VdW12>
7.769

> <Bond>
0.189

> <Angle>
0.696

> <Pdih>
1.917

> <Idih>
0.000

> <Tether>
0.000

$$$$
VeraChem MOL file


 26 25  0  0  0  0  0  0  0  0999 V2000     
   23.6270   18.8636   24.6291 C   0  0  0  0  0  0  0  0  0  0  0  0
   24.1190   19.0459   23.6648 H   0  0  0  0  0  0  0  0  0  0  0  0
   23.9235   19.6629   25.3208 H   0  0  0  0  0  0  0  0  0  0  0  0
   24.0082   17.9147   25.0280 H   0  0  0  0  0  0  0  0  0  0  0  0
   22.0930   18.8097   24.4673 C   0  0  0  0  0  0  0  0  0  0  0  0
   21.6313   18.5973   25.4417 H   0  0  0  0  0  0  0  0  0  0  0  0
   21.8346   17.9745   23.8031 H   0  0  0  0  0  0  0  0  0  0  0  0
   21.5326   20.1362   23.9016 C   0  0  0  0  0  0  0  0  0  0  0  0
   21.8719   20.9660   24.5369 H   0  0  0  0  0  0  0  0  0  0  0  0
   21.9535   20.3205   22.9036 H   0  0  0  0  0  0  0  0  0  0  0  0
   19.9863   20.1759   23.8286 C   0  0  0  0  0  0  0  0  0  0  0  0
   19.6792   21.1888   23.5334 H   0  0  0  0  0  0  0  0  0  0  0  0
   19.5664   20.0060   24.8296 H   0  0  0  0  0  0  0  0  0  0  0  0
   19.3868   19.1563   22.8304 C   0  0  0  0  0  0  0  0  0  0  0  0
   19.8477   19.2955   21.8426 H   0  0  0  0  0  0  0  0  0  0  0  0
   19.6267   18.1363   23.1553 H   0  0  0  0  0  0  0  0  0  0  0  0
   17.8522   19.3102   22.7083 C   0  0  0  0  0  0  0  0  0  0  0  0
   17.6119   20.3402   22.4129 H   0  0  0  0  0  0  0  0  0  0  0  0
   17.3786   19.1459   23.6854 H   0  0  0  0  0  0  0  0  0  0  0  0
   17.2377   18.3508   21.6708 C   0  0  0  0  0  0  0  0  0  0  0  0
   16.1705   18.5649   21.5666 H   0  0  0  0  0  0  0  0  0  0  0  0
   17.7130   18.5065   20.6985 H   0  0  0  0  0  0  0  0  0  0  0  0
   17.3787   16.8856   22.0345 N   0  3  0  0  0  0  0  0  0  0  0  0
   16.9310   16.6713   22.9315 H   0  0  0  0  0  0  0  0  0  0  0  0
   18.3615   16.6062   22.1113 H   0  0  0  0  0  0  0  0  0  0  0  0
   16.9474   16.2759   21.3313 H   0  0  0  0  0  0  0  0  0  0  0  0
  1  2  1  0  0  0  0
  1  3  1  0  0  0  0
  1  4  1  0  0  0  0
  1  5  1  0  0  0  0
  5  6  1  0  0  0  0
  5  7  1  0  0  0  0
  5  8  1  0  0  0  0
  8  9  1  0  0  0  0
  8 10  1  0  0  0  0
  8 11  1  0  0  0  0
 11 12  1  0  0  0  0
 11 13  1  0  0  0  0
 11 14  1  0  0  0  0
 14 15  1  0  0  0  0
 14 16  1  0  0  0  0
 14 17  1  0  0  0  0
 17 18  1  0  0  0  0
 17 19  1  0  0  0  0
 17 20  1  0  0  0  0
 20 21  1  0  0  0  0
 20 22  1  0  0  0  0
 20 23  1  0  0  0  0
 23 24  1  0  0  0  0
 23 25  1  0  0  0  0
 23 26  1  0  0  0  0
M  END
> <VConfSearch Rank>
277

> <Conf_Id>
17

> <Delta U+W>
0.843

> <U+W>
-4.709

> <U>
48.945

> <W>
-53.653

> <W(PB)>
-55.991

> <W(SA)>
2.338

> <Valence>
2.802

> <Coulomb>
45.335

> <VdW>
0.807

> <VdW6>
-6.962

> <VdW12>
7.769

> <Bond>
0.189

> <Angle>
0.696

> <Pdih>
1.917

> <Idih>
0.000

> <Tether>
0.000

$$$$
VeraChem MOL file


 26 25  0  0  0  0  0  0  0  0999 V2000     
   18.8649   21.0872   20.8657 C   0  0  0  0  0  0  0  0  0  0  0  0
   18.2931   20.1884   21.1276 H   0  0  0  0  0  0  0  0  0  0  0  0
   18.6178   21.8756   21.5885 H   0  0  0  0  0  0  0  0  0  0  0  0
   18.5226   21.4190   19.8770 H   0  0  0  0  0  0  0  0  0  0  0  0
   20.3849   20.8079   20.8459 C   0  0  0  0  0  0  0  0  0  0  0  0
   20.9030   21.6970   20.4599 H   0  0  0  0  0  0  0  0  0  0  0  0
   20.6022   19.9948   20.1391 H   0  0  0  0  0  0  0  0  0  0  0  0
   20.9656   20.4606   22.2380 C   0  0  0  0  0  0  0  0  0  0  0  0
   22.0586   20.3895   22.1514 H   0  0  0  0  0  0  0  0  0  0  0  0
   20.7639   21.2851   22.9356 H   0  0  0  0  0  0  0  0  0  0  0  0
   20.4173   19.1366   22.8224 C   0  0  0  0  0  0  0  0  0  0  0  0
   20.5772   18.3240   22.1004 H   0  0  0  0  0  0  0  0  0  0  0  0
   19.3339   19.2226   22.9729 H   0  0  0  0  0  0  0  0  0  0  0  0
   21.1000   18.7774   24.1641 C   0  0  0  0  0  0  0  0  0  0  0  0
   22.1880   18.7346   24.0162 H   0  0  0  0  0  0  0  0  0  0  0  0
   20.9174   19.5746   24.8980 H   0  0  0  0  0  0  0  0  0  0  0  0
   20.6258   17.4240   24.7438 C   0  0  0  0  0  0  0  0  0  0  0  0
   21.2150   17.1951   25.6418 H   0  0  0  0  0  0  0  0  0  0  0  0
   20.8286   16.6218   24.0218 H   0  0  0  0  0  0  0  0  0  0  0  0
   19.1298   17.4246   25.1107 C   0  0  0  0  0  0  0  0  0  0  0  0
   18.9278   18.2228   25.8300 H   0  0  0  0  0  0  0  0  0  0  0  0
   18.5291   17.6068   24.2159 H   0  0  0  0  0  0  0  0  0  0  0  0
   18.6687   16.1170   25.7213 N   0  3  0  0  0  0  0  0  0  0  0  0
   17.6709   16.1380   25.9583 H   0  0  0  0  0  0  0  0  0  0  0  0
   19.1760   15.8989   26.5852 H   0  0  0  0  0  0  0  0  0  0  0  0
   18.8072   15.3271   25.0825 H   0  0  0  0  0  0  0  0  0  0  0  0
  1  2  1  0  0  0  0
  1  3  1  0  0  0  0
  1  4  1  0  0  0  0
  1  5  1  0  0  0  0
  5  6  1  0  0  0  0
  5  7  1  0  0  0  0
  5  8  1  0  0  0  0
  8  9  1  0  0  0  0
  8 10  1  0  0  0  0
  8 11  1  0  0  0  0
 11 12  1  0  0  0  0
 11 13  1  0  0  0  0
 11 14  1  0  0  0  0
 14 15  1  0  0  0  0
 14 16  1  0  0  0  0
 14 17  1  0  0  0  0
 17 18  1  0  0  0  0
 17 19  1  0  0  0  0
 17 20  1  0  0  0  0
 20 21  1  0  0  0  0
 20 22  1  0  0  0  0
 20 23  1  0  0  0  0
 23 24  1  0  0  0  0
 23 25  1  0  0  0  0
 23 26  1  0  0  0  0
M  END
> <VConfSearch Rank>
278

> <Conf_Id>
96

> <Delta U+W>
0.912

> <U+W>
-4.640

> <U>
48.723

> <W>
-53.364

> <W(PB)>
-55.683

> <W(SA)>
2.320

> <Valence>
2.962

> <Coulomb>
44.993

> <VdW>
0.768

> <VdW6>
-7.008

> <VdW12>
7.776

> <Bond>
0.188

> <Angle>
0.757

> <Pdih>
2.018

> <Idih>
0.000

> <Tether>
0.000

$$$$
VeraChem MOL file


 26 25  0  0  0  0  0  0  0  0999 V2000     
   22.0340   21.7322   24.0957 C   0  0  0  0  0  0  0  0  0  0  0  0
   22.9397   22.2908   24.3653 H   0  0  0  0  0  0  0  0  0  0  0  0
   21.1681   22.3694   24.3178 H   0  0  0  0  0  0  0  0  0  0  0  0
   21.9868   20.8487   24.7442 H   0  0  0  0  0  0  0  0  0  0  0  0
   22.0660   21.3391   22.6013 C   0  0  0  0  0  0  0  0  0  0  0  0
   22.9224   20.6770   22.4115 H   0  0  0  0  0  0  0  0  0  0  0  0
   22.2381   22.2436   22.0012 H   0  0  0  0  0  0  0  0  0  0  0  0
   20.7623   20.6614   22.1146 C   0  0  0  0  0  0  0  0  0  0  0  0
   19.9119   21.3353   22.2878 H   0  0  0  0  0  0  0  0  0  0  0  0
   20.8283   20.5205   21.0269 H   0  0  0  0  0  0  0  0  0  0  0  0
   20.4899   19.2940   22.7863 C   0  0  0  0  0  0  0  0  0  0  0  0
   20.3581   19.4354   23.8663 H   0  0  0  0  0  0  0  0  0  0  0  0
   21.3628   18.6404   22.6527 H   0  0  0  0  0  0  0  0  0  0  0  0
   19.2349   18.6069   22.1965 C   0  0  0  0  0  0  0  0  0  0  0  0
   18.3542   19.2450   22.3545 H   0  0  0  0  0  0  0  0  0  0  0  0
   19.3548   18.5068   21.1088 H   0  0  0  0  0  0  0  0  0  0  0  0
   18.9710   17.2057   22.7964 C   0  0  0  0  0  0  0  0  0  0  0  0
   19.8404   16.5587   22.6192 H   0  0  0  0  0  0  0  0  0  0  0  0
   18.1244   16.7462   22.2690 H   0  0  0  0  0  0  0  0  0  0  0  0
   18.6588   17.2524   24.3040 C   0  0  0  0  0  0  0  0  0  0  0  0
   19.5124   17.6668   24.8464 H   0  0  0  0  0  0  0  0  0  0  0  0
   17.7928   17.8961   24.4805 H   0  0  0  0  0  0  0  0  0  0  0  0
   18.3546   15.8883   24.8888 N   0  3  0  0  0  0  0  0  0  0  0  0
   19.1422   15.2411   24.7788 H   0  0  0  0  0  0  0  0  0  0  0  0
   17.5416   15.4532   24.4407 H   0  0  0  0  0  0  0  0  0  0  0  0
   18.1494   15.9411   25.8925 H   0  0  0  0  0  0  0  0  0  0  0  0
  1  2  1  0  0  0  0
  1  3  1  0  0  0  0
  1  4  1  0  0  0  0
  1  5  1  0  0  0  0
  5  6  1  0  0  0  0
  5  7  1  0  0  0  0
  5  8  1  0  0  0  0
  8  9  1  0  0  0  0
  8 10  1  0  0  0  0
  8 11  1  0  0  0  0
 11 12  1  0  0  0  0
 11 13  1  0  0  0  0
 11 14  1  0  0  0  0
 14 15  1  0  0  0  0
 14 16  1  0  0  0  0
 14 17  1  0  0  0  0
 17 18  1  0  0  0  0
 17 19  1  0  0  0  0
 17 20  1  0  0  0  0
 20 21  1  0  0  0  0
 20 22  1  0  0  0  0
 20 23  1  0  0  0  0
 23 24  1  0  0  0  0
 23 25  1  0  0  0  0
 23 26  1  0  0  0  0
M  END
> <VConfSearch Rank>
279

> <Conf_Id>
133

> <Delta U+W>
0.844

> <U+W>
-4.708

> <U>
48.723

> <W>
-53.431

> <W(PB)>
-55.776

> <W(SA)>
2.344

> <Valence>
2.962

> <Coulomb>
44.993

> <VdW>
0.768

> <VdW6>
-7.008

> <VdW12>
7.776

> <Bond>
0.188

> <Angle>
0.756

> <Pdih>
2.018

> <Idih>
0.000

> <Tether>
0.000

$$$$
VeraChem MOL file


 26 25  0  0  0  0  0  0  0  0999 V2000     
   22.2905   17.1525   24.9772 C   0  0  0  0  0  0  0  0  0  0  0  0
   22.2459   16.0575   24.9150 H   0  0  0  0  0  0  0  0  0  0  0  0
   22.3385   17.5536   23.9571 H   0  0  0  0  0  0  0  0  0  0  0  0
   23.2265   17.4228   25.4828 H   0  0  0  0  0  0  0  0  0  0  0  0
   21.0759   17.7148   25.7497 C   0  0  0  0  0  0  0  0  0  0  0  0
   21.1318   18.8111   25.7815 H   0  0  0  0  0  0  0  0  0  0  0  0
   21.1365   17.3811   26.7950 H   0  0  0  0  0  0  0  0  0  0  0  0
   19.7121   17.2641   25.1670 C   0  0  0  0  0  0  0  0  0  0  0  0
   19.6301   16.1724   25.2601 H   0  0  0  0  0  0  0  0  0  0  0  0
   18.9071   17.6798   25.7886 H   0  0  0  0  0  0  0  0  0  0  0  0
   19.4605   17.6567   23.6881 C   0  0  0  0  0  0  0  0  0  0  0  0
   18.4774   17.2669   23.3904 H   0  0  0  0  0  0  0  0  0  0  0  0
   20.1920   17.1577   23.0387 H   0  0  0  0  0  0  0  0  0  0  0  0
   19.4937   19.1837   23.4388 C   0  0  0  0  0  0  0  0  0  0  0  0
   18.7930   19.6830   24.1222 H   0  0  0  0  0  0  0  0  0  0  0  0
   20.4941   19.5775   23.6626 H   0  0  0  0  0  0  0  0  0  0  0  0
   19.1291   19.5348   21.9796 C   0  0  0  0  0  0  0  0  0  0  0  0
   18.1250   19.1555   21.7472 H   0  0  0  0  0  0  0  0  0  0  0  0
   19.8285   19.0378   21.2941 H   0  0  0  0  0  0  0  0  0  0  0  0
   19.1697   21.0542   21.7394 C   0  0  0  0  0  0  0  0  0  0  0  0
   18.4629   21.5518   22.4089 H   0  0  0  0  0  0  0  0  0  0  0  0
   20.1723   21.4342   21.9535 H   0  0  0  0  0  0  0  0  0  0  0  0
   18.8174   21.4399   20.3172 N   0  3  0  0  0  0  0  0  0  0  0  0
   18.8503   22.4558   20.1787 H   0  0  0  0  0  0  0  0  0  0  0  0
   17.8726   21.1345   20.0613 H   0  0  0  0  0  0  0  0  0  0  0  0
   19.4632   21.0250   19.6375 H   0  0  0  0  0  0  0  0  0  0  0  0
  1  2  1  0  0  0  0
  1  3  1  0  0  0  0
  1  4  1  0  0  0  0
  1  5  1  0  0  0  0
  5  6  1  0  0  0  0
  5  7  1  0  0  0  0
  5  8  1  0  0  0  0
  8  9  1  0  0  0  0
  8 10  1  0  0  0  0
  8 11  1  0  0  0  0
 11 12  1  0  0  0  0
 11 13  1  0  0  0  0
 11 14  1  0  0  0  0
 14 15  1  0  0  0  0
 14 16  1  0  0  0  0
 14 17  1  0  0  0  0
 17 18  1  0  0  0  0
 17 19  1  0  0  0  0
 17 20  1  0  0  0  0
 20 21  1  0  0  0  0
 20 22  1  0  0  0  0
 20 23  1  0  0  0  0
 23 24  1  0  0  0  0
 23 25  1  0  0  0  0
 23 26  1  0  0  0  0
M  END
> <VConfSearch Rank>
280

> <Conf_Id>
106

> <Delta U+W>
0.767

> <U+W>
-4.785

> <U>
48.494

> <W>
-53.279

> <W(PB)>
-55.569

> <W(SA)>
2.290

> <Valence>
3.117

> <Coulomb>
44.693

> <VdW>
0.684

> <VdW6>
-7.347

> <VdW12>
8.030

> <Bond>
0.208

> <Angle>
1.039

> <Pdih>
1.870

> <Idih>
0.000

> <Tether>
0.000

$$$$
VeraChem MOL file


 26 25  0  0  0  0  0  0  0  0999 V2000     
   22.1441   15.4311   21.4444 C   0  0  0  0  0  0  0  0  0  0  0  0
   21.3504   15.1988   20.7223 H   0  0  0  0  0  0  0  0  0  0  0  0
   22.9046   16.0363   20.9337 H   0  0  0  0  0  0  0  0  0  0  0  0
   22.6128   14.4853   21.7458 H   0  0  0  0  0  0  0  0  0  0  0  0
   21.5768   16.1739   22.6726 C   0  0  0  0  0  0  0  0  0  0  0  0
   22.3869   16.3621   23.3911 H   0  0  0  0  0  0  0  0  0  0  0  0
   20.8448   15.5310   23.1813 H   0  0  0  0  0  0  0  0  0  0  0  0
   20.9107   17.5100   22.2758 C   0  0  0  0  0  0  0  0  0  0  0  0
   21.6454   18.1481   21.7655 H   0  0  0  0  0  0  0  0  0  0  0  0
   20.1032   17.3170   21.5559 H   0  0  0  0  0  0  0  0  0  0  0  0
   20.3414   18.2569   23.5031 C   0  0  0  0  0  0  0  0  0  0  0  0
   21.1495   18.4493   24.2225 H   0  0  0  0  0  0  0  0  0  0  0  0
   19.6071   17.6179   24.0131 H   0  0  0  0  0  0  0  0  0  0  0  0
   19.6750   19.5935   23.1055 C   0  0  0  0  0  0  0  0  0  0  0  0
   20.4090   20.2329   22.5955 H   0  0  0  0  0  0  0  0  0  0  0  0
   18.8666   19.4015   22.3862 H   0  0  0  0  0  0  0  0  0  0  0  0
   19.1058   20.3406   24.3318 C   0  0  0  0  0  0  0  0  0  0  0  0
   19.9118   20.5392   25.0509 H   0  0  0  0  0  0  0  0  0  0  0  0
   18.3678   19.7068   24.8414 H   0  0  0  0  0  0  0  0  0  0  0  0
   18.4447   21.6692   23.9246 C   0  0  0  0  0  0  0  0  0  0  0  0
   19.1802   22.3105   23.4313 H   0  0  0  0  0  0  0  0  0  0  0  0
   17.6307   21.4750   23.2210 H   0  0  0  0  0  0  0  0  0  0  0  0
   17.8731   22.4330   25.1016 N   0  3  0  0  0  0  0  0  0  0  0  0
   17.4377   23.3144   24.8086 H   0  0  0  0  0  0  0  0  0  0  0  0
   18.5950   22.6712   25.7896 H   0  0  0  0  0  0  0  0  0  0  0  0
   17.1532   21.8938   25.5939 H   0  0  0  0  0  0  0  0  0  0  0  0
  1  2  1  0  0  0  0
  1  3  1  0  0  0  0
  1  4  1  0  0  0  0
  1  5  1  0  0  0  0
  5  6  1  0  0  0  0
  5  7  1  0  0  0  0
  5  8  1  0  0  0  0
  8  9  1  0  0  0  0
  8 10  1  0  0  0  0
  8 11  1  0  0  0  0
 11 12  1  0  0  0  0
 11 13  1  0  0  0  0
 11 14  1  0  0  0  0
 14 15  1  0  0  0  0
 14 16  1  0  0  0  0
 14 17  1  0  0  0  0
 17 18  1  0  0  0  0
 17 19  1  0  0  0  0
 17 20  1  0  0  0  0
 20 21  1  0  0  0  0
 20 22  1  0  0  0  0
 20 23  1  0  0  0  0
 23 24  1  0  0  0  0
 23 25  1  0  0  0  0
 23 26  1  0  0  0  0
M  END
> <VConfSearch Rank>
281

> <Conf_Id>
25

> <Delta U+W>
0.000

> <U+W>
-5.552

> <U>
47.192

> <W>
-52.745

> <W(PB)>
-55.134

> <W(SA)>
2.389

> <Valence>
2.156

> <Coulomb>
44.449

> <VdW>
0.587

> <VdW6>
-5.761

> <VdW12>
6.348

> <Bond>
0.129

> <Angle>
0.393

> <Pdih>
1.634

> <Idih>
0.000

> <Tether>
0.000

$$$$
VeraChem MOL file


 26 25  0  0  0  0  0  0  0  0999 V2000     
   17.4759   15.4967   23.3027 C   0  0  0  0  0  0  0  0  0  0  0  0
   17.7011   15.2169   24.3401 H   0  0  0  0  0  0  0  0  0  0  0  0
   16.5722   16.1201   23.3052 H   0  0  0  0  0  0  0  0  0  0  0  0
   17.2496   14.5774   22.7473 H   0  0  0  0  0  0  0  0  0  0  0  0
   18.6634   16.2438   22.6594 C   0  0  0  0  0  0  0  0  0  0  0  0
   18.4220   16.4802   21.6136 H   0  0  0  0  0  0  0  0  0  0  0  0
   19.5421   15.5840   22.6406 H   0  0  0  0  0  0  0  0  0  0  0  0
   19.0031   17.5431   23.4228 C   0  0  0  0  0  0  0  0  0  0  0  0
   18.1211   18.1983   23.4410 H   0  0  0  0  0  0  0  0  0  0  0  0
   19.2416   17.3021   24.4680 H   0  0  0  0  0  0  0  0  0  0  0  0
   20.1919   18.2941   22.7814 C   0  0  0  0  0  0  0  0  0  0  0  0
   19.9526   18.5350   21.7363 H   0  0  0  0  0  0  0  0  0  0  0  0
   21.0729   17.6376   22.7628 H   0  0  0  0  0  0  0  0  0  0  0  0
   20.5319   19.5937   23.5457 C   0  0  0  0  0  0  0  0  0  0  0  0
   19.6468   20.2435   23.5655 H   0  0  0  0  0  0  0  0  0  0  0  0
   20.7740   19.3523   24.5901 H   0  0  0  0  0  0  0  0  0  0  0  0
   21.7214   20.3443   22.9015 C   0  0  0  0  0  0  0  0  0  0  0  0
   21.4779   20.6180   21.8663 H   0  0  0  0  0  0  0  0  0  0  0  0
   22.5904   19.6746   22.8524 H   0  0  0  0  0  0  0  0  0  0  0  0
   22.1237   21.6077   23.6865 C   0  0  0  0  0  0  0  0  0  0  0  0
   22.3609   21.3393   24.7195 H   0  0  0  0  0  0  0  0  0  0  0  0
   23.0174   22.0463   23.2344 H   0  0  0  0  0  0  0  0  0  0  0  0
   21.0498   22.6776   23.7131 N   0  3  0  0  0  0  0  0  0  0  0  0
   20.1909   22.3426   24.1602 H   0  0  0  0  0  0  0  0  0  0  0  0
   20.7989   22.9888   22.7690 H   0  0  0  0  0  0  0  0  0  0  0  0
   21.3535   23.5091   24.2316 H   0  0  0  0  0  0  0  0  0  0  0  0
  1  2  1  0  0  0  0
  1  3  1  0  0  0  0
  1  4  1  0  0  0  0
  1  5  1  0  0  0  0
  5  6  1  0  0  0  0
  5  7  1  0  0  0  0
  5  8  1  0  0  0  0
  8  9  1  0  0  0  0
  8 10  1  0  0  0  0
  8 11  1  0  0  0  0
 11 12  1  0  0  0  0
 11 13  1  0  0  0  0
 11 14  1  0  0  0  0
 14 15  1  0  0  0  0
 14 16  1  0  0  0  0
 14 17  1  0  0  0  0
 17 18  1  0  0  0  0
 17 19  1  0  0  0  0
 17 20  1  0  0  0  0
 20 21  1  0  0  0  0
 20 22  1  0  0  0  0
 20 23  1  0  0  0  0
 23 24  1  0  0  0  0
 23 25  1  0  0  0  0
 23 26  1  0  0  0  0
M  END
> <VConfSearch Rank>
282

> <Conf_Id>
20

> <Delta U+W>
0.150

> <U+W>
-5.403

> <U>
47.845

> <W>
-53.248

> <W(PB)>
-55.599

> <W(SA)>
2.351

> <Valence>
2.258

> <Coulomb>
44.893

> <VdW>
0.694

> <VdW6>
-6.285

> <VdW12>
6.979

> <Bond>
0.149

> <Angle>
0.434

> <Pdih>
1.675

> <Idih>
0.000

> <Tether>
0.000

$$$$
VeraChem MOL file


 26 25  0  0  0  0  0  0  0  0999 V2000     
   18.3632   16.6066   26.5537 C   0  0  0  0  0  0  0  0  0  0  0  0
   17.3456   16.9715   26.3623 H   0  0  0  0  0  0  0  0  0  0  0  0
   18.4779   15.6356   26.0544 H   0  0  0  0  0  0  0  0  0  0  0  0
   18.4651   16.4438   27.6345 H   0  0  0  0  0  0  0  0  0  0  0  0
   19.4179   17.6160   26.0527 C   0  0  0  0  0  0  0  0  0  0  0  0
   20.4233   17.2397   26.2883 H   0  0  0  0  0  0  0  0  0  0  0  0
   19.2998   18.5653   26.5937 H   0  0  0  0  0  0  0  0  0  0  0  0
   19.2965   17.8633   24.5327 C   0  0  0  0  0  0  0  0  0  0  0  0
   19.4130   16.9113   23.9964 H   0  0  0  0  0  0  0  0  0  0  0  0
   18.2892   18.2368   24.3019 H   0  0  0  0  0  0  0  0  0  0  0  0
   20.3511   18.8736   24.0273 C   0  0  0  0  0  0  0  0  0  0  0  0
   21.3578   18.4995   24.2598 H   0  0  0  0  0  0  0  0  0  0  0  0
   20.2338   19.8254   24.5639 H   0  0  0  0  0  0  0  0  0  0  0  0
   20.2298   19.1202   22.5065 C   0  0  0  0  0  0  0  0  0  0  0  0
   20.3501   18.1688   21.9698 H   0  0  0  0  0  0  0  0  0  0  0  0
   19.2207   19.4891   22.2794 H   0  0  0  0  0  0  0  0  0  0  0  0
   21.2857   20.1326   22.0028 C   0  0  0  0  0  0  0  0  0  0  0  0
   22.2892   19.7733   22.2673 H   0  0  0  0  0  0  0  0  0  0  0  0
   21.1545   21.0975   22.5104 H   0  0  0  0  0  0  0  0  0  0  0  0
   21.2296   20.3421   20.4773 C   0  0  0  0  0  0  0  0  0  0  0  0
   22.0485   20.9986   20.1710 H   0  0  0  0  0  0  0  0  0  0  0  0
   21.3540   19.3821   19.9690 H   0  0  0  0  0  0  0  0  0  0  0  0
   19.9350   20.9661   19.9940 N   0  3  0  0  0  0  0  0  0  0  0  0
   19.7725   21.8842   20.4203 H   0  0  0  0  0  0  0  0  0  0  0  0
   19.1245   20.3803   20.2173 H   0  0  0  0  0  0  0  0  0  0  0  0
   19.9350   21.1038   18.9774 H   0  0  0  0  0  0  0  0  0  0  0  0
  1  2  1  0  0  0  0
  1  3  1  0  0  0  0
  1  4  1  0  0  0  0
  1  5  1  0  0  0  0
  5  6  1  0  0  0  0
  5  7  1  0  0  0  0
  5  8  1  0  0  0  0
  8  9  1  0  0  0  0
  8 10  1  0  0  0  0
  8 11  1  0  0  0  0
 11 12  1  0  0  0  0
 11 13  1  0  0  0  0
 11 14  1  0  0  0  0
 14 15  1  0  0  0  0
 14 16  1  0  0  0  0
 14 17  1  0  0  0  0
 17 18  1  0  0  0  0
 17 19  1  0  0  0  0
 17 20  1  0  0  0  0
 20 21  1  0  0  0  0
 20 22  1  0  0  0  0
 20 23  1  0  0  0  0
 23 24  1  0  0  0  0
 23 25  1  0  0  0  0
 23 26  1  0  0  0  0
M  END
> <VConfSearch Rank>
283

> <Conf_Id>
19

> <Delta U+W>
0.162

> <U+W>
-5.391

> <U>
47.845

> <W>
-53.235

> <W(PB)>
-55.585

> <W(SA)>
2.349

> <Valence>
2.258

> <Coulomb>
44.893

> <VdW>
0.694

> <VdW6>
-6.285

> <VdW12>
6.979

> <Bond>
0.149

> <Angle>
0.434

> <Pdih>
1.675

> <Idih>
0.000

> <Tether>
0.000

$$$$
VeraChem MOL file


 26 25  0  0  0  0  0  0  0  0999 V2000     
   23.4255   18.1098   20.9963 C   0  0  0  0  0  0  0  0  0  0  0  0
   23.2665   18.1024   19.9101 H   0  0  0  0  0  0  0  0  0  0  0  0
   23.9784   19.0223   21.2548 H   0  0  0  0  0  0  0  0  0  0  0  0
   24.0581   17.2492   21.2498 H   0  0  0  0  0  0  0  0  0  0  0  0
   22.0830   18.0414   21.7548 C   0  0  0  0  0  0  0  0  0  0  0  0
   22.2851   18.0093   22.8336 H   0  0  0  0  0  0  0  0  0  0  0  0
   21.5673   17.1054   21.4986 H   0  0  0  0  0  0  0  0  0  0  0  0
   21.1752   19.2476   21.4165 C   0  0  0  0  0  0  0  0  0  0  0  0
   21.6694   20.1803   21.7214 H   0  0  0  0  0  0  0  0  0  0  0  0
   21.0523   19.3066   20.3262 H   0  0  0  0  0  0  0  0  0  0  0  0
   19.7710   19.1682   22.0644 C   0  0  0  0  0  0  0  0  0  0  0  0
   19.2714   18.2425   21.7465 H   0  0  0  0  0  0  0  0  0  0  0  0
   19.1620   19.9961   21.6757 H   0  0  0  0  0  0  0  0  0  0  0  0
   19.7970   19.2442   23.6100 C   0  0  0  0  0  0  0  0  0  0  0  0
   20.3375   18.3808   24.0197 H   0  0  0  0  0  0  0  0  0  0  0  0
   20.3449   20.1433   23.9247 H   0  0  0  0  0  0  0  0  0  0  0  0
   18.3725   19.2752   24.2065 C   0  0  0  0  0  0  0  0  0  0  0  0
   17.8218   18.3775   23.8951 H   0  0  0  0  0  0  0  0  0  0  0  0
   17.8249   20.1422   23.8132 H   0  0  0  0  0  0  0  0  0  0  0  0
   18.4070   19.3470   25.7433 C   0  0  0  0  0  0  0  0  0  0  0  0
   18.9369   18.4771   26.1407 H   0  0  0  0  0  0  0  0  0  0  0  0
   18.9405   20.2481   26.0579 H   0  0  0  0  0  0  0  0  0  0  0  0
   17.0267   19.3790   26.3671 N   0  3  0  0  0  0  0  0  0  0  0  0
   16.4813   18.5433   26.1315 H   0  0  0  0  0  0  0  0  0  0  0  0
   16.4847   20.1912   26.0544 H   0  0  0  0  0  0  0  0  0  0  0  0
   17.0723   19.4268   27.3909 H   0  0  0  0  0  0  0  0  0  0  0  0
  1  2  1  0  0  0  0
  1  3  1  0  0  0  0
  1  4  1  0  0  0  0
  1  5  1  0  0  0  0
  5  6  1  0  0  0  0
  5  7  1  0  0  0  0
  5  8  1  0  0  0  0
  8  9  1  0  0  0  0
  8 10  1  0  0  0  0
  8 11  1  0  0  0  0
 11 12  1  0  0  0  0
 11 13  1  0  0  0  0
 11 14  1  0  0  0  0
 14 15  1  0  0  0  0
 14 16  1  0  0  0  0
 14 17  1  0  0  0  0
 17 18  1  0  0  0  0
 17 19  1  0  0  0  0
 17 20  1  0  0  0  0
 20 21  1  0  0  0  0
 20 22  1  0  0  0  0
 20 23  1  0  0  0  0
 23 24  1  0  0  0  0
 23 25  1  0  0  0  0
 23 26  1  0  0  0  0
M  END
> <VConfSearch Rank>
284

> <Conf_Id>
37

> <Delta U+W>
0.565

> <U+W>
-4.988

> <U>
48.035

> <W>
-53.022

> <W(PB)>
-55.379

> <W(SA)>
2.357

> <Valence>
2.701

> <Coulomb>
44.622

> <VdW>
0.712

> <VdW6>
-6.418

> <VdW12>
7.129

> <Bond>
0.168

> <Angle>
0.659

> <Pdih>
1.875

> <Idih>
0.000

> <Tether>
0.000

$$$$
VeraChem MOL file


 26 25  0  0  0  0  0  0  0  0999 V2000     
   17.1003   21.7561   23.4745 C   0  0  0  0  0  0  0  0  0  0  0  0
   17.9794   22.4096   23.4023 H   0  0  0  0  0  0  0  0  0  0  0  0
   16.7236   21.5761   22.4591 H   0  0  0  0  0  0  0  0  0  0  0  0
   16.3236   22.2964   24.0311 H   0  0  0  0  0  0  0  0  0  0  0  0
   17.4519   20.4286   24.1791 C   0  0  0  0  0  0  0  0  0  0  0  0
   16.5463   19.8122   24.2673 H   0  0  0  0  0  0  0  0  0  0  0  0
   17.7937   20.6383   25.2024 H   0  0  0  0  0  0  0  0  0  0  0  0
   18.5435   19.6469   23.4150 C   0  0  0  0  0  0  0  0  0  0  0  0
   18.1964   19.4379   22.3936 H   0  0  0  0  0  0  0  0  0  0  0  0
   19.4382   20.2767   23.3260 H   0  0  0  0  0  0  0  0  0  0  0  0
   18.8997   18.3175   24.1230 C   0  0  0  0  0  0  0  0  0  0  0  0
   17.9801   17.7349   24.2728 H   0  0  0  0  0  0  0  0  0  0  0  0
   19.2986   18.5265   25.1253 H   0  0  0  0  0  0  0  0  0  0  0  0
   19.9083   17.4463   23.3346 C   0  0  0  0  0  0  0  0  0  0  0  0
   20.0114   16.4808   23.8493 H   0  0  0  0  0  0  0  0  0  0  0  0
   19.5018   17.2225   22.3384 H   0  0  0  0  0  0  0  0  0  0  0  0
   21.3070   18.0917   23.1941 C   0  0  0  0  0  0  0  0  0  0  0  0
   21.6912   18.3615   24.1868 H   0  0  0  0  0  0  0  0  0  0  0  0
   21.2394   19.0178   22.6096 H   0  0  0  0  0  0  0  0  0  0  0  0
   22.2975   17.1365   22.5052 C   0  0  0  0  0  0  0  0  0  0  0  0
   22.3879   16.2162   23.0887 H   0  0  0  0  0  0  0  0  0  0  0  0
   21.9271   16.8775   21.5095 H   0  0  0  0  0  0  0  0  0  0  0  0
   23.6831   17.7290   22.3492 N   0  3  0  0  0  0  0  0  0  0  0  0
   24.0998   17.9699   23.2545 H   0  0  0  0  0  0  0  0  0  0  0  0
   23.6717   18.5848   21.7847 H   0  0  0  0  0  0  0  0  0  0  0  0
   24.3268   17.0763   21.8887 H   0  0  0  0  0  0  0  0  0  0  0  0
  1  2  1  0  0  0  0
  1  3  1  0  0  0  0
  1  4  1  0  0  0  0
  1  5  1  0  0  0  0
  5  6  1  0  0  0  0
  5  7  1  0  0  0  0
  5  8  1  0  0  0  0
  8  9  1  0  0  0  0
  8 10  1  0  0  0  0
  8 11  1  0  0  0  0
 11 12  1  0  0  0  0
 11 13  1  0  0  0  0
 11 14  1  0  0  0  0
 14 15  1  0  0  0  0
 14 16  1  0  0  0  0
 14 17  1  0  0  0  0
 17 18  1  0  0  0  0
 17 19  1  0  0  0  0
 17 20  1  0  0  0  0
 20 21  1  0  0  0  0
 20 22  1  0  0  0  0
 20 23  1  0  0  0  0
 23 24  1  0  0  0  0
 23 25  1  0  0  0  0
 23 26  1  0  0  0  0
M  END
> <VConfSearch Rank>
285

> <Conf_Id>
35

> <Delta U+W>
0.587

> <U+W>
-4.965

> <U>
48.214

> <W>
-53.179

> <W(PB)>
-55.527

> <W(SA)>
2.348

> <Valence>
2.697

> <Coulomb>
44.819

> <VdW>
0.699

> <VdW6>
-6.437

> <VdW12>
7.136

> <Bond>
0.168

> <Angle>
0.657

> <Pdih>
1.872

> <Idih>
0.000

> <Tether>
0.000

$$$$
VeraChem MOL file


 26 25  0  0  0  0  0  0  0  0999 V2000     
   19.9356   14.9507   23.5436 C   0  0  0  0  0  0  0  0  0  0  0  0
   18.8569   14.8851   23.3501 H   0  0  0  0  0  0  0  0  0  0  0  0
   20.4520   15.0302   22.5781 H   0  0  0  0  0  0  0  0  0  0  0  0
   20.2505   14.0121   24.0179 H   0  0  0  0  0  0  0  0  0  0  0  0
   20.2642   16.1562   24.4497 C   0  0  0  0  0  0  0  0  0  0  0  0
   21.3442   16.1762   24.6525 H   0  0  0  0  0  0  0  0  0  0  0  0
   19.7619   16.0305   25.4192 H   0  0  0  0  0  0  0  0  0  0  0  0
   19.8300   17.4914   23.8056 C   0  0  0  0  0  0  0  0  0  0  0  0
   20.3313   17.5998   22.8350 H   0  0  0  0  0  0  0  0  0  0  0  0
   18.7497   17.4673   23.6068 H   0  0  0  0  0  0  0  0  0  0  0  0
   20.1629   18.7012   24.7118 C   0  0  0  0  0  0  0  0  0  0  0  0
   21.2489   18.7597   24.8679 H   0  0  0  0  0  0  0  0  0  0  0  0
   19.7174   18.5384   25.7030 H   0  0  0  0  0  0  0  0  0  0  0  0
   19.6449   20.0514   24.1580 C   0  0  0  0  0  0  0  0  0  0  0  0
   18.5562   19.9989   24.0182 H   0  0  0  0  0  0  0  0  0  0  0  0
   19.8212   20.8287   24.9146 H   0  0  0  0  0  0  0  0  0  0  0  0
   20.3207   20.4780   22.8337 C   0  0  0  0  0  0  0  0  0  0  0  0
   20.0879   19.7565   22.0405 H   0  0  0  0  0  0  0  0  0  0  0  0
   21.4116   20.4814   22.9595 H   0  0  0  0  0  0  0  0  0  0  0  0
   19.8531   21.8758   22.3916 C   0  0  0  0  0  0  0  0  0  0  0  0
   18.7690   21.8733   22.2492 H   0  0  0  0  0  0  0  0  0  0  0  0
   20.0966   22.6077   23.1665 H   0  0  0  0  0  0  0  0  0  0  0  0
   20.4937   22.3346   21.0975 N   0  3  0  0  0  0  0  0  0  0  0  0
   20.2794   21.7022   20.3195 H   0  0  0  0  0  0  0  0  0  0  0  0
   21.5149   22.3848   21.1734 H   0  0  0  0  0  0  0  0  0  0  0  0
   20.1688   23.2678   20.8217 H   0  0  0  0  0  0  0  0  0  0  0  0
  1  2  1  0  0  0  0
  1  3  1  0  0  0  0
  1  4  1  0  0  0  0
  1  5  1  0  0  0  0
  5  6  1  0  0  0  0
  5  7  1  0  0  0  0
  5  8  1  0  0  0  0
  8  9  1  0  0  0  0
  8 10  1  0  0  0  0
  8 11  1  0  0  0  0
 11 12  1  0  0  0  0
 11 13  1  0  0  0  0
 11 14  1  0  0  0  0
 14 15  1  0  0  0  0
 14 16  1  0  0  0  0
 14 17  1  0  0  0  0
 17 18  1  0  0  0  0
 17 19  1  0  0  0  0
 17 20  1  0  0  0  0
 20 21  1  0  0  0  0
 20 22  1  0  0  0  0
 20 23  1  0  0  0  0
 23 24  1  0  0  0  0
 23 25  1  0  0  0  0
 23 26  1  0  0  0  0
M  END
> <VConfSearch Rank>
286

> <Conf_Id>
36

> <Delta U+W>
0.565

> <U+W>
-4.987

> <U>
48.214

> <W>
-53.201

> <W(PB)>
-55.543

> <W(SA)>
2.342

> <Valence>
2.697

> <Coulomb>
44.819

> <VdW>
0.698

> <VdW6>
-6.437

> <VdW12>
7.136

> <Bond>
0.168

> <Angle>
0.657

> <Pdih>
1.872

> <Idih>
0.000

> <Tether>
0.000

$$$$
VeraChem MOL file


 26 25  0  0  0  0  0  0  0  0999 V2000     
   20.1121   19.0381   18.9881 C   0  0  0  0  0  0  0  0  0  0  0  0
   19.3526   18.2965   18.7080 H   0  0  0  0  0  0  0  0  0  0  0  0
   20.0574   19.8649   18.2679 H   0  0  0  0  0  0  0  0  0  0  0  0
   21.1001   18.5698   18.8891 H   0  0  0  0  0  0  0  0  0  0  0  0
   19.8828   19.5514   20.4255 C   0  0  0  0  0  0  0  0  0  0  0  0
   18.9021   20.0440   20.4846 H   0  0  0  0  0  0  0  0  0  0  0  0
   20.6362   20.3152   20.6642 H   0  0  0  0  0  0  0  0  0  0  0  0
   19.9547   18.4065   21.4600 C   0  0  0  0  0  0  0  0  0  0  0  0
   19.2018   17.6444   21.2152 H   0  0  0  0  0  0  0  0  0  0  0  0
   20.9358   17.9159   21.3959 H   0  0  0  0  0  0  0  0  0  0  0  0
   19.7253   18.9164   22.9008 C   0  0  0  0  0  0  0  0  0  0  0  0
   18.7427   19.4043   22.9641 H   0  0  0  0  0  0  0  0  0  0  0  0
   20.4769   19.6817   23.1360 H   0  0  0  0  0  0  0  0  0  0  0  0
   19.7991   17.7674   23.9349 C   0  0  0  0  0  0  0  0  0  0  0  0
   19.0764   16.9868   23.6597 H   0  0  0  0  0  0  0  0  0  0  0  0
   20.7921   17.2982   23.8978 H   0  0  0  0  0  0  0  0  0  0  0  0
   19.5016   18.2312   25.3802 C   0  0  0  0  0  0  0  0  0  0  0  0
   19.4849   17.3533   26.0398 H   0  0  0  0  0  0  0  0  0  0  0  0
   18.4994   18.6777   25.4257 H   0  0  0  0  0  0  0  0  0  0  0  0
   20.5414   19.2374   25.9083 C   0  0  0  0  0  0  0  0  0  0  0  0
   21.5392   18.7925   25.8642 H   0  0  0  0  0  0  0  0  0  0  0  0
   20.5368   20.1358   25.2859 H   0  0  0  0  0  0  0  0  0  0  0  0
   20.2815   19.6623   27.3391 N   0  3  0  0  0  0  0  0  0  0  0  0
   20.9843   20.3316   27.6715 H   0  0  0  0  0  0  0  0  0  0  0  0
   20.3004   18.8653   27.9838 H   0  0  0  0  0  0  0  0  0  0  0  0
   19.3668   20.1134   27.4437 H   0  0  0  0  0  0  0  0  0  0  0  0
  1  2  1  0  0  0  0
  1  3  1  0  0  0  0
  1  4  1  0  0  0  0
  1  5  1  0  0  0  0
  5  6  1  0  0  0  0
  5  7  1  0  0  0  0
  5  8  1  0  0  0  0
  8  9  1  0  0  0  0
  8 10  1  0  0  0  0
  8 11  1  0  0  0  0
 11 12  1  0  0  0  0
 11 13  1  0  0  0  0
 11 14  1  0  0  0  0
 14 15  1  0  0  0  0
 14 16  1  0  0  0  0
 14 17  1  0  0  0  0
 17 18  1  0  0  0  0
 17 19  1  0  0  0  0
 17 20  1  0  0  0  0
 20 21  1  0  0  0  0
 20 22  1  0  0  0  0
 20 23  1  0  0  0  0
 23 24  1  0  0  0  0
 23 25  1  0  0  0  0
 23 26  1  0  0  0  0
M  END
> <VConfSearch Rank>
287

> <Conf_Id>
44

> <Delta U+W>
0.371

> <U+W>
-5.181

> <U>
48.002

> <W>
-53.183

> <W(PB)>
-55.533

> <W(SA)>
2.350

> <Valence>
2.459

> <Coulomb>
44.901

> <VdW>
0.643

> <VdW6>
-6.362

> <VdW12>
7.005

> <Bond>
0.151

> <Angle>
0.519

> <Pdih>
1.789

> <Idih>
0.000

> <Tether>
0.000

$$$$
VeraChem MOL file


 26 25  0  0  0  0  0  0  0  0999 V2000     
   17.1529   20.7737   21.3306 C   0  0  0  0  0  0  0  0  0  0  0  0
   16.3642   20.1014   21.6925 H   0  0  0  0  0  0  0  0  0  0  0  0
   16.6668   21.6404   20.8642 H   0  0  0  0  0  0  0  0  0  0  0  0
   17.7173   20.2526   20.5476 H   0  0  0  0  0  0  0  0  0  0  0  0
   18.0710   21.2277   22.4883 C   0  0  0  0  0  0  0  0  0  0  0  0
   17.4858   21.8527   23.1773 H   0  0  0  0  0  0  0  0  0  0  0  0
   18.8716   21.8702   22.0959 H   0  0  0  0  0  0  0  0  0  0  0  0
   18.6861   20.0529   23.2872 C   0  0  0  0  0  0  0  0  0  0  0  0
   19.2018   20.4719   24.1604 H   0  0  0  0  0  0  0  0  0  0  0  0
   17.8817   19.4149   23.6782 H   0  0  0  0  0  0  0  0  0  0  0  0
   19.6780   19.1965   22.4592 C   0  0  0  0  0  0  0  0  0  0  0  0
   20.4848   19.8335   22.0712 H   0  0  0  0  0  0  0  0  0  0  0  0
   19.1603   18.7862   21.5827 H   0  0  0  0  0  0  0  0  0  0  0  0
   20.2866   18.0122   23.2503 C   0  0  0  0  0  0  0  0  0  0  0  0
   19.4792   17.3833   23.6503 H   0  0  0  0  0  0  0  0  0  0  0  0
   20.8459   17.3837   22.5448 H   0  0  0  0  0  0  0  0  0  0  0  0
   21.2268   18.4509   24.4014 C   0  0  0  0  0  0  0  0  0  0  0  0
   20.6660   19.0403   25.1370 H   0  0  0  0  0  0  0  0  0  0  0  0
   22.0193   19.1040   24.0126 H   0  0  0  0  0  0  0  0  0  0  0  0
   21.8617   17.2553   25.1378 C   0  0  0  0  0  0  0  0  0  0  0  0
   22.4324   17.6206   25.9960 H   0  0  0  0  0  0  0  0  0  0  0  0
   21.0758   16.5918   25.5088 H   0  0  0  0  0  0  0  0  0  0  0  0
   22.8032   16.4356   24.2772 N   0  3  0  0  0  0  0  0  0  0  0  0
   22.3223   16.0286   23.4691 H   0  0  0  0  0  0  0  0  0  0  0  0
   23.2188   15.6582   24.8017 H   0  0  0  0  0  0  0  0  0  0  0  0
   23.5782   17.0010   23.9158 H   0  0  0  0  0  0  0  0  0  0  0  0
  1  2  1  0  0  0  0
  1  3  1  0  0  0  0
  1  4  1  0  0  0  0
  1  5  1  0  0  0  0
  5  6  1  0  0  0  0
  5  7  1  0  0  0  0
  5  8  1  0  0  0  0
  8  9  1  0  0  0  0
  8 10  1  0  0  0  0
  8 11  1  0  0  0  0
 11 12  1  0  0  0  0
 11 13  1  0  0  0  0
 11 14  1  0  0  0  0
 14 15  1  0  0  0  0
 14 16  1  0  0  0  0
 14 17  1  0  0  0  0
 17 18  1  0  0  0  0
 17 19  1  0  0  0  0
 17 20  1  0  0  0  0
 20 21  1  0  0  0  0
 20 22  1  0  0  0  0
 20 23  1  0  0  0  0
 23 24  1  0  0  0  0
 23 25  1  0  0  0  0
 23 26  1  0  0  0  0
M  END
> <VConfSearch Rank>
288

> <Conf_Id>
112

> <Delta U+W>
1.422

> <U+W>
-4.130

> <U>
49.323

> <W>
-53.453

> <W(PB)>
-55.749

> <W(SA)>
2.296

> <Valence>
3.408

> <Coulomb>
44.893

> <VdW>
1.021

> <VdW6>
-7.481

> <VdW12>
8.503

> <Bond>
0.239

> <Angle>
1.013

> <Pdih>
2.156

> <Idih>
0.000

> <Tether>
0.000

$$$$
VeraChem MOL file


 26 25  0  0  0  0  0  0  0  0999 V2000     
   17.7179   20.0344   20.6159 C   0  0  0  0  0  0  0  0  0  0  0  0
   17.2577   20.4115   19.6935 H   0  0  0  0  0  0  0  0  0  0  0  0
   17.7192   18.9387   20.5599 H   0  0  0  0  0  0  0  0  0  0  0  0
   17.0797   20.3353   21.4569 H   0  0  0  0  0  0  0  0  0  0  0  0
   19.1489   20.5959   20.7755 C   0  0  0  0  0  0  0  0  0  0  0  0
   19.1092   21.6922   20.7095 H   0  0  0  0  0  0  0  0  0  0  0  0
   19.7733   20.2600   19.9358 H   0  0  0  0  0  0  0  0  0  0  0  0
   19.8164   20.2020   22.1151 C   0  0  0  0  0  0  0  0  0  0  0  0
   20.7818   20.7211   22.1901 H   0  0  0  0  0  0  0  0  0  0  0  0
   19.1990   20.5711   22.9445 H   0  0  0  0  0  0  0  0  0  0  0  0
   20.0480   18.6765   22.2596 C   0  0  0  0  0  0  0  0  0  0  0  0
   20.5535   18.3052   21.3576 H   0  0  0  0  0  0  0  0  0  0  0  0
   19.0845   18.1525   22.3127 H   0  0  0  0  0  0  0  0  0  0  0  0
   20.9031   18.2951   23.4931 C   0  0  0  0  0  0  0  0  0  0  0  0
   21.1135   17.2186   23.4433 H   0  0  0  0  0  0  0  0  0  0  0  0
   21.8761   18.8026   23.4375 H   0  0  0  0  0  0  0  0  0  0  0  0
   20.2193   18.6244   24.8438 C   0  0  0  0  0  0  0  0  0  0  0  0
   19.2352   18.1399   24.8959 H   0  0  0  0  0  0  0  0  0  0  0  0
   20.0424   19.7046   24.9171 H   0  0  0  0  0  0  0  0  0  0  0  0
   21.0669   18.1984   26.0582 C   0  0  0  0  0  0  0  0  0  0  0  0
   22.0543   18.6645   25.9997 H   0  0  0  0  0  0  0  0  0  0  0  0
   20.5821   18.5415   26.9762 H   0  0  0  0  0  0  0  0  0  0  0  0
   21.2597   16.6990   26.1747 N   0  3  0  0  0  0  0  0  0  0  0  0
   21.7459   16.3139   25.3591 H   0  0  0  0  0  0  0  0  0  0  0  0
   20.3649   16.2052   26.2554 H   0  0  0  0  0  0  0  0  0  0  0  0
   21.8150   16.4497   27.0004 H   0  0  0  0  0  0  0  0  0  0  0  0
  1  2  1  0  0  0  0
  1  3  1  0  0  0  0
  1  4  1  0  0  0  0
  1  5  1  0  0  0  0
  5  6  1  0  0  0  0
  5  7  1  0  0  0  0
  5  8  1  0  0  0  0
  8  9  1  0  0  0  0
  8 10  1  0  0  0  0
  8 11  1  0  0  0  0
 11 12  1  0  0  0  0
 11 13  1  0  0  0  0
 11 14  1  0  0  0  0
 14 15  1  0  0  0  0
 14 16  1  0  0  0  0
 14 17  1  0  0  0  0
 17 18  1  0  0  0  0
 17 19  1  0  0  0  0
 17 20  1  0  0  0  0
 20 21  1  0  0  0  0
 20 22  1  0  0  0  0
 20 23  1  0  0  0  0
 23 24  1  0  0  0  0
 23 25  1  0  0  0  0
 23 26  1  0  0  0  0
M  END
> <VConfSearch Rank>
289

> <Conf_Id>
130

> <Delta U+W>
1.282

> <U+W>
-4.270

> <U>
49.153

> <W>
-53.422

> <W(PB)>
-55.725

> <W(SA)>
2.303

> <Valence>
3.298

> <Coulomb>
44.907

> <VdW>
0.948

> <VdW6>
-7.574

> <VdW12>
8.522

> <Bond>
0.229

> <Angle>
0.912

> <Pdih>
2.157

> <Idih>
0.000

> <Tether>
0.000

$$$$
VeraChem MOL file


 26 25  0  0  0  0  0  0  0  0999 V2000     
   19.3122   21.8320   24.9266 C   0  0  0  0  0  0  0  0  0  0  0  0
   18.2203   21.9377   24.9634 H   0  0  0  0  0  0  0  0  0  0  0  0
   19.7530   22.7501   25.3361 H   0  0  0  0  0  0  0  0  0  0  0  0
   19.6161   21.7605   23.8748 H   0  0  0  0  0  0  0  0  0  0  0  0
   19.7784   20.6002   25.7351 C   0  0  0  0  0  0  0  0  0  0  0  0
   19.5593   20.7718   26.7982 H   0  0  0  0  0  0  0  0  0  0  0  0
   20.8701   20.5032   25.6667 H   0  0  0  0  0  0  0  0  0  0  0  0
   19.0936   19.2800   25.2982 C   0  0  0  0  0  0  0  0  0  0  0  0
   19.4597   18.4636   25.9358 H   0  0  0  0  0  0  0  0  0  0  0  0
   18.0162   19.3575   25.4992 H   0  0  0  0  0  0  0  0  0  0  0  0
   19.2930   18.8863   23.8115 C   0  0  0  0  0  0  0  0  0  0  0  0
   18.8379   19.6438   23.1598 H   0  0  0  0  0  0  0  0  0  0  0  0
   18.7348   17.9584   23.6307 H   0  0  0  0  0  0  0  0  0  0  0  0
   20.7783   18.6812   23.4192 C   0  0  0  0  0  0  0  0  0  0  0  0
   21.3312   19.6173   23.5711 H   0  0  0  0  0  0  0  0  0  0  0  0
   21.2379   17.9355   24.0824 H   0  0  0  0  0  0  0  0  0  0  0  0
   20.9621   18.2457   21.9463 C   0  0  0  0  0  0  0  0  0  0  0  0
   22.0350   18.2241   21.7134 H   0  0  0  0  0  0  0  0  0  0  0  0
   20.5111   18.9941   21.2811 H   0  0  0  0  0  0  0  0  0  0  0  0
   20.3576   16.8596   21.6533 C   0  0  0  0  0  0  0  0  0  0  0  0
   20.8060   16.1151   22.3167 H   0  0  0  0  0  0  0  0  0  0  0  0
   19.2801   16.8788   21.8352 H   0  0  0  0  0  0  0  0  0  0  0  0
   20.5789   16.4066   20.2246 N   0  3  0  0  0  0  0  0  0  0  0  0
   20.1568   17.0524   19.5493 H   0  0  0  0  0  0  0  0  0  0  0  0
   20.1695   15.4823   20.0501 H   0  0  0  0  0  0  0  0  0  0  0  0
   21.5759   16.3393   19.9952 H   0  0  0  0  0  0  0  0  0  0  0  0
  1  2  1  0  0  0  0
  1  3  1  0  0  0  0
  1  4  1  0  0  0  0
  1  5  1  0  0  0  0
  5  6  1  0  0  0  0
  5  7  1  0  0  0  0
  5  8  1  0  0  0  0
  8  9  1  0  0  0  0
  8 10  1  0  0  0  0
  8 11  1  0  0  0  0
 11 12  1  0  0  0  0
 11 13  1  0  0  0  0
 11 14  1  0  0  0  0
 14 15  1  0  0  0  0
 14 16  1  0  0  0  0
 14 17  1  0  0  0  0
 17 18  1  0  0  0  0
 17 19  1  0  0  0  0
 17 20  1  0  0  0  0
 20 21  1  0  0  0  0
 20 22  1  0  0  0  0
 20 23  1  0  0  0  0
 23 24  1  0  0  0  0
 23 25  1  0  0  0  0
 23 26  1  0  0  0  0
M  END
> <VConfSearch Rank>
290

> <Conf_Id>
111

> <Delta U+W>
1.290

> <U+W>
-4.262

> <U>
49.209

> <W>
-53.471

> <W(PB)>
-55.745

> <W(SA)>
2.274

> <Valence>
3.465

> <Coulomb>
44.958

> <VdW>
0.786

> <VdW6>
-7.903

> <VdW12>
8.689

> <Bond>
0.237

> <Angle>
1.212

> <Pdih>
2.015

> <Idih>
0.000

> <Tether>
0.000

$$$$
VeraChem MOL file


 26 25  0  0  0  0  0  0  0  0999 V2000     
   18.5353   20.6951   26.5901 C   0  0  0  0  0  0  0  0  0  0  0  0
   17.9597   19.7992   26.8569 H   0  0  0  0  0  0  0  0  0  0  0  0
   19.2448   20.9002   27.4024 H   0  0  0  0  0  0  0  0  0  0  0  0
   17.8366   21.5398   26.5322 H   0  0  0  0  0  0  0  0  0  0  0  0
   19.2699   20.5024   25.2464 C   0  0  0  0  0  0  0  0  0  0  0  0
   19.8119   21.4240   24.9924 H   0  0  0  0  0  0  0  0  0  0  0  0
   18.5266   20.3411   24.4546 H   0  0  0  0  0  0  0  0  0  0  0  0
   20.2582   19.3136   25.3025 C   0  0  0  0  0  0  0  0  0  0  0  0
   20.9413   19.4575   26.1510 H   0  0  0  0  0  0  0  0  0  0  0  0
   19.7083   18.3839   25.5044 H   0  0  0  0  0  0  0  0  0  0  0  0
   21.1033   19.1481   24.0155 C   0  0  0  0  0  0  0  0  0  0  0  0
   21.8511   18.3622   24.1898 H   0  0  0  0  0  0  0  0  0  0  0  0
   21.6661   20.0723   23.8245 H   0  0  0  0  0  0  0  0  0  0  0  0
   20.2655   18.7783   22.7679 C   0  0  0  0  0  0  0  0  0  0  0  0
   19.6609   17.8887   22.9891 H   0  0  0  0  0  0  0  0  0  0  0  0
   19.5663   19.5910   22.5314 H   0  0  0  0  0  0  0  0  0  0  0  0
   21.1624   18.5113   21.5359 C   0  0  0  0  0  0  0  0  0  0  0  0
   21.8443   17.6750   21.7400 H   0  0  0  0  0  0  0  0  0  0  0  0
   21.7926   19.3908   21.3479 H   0  0  0  0  0  0  0  0  0  0  0  0
   20.3497   18.2123   20.2614 C   0  0  0  0  0  0  0  0  0  0  0  0
   19.6659   19.0409   20.0579 H   0  0  0  0  0  0  0  0  0  0  0  0
   21.0307   18.1158   19.4114 H   0  0  0  0  0  0  0  0  0  0  0  0
   19.5331   16.9375   20.3433 N   0  3  0  0  0  0  0  0  0  0  0  0
   19.0149   16.7610   19.4758 H   0  0  0  0  0  0  0  0  0  0  0  0
   18.8449   16.9754   21.1014 H   0  0  0  0  0  0  0  0  0  0  0  0
   20.1243   16.1169   20.5109 H   0  0  0  0  0  0  0  0  0  0  0  0
  1  2  1  0  0  0  0
  1  3  1  0  0  0  0
  1  4  1  0  0  0  0
  1  5  1  0  0  0  0
  5  6  1  0  0  0  0
  5  7  1  0  0  0  0
  5  8  1  0  0  0  0
  8  9  1  0  0  0  0
  8 10  1  0  0  0  0
  8 11  1  0  0  0  0
 11 12  1  0  0  0  0
 11 13  1  0  0  0  0
 11 14  1  0  0  0  0
 14 15  1  0  0  0  0
 14 16  1  0  0  0  0
 14 17  1  0  0  0  0
 17 18  1  0  0  0  0
 17 19  1  0  0  0  0
 17 20  1  0  0  0  0
 20 21  1  0  0  0  0
 20 22  1  0  0  0  0
 20 23  1  0  0  0  0
 23 24  1  0  0  0  0
 23 25  1  0  0  0  0
 23 26  1  0  0  0  0
M  END
> <VConfSearch Rank>
291

> <Conf_Id>
105

> <Delta U+W>
0.736

> <U+W>
-4.817

> <U>
48.735

> <W>
-53.552

> <W(PB)>
-55.889

> <W(SA)>
2.337

> <Valence>
2.803

> <Coulomb>
45.123

> <VdW>
0.809

> <VdW6>
-6.953

> <VdW12>
7.761

> <Bond>
0.188

> <Angle>
0.699

> <Pdih>
1.917

> <Idih>
0.000

> <Tether>
0.000

$$$$
VeraChem MOL file


 26 25  0  0  0  0  0  0  0  0999 V2000     
   23.6954   18.7151   22.8725 C   0  0  0  0  0  0  0  0  0  0  0  0
   24.1963   17.7397   22.8182 H   0  0  0  0  0  0  0  0  0  0  0  0
   23.5424   19.0786   21.8479 H   0  0  0  0  0  0  0  0  0  0  0  0
   24.3729   19.4137   23.3803 H   0  0  0  0  0  0  0  0  0  0  0  0
   22.3544   18.6094   23.6292 C   0  0  0  0  0  0  0  0  0  0  0  0
   21.9043   19.6088   23.6974 H   0  0  0  0  0  0  0  0  0  0  0  0
   22.5417   18.2726   24.6583 H   0  0  0  0  0  0  0  0  0  0  0  0
   21.3801   17.6328   22.9294 C   0  0  0  0  0  0  0  0  0  0  0  0
   21.1598   17.9906   21.9151 H   0  0  0  0  0  0  0  0  0  0  0  0
   21.8787   16.6619   22.8031 H   0  0  0  0  0  0  0  0  0  0  0  0
   20.0606   17.4037   23.7114 C   0  0  0  0  0  0  0  0  0  0  0  0
   20.2966   16.9258   24.6723 H   0  0  0  0  0  0  0  0  0  0  0  0
   19.4455   16.6794   23.1599 H   0  0  0  0  0  0  0  0  0  0  0  0
   19.2158   18.6754   23.9837 C   0  0  0  0  0  0  0  0  0  0  0  0
   18.3263   18.3750   24.5528 H   0  0  0  0  0  0  0  0  0  0  0  0
   19.7715   19.3633   24.6347 H   0  0  0  0  0  0  0  0  0  0  0  0
   18.7763   19.4147   22.6951 C   0  0  0  0  0  0  0  0  0  0  0  0
   18.2368   18.7263   22.0312 H   0  0  0  0  0  0  0  0  0  0  0  0
   19.6612   19.7558   22.1434 H   0  0  0  0  0  0  0  0  0  0  0  0
   17.8956   20.6450   22.9868 C   0  0  0  0  0  0  0  0  0  0  0  0
   18.4228   21.3233   23.6631 H   0  0  0  0  0  0  0  0  0  0  0  0
   17.6993   21.1792   22.0532 H   0  0  0  0  0  0  0  0  0  0  0  0
   16.5560   20.3049   23.6103 N   0  3  0  0  0  0  0  0  0  0  0  0
   16.6659   19.8326   24.5129 H   0  0  0  0  0  0  0  0  0  0  0  0
   16.0028   19.6855   23.0093 H   0  0  0  0  0  0  0  0  0  0  0  0
   15.9900   21.1439   23.7775 H   0  0  0  0  0  0  0  0  0  0  0  0
  1  2  1  0  0  0  0
  1  3  1  0  0  0  0
  1  4  1  0  0  0  0
  1  5  1  0  0  0  0
  5  6  1  0  0  0  0
  5  7  1  0  0  0  0
  5  8  1  0  0  0  0
  8  9  1  0  0  0  0
  8 10  1  0  0  0  0
  8 11  1  0  0  0  0
 11 12  1  0  0  0  0
 11 13  1  0  0  0  0
 11 14  1  0  0  0  0
 14 15  1  0  0  0  0
 14 16  1  0  0  0  0
 14 17  1  0  0  0  0
 17 18  1  0  0  0  0
 17 19  1  0  0  0  0
 17 20  1  0  0  0  0
 20 21  1  0  0  0  0
 20 22  1  0  0  0  0
 20 23  1  0  0  0  0
 23 24  1  0  0  0  0
 23 25  1  0  0  0  0
 23 26  1  0  0  0  0
M  END
> <VConfSearch Rank>
292

> <Conf_Id>
144

> <Delta U+W>
1.073

> <U+W>
-4.479

> <U>
49.231

> <W>
-53.710

> <W(PB)>
-55.983

> <W(SA)>
2.273

> <Valence>
3.276

> <Coulomb>
45.175

> <VdW>
0.779

> <VdW6>
-7.944

> <VdW12>
8.723

> <Bond>
0.239

> <Angle>
1.155

> <Pdih>
1.883

> <Idih>
0.000

> <Tether>
0.000

$$$$
VeraChem MOL file


 26 25  0  0  0  0  0  0  0  0999 V2000     
   17.6152   16.3854   24.5591 C   0  0  0  0  0  0  0  0  0  0  0  0
   17.0131   17.2034   24.9727 H   0  0  0  0  0  0  0  0  0  0  0  0
   16.9441   15.5314   24.4000 H   0  0  0  0  0  0  0  0  0  0  0  0
   18.3593   16.0912   25.3107 H   0  0  0  0  0  0  0  0  0  0  0  0
   18.2961   16.7913   23.2320 C   0  0  0  0  0  0  0  0  0  0  0  0
   17.5351   17.1140   22.5077 H   0  0  0  0  0  0  0  0  0  0  0  0
   18.7758   15.9029   22.7979 H   0  0  0  0  0  0  0  0  0  0  0  0
   19.3654   17.8983   23.3982 C   0  0  0  0  0  0  0  0  0  0  0  0
   20.1121   17.5798   24.1385 H   0  0  0  0  0  0  0  0  0  0  0  0
   19.8908   18.0001   22.4404 H   0  0  0  0  0  0  0  0  0  0  0  0
   18.7747   19.2725   23.8007 C   0  0  0  0  0  0  0  0  0  0  0  0
   18.1618   19.1579   24.7037 H   0  0  0  0  0  0  0  0  0  0  0  0
   18.0938   19.6206   23.0119 H   0  0  0  0  0  0  0  0  0  0  0  0
   19.8335   20.3688   24.0881 C   0  0  0  0  0  0  0  0  0  0  0  0
   19.2951   21.2750   24.3986 H   0  0  0  0  0  0  0  0  0  0  0  0
   20.4507   20.0803   24.9503 H   0  0  0  0  0  0  0  0  0  0  0  0
   20.7398   20.7354   22.8858 C   0  0  0  0  0  0  0  0  0  0  0  0
   21.0549   21.7820   22.9918 H   0  0  0  0  0  0  0  0  0  0  0  0
   20.1682   20.6771   21.9499 H   0  0  0  0  0  0  0  0  0  0  0  0
   22.0066   19.8620   22.7972 C   0  0  0  0  0  0  0  0  0  0  0  0
   22.5916   19.9725   23.7142 H   0  0  0  0  0  0  0  0  0  0  0  0
   21.7357   18.8100   22.6915 H   0  0  0  0  0  0  0  0  0  0  0  0
   22.8983   20.2303   21.6291 N   0  3  0  0  0  0  0  0  0  0  0  0
   23.2183   21.2027   21.6847 H   0  0  0  0  0  0  0  0  0  0  0  0
   22.4158   20.1225   20.7309 H   0  0  0  0  0  0  0  0  0  0  0  0
   23.7377   19.6419   21.5899 H   0  0  0  0  0  0  0  0  0  0  0  0
  1  2  1  0  0  0  0
  1  3  1  0  0  0  0
  1  4  1  0  0  0  0
  1  5  1  0  0  0  0
  5  6  1  0  0  0  0
  5  7  1  0  0  0  0
  5  8  1  0  0  0  0
  8  9  1  0  0  0  0
  8 10  1  0  0  0  0
  8 11  1  0  0  0  0
 11 12  1  0  0  0  0
 11 13  1  0  0  0  0
 11 14  1  0  0  0  0
 14 15  1  0  0  0  0
 14 16  1  0  0  0  0
 14 17  1  0  0  0  0
 17 18  1  0  0  0  0
 17 19  1  0  0  0  0
 17 20  1  0  0  0  0
 20 21  1  0  0  0  0
 20 22  1  0  0  0  0
 20 23  1  0  0  0  0
 23 24  1  0  0  0  0
 23 25  1  0  0  0  0
 23 26  1  0  0  0  0
M  END
> <VConfSearch Rank>
293

> <Conf_Id>
93

> <Delta U+W>
3.253

> <U+W>
-2.300

> <U>
51.609

> <W>
-53.909

> <W(PB)>
-56.178

> <W(SA)>
2.270

> <Valence>
5.204

> <Coulomb>
45.645

> <VdW>
0.760

> <VdW6>
-7.997

> <VdW12>
8.758

> <Bond>
0.240

> <Angle>
1.456

> <Pdih>
3.507

> <Idih>
0.000

> <Tether>
0.000

$$$$
VeraChem MOL file


 26 25  0  0  0  0  0  0  0  0999 V2000     
   19.3185   22.4369   24.1764 C   0  0  0  0  0  0  0  0  0  0  0  0
   18.6609   22.4897   23.3002 H   0  0  0  0  0  0  0  0  0  0  0  0
   18.7275   22.0792   25.0295 H   0  0  0  0  0  0  0  0  0  0  0  0
   19.6476   23.4595   24.4021 H   0  0  0  0  0  0  0  0  0  0  0  0
   20.5376   21.5213   23.9216 C   0  0  0  0  0  0  0  0  0  0  0  0
   21.2245   21.6064   24.7753 H   0  0  0  0  0  0  0  0  0  0  0  0
   21.0936   21.8789   23.0436 H   0  0  0  0  0  0  0  0  0  0  0  0
   20.1640   20.0306   23.7351 C   0  0  0  0  0  0  0  0  0  0  0  0
   21.0968   19.4532   23.7186 H   0  0  0  0  0  0  0  0  0  0  0  0
   19.5905   19.6839   24.6056 H   0  0  0  0  0  0  0  0  0  0  0  0
   19.3714   19.7505   22.4341 C   0  0  0  0  0  0  0  0  0  0  0  0
   19.9888   20.0219   21.5668 H   0  0  0  0  0  0  0  0  0  0  0  0
   18.4886   20.4009   22.3953 H   0  0  0  0  0  0  0  0  0  0  0  0
   18.8830   18.2864   22.2809 C   0  0  0  0  0  0  0  0  0  0  0  0
   18.1746   18.0392   23.0838 H   0  0  0  0  0  0  0  0  0  0  0  0
   18.3061   18.2264   21.3475 H   0  0  0  0  0  0  0  0  0  0  0  0
   20.0087   17.2232   22.2203 C   0  0  0  0  0  0  0  0  0  0  0  0
   20.8826   17.6275   21.6924 H   0  0  0  0  0  0  0  0  0  0  0  0
   19.6535   16.3715   21.6249 H   0  0  0  0  0  0  0  0  0  0  0  0
   20.4165   16.6969   23.6104 C   0  0  0  0  0  0  0  0  0  0  0  0
   20.7760   17.5161   24.2359 H   0  0  0  0  0  0  0  0  0  0  0  0
   19.5478   16.2497   24.1011 H   0  0  0  0  0  0  0  0  0  0  0  0
   21.5077   15.6479   23.5488 N   0  3  0  0  0  0  0  0  0  0  0  0
   21.2209   14.8304   23.0005 H   0  0  0  0  0  0  0  0  0  0  0  0
   21.7616   15.3067   24.4823 H   0  0  0  0  0  0  0  0  0  0  0  0
   22.3649   16.0126   23.1206 H   0  0  0  0  0  0  0  0  0  0  0  0
  1  2  1  0  0  0  0
  1  3  1  0  0  0  0
  1  4  1  0  0  0  0
  1  5  1  0  0  0  0
  5  6  1  0  0  0  0
  5  7  1  0  0  0  0
  5  8  1  0  0  0  0
  8  9  1  0  0  0  0
  8 10  1  0  0  0  0
  8 11  1  0  0  0  0
 11 12  1  0  0  0  0
 11 13  1  0  0  0  0
 11 14  1  0  0  0  0
 14 15  1  0  0  0  0
 14 16  1  0  0  0  0
 14 17  1  0  0  0  0
 17 18  1  0  0  0  0
 17 19  1  0  0  0  0
 17 20  1  0  0  0  0
 20 21  1  0  0  0  0
 20 22  1  0  0  0  0
 20 23  1  0  0  0  0
 23 24  1  0  0  0  0
 23 25  1  0  0  0  0
 23 26  1  0  0  0  0
M  END
> <VConfSearch Rank>
294

> <Conf_Id>
94

> <Delta U+W>
3.247

> <U+W>
-2.305

> <U>
51.609

> <W>
-53.914

> <W(PB)>
-56.221

> <W(SA)>
2.307

> <Valence>
5.204

> <Coulomb>
45.645

> <VdW>
0.760

> <VdW6>
-7.997

> <VdW12>
8.757

> <Bond>
0.240

> <Angle>
1.456

> <Pdih>
3.508

> <Idih>
0.000

> <Tether>
0.000

$$$$
VeraChem MOL file


 26 25  0  0  0  0  0  0  0  0999 V2000     
   20.3936   22.2801   20.8748 C   0  0  0  0  0  0  0  0  0  0  0  0
   19.6899   22.0750   20.0575 H   0  0  0  0  0  0  0  0  0  0  0  0
   19.8836   22.9102   21.6151 H   0  0  0  0  0  0  0  0  0  0  0  0
   21.2312   22.8568   20.4614 H   0  0  0  0  0  0  0  0  0  0  0  0
   20.8977   20.9694   21.5150 C   0  0  0  0  0  0  0  0  0  0  0  0
   21.6245   21.2055   22.3049 H   0  0  0  0  0  0  0  0  0  0  0  0
   21.4322   20.3766   20.7594 H   0  0  0  0  0  0  0  0  0  0  0  0
   19.7374   20.1377   22.1052 C   0  0  0  0  0  0  0  0  0  0  0  0
   19.2050   20.7350   22.8583 H   0  0  0  0  0  0  0  0  0  0  0  0
   19.0125   19.9068   21.3123 H   0  0  0  0  0  0  0  0  0  0  0  0
   20.2383   18.8241   22.7467 C   0  0  0  0  0  0  0  0  0  0  0  0
   20.9676   19.0623   23.5325 H   0  0  0  0  0  0  0  0  0  0  0  0
   20.7674   18.2264   21.9916 H   0  0  0  0  0  0  0  0  0  0  0  0
   19.0742   17.9941   23.3389 C   0  0  0  0  0  0  0  0  0  0  0  0
   18.5570   18.5781   24.1120 H   0  0  0  0  0  0  0  0  0  0  0  0
   18.3309   17.8043   22.5523 H   0  0  0  0  0  0  0  0  0  0  0  0
   19.5308   16.6337   23.9231 C   0  0  0  0  0  0  0  0  0  0  0  0
   19.9672   16.0237   23.1210 H   0  0  0  0  0  0  0  0  0  0  0  0
   18.6534   16.0811   24.2845 H   0  0  0  0  0  0  0  0  0  0  0  0
   20.5577   16.7539   25.0674 C   0  0  0  0  0  0  0  0  0  0  0  0
   20.8456   15.7539   25.4030 H   0  0  0  0  0  0  0  0  0  0  0  0
   21.4557   17.2620   24.7070 H   0  0  0  0  0  0  0  0  0  0  0  0
   20.0393   17.5135   26.2725 N   0  3  0  0  0  0  0  0  0  0  0  0
   19.2090   17.0669   26.6752 H   0  0  0  0  0  0  0  0  0  0  0  0
   19.7793   18.4744   26.0295 H   0  0  0  0  0  0  0  0  0  0  0  0
   20.7411   17.5700   27.0184 H   0  0  0  0  0  0  0  0  0  0  0  0
  1  2  1  0  0  0  0
  1  3  1  0  0  0  0
  1  4  1  0  0  0  0
  1  5  1  0  0  0  0
  5  6  1  0  0  0  0
  5  7  1  0  0  0  0
  5  8  1  0  0  0  0
  8  9  1  0  0  0  0
  8 10  1  0  0  0  0
  8 11  1  0  0  0  0
 11 12  1  0  0  0  0
 11 13  1  0  0  0  0
 11 14  1  0  0  0  0
 14 15  1  0  0  0  0
 14 16  1  0  0  0  0
 14 17  1  0  0  0  0
 17 18  1  0  0  0  0
 17 19  1  0  0  0  0
 17 20  1  0  0  0  0
 20 21  1  0  0  0  0
 20 22  1  0  0  0  0
 20 23  1  0  0  0  0
 23 24  1  0  0  0  0
 23 25  1  0  0  0  0
 23 26  1  0  0  0  0
M  END
> <VConfSearch Rank>
295

> <Conf_Id>
83

> <Delta U+W>
0.559

> <U+W>
-4.994

> <U>
48.668

> <W>
-53.661

> <W(PB)>
-55.972

> <W(SA)>
2.311

> <Valence>
2.543

> <Coulomb>
45.478

> <VdW>
0.646

> <VdW6>
-7.096

> <VdW12>
7.742

> <Bond>
0.176

> <Angle>
0.630

> <Pdih>
1.738

> <Idih>
0.000

> <Tether>
0.000

$$$$
VeraChem MOL file


 26 25  0  0  0  0  0  0  0  0999 V2000     
   21.1086   15.4066   21.9691 C   0  0  0  0  0  0  0  0  0  0  0  0
   21.8642   14.8497   22.5384 H   0  0  0  0  0  0  0  0  0  0  0  0
   20.1346   14.9274   22.1336 H   0  0  0  0  0  0  0  0  0  0  0  0
   21.3542   15.3138   20.9033 H   0  0  0  0  0  0  0  0  0  0  0  0
   21.0752   16.8902   22.3935 C   0  0  0  0  0  0  0  0  0  0  0  0
   20.3390   17.4204   21.7752 H   0  0  0  0  0  0  0  0  0  0  0  0
   22.0528   17.3491   22.1901 H   0  0  0  0  0  0  0  0  0  0  0  0
   20.7264   17.0464   23.8926 C   0  0  0  0  0  0  0  0  0  0  0  0
   19.7255   16.6358   24.0849 H   0  0  0  0  0  0  0  0  0  0  0  0
   21.4262   16.4420   24.4862 H   0  0  0  0  0  0  0  0  0  0  0  0
   20.7932   18.5091   24.3965 C   0  0  0  0  0  0  0  0  0  0  0  0
   21.7988   18.9142   24.2171 H   0  0  0  0  0  0  0  0  0  0  0  0
   20.6518   18.5072   25.4862 H   0  0  0  0  0  0  0  0  0  0  0  0
   19.7339   19.4354   23.7522 C   0  0  0  0  0  0  0  0  0  0  0  0
   19.9098   19.5021   22.6714 H   0  0  0  0  0  0  0  0  0  0  0  0
   18.7342   19.0001   23.8886 H   0  0  0  0  0  0  0  0  0  0  0  0
   19.7653   20.8546   24.3674 C   0  0  0  0  0  0  0  0  0  0  0  0
   20.7525   21.3101   24.2125 H   0  0  0  0  0  0  0  0  0  0  0  0
   19.6199   20.7839   25.4536 H   0  0  0  0  0  0  0  0  0  0  0  0
   18.6758   21.7787   23.7900 C   0  0  0  0  0  0  0  0  0  0  0  0
   17.6922   21.3239   23.9355 H   0  0  0  0  0  0  0  0  0  0  0  0
   18.6916   22.7340   24.3218 H   0  0  0  0  0  0  0  0  0  0  0  0
   18.8443   22.0730   22.3122 N   0  3  0  0  0  0  0  0  0  0  0  0
   18.8008   21.2192   21.7475 H   0  0  0  0  0  0  0  0  0  0  0  0
   19.7439   22.5229   22.1138 H   0  0  0  0  0  0  0  0  0  0  0  0
   18.1120   22.7011   21.9635 H   0  0  0  0  0  0  0  0  0  0  0  0
  1  2  1  0  0  0  0
  1  3  1  0  0  0  0
  1  4  1  0  0  0  0
  1  5  1  0  0  0  0
  5  6  1  0  0  0  0
  5  7  1  0  0  0  0
  5  8  1  0  0  0  0
  8  9  1  0  0  0  0
  8 10  1  0  0  0  0
  8 11  1  0  0  0  0
 11 12  1  0  0  0  0
 11 13  1  0  0  0  0
 11 14  1  0  0  0  0
 14 15  1  0  0  0  0
 14 16  1  0  0  0  0
 14 17  1  0  0  0  0
 17 18  1  0  0  0  0
 17 19  1  0  0  0  0
 17 20  1  0  0  0  0
 20 21  1  0  0  0  0
 20 22  1  0  0  0  0
 20 23  1  0  0  0  0
 23 24  1  0  0  0  0
 23 25  1  0  0  0  0
 23 26  1  0  0  0  0
M  END
> <VConfSearch Rank>
296

> <Conf_Id>
18

> <Delta U+W>
0.759

> <U+W>
-4.793

> <U>
48.945

> <W>
-53.738

> <W(PB)>
-56.051

> <W(SA)>
2.313

> <Valence>
2.802

> <Coulomb>
45.335

> <VdW>
0.807

> <VdW6>
-6.962

> <VdW12>
7.769

> <Bond>
0.189

> <Angle>
0.696

> <Pdih>
1.917

> <Idih>
0.000

> <Tether>
0.000

$$$$
VeraChem MOL file


 26 25  0  0  0  0  0  0  0  0999 V2000     
   21.1581   22.4958   22.2951 C   0  0  0  0  0  0  0  0  0  0  0  0
   21.7314   22.6852   23.2120 H   0  0  0  0  0  0  0  0  0  0  0  0
   21.8386   22.5962   21.4395 H   0  0  0  0  0  0  0  0  0  0  0  0
   20.3919   23.2772   22.2093 H   0  0  0  0  0  0  0  0  0  0  0  0
   20.5081   21.0963   22.3267 C   0  0  0  0  0  0  0  0  0  0  0  0
   19.9187   20.9478   21.4112 H   0  0  0  0  0  0  0  0  0  0  0  0
   19.8059   21.0493   23.1694 H   0  0  0  0  0  0  0  0  0  0  0  0
   21.5695   19.9777   22.4520 C   0  0  0  0  0  0  0  0  0  0  0  0
   22.3070   20.0943   21.6459 H   0  0  0  0  0  0  0  0  0  0  0  0
   22.1223   20.0953   23.3942 H   0  0  0  0  0  0  0  0  0  0  0  0
   20.9782   18.5488   22.3718 C   0  0  0  0  0  0  0  0  0  0  0  0
   21.8093   17.8305   22.3474 H   0  0  0  0  0  0  0  0  0  0  0  0
   20.4379   18.4272   21.4228 H   0  0  0  0  0  0  0  0  0  0  0  0
   20.0431   18.1980   23.5542 C   0  0  0  0  0  0  0  0  0  0  0  0
   20.5704   18.3708   24.5027 H   0  0  0  0  0  0  0  0  0  0  0  0
   19.1713   18.8639   23.5460 H   0  0  0  0  0  0  0  0  0  0  0  0
   19.5680   16.7270   23.4905 C   0  0  0  0  0  0  0  0  0  0  0  0
   20.4421   16.0627   23.4676 H   0  0  0  0  0  0  0  0  0  0  0  0
   19.0155   16.5500   22.5580 H   0  0  0  0  0  0  0  0  0  0  0  0
   18.6885   16.3322   24.6926 C   0  0  0  0  0  0  0  0  0  0  0  0
   18.4569   15.2650   24.6372 H   0  0  0  0  0  0  0  0  0  0  0  0
   19.2330   16.5149   25.6229 H   0  0  0  0  0  0  0  0  0  0  0  0
   17.3738   17.0844   24.7611 N   0  3  0  0  0  0  0  0  0  0  0  0
   16.8051   16.9343   23.9214 H   0  0  0  0  0  0  0  0  0  0  0  0
   17.5185   18.0946   24.8530 H   0  0  0  0  0  0  0  0  0  0  0  0
   16.8073   16.7881   25.5633 H   0  0  0  0  0  0  0  0  0  0  0  0
  1  2  1  0  0  0  0
  1  3  1  0  0  0  0
  1  4  1  0  0  0  0
  1  5  1  0  0  0  0
  5  6  1  0  0  0  0
  5  7  1  0  0  0  0
  5  8  1  0  0  0  0
  8  9  1  0  0  0  0
  8 10  1  0  0  0  0
  8 11  1  0  0  0  0
 11 12  1  0  0  0  0
 11 13  1  0  0  0  0
 11 14  1  0  0  0  0
 14 15  1  0  0  0  0
 14 16  1  0  0  0  0
 14 17  1  0  0  0  0
 17 18  1  0  0  0  0
 17 19  1  0  0  0  0
 17 20  1  0  0  0  0
 20 21  1  0  0  0  0
 20 22  1  0  0  0  0
 20 23  1  0  0  0  0
 23 24  1  0  0  0  0
 23 25  1  0  0  0  0
 23 26  1  0  0  0  0
M  END
> <VConfSearch Rank>
297

> <Conf_Id>
17

> <Delta U+W>
0.843

> <U+W>
-4.709

> <U>
48.945

> <W>
-53.653

> <W(PB)>
-55.991

> <W(SA)>
2.338

> <Valence>
2.802

> <Coulomb>
45.335

> <VdW>
0.807

> <VdW6>
-6.962

> <VdW12>
7.769

> <Bond>
0.189

> <Angle>
0.696

> <Pdih>
1.917

> <Idih>
0.000

> <Tether>
0.000

$$$$
VeraChem MOL file


 26 25  0  0  0  0  0  0  0  0999 V2000     
   18.8651   21.7406   21.6760 C   0  0  0  0  0  0  0  0  0  0  0  0
   19.9275   21.4840   21.7700 H   0  0  0  0  0  0  0  0  0  0  0  0
   18.4493   21.1818   20.8276 H   0  0  0  0  0  0  0  0  0  0  0  0
   18.8045   22.8100   21.4356 H   0  0  0  0  0  0  0  0  0  0  0  0
   18.0892   21.4343   22.9772 C   0  0  0  0  0  0  0  0  0  0  0  0
   17.0652   21.8209   22.8778 H   0  0  0  0  0  0  0  0  0  0  0  0
   18.5437   21.9803   23.8157 H   0  0  0  0  0  0  0  0  0  0  0  0
   18.0194   19.9247   23.3117 C   0  0  0  0  0  0  0  0  0  0  0  0
   17.3606   19.7909   24.1809 H   0  0  0  0  0  0  0  0  0  0  0  0
   17.5458   19.3861   22.4793 H   0  0  0  0  0  0  0  0  0  0  0  0
   19.3995   19.2969   23.6216 C   0  0  0  0  0  0  0  0  0  0  0  0
   19.8904   19.8687   24.4212 H   0  0  0  0  0  0  0  0  0  0  0  0
   20.0427   19.3685   22.7356 H   0  0  0  0  0  0  0  0  0  0  0  0
   19.2709   17.8154   24.0504 C   0  0  0  0  0  0  0  0  0  0  0  0
   18.5920   17.7457   24.9116 H   0  0  0  0  0  0  0  0  0  0  0  0
   18.8068   17.2344   23.2412 H   0  0  0  0  0  0  0  0  0  0  0  0
   20.6252   17.1743   24.4346 C   0  0  0  0  0  0  0  0  0  0  0  0
   20.4443   16.1588   24.8115 H   0  0  0  0  0  0  0  0  0  0  0  0
   21.0802   17.7393   25.2591 H   0  0  0  0  0  0  0  0  0  0  0  0
   21.6079   17.1037   23.2507 C   0  0  0  0  0  0  0  0  0  0  0  0
   21.1552   16.5408   22.4299 H   0  0  0  0  0  0  0  0  0  0  0  0
   21.8318   18.1125   22.8944 H   0  0  0  0  0  0  0  0  0  0  0  0
   22.9198   16.4357   23.6084 N   0  3  0  0  0  0  0  0  0  0  0  0
   23.5595   16.3986   22.8073 H   0  0  0  0  0  0  0  0  0  0  0  0
   22.7830   15.4704   23.9258 H   0  0  0  0  0  0  0  0  0  0  0  0
   23.4099   16.9335   24.3589 H   0  0  0  0  0  0  0  0  0  0  0  0
  1  2  1  0  0  0  0
  1  3  1  0  0  0  0
  1  4  1  0  0  0  0
  1  5  1  0  0  0  0
  5  6  1  0  0  0  0
  5  7  1  0  0  0  0
  5  8  1  0  0  0  0
  8  9  1  0  0  0  0
  8 10  1  0  0  0  0
  8 11  1  0  0  0  0
 11 12  1  0  0  0  0
 11 13  1  0  0  0  0
 11 14  1  0  0  0  0
 14 15  1  0  0  0  0
 14 16  1  0  0  0  0
 14 17  1  0  0  0  0
 17 18  1  0  0  0  0
 17 19  1  0  0  0  0
 17 20  1  0  0  0  0
 20 21  1  0  0  0  0
 20 22  1  0  0  0  0
 20 23  1  0  0  0  0
 23 24  1  0  0  0  0
 23 25  1  0  0  0  0
 23 26  1  0  0  0  0
M  END
> <VConfSearch Rank>
298

> <Conf_Id>
96

> <Delta U+W>
0.912

> <U+W>
-4.640

> <U>
48.723

> <W>
-53.364

> <W(PB)>
-55.683

> <W(SA)>
2.320

> <Valence>
2.962

> <Coulomb>
44.993

> <VdW>
0.768

> <VdW6>
-7.008

> <VdW12>
7.776

> <Bond>
0.188

> <Angle>
0.757

> <Pdih>
2.018

> <Idih>
0.000

> <Tether>
0.000

$$$$
VeraChem MOL file


 26 25  0  0  0  0  0  0  0  0999 V2000     
   21.6029   17.2479   20.7406 C   0  0  0  0  0  0  0  0  0  0  0  0
   21.9546   16.3780   20.1710 H   0  0  0  0  0  0  0  0  0  0  0  0
   22.1494   18.1288   20.3795 H   0  0  0  0  0  0  0  0  0  0  0  0
   21.8706   17.0835   21.7917 H   0  0  0  0  0  0  0  0  0  0  0  0
   20.0781   17.4289   20.5643 C   0  0  0  0  0  0  0  0  0  0  0  0
   19.5530   16.5490   20.9615 H   0  0  0  0  0  0  0  0  0  0  0  0
   19.8480   17.4652   19.4903 H   0  0  0  0  0  0  0  0  0  0  0  0
   19.5288   18.7123   21.2330 C   0  0  0  0  0  0  0  0  0  0  0  0
   20.0424   19.5906   20.8181 H   0  0  0  0  0  0  0  0  0  0  0  0
   18.4688   18.8185   20.9640 H   0  0  0  0  0  0  0  0  0  0  0  0
   19.6618   18.7099   22.7748 C   0  0  0  0  0  0  0  0  0  0  0  0
   20.7226   18.6694   23.0517 H   0  0  0  0  0  0  0  0  0  0  0  0
   19.1895   17.8051   23.1814 H   0  0  0  0  0  0  0  0  0  0  0  0
   19.0085   19.9623   23.4073 C   0  0  0  0  0  0  0  0  0  0  0  0
   19.4982   20.8688   23.0250 H   0  0  0  0  0  0  0  0  0  0  0  0
   17.9575   20.0204   23.0917 H   0  0  0  0  0  0  0  0  0  0  0  0
   19.0617   19.9602   24.9532 C   0  0  0  0  0  0  0  0  0  0  0  0
   18.5523   19.0670   25.3388 H   0  0  0  0  0  0  0  0  0  0  0  0
   18.5036   20.8277   25.3300 H   0  0  0  0  0  0  0  0  0  0  0  0
   20.5009   20.0122   25.4996 C   0  0  0  0  0  0  0  0  0  0  0  0
   21.0549   19.1301   25.1686 H   0  0  0  0  0  0  0  0  0  0  0  0
   21.0079   20.9018   25.1163 H   0  0  0  0  0  0  0  0  0  0  0  0
   20.5590   20.0562   27.0129 N   0  3  0  0  0  0  0  0  0  0  0  0
   20.1209   19.2316   27.4363 H   0  0  0  0  0  0  0  0  0  0  0  0
   20.0789   20.8800   27.3899 H   0  0  0  0  0  0  0  0  0  0  0  0
   21.5251   20.0907   27.3563 H   0  0  0  0  0  0  0  0  0  0  0  0
  1  2  1  0  0  0  0
  1  3  1  0  0  0  0
  1  4  1  0  0  0  0
  1  5  1  0  0  0  0
  5  6  1  0  0  0  0
  5  7  1  0  0  0  0
  5  8  1  0  0  0  0
  8  9  1  0  0  0  0
  8 10  1  0  0  0  0
  8 11  1  0  0  0  0
 11 12  1  0  0  0  0
 11 13  1  0  0  0  0
 11 14  1  0  0  0  0
 14 15  1  0  0  0  0
 14 16  1  0  0  0  0
 14 17  1  0  0  0  0
 17 18  1  0  0  0  0
 17 19  1  0  0  0  0
 17 20  1  0  0  0  0
 20 21  1  0  0  0  0
 20 22  1  0  0  0  0
 20 23  1  0  0  0  0
 23 24  1  0  0  0  0
 23 25  1  0  0  0  0
 23 26  1  0  0  0  0
M  END
> <VConfSearch Rank>
299

> <Conf_Id>
133

> <Delta U+W>
0.844

> <U+W>
-4.708

> <U>
48.723

> <W>
-53.431

> <W(PB)>
-55.776

> <W(SA)>
2.344

> <Valence>
2.962

> <Coulomb>
44.993

> <VdW>
0.768

> <VdW6>
-7.008

> <VdW12>
7.776

> <Bond>
0.188

> <Angle>
0.756

> <Pdih>
2.018

> <Idih>
0.000

> <Tether>
0.000

$$$$
VeraChem MOL file


 26 25  0  0  0  0  0  0  0  0999 V2000     
   20.8177   16.0691   21.7491 C   0  0  0  0  0  0  0  0  0  0  0  0
   21.0209   16.1275   20.6719 H   0  0  0  0  0  0  0  0  0  0  0  0
   21.4706   16.7861   22.2621 H   0  0  0  0  0  0  0  0  0  0  0  0
   21.0982   15.0641   22.0901 H   0  0  0  0  0  0  0  0  0  0  0  0
   19.3272   16.3461   22.0488 C   0  0  0  0  0  0  0  0  0  0  0  0
   19.1524   16.3021   23.1321 H   0  0  0  0  0  0  0  0  0  0  0  0
   18.7230   15.5374   21.6145 H   0  0  0  0  0  0  0  0  0  0  0  0
   18.8244   17.6972   21.4790 C   0  0  0  0  0  0  0  0  0  0  0  0
   18.8953   17.6681   20.3830 H   0  0  0  0  0  0  0  0  0  0  0  0
   17.7549   17.8016   21.7080 H   0  0  0  0  0  0  0  0  0  0  0  0
   19.5746   18.9535   21.9921 C   0  0  0  0  0  0  0  0  0  0  0  0
   19.1410   19.8373   21.5040 H   0  0  0  0  0  0  0  0  0  0  0  0
   20.6249   18.9184   21.6738 H   0  0  0  0  0  0  0  0  0  0  0  0
   19.4975   19.1368   23.5268 C   0  0  0  0  0  0  0  0  0  0  0  0
   18.4461   19.1262   23.8459 H   0  0  0  0  0  0  0  0  0  0  0  0
   19.9927   18.2953   24.0292 H   0  0  0  0  0  0  0  0  0  0  0  0
   20.1607   20.4556   23.9812 C   0  0  0  0  0  0  0  0  0  0  0  0
   19.6662   21.3062   23.4934 H   0  0  0  0  0  0  0  0  0  0  0  0
   21.2122   20.4687   23.6644 H   0  0  0  0  0  0  0  0  0  0  0  0
   20.0842   20.6270   25.5085 C   0  0  0  0  0  0  0  0  0  0  0  0
   19.0381   20.6306   25.8265 H   0  0  0  0  0  0  0  0  0  0  0  0
   20.5900   19.7907   25.9987 H   0  0  0  0  0  0  0  0  0  0  0  0
   20.7251   21.9109   25.9945 N   0  3  0  0  0  0  0  0  0  0  0  0
   20.6631   22.0054   27.0141 H   0  0  0  0  0  0  0  0  0  0  0  0
   20.2758   22.7392   25.5903 H   0  0  0  0  0  0  0  0  0  0  0  0
   21.7198   21.9578   25.7504 H   0  0  0  0  0  0  0  0  0  0  0  0
  1  2  1  0  0  0  0
  1  3  1  0  0  0  0
  1  4  1  0  0  0  0
  1  5  1  0  0  0  0
  5  6  1  0  0  0  0
  5  7  1  0  0  0  0
  5  8  1  0  0  0  0
  8  9  1  0  0  0  0
  8 10  1  0  0  0  0
  8 11  1  0  0  0  0
 11 12  1  0  0  0  0
 11 13  1  0  0  0  0
 11 14  1  0  0  0  0
 14 15  1  0  0  0  0
 14 16  1  0  0  0  0
 14 17  1  0  0  0  0
 17 18  1  0  0  0  0
 17 19  1  0  0  0  0
 17 20  1  0  0  0  0
 20 21  1  0  0  0  0
 20 22  1  0  0  0  0
 20 23  1  0  0  0  0
 23 24  1  0  0  0  0
 23 25  1  0  0  0  0
 23 26  1  0  0  0  0
M  END
> <VConfSearch Rank>
300

> <Conf_Id>
106

> <Delta U+W>
0.767

> <U+W>
-4.785

> <U>
48.494

> <W>
-53.279

> <W(PB)>
-55.569

> <W(SA)>
2.290

> <Valence>
3.117

> <Coulomb>
44.693

> <VdW>
0.684

> <VdW6>
-7.347

> <VdW12>
8.030

> <Bond>
0.208

> <Angle>
1.039

> <Pdih>
1.870

> <Idih>
0.000

> <Tether>
0.000

$$$$
VeraChem MOL file


 26 25  0  0  0  0  0  0  0  0999 V2000     
   23.5874   17.0492   25.2583 C   0  0  0  0  0  0  0  0  0  0  0  0
   23.4665   16.0713   24.7741 H   0  0  0  0  0  0  0  0  0  0  0  0
   24.3287   17.6239   24.6878 H   0  0  0  0  0  0  0  0  0  0  0  0
   23.9939   16.8794   26.2638 H   0  0  0  0  0  0  0  0  0  0  0  0
   22.2415   17.8008   25.3344 C   0  0  0  0  0  0  0  0  0  0  0  0
   22.3877   18.7587   25.8530 H   0  0  0  0  0  0  0  0  0  0  0  0
   21.5322   17.2181   25.9388 H   0  0  0  0  0  0  0  0  0  0  0  0
   21.6469   18.0528   23.9311 C   0  0  0  0  0  0  0  0  0  0  0  0
   22.3603   18.6334   23.3300 H   0  0  0  0  0  0  0  0  0  0  0  0
   21.5046   17.0928   23.4159 H   0  0  0  0  0  0  0  0  0  0  0  0
   20.2990   18.8055   24.0031 C   0  0  0  0  0  0  0  0  0  0  0  0
   20.4421   19.7652   24.5188 H   0  0  0  0  0  0  0  0  0  0  0  0
   19.5864   18.2244   24.6048 H   0  0  0  0  0  0  0  0  0  0  0  0
   19.7045   19.0572   22.5990 C   0  0  0  0  0  0  0  0  0  0  0  0
   20.4169   19.6383   21.9969 H   0  0  0  0  0  0  0  0  0  0  0  0
   19.5611   18.0975   22.0830 H   0  0  0  0  0  0  0  0  0  0  0  0
   18.3574   19.8095   22.6702 C   0  0  0  0  0  0  0  0  0  0  0  0
   18.4975   20.7718   23.1804 H   0  0  0  0  0  0  0  0  0  0  0  0
   17.6408   19.2294   23.2669 H   0  0  0  0  0  0  0  0  0  0  0  0
   17.7745   20.0546   21.2672 C   0  0  0  0  0  0  0  0  0  0  0  0
   18.4777   20.6461   20.6746 H   0  0  0  0  0  0  0  0  0  0  0  0
   17.6179   19.0980   20.7613 H   0  0  0  0  0  0  0  0  0  0  0  0
   16.4509   20.7912   21.2947 N   0  3  0  0  0  0  0  0  0  0  0  0
   16.0803   20.9441   20.3504 H   0  0  0  0  0  0  0  0  0  0  0  0
   16.5357   21.7134   21.7348 H   0  0  0  0  0  0  0  0  0  0  0  0
   15.7357   20.2729   21.8155 H   0  0  0  0  0  0  0  0  0  0  0  0
  1  2  1  0  0  0  0
  1  3  1  0  0  0  0
  1  4  1  0  0  0  0
  1  5  1  0  0  0  0
  5  6  1  0  0  0  0
  5  7  1  0  0  0  0
  5  8  1  0  0  0  0
  8  9  1  0  0  0  0
  8 10  1  0  0  0  0
  8 11  1  0  0  0  0
 11 12  1  0  0  0  0
 11 13  1  0  0  0  0
 11 14  1  0  0  0  0
 14 15  1  0  0  0  0
 14 16  1  0  0  0  0
 14 17  1  0  0  0  0
 17 18  1  0  0  0  0
 17 19  1  0  0  0  0
 17 20  1  0  0  0  0
 20 21  1  0  0  0  0
 20 22  1  0  0  0  0
 20 23  1  0  0  0  0
 23 24  1  0  0  0  0
 23 25  1  0  0  0  0
 23 26  1  0  0  0  0
M  END
> <VConfSearch Rank>
301

> <Conf_Id>
25

> <Delta U+W>
0.000

> <U+W>
-5.552

> <U>
47.192

> <W>
-52.745

> <W(PB)>
-55.134

> <W(SA)>
2.389

> <Valence>
2.156

> <Coulomb>
44.449

> <VdW>
0.587

> <VdW6>
-5.761

> <VdW12>
6.348

> <Bond>
0.129

> <Angle>
0.393

> <Pdih>
1.634

> <Idih>
0.000

> <Tether>
0.000

$$$$
VeraChem MOL file


 26 25  0  0  0  0  0  0  0  0999 V2000     
   22.3412   22.6272   22.9773 C   0  0  0  0  0  0  0  0  0  0  0  0
   22.9750   22.2777   22.1517 H   0  0  0  0  0  0  0  0  0  0  0  0
   21.4891   23.1701   22.5480 H   0  0  0  0  0  0  0  0  0  0  0  0
   22.9273   23.3378   23.5745 H   0  0  0  0  0  0  0  0  0  0  0  0
   21.8644   21.4461   23.8489 C   0  0  0  0  0  0  0  0  0  0  0  0
   21.2619   21.8295   24.6843 H   0  0  0  0  0  0  0  0  0  0  0  0
   22.7363   20.9440   24.2911 H   0  0  0  0  0  0  0  0  0  0  0  0
   21.0361   20.4298   23.0319 C   0  0  0  0  0  0  0  0  0  0  0  0
   20.1672   20.9368   22.5900 H   0  0  0  0  0  0  0  0  0  0  0  0
   21.6417   20.0511   22.1968 H   0  0  0  0  0  0  0  0  0  0  0  0
   20.5568   19.2456   23.9015 C   0  0  0  0  0  0  0  0  0  0  0  0
   19.9512   19.6251   24.7362 H   0  0  0  0  0  0  0  0  0  0  0  0
   21.4265   18.7401   24.3437 H   0  0  0  0  0  0  0  0  0  0  0  0
   19.7287   18.2288   23.0836 C   0  0  0  0  0  0  0  0  0  0  0  0
   18.8640   18.7402   22.6402 H   0  0  0  0  0  0  0  0  0  0  0  0
   20.3354   17.8471   22.2507 H   0  0  0  0  0  0  0  0  0  0  0  0
   19.2491   17.0447   23.9561 C   0  0  0  0  0  0  0  0  0  0  0  0
   18.6156   17.4122   24.7744 H   0  0  0  0  0  0  0  0  0  0  0  0
   20.1177   16.5629   24.4245 H   0  0  0  0  0  0  0  0  0  0  0  0
   18.4798   15.9824   23.1474 C   0  0  0  0  0  0  0  0  0  0  0  0
   19.1059   15.6188   22.3281 H   0  0  0  0  0  0  0  0  0  0  0  0
   18.2414   15.1351   23.7961 H   0  0  0  0  0  0  0  0  0  0  0  0
   17.1787   16.4890   22.5564 N   0  3  0  0  0  0  0  0  0  0  0  0
   17.3339   17.2652   21.9058 H   0  0  0  0  0  0  0  0  0  0  0  0
   16.5364   16.8247   23.2815 H   0  0  0  0  0  0  0  0  0  0  0  0
   16.6857   15.7551   22.0361 H   0  0  0  0  0  0  0  0  0  0  0  0
  1  2  1  0  0  0  0
  1  3  1  0  0  0  0
  1  4  1  0  0  0  0
  1  5  1  0  0  0  0
  5  6  1  0  0  0  0
  5  7  1  0  0  0  0
  5  8  1  0  0  0  0
  8  9  1  0  0  0  0
  8 10  1  0  0  0  0
  8 11  1  0  0  0  0
 11 12  1  0  0  0  0
 11 13  1  0  0  0  0
 11 14  1  0  0  0  0
 14 15  1  0  0  0  0
 14 16  1  0  0  0  0
 14 17  1  0  0  0  0
 17 18  1  0  0  0  0
 17 19  1  0  0  0  0
 17 20  1  0  0  0  0
 20 21  1  0  0  0  0
 20 22  1  0  0  0  0
 20 23  1  0  0  0  0
 23 24  1  0  0  0  0
 23 25  1  0  0  0  0
 23 26  1  0  0  0  0
M  END
> <VConfSearch Rank>
302

> <Conf_Id>
20

> <Delta U+W>
0.150

> <U+W>
-5.403

> <U>
47.845

> <W>
-53.248

> <W(PB)>
-55.599

> <W(SA)>
2.351

> <Valence>
2.258

> <Coulomb>
44.893

> <VdW>
0.694

> <VdW6>
-6.285

> <VdW12>
6.979

> <Bond>
0.149

> <Angle>
0.434

> <Pdih>
1.675

> <Idih>
0.000

> <Tether>
0.000

$$$$
VeraChem MOL file


 26 25  0  0  0  0  0  0  0  0999 V2000     
   21.0409   21.8216   20.2474 C   0  0  0  0  0  0  0  0  0  0  0  0
   22.0314   21.9660   20.6983 H   0  0  0  0  0  0  0  0  0  0  0  0
   21.1379   21.0878   19.4366 H   0  0  0  0  0  0  0  0  0  0  0  0
   20.7307   22.7761   19.8027 H   0  0  0  0  0  0  0  0  0  0  0  0
   20.0150   21.3522   21.3007 C   0  0  0  0  0  0  0  0  0  0  0  0
   19.0281   21.2495   20.8279 H   0  0  0  0  0  0  0  0  0  0  0  0
   19.9147   22.1208   22.0798 H   0  0  0  0  0  0  0  0  0  0  0  0
   20.4279   20.0093   21.9428 C   0  0  0  0  0  0  0  0  0  0  0  0
   20.5290   19.2448   21.1600 H   0  0  0  0  0  0  0  0  0  0  0  0
   21.4158   20.1163   22.4119 H   0  0  0  0  0  0  0  0  0  0  0  0
   19.4029   19.5360   22.9982 C   0  0  0  0  0  0  0  0  0  0  0  0
   18.4153   19.4306   22.5282 H   0  0  0  0  0  0  0  0  0  0  0  0
   19.3026   20.3008   23.7808 H   0  0  0  0  0  0  0  0  0  0  0  0
   19.8160   18.1921   23.6399 C   0  0  0  0  0  0  0  0  0  0  0  0
   19.9134   17.4266   22.8575 H   0  0  0  0  0  0  0  0  0  0  0  0
   20.8055   18.3019   24.1036 H   0  0  0  0  0  0  0  0  0  0  0  0
   18.7892   17.7206   24.6967 C   0  0  0  0  0  0  0  0  0  0  0  0
   17.7964   17.6497   24.2327 H   0  0  0  0  0  0  0  0  0  0  0  0
   18.7072   18.4647   25.5002 H   0  0  0  0  0  0  0  0  0  0  0  0
   19.1439   16.3482   25.3007 C   0  0  0  0  0  0  0  0  0  0  0  0
   18.3433   16.0306   25.9743 H   0  0  0  0  0  0  0  0  0  0  0  0
   19.2322   15.6063   24.5024 H   0  0  0  0  0  0  0  0  0  0  0  0
   20.4377   16.3451   26.0912 N   0  3  0  0  0  0  0  0  0  0  0  0
   20.4083   17.0083   26.8724 H   0  0  0  0  0  0  0  0  0  0  0  0
   21.2402   16.5999   25.5071 H   0  0  0  0  0  0  0  0  0  0  0  0
   20.6380   15.4214   26.4900 H   0  0  0  0  0  0  0  0  0  0  0  0
  1  2  1  0  0  0  0
  1  3  1  0  0  0  0
  1  4  1  0  0  0  0
  1  5  1  0  0  0  0
  5  6  1  0  0  0  0
  5  7  1  0  0  0  0
  5  8  1  0  0  0  0
  8  9  1  0  0  0  0
  8 10  1  0  0  0  0
  8 11  1  0  0  0  0
 11 12  1  0  0  0  0
 11 13  1  0  0  0  0
 11 14  1  0  0  0  0
 14 15  1  0  0  0  0
 14 16  1  0  0  0  0
 14 17  1  0  0  0  0
 17 18  1  0  0  0  0
 17 19  1  0  0  0  0
 17 20  1  0  0  0  0
 20 21  1  0  0  0  0
 20 22  1  0  0  0  0
 20 23  1  0  0  0  0
 23 24  1  0  0  0  0
 23 25  1  0  0  0  0
 23 26  1  0  0  0  0
M  END
> <VConfSearch Rank>
303

> <Conf_Id>
19

> <Delta U+W>
0.162

> <U+W>
-5.391

> <U>
47.845

> <W>
-53.235

> <W(PB)>
-55.585

> <W(SA)>
2.349

> <Valence>
2.258

> <Coulomb>
44.893

> <VdW>
0.694

> <VdW6>
-6.285

> <VdW12>
6.979

> <Bond>
0.149

> <Angle>
0.434

> <Pdih>
1.675

> <Idih>
0.000

> <Tether>
0.000

$$$$
VeraChem MOL file


 26 25  0  0  0  0  0  0  0  0999 V2000     
   20.7480   19.9241   19.2816 C   0  0  0  0  0  0  0  0  0  0  0  0
   19.9443   20.4791   18.7802 H   0  0  0  0  0  0  0  0  0  0  0  0
   21.5768   20.6186   19.4708 H   0  0  0  0  0  0  0  0  0  0  0  0
   21.1068   19.1519   18.5887 H   0  0  0  0  0  0  0  0  0  0  0  0
   20.2474   19.2873   20.5954 C   0  0  0  0  0  0  0  0  0  0  0  0
   21.0654   18.7088   21.0447 H   0  0  0  0  0  0  0  0  0  0  0  0
   19.4397   18.5767   20.3710 H   0  0  0  0  0  0  0  0  0  0  0  0
   19.7401   20.3577   21.5905 C   0  0  0  0  0  0  0  0  0  0  0  0
   20.5623   21.0366   21.8554 H   0  0  0  0  0  0  0  0  0  0  0  0
   18.9793   20.9750   21.0929 H   0  0  0  0  0  0  0  0  0  0  0  0
   19.1220   19.7629   22.8798 C   0  0  0  0  0  0  0  0  0  0  0  0
   18.2899   19.0961   22.6147 H   0  0  0  0  0  0  0  0  0  0  0  0
   18.6849   20.5833   23.4656 H   0  0  0  0  0  0  0  0  0  0  0  0
   20.1416   19.0019   23.7612 C   0  0  0  0  0  0  0  0  0  0  0  0
   20.5326   18.1318   23.2175 H   0  0  0  0  0  0  0  0  0  0  0  0
   20.9986   19.6545   23.9789 H   0  0  0  0  0  0  0  0  0  0  0  0
   19.5092   18.5242   25.0870 C   0  0  0  0  0  0  0  0  0  0  0  0
   18.6528   17.8706   24.8736 H   0  0  0  0  0  0  0  0  0  0  0  0
   19.1246   19.3875   25.6463 H   0  0  0  0  0  0  0  0  0  0  0  0
   20.5280   17.7655   25.9555 C   0  0  0  0  0  0  0  0  0  0  0  0
   20.9017   16.8951   25.4093 H   0  0  0  0  0  0  0  0  0  0  0  0
   21.3751   18.4179   26.1841 H   0  0  0  0  0  0  0  0  0  0  0  0
   19.9448   17.2796   27.2667 N   0  3  0  0  0  0  0  0  0  0  0  0
   19.1585   16.6379   27.1209 H   0  0  0  0  0  0  0  0  0  0  0  0
   19.5990   18.0549   27.8418 H   0  0  0  0  0  0  0  0  0  0  0  0
   20.6397   16.7771   27.8298 H   0  0  0  0  0  0  0  0  0  0  0  0
  1  2  1  0  0  0  0
  1  3  1  0  0  0  0
  1  4  1  0  0  0  0
  1  5  1  0  0  0  0
  5  6  1  0  0  0  0
  5  7  1  0  0  0  0
  5  8  1  0  0  0  0
  8  9  1  0  0  0  0
  8 10  1  0  0  0  0
  8 11  1  0  0  0  0
 11 12  1  0  0  0  0
 11 13  1  0  0  0  0
 11 14  1  0  0  0  0
 14 15  1  0  0  0  0
 14 16  1  0  0  0  0
 14 17  1  0  0  0  0
 17 18  1  0  0  0  0
 17 19  1  0  0  0  0
 17 20  1  0  0  0  0
 20 21  1  0  0  0  0
 20 22  1  0  0  0  0
 20 23  1  0  0  0  0
 23 24  1  0  0  0  0
 23 25  1  0  0  0  0
 23 26  1  0  0  0  0
M  END
> <VConfSearch Rank>
304

> <Conf_Id>
37

> <Delta U+W>
0.565

> <U+W>
-4.988

> <U>
48.035

> <W>
-53.022

> <W(PB)>
-55.379

> <W(SA)>
2.357

> <Valence>
2.701

> <Coulomb>
44.622

> <VdW>
0.712

> <VdW6>
-6.418

> <VdW12>
7.129

> <Bond>
0.168

> <Angle>
0.659

> <Pdih>
1.875

> <Idih>
0.000

> <Tether>
0.000

$$$$
VeraChem MOL file


 26 25  0  0  0  0  0  0  0  0999 V2000     
   20.9294   15.2605   21.8205 C   0  0  0  0  0  0  0  0  0  0  0  0
   20.9169   14.9988   22.8866 H   0  0  0  0  0  0  0  0  0  0  0  0
   19.9338   15.0549   21.4061 H   0  0  0  0  0  0  0  0  0  0  0  0
   21.6464   14.5974   21.3192 H   0  0  0  0  0  0  0  0  0  0  0  0
   21.3205   16.7395   21.6167 C   0  0  0  0  0  0  0  0  0  0  0  0
   21.3584   16.9612   20.5409 H   0  0  0  0  0  0  0  0  0  0  0  0
   22.3328   16.9067   22.0107 H   0  0  0  0  0  0  0  0  0  0  0  0
   20.3261   17.6955   22.3122 C   0  0  0  0  0  0  0  0  0  0  0  0
   19.3163   17.5261   21.9136 H   0  0  0  0  0  0  0  0  0  0  0  0
   20.2911   17.4574   23.3833 H   0  0  0  0  0  0  0  0  0  0  0  0
   20.7199   19.1788   22.1118 C   0  0  0  0  0  0  0  0  0  0  0  0
   20.8258   19.3782   21.0364 H   0  0  0  0  0  0  0  0  0  0  0  0
   21.7067   19.3640   22.5581 H   0  0  0  0  0  0  0  0  0  0  0  0
   19.6906   20.1775   22.6959 C   0  0  0  0  0  0  0  0  0  0  0  0
   19.9901   21.1948   22.4074 H   0  0  0  0  0  0  0  0  0  0  0  0
   18.7074   20.0040   22.2368 H   0  0  0  0  0  0  0  0  0  0  0  0
   19.5663   20.1091   24.2362 C   0  0  0  0  0  0  0  0  0  0  0  0
   20.5572   20.2321   24.6931 H   0  0  0  0  0  0  0  0  0  0  0  0
   19.1879   19.1256   24.5419 H   0  0  0  0  0  0  0  0  0  0  0  0
   18.6188   21.1978   24.7701 C   0  0  0  0  0  0  0  0  0  0  0  0
   18.9956   22.1846   24.4877 H   0  0  0  0  0  0  0  0  0  0  0  0
   17.6260   21.0698   24.3302 H   0  0  0  0  0  0  0  0  0  0  0  0
   18.4698   21.1683   26.2776 N   0  3  0  0  0  0  0  0  0  0  0  0
   19.3670   21.3107   26.7531 H   0  0  0  0  0  0  0  0  0  0  0  0
   18.0920   20.2739   26.6070 H   0  0  0  0  0  0  0  0  0  0  0  0
   17.8352   21.9016   26.6119 H   0  0  0  0  0  0  0  0  0  0  0  0
  1  2  1  0  0  0  0
  1  3  1  0  0  0  0
  1  4  1  0  0  0  0
  1  5  1  0  0  0  0
  5  6  1  0  0  0  0
  5  7  1  0  0  0  0
  5  8  1  0  0  0  0
  8  9  1  0  0  0  0
  8 10  1  0  0  0  0
  8 11  1  0  0  0  0
 11 12  1  0  0  0  0
 11 13  1  0  0  0  0
 11 14  1  0  0  0  0
 14 15  1  0  0  0  0
 14 16  1  0  0  0  0
 14 17  1  0  0  0  0
 17 18  1  0  0  0  0
 17 19  1  0  0  0  0
 17 20  1  0  0  0  0
 20 21  1  0  0  0  0
 20 22  1  0  0  0  0
 20 23  1  0  0  0  0
 23 24  1  0  0  0  0
 23 25  1  0  0  0  0
 23 26  1  0  0  0  0
M  END
> <VConfSearch Rank>
305

> <Conf_Id>
35

> <Delta U+W>
0.587

> <U+W>
-4.965

> <U>
48.214

> <W>
-53.179

> <W(PB)>
-55.527

> <W(SA)>
2.348

> <Valence>
2.697

> <Coulomb>
44.819

> <VdW>
0.699

> <VdW6>
-6.437

> <VdW12>
7.136

> <Bond>
0.168

> <Angle>
0.657

> <Pdih>
1.872

> <Idih>
0.000

> <Tether>
0.000

$$$$
VeraChem MOL file


 26 25  0  0  0  0  0  0  0  0999 V2000     
   20.4168   14.9593   23.1154 C   0  0  0  0  0  0  0  0  0  0  0  0
   19.8437   14.7783   24.0341 H   0  0  0  0  0  0  0  0  0  0  0  0
   19.7059   15.0928   22.2895 H   0  0  0  0  0  0  0  0  0  0  0  0
   21.0111   14.0604   22.9063 H   0  0  0  0  0  0  0  0  0  0  0  0
   21.3307   16.1939   23.2659 C   0  0  0  0  0  0  0  0  0  0  0  0
   21.9147   16.3298   22.3449 H   0  0  0  0  0  0  0  0  0  0  0  0
   22.0523   16.0162   24.0756 H   0  0  0  0  0  0  0  0  0  0  0  0
   20.5186   17.4744   23.5618 C   0  0  0  0  0  0  0  0  0  0  0  0
   19.7962   17.6349   22.7509 H   0  0  0  0  0  0  0  0  0  0  0  0
   19.9382   17.3344   24.4842 H   0  0  0  0  0  0  0  0  0  0  0  0
   21.4339   18.7137   23.7089 C   0  0  0  0  0  0  0  0  0  0  0  0
   21.9753   18.8885   22.7689 H   0  0  0  0  0  0  0  0  0  0  0  0
   22.1981   18.5051   24.4704 H   0  0  0  0  0  0  0  0  0  0  0  0
   20.6745   20.0000   24.1170 C   0  0  0  0  0  0  0  0  0  0  0  0
   20.1471   19.8310   25.0661 H   0  0  0  0  0  0  0  0  0  0  0  0
   21.4108   20.7925   24.3107 H   0  0  0  0  0  0  0  0  0  0  0  0
   19.6746   20.4953   23.0458 C   0  0  0  0  0  0  0  0  0  0  0  0
   18.8812   19.7523   22.8964 H   0  0  0  0  0  0  0  0  0  0  0  0
   20.1918   20.6158   22.0846 H   0  0  0  0  0  0  0  0  0  0  0  0
   19.0355   21.8346   23.4534 C   0  0  0  0  0  0  0  0  0  0  0  0
   18.5054   21.7157   24.4022 H   0  0  0  0  0  0  0  0  0  0  0  0
   19.8154   22.5891   23.5872 H   0  0  0  0  0  0  0  0  0  0  0  0
   18.0494   22.3581   22.4291 N   0  3  0  0  0  0  0  0  0  0  0  0
   17.2734   21.7056   22.2770 H   0  0  0  0  0  0  0  0  0  0  0  0
   18.4928   22.5175   21.5185 H   0  0  0  0  0  0  0  0  0  0  0  0
   17.6361   23.2508   22.7201 H   0  0  0  0  0  0  0  0  0  0  0  0
  1  2  1  0  0  0  0
  1  3  1  0  0  0  0
  1  4  1  0  0  0  0
  1  5  1  0  0  0  0
  5  6  1  0  0  0  0
  5  7  1  0  0  0  0
  5  8  1  0  0  0  0
  8  9  1  0  0  0  0
  8 10  1  0  0  0  0
  8 11  1  0  0  0  0
 11 12  1  0  0  0  0
 11 13  1  0  0  0  0
 11 14  1  0  0  0  0
 14 15  1  0  0  0  0
 14 16  1  0  0  0  0
 14 17  1  0  0  0  0
 17 18  1  0  0  0  0
 17 19  1  0  0  0  0
 17 20  1  0  0  0  0
 20 21  1  0  0  0  0
 20 22  1  0  0  0  0
 20 23  1  0  0  0  0
 23 24  1  0  0  0  0
 23 25  1  0  0  0  0
 23 26  1  0  0  0  0
M  END
> <VConfSearch Rank>
306

> <Conf_Id>
36

> <Delta U+W>
0.565

> <U+W>
-4.987

> <U>
48.214

> <W>
-53.201

> <W(PB)>
-55.543

> <W(SA)>
2.342

> <Valence>
2.697

> <Coulomb>
44.819

> <VdW>
0.698

> <VdW6>
-6.437

> <VdW12>
7.136

> <Bond>
0.168

> <Angle>
0.657

> <Pdih>
1.872

> <Idih>
0.000

> <Tether>
0.000

$$$$
VeraChem MOL file


 26 25  0  0  0  0  0  0  0  0999 V2000     
   23.1977   16.2158   22.2556 C   0  0  0  0  0  0  0  0  0  0  0  0
   23.5266   15.8580   23.2400 H   0  0  0  0  0  0  0  0  0  0  0  0
   23.2748   15.3786   21.5498 H   0  0  0  0  0  0  0  0  0  0  0  0
   23.8931   16.9991   21.9266 H   0  0  0  0  0  0  0  0  0  0  0  0
   21.7501   16.7479   22.3139 C   0  0  0  0  0  0  0  0  0  0  0  0
   21.0744   15.9342   22.6126 H   0  0  0  0  0  0  0  0  0  0  0  0
   21.4381   17.0664   21.3093 H   0  0  0  0  0  0  0  0  0  0  0  0
   21.6137   17.9282   23.3012 C   0  0  0  0  0  0  0  0  0  0  0  0
   21.9295   17.6055   24.3030 H   0  0  0  0  0  0  0  0  0  0  0  0
   22.2923   18.7382   22.9997 H   0  0  0  0  0  0  0  0  0  0  0  0
   20.1653   18.4637   23.3627 C   0  0  0  0  0  0  0  0  0  0  0  0
   19.4883   17.6534   23.6668 H   0  0  0  0  0  0  0  0  0  0  0  0
   19.8546   18.7782   22.3575 H   0  0  0  0  0  0  0  0  0  0  0  0
   20.0322   19.6467   24.3516 C   0  0  0  0  0  0  0  0  0  0  0  0
   20.3922   19.3325   25.3411 H   0  0  0  0  0  0  0  0  0  0  0  0
   20.6833   20.4723   24.0320 H   0  0  0  0  0  0  0  0  0  0  0  0
   18.5800   20.1601   24.4923 C   0  0  0  0  0  0  0  0  0  0  0  0
   18.5496   20.9343   25.2705 H   0  0  0  0  0  0  0  0  0  0  0  0
   17.9314   19.3432   24.8360 H   0  0  0  0  0  0  0  0  0  0  0  0
   18.0254   20.7443   23.1795 C   0  0  0  0  0  0  0  0  0  0  0  0
   18.6703   21.5583   22.8377 H   0  0  0  0  0  0  0  0  0  0  0  0
   18.0087   19.9706   22.4077 H   0  0  0  0  0  0  0  0  0  0  0  0
   16.6190   21.2897   23.3209 N   0  3  0  0  0  0  0  0  0  0  0  0
   16.2685   21.6738   22.4366 H   0  0  0  0  0  0  0  0  0  0  0  0
   16.5695   22.0437   24.0140 H   0  0  0  0  0  0  0  0  0  0  0  0
   15.9559   20.5652   23.6153 H   0  0  0  0  0  0  0  0  0  0  0  0
  1  2  1  0  0  0  0
  1  3  1  0  0  0  0
  1  4  1  0  0  0  0
  1  5  1  0  0  0  0
  5  6  1  0  0  0  0
  5  7  1  0  0  0  0
  5  8  1  0  0  0  0
  8  9  1  0  0  0  0
  8 10  1  0  0  0  0
  8 11  1  0  0  0  0
 11 12  1  0  0  0  0
 11 13  1  0  0  0  0
 11 14  1  0  0  0  0
 14 15  1  0  0  0  0
 14 16  1  0  0  0  0
 14 17  1  0  0  0  0
 17 18  1  0  0  0  0
 17 19  1  0  0  0  0
 17 20  1  0  0  0  0
 20 21  1  0  0  0  0
 20 22  1  0  0  0  0
 20 23  1  0  0  0  0
 23 24  1  0  0  0  0
 23 25  1  0  0  0  0
 23 26  1  0  0  0  0
M  END
> <VConfSearch Rank>
307

> <Conf_Id>
44

> <Delta U+W>
0.371

> <U+W>
-5.181

> <U>
48.002

> <W>
-53.183

> <W(PB)>
-55.533

> <W(SA)>
2.350

> <Valence>
2.459

> <Coulomb>
44.901

> <VdW>
0.643

> <VdW6>
-6.362

> <VdW12>
7.005

> <Bond>
0.151

> <Angle>
0.519

> <Pdih>
1.789

> <Idih>
0.000

> <Tether>
0.000

$$$$
VeraChem MOL file


 26 25  0  0  0  0  0  0  0  0999 V2000     
   19.3075   22.0808   25.4662 C   0  0  0  0  0  0  0  0  0  0  0  0
   18.6567   21.5443   26.1687 H   0  0  0  0  0  0  0  0  0  0  0  0
   19.5470   23.0562   25.9091 H   0  0  0  0  0  0  0  0  0  0  0  0
   18.7408   22.2681   24.5459 H   0  0  0  0  0  0  0  0  0  0  0  0
   20.6012   21.2825   25.1862 C   0  0  0  0  0  0  0  0  0  0  0  0
   21.1925   21.2347   26.1113 H   0  0  0  0  0  0  0  0  0  0  0  0
   21.2186   21.8225   24.4548 H   0  0  0  0  0  0  0  0  0  0  0  0
   20.3423   19.8394   24.6893 C   0  0  0  0  0  0  0  0  0  0  0  0
   21.3064   19.3167   24.6532 H   0  0  0  0  0  0  0  0  0  0  0  0
   19.7261   19.3039   25.4246 H   0  0  0  0  0  0  0  0  0  0  0  0
   19.6658   19.7790   23.2959 C   0  0  0  0  0  0  0  0  0  0  0  0
   20.2836   20.3110   22.5595 H   0  0  0  0  0  0  0  0  0  0  0  0
   18.7059   20.3097   23.3345 H   0  0  0  0  0  0  0  0  0  0  0  0
   19.3931   18.3372   22.7998 C   0  0  0  0  0  0  0  0  0  0  0  0
   18.7871   17.8008   23.5431 H   0  0  0  0  0  0  0  0  0  0  0  0
   18.7805   18.4007   21.8908 H   0  0  0  0  0  0  0  0  0  0  0  0
   20.6805   17.5307   22.4942 C   0  0  0  0  0  0  0  0  0  0  0  0
   21.2775   17.4207   23.4077 H   0  0  0  0  0  0  0  0  0  0  0  0
   21.3046   18.0759   21.7737 H   0  0  0  0  0  0  0  0  0  0  0  0
   20.3822   16.1197   21.9510 C   0  0  0  0  0  0  0  0  0  0  0  0
   21.3195   15.5660   21.8482 H   0  0  0  0  0  0  0  0  0  0  0  0
   19.7439   15.5809   22.6564 H   0  0  0  0  0  0  0  0  0  0  0  0
   19.6976   16.1162   20.5981 N   0  3  0  0  0  0  0  0  0  0  0  0
   18.7891   16.5890   20.6307 H   0  0  0  0  0  0  0  0  0  0  0  0
   19.5276   15.1628   20.2600 H   0  0  0  0  0  0  0  0  0  0  0  0
   20.2610   16.5906   19.8850 H   0  0  0  0  0  0  0  0  0  0  0  0
  1  2  1  0  0  0  0
  1  3  1  0  0  0  0
  1  4  1  0  0  0  0
  1  5  1  0  0  0  0
  5  6  1  0  0  0  0
  5  7  1  0  0  0  0
  5  8  1  0  0  0  0
  8  9  1  0  0  0  0
  8 10  1  0  0  0  0
  8 11  1  0  0  0  0
 11 12  1  0  0  0  0
 11 13  1  0  0  0  0
 11 14  1  0  0  0  0
 14 15  1  0  0  0  0
 14 16  1  0  0  0  0
 14 17  1  0  0  0  0
 17 18  1  0  0  0  0
 17 19  1  0  0  0  0
 17 20  1  0  0  0  0
 20 21  1  0  0  0  0
 20 22  1  0  0  0  0
 20 23  1  0  0  0  0
 23 24  1  0  0  0  0
 23 25  1  0  0  0  0
 23 26  1  0  0  0  0
M  END
> <VConfSearch Rank>
308

> <Conf_Id>
112

> <Delta U+W>
1.422

> <U+W>
-4.130

> <U>
49.323

> <W>
-53.453

> <W(PB)>
-55.749

> <W(SA)>
2.296

> <Valence>
3.408

> <Coulomb>
44.893

> <VdW>
1.021

> <VdW6>
-7.481

> <VdW12>
8.503

> <Bond>
0.239

> <Angle>
1.013

> <Pdih>
2.156

> <Idih>
0.000

> <Tether>
0.000

$$$$
VeraChem MOL file


 26 25  0  0  0  0  0  0  0  0999 V2000     
   18.8920   21.4907   20.9235 C   0  0  0  0  0  0  0  0  0  0  0  0
   18.3400   22.1923   20.2847 H   0  0  0  0  0  0  0  0  0  0  0  0
   19.1220   22.0100   21.8621 H   0  0  0  0  0  0  0  0  0  0  0  0
   19.8384   21.2524   20.4209 H   0  0  0  0  0  0  0  0  0  0  0  0
   18.0577   20.2136   21.1716 C   0  0  0  0  0  0  0  0  0  0  0  0
   17.7541   19.7942   20.2022 H   0  0  0  0  0  0  0  0  0  0  0  0
   17.1289   20.4754   21.6975 H   0  0  0  0  0  0  0  0  0  0  0  0
   18.8213   19.1270   21.9663 C   0  0  0  0  0  0  0  0  0  0  0  0
   18.1977   18.2234   22.0100 H   0  0  0  0  0  0  0  0  0  0  0  0
   19.7297   18.8523   21.4145 H   0  0  0  0  0  0  0  0  0  0  0  0
   19.1840   19.5634   23.4085 C   0  0  0  0  0  0  0  0  0  0  0  0
   18.2834   19.9567   23.8996 H   0  0  0  0  0  0  0  0  0  0  0  0
   19.9077   20.3887   23.3816 H   0  0  0  0  0  0  0  0  0  0  0  0
   19.7542   18.4150   24.2769 C   0  0  0  0  0  0  0  0  0  0  0  0
   19.8649   18.7861   25.3043 H   0  0  0  0  0  0  0  0  0  0  0  0
   19.0273   17.5922   24.3225 H   0  0  0  0  0  0  0  0  0  0  0  0
   21.1179   17.8790   23.7732 C   0  0  0  0  0  0  0  0  0  0  0  0
   21.8427   18.7008   23.7019 H   0  0  0  0  0  0  0  0  0  0  0  0
   21.0056   17.4699   22.7615 H   0  0  0  0  0  0  0  0  0  0  0  0
   21.6887   16.7670   24.6745 C   0  0  0  0  0  0  0  0  0  0  0  0
   20.9617   15.9551   24.7627 H   0  0  0  0  0  0  0  0  0  0  0  0
   22.5971   16.3629   24.2194 H   0  0  0  0  0  0  0  0  0  0  0  0
   22.0452   17.2343   26.0722 N   0  3  0  0  0  0  0  0  0  0  0  0
   21.2266   17.5928   26.5733 H   0  0  0  0  0  0  0  0  0  0  0  0
   22.7437   17.9846   26.0562 H   0  0  0  0  0  0  0  0  0  0  0  0
   22.4353   16.4741   26.6398 H   0  0  0  0  0  0  0  0  0  0  0  0
  1  2  1  0  0  0  0
  1  3  1  0  0  0  0
  1  4  1  0  0  0  0
  1  5  1  0  0  0  0
  5  6  1  0  0  0  0
  5  7  1  0  0  0  0
  5  8  1  0  0  0  0
  8  9  1  0  0  0  0
  8 10  1  0  0  0  0
  8 11  1  0  0  0  0
 11 12  1  0  0  0  0
 11 13  1  0  0  0  0
 11 14  1  0  0  0  0
 14 15  1  0  0  0  0
 14 16  1  0  0  0  0
 14 17  1  0  0  0  0
 17 18  1  0  0  0  0
 17 19  1  0  0  0  0
 17 20  1  0  0  0  0
 20 21  1  0  0  0  0
 20 22  1  0  0  0  0
 20 23  1  0  0  0  0
 23 24  1  0  0  0  0
 23 25  1  0  0  0  0
 23 26  1  0  0  0  0
M  END
> <VConfSearch Rank>
309

> <Conf_Id>
130

> <Delta U+W>
1.282

> <U+W>
-4.270

> <U>
49.153

> <W>
-53.422

> <W(PB)>
-55.725

> <W(SA)>
2.303

> <Valence>
3.298

> <Coulomb>
44.907

> <VdW>
0.948

> <VdW6>
-7.574

> <VdW12>
8.522

> <Bond>
0.229

> <Angle>
0.912

> <Pdih>
2.157

> <Idih>
0.000

> <Tether>
0.000

$$$$
VeraChem MOL file


 26 25  0  0  0  0  0  0  0  0999 V2000     
   18.9947   22.1582   23.2888 C   0  0  0  0  0  0  0  0  0  0  0  0
   19.5319   22.6774   24.0930 H   0  0  0  0  0  0  0  0  0  0  0  0
   18.2811   22.8670   22.8490 H   0  0  0  0  0  0  0  0  0  0  0  0
   18.4154   21.3398   23.7339 H   0  0  0  0  0  0  0  0  0  0  0  0
   19.9741   21.6381   22.2125 C   0  0  0  0  0  0  0  0  0  0  0  0
   20.4409   22.4989   21.7138 H   0  0  0  0  0  0  0  0  0  0  0  0
   19.4169   21.1055   21.4303 H   0  0  0  0  0  0  0  0  0  0  0  0
   21.0952   20.7329   22.7841 C   0  0  0  0  0  0  0  0  0  0  0  0
   21.7581   20.4290   21.9623 H   0  0  0  0  0  0  0  0  0  0  0  0
   21.7171   21.3288   23.4663 H   0  0  0  0  0  0  0  0  0  0  0  0
   20.6103   19.4657   23.5352 C   0  0  0  0  0  0  0  0  0  0  0  0
   20.0317   19.7553   24.4223 H   0  0  0  0  0  0  0  0  0  0  0  0
   21.4960   18.9377   23.9120 H   0  0  0  0  0  0  0  0  0  0  0  0
   19.7722   18.5058   22.6531 C   0  0  0  0  0  0  0  0  0  0  0  0
   18.8708   19.0236   22.3002 H   0  0  0  0  0  0  0  0  0  0  0  0
   20.3450   18.2296   21.7570 H   0  0  0  0  0  0  0  0  0  0  0  0
   19.3317   17.2247   23.3998 C   0  0  0  0  0  0  0  0  0  0  0  0
   18.6584   16.6489   22.7509 H   0  0  0  0  0  0  0  0  0  0  0  0
   18.7515   17.4982   24.2912 H   0  0  0  0  0  0  0  0  0  0  0  0
   20.5194   16.3326   23.8074 C   0  0  0  0  0  0  0  0  0  0  0  0
   21.0975   16.0617   22.9198 H   0  0  0  0  0  0  0  0  0  0  0  0
   21.1744   16.8769   24.4924 H   0  0  0  0  0  0  0  0  0  0  0  0
   20.0903   15.0524   24.4947 N   0  3  0  0  0  0  0  0  0  0  0  0
   19.5629   15.2384   25.3541 H   0  0  0  0  0  0  0  0  0  0  0  0
   20.8950   14.4729   24.7577 H   0  0  0  0  0  0  0  0  0  0  0  0
   19.4926   14.4771   23.8923 H   0  0  0  0  0  0  0  0  0  0  0  0
  1  2  1  0  0  0  0
  1  3  1  0  0  0  0
  1  4  1  0  0  0  0
  1  5  1  0  0  0  0
  5  6  1  0  0  0  0
  5  7  1  0  0  0  0
  5  8  1  0  0  0  0
  8  9  1  0  0  0  0
  8 10  1  0  0  0  0
  8 11  1  0  0  0  0
 11 12  1  0  0  0  0
 11 13  1  0  0  0  0
 11 14  1  0  0  0  0
 14 15  1  0  0  0  0
 14 16  1  0  0  0  0
 14 17  1  0  0  0  0
 17 18  1  0  0  0  0
 17 19  1  0  0  0  0
 17 20  1  0  0  0  0
 20 21  1  0  0  0  0
 20 22  1  0  0  0  0
 20 23  1  0  0  0  0
 23 24  1  0  0  0  0
 23 25  1  0  0  0  0
 23 26  1  0  0  0  0
M  END
> <VConfSearch Rank>
310

> <Conf_Id>
111

> <Delta U+W>
1.290

> <U+W>
-4.262

> <U>
49.209

> <W>
-53.471

> <W(PB)>
-55.745

> <W(SA)>
2.274

> <Valence>
3.465

> <Coulomb>
44.958

> <VdW>
0.786

> <VdW6>
-7.903

> <VdW12>
8.689

> <Bond>
0.237

> <Angle>
1.212

> <Pdih>
2.015

> <Idih>
0.000

> <Tether>
0.000

$$$$
VeraChem MOL file


 26 25  0  0  0  0  0  0  0  0999 V2000     
   19.2008   22.8838   22.7677 C   0  0  0  0  0  0  0  0  0  0  0  0
   20.1600   23.0619   22.2641 H   0  0  0  0  0  0  0  0  0  0  0  0
   18.3946   23.1488   22.0713 H   0  0  0  0  0  0  0  0  0  0  0  0
   19.1401   23.5636   23.6274 H   0  0  0  0  0  0  0  0  0  0  0  0
   19.0792   21.4146   23.2250 C   0  0  0  0  0  0  0  0  0  0  0  0
   18.1242   21.2746   23.7502 H   0  0  0  0  0  0  0  0  0  0  0  0
   19.8760   21.2004   23.9495 H   0  0  0  0  0  0  0  0  0  0  0  0
   19.1664   20.4365   22.0296 C   0  0  0  0  0  0  0  0  0  0  0  0
   18.4127   20.7195   21.2817 H   0  0  0  0  0  0  0  0  0  0  0  0
   20.1429   20.5399   21.5367 H   0  0  0  0  0  0  0  0  0  0  0  0
   18.9364   18.9561   22.4212 C   0  0  0  0  0  0  0  0  0  0  0  0
   18.8992   18.3554   21.5019 H   0  0  0  0  0  0  0  0  0  0  0  0
   17.9521   18.8510   22.8982 H   0  0  0  0  0  0  0  0  0  0  0  0
   20.0326   18.3844   23.3522 C   0  0  0  0  0  0  0  0  0  0  0  0
   21.0173   18.5485   22.8947 H   0  0  0  0  0  0  0  0  0  0  0  0
   20.0298   18.9225   24.3093 H   0  0  0  0  0  0  0  0  0  0  0  0
   19.8232   16.8756   23.6223 C   0  0  0  0  0  0  0  0  0  0  0  0
   19.8608   16.3149   22.6788 H   0  0  0  0  0  0  0  0  0  0  0  0
   18.8205   16.7173   24.0412 H   0  0  0  0  0  0  0  0  0  0  0  0
   20.8593   16.2972   24.6054 C   0  0  0  0  0  0  0  0  0  0  0  0
   20.8281   16.8566   25.5443 H   0  0  0  0  0  0  0  0  0  0  0  0
   20.6115   15.2544   24.8214 H   0  0  0  0  0  0  0  0  0  0  0  0
   22.2822   16.3329   24.0833 N   0  3  0  0  0  0  0  0  0  0  0  0
   22.9444   15.9298   24.7551 H   0  0  0  0  0  0  0  0  0  0  0  0
   22.5931   17.2907   23.8935 H   0  0  0  0  0  0  0  0  0  0  0  0
   22.3811   15.8034   23.2110 H   0  0  0  0  0  0  0  0  0  0  0  0
  1  2  1  0  0  0  0
  1  3  1  0  0  0  0
  1  4  1  0  0  0  0
  1  5  1  0  0  0  0
  5  6  1  0  0  0  0
  5  7  1  0  0  0  0
  5  8  1  0  0  0  0
  8  9  1  0  0  0  0
  8 10  1  0  0  0  0
  8 11  1  0  0  0  0
 11 12  1  0  0  0  0
 11 13  1  0  0  0  0
 11 14  1  0  0  0  0
 14 15  1  0  0  0  0
 14 16  1  0  0  0  0
 14 17  1  0  0  0  0
 17 18  1  0  0  0  0
 17 19  1  0  0  0  0
 17 20  1  0  0  0  0
 20 21  1  0  0  0  0
 20 22  1  0  0  0  0
 20 23  1  0  0  0  0
 23 24  1  0  0  0  0
 23 25  1  0  0  0  0
 23 26  1  0  0  0  0
M  END
> <VConfSearch Rank>
311

> <Conf_Id>
105

> <Delta U+W>
0.736

> <U+W>
-4.817

> <U>
48.735

> <W>
-53.552

> <W(PB)>
-55.889

> <W(SA)>
2.337

> <Valence>
2.803

> <Coulomb>
45.123

> <VdW>
0.809

> <VdW6>
-6.953

> <VdW12>
7.761

> <Bond>
0.188

> <Angle>
0.699

> <Pdih>
1.917

> <Idih>
0.000

> <Tether>
0.000

$$$$
VeraChem MOL file


 26 25  0  0  0  0  0  0  0  0999 V2000     
   21.2531   20.5129   26.4498 C   0  0  0  0  0  0  0  0  0  0  0  0
   20.6020   20.6227   27.3268 H   0  0  0  0  0  0  0  0  0  0  0  0
   21.8578   19.6065   26.5841 H   0  0  0  0  0  0  0  0  0  0  0  0
   21.9350   21.3728   26.4269 H   0  0  0  0  0  0  0  0  0  0  0  0
   20.4252   20.4392   25.1493 C   0  0  0  0  0  0  0  0  0  0  0  0
   21.1108   20.3705   24.2942 H   0  0  0  0  0  0  0  0  0  0  0  0
   19.8545   21.3703   25.0269 H   0  0  0  0  0  0  0  0  0  0  0  0
   19.4587   19.2316   25.1561 C   0  0  0  0  0  0  0  0  0  0  0  0
   20.0308   18.2980   25.2367 H   0  0  0  0  0  0  0  0  0  0  0  0
   18.8348   19.2798   26.0592 H   0  0  0  0  0  0  0  0  0  0  0  0
   18.5226   19.1772   23.9209 C   0  0  0  0  0  0  0  0  0  0  0  0
   17.8694   20.0606   23.9320 H   0  0  0  0  0  0  0  0  0  0  0  0
   17.8554   18.3102   24.0225 H   0  0  0  0  0  0  0  0  0  0  0  0
   19.2350   19.1039   22.5452 C   0  0  0  0  0  0  0  0  0  0  0  0
   18.4628   19.0868   21.7650 H   0  0  0  0  0  0  0  0  0  0  0  0
   19.8158   20.0199   22.3738 H   0  0  0  0  0  0  0  0  0  0  0  0
   20.1525   17.8655   22.3879 C   0  0  0  0  0  0  0  0  0  0  0  0
   19.5813   16.9470   22.5775 H   0  0  0  0  0  0  0  0  0  0  0  0
   20.9526   17.8994   23.1379 H   0  0  0  0  0  0  0  0  0  0  0  0
   20.8094   17.7854   20.9964 C   0  0  0  0  0  0  0  0  0  0  0  0
   21.3631   18.7069   20.7970 H   0  0  0  0  0  0  0  0  0  0  0  0
   21.5168   16.9519   20.9775 H   0  0  0  0  0  0  0  0  0  0  0  0
   19.8225   17.5744   19.8648 N   0  3  0  0  0  0  0  0  0  0  0  0
   19.1483   18.3433   19.8002 H   0  0  0  0  0  0  0  0  0  0  0  0
   19.2854   16.7095   19.9846 H   0  0  0  0  0  0  0  0  0  0  0  0
   20.2935   17.5111   18.9557 H   0  0  0  0  0  0  0  0  0  0  0  0
  1  2  1  0  0  0  0
  1  3  1  0  0  0  0
  1  4  1  0  0  0  0
  1  5  1  0  0  0  0
  5  6  1  0  0  0  0
  5  7  1  0  0  0  0
  5  8  1  0  0  0  0
  8  9  1  0  0  0  0
  8 10  1  0  0  0  0
  8 11  1  0  0  0  0
 11 12  1  0  0  0  0
 11 13  1  0  0  0  0
 11 14  1  0  0  0  0
 14 15  1  0  0  0  0
 14 16  1  0  0  0  0
 14 17  1  0  0  0  0
 17 18  1  0  0  0  0
 17 19  1  0  0  0  0
 17 20  1  0  0  0  0
 20 21  1  0  0  0  0
 20 22  1  0  0  0  0
 20 23  1  0  0  0  0
 23 24  1  0  0  0  0
 23 25  1  0  0  0  0
 23 26  1  0  0  0  0
M  END
> <VConfSearch Rank>
312

> <Conf_Id>
144

> <Delta U+W>
1.073

> <U+W>
-4.479

> <U>
49.231

> <W>
-53.710

> <W(PB)>
-55.983

> <W(SA)>
2.273

> <Valence>
3.276

> <Coulomb>
45.175

> <VdW>
0.779

> <VdW6>
-7.944

> <VdW12>
8.723

> <Bond>
0.239

> <Angle>
1.155

> <Pdih>
1.883

> <Idih>
0.000

> <Tether>
0.000

$$$$
VeraChem MOL file


 26 25  0  0  0  0  0  0  0  0999 V2000     
   22.2103   21.7943   23.1692 C   0  0  0  0  0  0  0  0  0  0  0  0
   22.3953   21.5705   22.1115 H   0  0  0  0  0  0  0  0  0  0  0  0
   22.4033   22.8647   23.3170 H   0  0  0  0  0  0  0  0  0  0  0  0
   22.9386   21.2362   23.7718 H   0  0  0  0  0  0  0  0  0  0  0  0
   20.7624   21.4447   23.5825 C   0  0  0  0  0  0  0  0  0  0  0  0
   20.0523   21.9883   22.9437 H   0  0  0  0  0  0  0  0  0  0  0  0
   20.5930   21.8063   24.6064 H   0  0  0  0  0  0  0  0  0  0  0  0
   20.4546   19.9282   23.5371 C   0  0  0  0  0  0  0  0  0  0  0  0
   21.1798   19.3873   24.1604 H   0  0  0  0  0  0  0  0  0  0  0  0
   19.4680   19.7751   23.9919 H   0  0  0  0  0  0  0  0  0  0  0  0
   20.4485   19.3417   22.1035 C   0  0  0  0  0  0  0  0  0  0  0  0
   21.3963   19.5811   21.6053 H   0  0  0  0  0  0  0  0  0  0  0  0
   19.6615   19.8315   21.5138 H   0  0  0  0  0  0  0  0  0  0  0  0
   20.2593   17.8037   22.0384 C   0  0  0  0  0  0  0  0  0  0  0  0
   20.3125   17.5086   20.9812 H   0  0  0  0  0  0  0  0  0  0  0  0
   21.1025   17.2988   22.5300 H   0  0  0  0  0  0  0  0  0  0  0  0
   18.9191   17.2834   22.6166 C   0  0  0  0  0  0  0  0  0  0  0  0
   18.6494   16.3559   22.0941 H   0  0  0  0  0  0  0  0  0  0  0  0
   18.1141   18.0011   22.4096 H   0  0  0  0  0  0  0  0  0  0  0  0
   18.9916   16.9775   24.1255 C   0  0  0  0  0  0  0  0  0  0  0  0
   19.7607   16.2224   24.3088 H   0  0  0  0  0  0  0  0  0  0  0  0
   19.2590   17.8772   24.6827 H   0  0  0  0  0  0  0  0  0  0  0  0
   17.6845   16.4565   24.6868 N   0  3  0  0  0  0  0  0  0  0  0  0
   17.3908   15.5882   24.2274 H   0  0  0  0  0  0  0  0  0  0  0  0
   16.9221   17.1320   24.5704 H   0  0  0  0  0  0  0  0  0  0  0  0
   17.7541   16.2542   25.6901 H   0  0  0  0  0  0  0  0  0  0  0  0
  1  2  1  0  0  0  0
  1  3  1  0  0  0  0
  1  4  1  0  0  0  0
  1  5  1  0  0  0  0
  5  6  1  0  0  0  0
  5  7  1  0  0  0  0
  5  8  1  0  0  0  0
  8  9  1  0  0  0  0
  8 10  1  0  0  0  0
  8 11  1  0  0  0  0
 11 12  1  0  0  0  0
 11 13  1  0  0  0  0
 11 14  1  0  0  0  0
 14 15  1  0  0  0  0
 14 16  1  0  0  0  0
 14 17  1  0  0  0  0
 17 18  1  0  0  0  0
 17 19  1  0  0  0  0
 17 20  1  0  0  0  0
 20 21  1  0  0  0  0
 20 22  1  0  0  0  0
 20 23  1  0  0  0  0
 23 24  1  0  0  0  0
 23 25  1  0  0  0  0
 23 26  1  0  0  0  0
M  END
> <VConfSearch Rank>
313

> <Conf_Id>
93

> <Delta U+W>
3.253

> <U+W>
-2.300

> <U>
51.609

> <W>
-53.909

> <W(PB)>
-56.178

> <W(SA)>
2.270

> <Valence>
5.204

> <Coulomb>
45.645

> <VdW>
0.760

> <VdW6>
-7.997

> <VdW12>
8.758

> <Bond>
0.240

> <Angle>
1.456

> <Pdih>
3.507

> <Idih>
0.000

> <Tether>
0.000

$$$$
VeraChem MOL file


 26 25  0  0  0  0  0  0  0  0999 V2000     
   17.8758   16.9924   21.0841 C   0  0  0  0  0  0  0  0  0  0  0  0
   18.0733   17.7219   20.2893 H   0  0  0  0  0  0  0  0  0  0  0  0
   18.6484   16.2140   21.0370 H   0  0  0  0  0  0  0  0  0  0  0  0
   16.9100   16.5196   20.8634 H   0  0  0  0  0  0  0  0  0  0  0  0
   17.8437   17.6603   22.4778 C   0  0  0  0  0  0  0  0  0  0  0  0
   17.5160   16.9153   23.2162 H   0  0  0  0  0  0  0  0  0  0  0  0
   17.0877   18.4578   22.4901 H   0  0  0  0  0  0  0  0  0  0  0  0
   19.2131   18.2283   22.9237 C   0  0  0  0  0  0  0  0  0  0  0  0
   19.1208   18.5342   23.9733 H   0  0  0  0  0  0  0  0  0  0  0  0
   19.9697   17.4325   22.8894 H   0  0  0  0  0  0  0  0  0  0  0  0
   19.6827   19.4408   22.0819 C   0  0  0  0  0  0  0  0  0  0  0  0
   18.9606   20.2614   22.1922 H   0  0  0  0  0  0  0  0  0  0  0  0
   19.6786   19.1722   21.0180 H   0  0  0  0  0  0  0  0  0  0  0  0
   21.1039   19.9546   22.4309 C   0  0  0  0  0  0  0  0  0  0  0  0
   21.8494   19.1761   22.2171 H   0  0  0  0  0  0  0  0  0  0  0  0
   21.3340   20.7818   21.7451 H   0  0  0  0  0  0  0  0  0  0  0  0
   21.2761   20.4702   23.8820 C   0  0  0  0  0  0  0  0  0  0  0  0
   20.3549   20.9633   24.2198 H   0  0  0  0  0  0  0  0  0  0  0  0
   22.0599   21.2393   23.8891 H   0  0  0  0  0  0  0  0  0  0  0  0
   21.6861   19.3615   24.8711 C   0  0  0  0  0  0  0  0  0  0  0  0
   20.9306   18.5741   24.8932 H   0  0  0  0  0  0  0  0  0  0  0  0
   22.6320   18.9170   24.5502 H   0  0  0  0  0  0  0  0  0  0  0  0
   21.8671   19.8695   26.2869 N   0  3  0  0  0  0  0  0  0  0  0  0
   22.5916   20.5928   26.3433 H   0  0  0  0  0  0  0  0  0  0  0  0
   22.1445   19.1188   26.9287 H   0  0  0  0  0  0  0  0  0  0  0  0
   21.0038   20.2777   26.6599 H   0  0  0  0  0  0  0  0  0  0  0  0
  1  2  1  0  0  0  0
  1  3  1  0  0  0  0
  1  4  1  0  0  0  0
  1  5  1  0  0  0  0
  5  6  1  0  0  0  0
  5  7  1  0  0  0  0
  5  8  1  0  0  0  0
  8  9  1  0  0  0  0
  8 10  1  0  0  0  0
  8 11  1  0  0  0  0
 11 12  1  0  0  0  0
 11 13  1  0  0  0  0
 11 14  1  0  0  0  0
 14 15  1  0  0  0  0
 14 16  1  0  0  0  0
 14 17  1  0  0  0  0
 17 18  1  0  0  0  0
 17 19  1  0  0  0  0
 17 20  1  0  0  0  0
 20 21  1  0  0  0  0
 20 22  1  0  0  0  0
 20 23  1  0  0  0  0
 23 24  1  0  0  0  0
 23 25  1  0  0  0  0
 23 26  1  0  0  0  0
M  END
> <VConfSearch Rank>
314

> <Conf_Id>
94

> <Delta U+W>
3.247

> <U+W>
-2.305

> <U>
51.609

> <W>
-53.914

> <W(PB)>
-56.221

> <W(SA)>
2.307

> <Valence>
5.204

> <Coulomb>
45.645

> <VdW>
0.760

> <VdW6>
-7.997

> <VdW12>
8.757

> <Bond>
0.240

> <Angle>
1.456

> <Pdih>
3.508

> <Idih>
0.000

> <Tether>
0.000

$$$$
VeraChem MOL file


 26 25  0  0  0  0  0  0  0  0999 V2000     
   19.5030   17.0991   19.6547 C   0  0  0  0  0  0  0  0  0  0  0  0
   18.5052   17.4389   19.3477 H   0  0  0  0  0  0  0  0  0  0  0  0
   20.2482   17.7371   19.1619 H   0  0  0  0  0  0  0  0  0  0  0  0
   19.6388   16.0747   19.2845 H   0  0  0  0  0  0  0  0  0  0  0  0
   19.6580   17.1489   21.1895 C   0  0  0  0  0  0  0  0  0  0  0  0
   20.6521   16.7717   21.4679 H   0  0  0  0  0  0  0  0  0  0  0  0
   18.9226   16.4759   21.6522 H   0  0  0  0  0  0  0  0  0  0  0  0
   19.4713   18.5812   21.7372 C   0  0  0  0  0  0  0  0  0  0  0  0
   20.2071   19.2505   21.2704 H   0  0  0  0  0  0  0  0  0  0  0  0
   18.4774   18.9546   21.4539 H   0  0  0  0  0  0  0  0  0  0  0  0
   19.6253   18.6350   23.2740 C   0  0  0  0  0  0  0  0  0  0  0  0
   20.6174   18.2534   23.5499 H   0  0  0  0  0  0  0  0  0  0  0  0
   18.8866   17.9679   23.7395 H   0  0  0  0  0  0  0  0  0  0  0  0
   19.4399   20.0712   23.8196 C   0  0  0  0  0  0  0  0  0  0  0  0
   20.1918   20.7373   23.3758 H   0  0  0  0  0  0  0  0  0  0  0  0
   18.4629   20.4559   23.4956 H   0  0  0  0  0  0  0  0  0  0  0  0
   19.5119   20.1503   25.3652 C   0  0  0  0  0  0  0  0  0  0  0  0
   18.7000   19.5495   25.7964 H   0  0  0  0  0  0  0  0  0  0  0  0
   19.3295   21.1850   25.6846 H   0  0  0  0  0  0  0  0  0  0  0  0
   20.8518   19.6683   25.9575 C   0  0  0  0  0  0  0  0  0  0  0  0
   20.8100   19.7314   27.0482 H   0  0  0  0  0  0  0  0  0  0  0  0
   21.0227   18.6238   25.6848 H   0  0  0  0  0  0  0  0  0  0  0  0
   22.0474   20.4769   25.4941 N   0  3  0  0  0  0  0  0  0  0  0  0
   21.9587   21.4662   25.7476 H   0  0  0  0  0  0  0  0  0  0  0  0
   22.1609   20.4333   24.4766 H   0  0  0  0  0  0  0  0  0  0  0  0
   22.9215   20.1377   25.9102 H   0  0  0  0  0  0  0  0  0  0  0  0
  1  2  1  0  0  0  0
  1  3  1  0  0  0  0
  1  4  1  0  0  0  0
  1  5  1  0  0  0  0
  5  6  1  0  0  0  0
  5  7  1  0  0  0  0
  5  8  1  0  0  0  0
  8  9  1  0  0  0  0
  8 10  1  0  0  0  0
  8 11  1  0  0  0  0
 11 12  1  0  0  0  0
 11 13  1  0  0  0  0
 11 14  1  0  0  0  0
 14 15  1  0  0  0  0
 14 16  1  0  0  0  0
 14 17  1  0  0  0  0
 17 18  1  0  0  0  0
 17 19  1  0  0  0  0
 17 20  1  0  0  0  0
 20 21  1  0  0  0  0
 20 22  1  0  0  0  0
 20 23  1  0  0  0  0
 23 24  1  0  0  0  0
 23 25  1  0  0  0  0
 23 26  1  0  0  0  0
M  END
> <VConfSearch Rank>
315

> <Conf_Id>
83

> <Delta U+W>
0.559

> <U+W>
-4.994

> <U>
48.668

> <W>
-53.661

> <W(PB)>
-55.972

> <W(SA)>
2.311

> <Valence>
2.543

> <Coulomb>
45.478

> <VdW>
0.646

> <VdW6>
-7.096

> <VdW12>
7.742

> <Bond>
0.176

> <Angle>
0.630

> <Pdih>
1.738

> <Idih>
0.000

> <Tether>
0.000

$$$$
VeraChem MOL file


 26 25  0  0  0  0  0  0  0  0999 V2000     
   23.8371   17.7955   23.3246 C   0  0  0  0  0  0  0  0  0  0  0  0
   24.5168   18.2056   22.5663 H   0  0  0  0  0  0  0  0  0  0  0  0
   24.0961   18.2421   24.2935 H   0  0  0  0  0  0  0  0  0  0  0  0
   24.0201   16.7152   23.3917 H   0  0  0  0  0  0  0  0  0  0  0  0
   22.3638   18.0771   22.9605 C   0  0  0  0  0  0  0  0  0  0  0  0
   21.7161   17.6173   23.7185 H   0  0  0  0  0  0  0  0  0  0  0  0
   22.1268   17.5939   22.0023 H   0  0  0  0  0  0  0  0  0  0  0  0
   22.0807   19.5950   22.8644 C   0  0  0  0  0  0  0  0  0  0  0  0
   22.2659   20.0688   23.8383 H   0  0  0  0  0  0  0  0  0  0  0  0
   22.7942   20.0468   22.1616 H   0  0  0  0  0  0  0  0  0  0  0  0
   20.6456   19.9300   22.3885 C   0  0  0  0  0  0  0  0  0  0  0  0
   20.4662   19.4678   21.4079 H   0  0  0  0  0  0  0  0  0  0  0  0
   20.5760   21.0157   22.2348 H   0  0  0  0  0  0  0  0  0  0  0  0
   19.5445   19.4899   23.3831 C   0  0  0  0  0  0  0  0  0  0  0  0
   19.5577   18.3981   23.4896 H   0  0  0  0  0  0  0  0  0  0  0  0
   19.7564   19.9119   24.3753 H   0  0  0  0  0  0  0  0  0  0  0  0
   18.1403   19.9450   22.9196 C   0  0  0  0  0  0  0  0  0  0  0  0
   17.9068   19.5065   21.9403 H   0  0  0  0  0  0  0  0  0  0  0  0
   18.1373   21.0347   22.7837 H   0  0  0  0  0  0  0  0  0  0  0  0
   17.0325   19.5772   23.9256 C   0  0  0  0  0  0  0  0  0  0  0  0
   17.2664   20.0058   24.9038 H   0  0  0  0  0  0  0  0  0  0  0  0
   16.0817   19.9984   23.5875 H   0  0  0  0  0  0  0  0  0  0  0  0
   16.8370   18.0839   24.1004 N   0  3  0  0  0  0  0  0  0  0  0  0
   17.6842   17.6287   24.4538 H   0  0  0  0  0  0  0  0  0  0  0  0
   16.5924   17.6259   23.2164 H   0  0  0  0  0  0  0  0  0  0  0  0
   16.0840   17.8740   24.7647 H   0  0  0  0  0  0  0  0  0  0  0  0
  1  2  1  0  0  0  0
  1  3  1  0  0  0  0
  1  4  1  0  0  0  0
  1  5  1  0  0  0  0
  5  6  1  0  0  0  0
  5  7  1  0  0  0  0
  5  8  1  0  0  0  0
  8  9  1  0  0  0  0
  8 10  1  0  0  0  0
  8 11  1  0  0  0  0
 11 12  1  0  0  0  0
 11 13  1  0  0  0  0
 11 14  1  0  0  0  0
 14 15  1  0  0  0  0
 14 16  1  0  0  0  0
 14 17  1  0  0  0  0
 17 18  1  0  0  0  0
 17 19  1  0  0  0  0
 17 20  1  0  0  0  0
 20 21  1  0  0  0  0
 20 22  1  0  0  0  0
 20 23  1  0  0  0  0
 23 24  1  0  0  0  0
 23 25  1  0  0  0  0
 23 26  1  0  0  0  0
M  END
> <VConfSearch Rank>
316

> <Conf_Id>
18

> <Delta U+W>
0.759

> <U+W>
-4.793

> <U>
48.945

> <W>
-53.738

> <W(PB)>
-56.051

> <W(SA)>
2.313

> <Valence>
2.802

> <Coulomb>
45.335

> <VdW>
0.807

> <VdW6>
-6.962

> <VdW12>
7.769

> <Bond>
0.189

> <Angle>
0.696

> <Pdih>
1.917

> <Idih>
0.000

> <Tether>
0.000

$$$$
VeraChem MOL file


 26 25  0  0  0  0  0  0  0  0999 V2000     
   22.1963   21.3638   25.3187 C   0  0  0  0  0  0  0  0  0  0  0  0
   21.4108   22.0990   25.5376 H   0  0  0  0  0  0  0  0  0  0  0  0
   22.6111   21.0123   26.2724 H   0  0  0  0  0  0  0  0  0  0  0  0
   22.9972   21.8789   24.7726 H   0  0  0  0  0  0  0  0  0  0  0  0
   21.6391   20.1881   24.4882 C   0  0  0  0  0  0  0  0  0  0  0  0
   22.4528   19.4855   24.2604 H   0  0  0  0  0  0  0  0  0  0  0  0
   21.2723   20.5736   23.5278 H   0  0  0  0  0  0  0  0  0  0  0  0
   20.5046   19.4490   25.2365 C   0  0  0  0  0  0  0  0  0  0  0  0
   20.8703   19.1444   26.2269 H   0  0  0  0  0  0  0  0  0  0  0  0
   19.6684   20.1388   25.4160 H   0  0  0  0  0  0  0  0  0  0  0  0
   19.9896   18.1902   24.4961 C   0  0  0  0  0  0  0  0  0  0  0  0
   19.2792   17.6685   25.1522 H   0  0  0  0  0  0  0  0  0  0  0  0
   20.8237   17.4945   24.3299 H   0  0  0  0  0  0  0  0  0  0  0  0
   19.2949   18.5045   23.1492 C   0  0  0  0  0  0  0  0  0  0  0  0
   18.4952   19.2403   23.3118 H   0  0  0  0  0  0  0  0  0  0  0  0
   20.0155   18.9612   22.4595 H   0  0  0  0  0  0  0  0  0  0  0  0
   18.6990   17.2315   22.5026 C   0  0  0  0  0  0  0  0  0  0  0  0
   18.0011   16.7584   23.2061 H   0  0  0  0  0  0  0  0  0  0  0  0
   19.4946   16.4993   22.3104 H   0  0  0  0  0  0  0  0  0  0  0  0
   17.9435   17.5265   21.1923 C   0  0  0  0  0  0  0  0  0  0  0  0
   17.4737   16.6080   20.8302 H   0  0  0  0  0  0  0  0  0  0  0  0
   17.1558   18.2615   21.3790 H   0  0  0  0  0  0  0  0  0  0  0  0
   18.8294   18.0576   20.0824 N   0  3  0  0  0  0  0  0  0  0  0  0
   19.5788   17.3993   19.8455 H   0  0  0  0  0  0  0  0  0  0  0  0
   19.2744   18.9432   20.3424 H   0  0  0  0  0  0  0  0  0  0  0  0
   18.2988   18.2296   19.2215 H   0  0  0  0  0  0  0  0  0  0  0  0
  1  2  1  0  0  0  0
  1  3  1  0  0  0  0
  1  4  1  0  0  0  0
  1  5  1  0  0  0  0
  5  6  1  0  0  0  0
  5  7  1  0  0  0  0
  5  8  1  0  0  0  0
  8  9  1  0  0  0  0
  8 10  1  0  0  0  0
  8 11  1  0  0  0  0
 11 12  1  0  0  0  0
 11 13  1  0  0  0  0
 11 14  1  0  0  0  0
 14 15  1  0  0  0  0
 14 16  1  0  0  0  0
 14 17  1  0  0  0  0
 17 18  1  0  0  0  0
 17 19  1  0  0  0  0
 17 20  1  0  0  0  0
 20 21  1  0  0  0  0
 20 22  1  0  0  0  0
 20 23  1  0  0  0  0
 23 24  1  0  0  0  0
 23 25  1  0  0  0  0
 23 26  1  0  0  0  0
M  END
> <VConfSearch Rank>
317

> <Conf_Id>
17

> <Delta U+W>
0.843

> <U+W>
-4.709

> <U>
48.945

> <W>
-53.653

> <W(PB)>
-55.991

> <W(SA)>
2.338

> <Valence>
2.802

> <Coulomb>
45.335

> <VdW>
0.807

> <VdW6>
-6.962

> <VdW12>
7.769

> <Bond>
0.189

> <Angle>
0.696

> <Pdih>
1.917

> <Idih>
0.000

> <Tether>
0.000

$$$$
VeraChem MOL file


 26 25  0  0  0  0  0  0  0  0999 V2000     
   22.9176   20.2869   24.3380 C   0  0  0  0  0  0  0  0  0  0  0  0
   22.7673   19.2010   24.2986 H   0  0  0  0  0  0  0  0  0  0  0  0
   23.1773   20.6357   23.3300 H   0  0  0  0  0  0  0  0  0  0  0  0
   23.7792   20.4768   24.9911 H   0  0  0  0  0  0  0  0  0  0  0  0
   21.6634   21.0152   24.8723 C   0  0  0  0  0  0  0  0  0  0  0  0
   21.9038   22.0787   25.0104 H   0  0  0  0  0  0  0  0  0  0  0  0
   21.4062   20.6266   25.8675 H   0  0  0  0  0  0  0  0  0  0  0  0
   20.4383   20.9015   23.9331 C   0  0  0  0  0  0  0  0  0  0  0  0
   19.6344   21.5359   24.3312 H   0  0  0  0  0  0  0  0  0  0  0  0
   20.6940   21.3099   22.9456 H   0  0  0  0  0  0  0  0  0  0  0  0
   19.9114   19.4545   23.7789 C   0  0  0  0  0  0  0  0  0  0  0  0
   19.7035   19.0330   24.7720 H   0  0  0  0  0  0  0  0  0  0  0  0
   20.6873   18.8282   23.3212 H   0  0  0  0  0  0  0  0  0  0  0  0
   18.6274   19.4022   22.9164 C   0  0  0  0  0  0  0  0  0  0  0  0
   17.8689   20.0644   23.3563 H   0  0  0  0  0  0  0  0  0  0  0  0
   18.8390   19.7960   21.9125 H   0  0  0  0  0  0  0  0  0  0  0  0
   18.0330   17.9791   22.7975 C   0  0  0  0  0  0  0  0  0  0  0  0
   17.0819   18.0349   22.2514 H   0  0  0  0  0  0  0  0  0  0  0  0
   17.7987   17.5922   23.7982 H   0  0  0  0  0  0  0  0  0  0  0  0
   18.9735   16.9996   22.0706 C   0  0  0  0  0  0  0  0  0  0  0  0
   19.2064   17.3843   21.0740 H   0  0  0  0  0  0  0  0  0  0  0  0
   19.9080   16.9002   22.6287 H   0  0  0  0  0  0  0  0  0  0  0  0
   18.3788   15.6154   21.9104 N   0  3  0  0  0  0  0  0  0  0  0  0
   19.0200   14.9790   21.4243 H   0  0  0  0  0  0  0  0  0  0  0  0
   17.5089   15.6337   21.3681 H   0  0  0  0  0  0  0  0  0  0  0  0
   18.1611   15.1859   22.8156 H   0  0  0  0  0  0  0  0  0  0  0  0
  1  2  1  0  0  0  0
  1  3  1  0  0  0  0
  1  4  1  0  0  0  0
  1  5  1  0  0  0  0
  5  6  1  0  0  0  0
  5  7  1  0  0  0  0
  5  8  1  0  0  0  0
  8  9  1  0  0  0  0
  8 10  1  0  0  0  0
  8 11  1  0  0  0  0
 11 12  1  0  0  0  0
 11 13  1  0  0  0  0
 11 14  1  0  0  0  0
 14 15  1  0  0  0  0
 14 16  1  0  0  0  0
 14 17  1  0  0  0  0
 17 18  1  0  0  0  0
 17 19  1  0  0  0  0
 17 20  1  0  0  0  0
 20 21  1  0  0  0  0
 20 22  1  0  0  0  0
 20 23  1  0  0  0  0
 23 24  1  0  0  0  0
 23 25  1  0  0  0  0
 23 26  1  0  0  0  0
M  END
> <VConfSearch Rank>
318

> <Conf_Id>
96

> <Delta U+W>
0.912

> <U+W>
-4.640

> <U>
48.723

> <W>
-53.364

> <W(PB)>
-55.683

> <W(SA)>
2.320

> <Valence>
2.962

> <Coulomb>
44.993

> <VdW>
0.768

> <VdW6>
-7.008

> <VdW12>
7.776

> <Bond>
0.188

> <Angle>
0.757

> <Pdih>
2.018

> <Idih>
0.000

> <Tether>
0.000

$$$$
VeraChem MOL file


 26 25  0  0  0  0  0  0  0  0999 V2000     
   18.4602   21.8235   22.1837 C   0  0  0  0  0  0  0  0  0  0  0  0
   18.0364   22.5293   21.4576 H   0  0  0  0  0  0  0  0  0  0  0  0
   18.5783   22.3537   23.1376 H   0  0  0  0  0  0  0  0  0  0  0  0
   19.4560   21.5381   21.8227 H   0  0  0  0  0  0  0  0  0  0  0  0
   17.5389   20.5927   22.3422 C   0  0  0  0  0  0  0  0  0  0  0  0
   17.4624   20.0622   21.3827 H   0  0  0  0  0  0  0  0  0  0  0  0
   16.5242   20.9391   22.5835 H   0  0  0  0  0  0  0  0  0  0  0  0
   18.0045   19.6130   23.4464 C   0  0  0  0  0  0  0  0  0  0  0  0
   18.0599   20.1429   24.4073 H   0  0  0  0  0  0  0  0  0  0  0  0
   17.2384   18.8345   23.5666 H   0  0  0  0  0  0  0  0  0  0  0  0
   19.3649   18.9413   23.1416 C   0  0  0  0  0  0  0  0  0  0  0  0
   20.1480   19.7076   23.0842 H   0  0  0  0  0  0  0  0  0  0  0  0
   19.3203   18.4542   22.1578 H   0  0  0  0  0  0  0  0  0  0  0  0
   19.7408   17.8957   24.2190 C   0  0  0  0  0  0  0  0  0  0  0  0
   19.8152   18.3850   25.2002 H   0  0  0  0  0  0  0  0  0  0  0  0
   18.9332   17.1552   24.3017 H   0  0  0  0  0  0  0  0  0  0  0  0
   21.0628   17.1542   23.9109 C   0  0  0  0  0  0  0  0  0  0  0  0
   20.9829   16.6447   22.9413 H   0  0  0  0  0  0  0  0  0  0  0  0
   21.2164   16.3714   24.6656 H   0  0  0  0  0  0  0  0  0  0  0  0
   22.2843   18.0924   23.9038 C   0  0  0  0  0  0  0  0  0  0  0  0
   22.1647   18.8504   23.1255 H   0  0  0  0  0  0  0  0  0  0  0  0
   22.3645   18.5992   24.8692 H   0  0  0  0  0  0  0  0  0  0  0  0
   23.5886   17.3654   23.6475 N   0  3  0  0  0  0  0  0  0  0  0  0
   23.5882   16.8881   22.7401 H   0  0  0  0  0  0  0  0  0  0  0  0
   23.7768   16.6547   24.3621 H   0  0  0  0  0  0  0  0  0  0  0  0
   24.3889   18.0072   23.6469 H   0  0  0  0  0  0  0  0  0  0  0  0
  1  2  1  0  0  0  0
  1  3  1  0  0  0  0
  1  4  1  0  0  0  0
  1  5  1  0  0  0  0
  5  6  1  0  0  0  0
  5  7  1  0  0  0  0
  5  8  1  0  0  0  0
  8  9  1  0  0  0  0
  8 10  1  0  0  0  0
  8 11  1  0  0  0  0
 11 12  1  0  0  0  0
 11 13  1  0  0  0  0
 11 14  1  0  0  0  0
 14 15  1  0  0  0  0
 14 16  1  0  0  0  0
 14 17  1  0  0  0  0
 17 18  1  0  0  0  0
 17 19  1  0  0  0  0
 17 20  1  0  0  0  0
 20 21  1  0  0  0  0
 20 22  1  0  0  0  0
 20 23  1  0  0  0  0
 23 24  1  0  0  0  0
 23 25  1  0  0  0  0
 23 26  1  0  0  0  0
M  END
> <VConfSearch Rank>
319

> <Conf_Id>
133

> <Delta U+W>
0.844

> <U+W>
-4.708

> <U>
48.723

> <W>
-53.431

> <W(PB)>
-55.776

> <W(SA)>
2.344

> <Valence>
2.962

> <Coulomb>
44.993

> <VdW>
0.768

> <VdW6>
-7.008

> <VdW12>
7.776

> <Bond>
0.188

> <Angle>
0.756

> <Pdih>
2.018

> <Idih>
0.000

> <Tether>
0.000

$$$$
VeraChem MOL file


 26 25  0  0  0  0  0  0  0  0999 V2000     
   19.7580   16.2000   25.3161 C   0  0  0  0  0  0  0  0  0  0  0  0
   18.7911   15.9777   25.7857 H   0  0  0  0  0  0  0  0  0  0  0  0
   19.6097   16.2523   24.2303 H   0  0  0  0  0  0  0  0  0  0  0  0
   20.4313   15.3568   25.5174 H   0  0  0  0  0  0  0  0  0  0  0  0
   20.3551   17.5136   25.8696 C   0  0  0  0  0  0  0  0  0  0  0  0
   21.3107   17.7252   25.3716 H   0  0  0  0  0  0  0  0  0  0  0  0
   20.5958   17.3722   26.9325 H   0  0  0  0  0  0  0  0  0  0  0  0
   19.4012   18.7282   25.7377 C   0  0  0  0  0  0  0  0  0  0  0  0
   18.5050   18.5428   26.3456 H   0  0  0  0  0  0  0  0  0  0  0  0
   19.8868   19.6090   26.1798 H   0  0  0  0  0  0  0  0  0  0  0  0
   18.9584   19.0697   24.2914 C   0  0  0  0  0  0  0  0  0  0  0  0
   18.2754   19.9294   24.3339 H   0  0  0  0  0  0  0  0  0  0  0  0
   18.3730   18.2401   23.8734 H   0  0  0  0  0  0  0  0  0  0  0  0
   20.1366   19.4083   23.3470 C   0  0  0  0  0  0  0  0  0  0  0  0
   20.7453   20.2083   23.7909 H   0  0  0  0  0  0  0  0  0  0  0  0
   20.7904   18.5331   23.2361 H   0  0  0  0  0  0  0  0  0  0  0  0
   19.6445   19.8495   21.9511 C   0  0  0  0  0  0  0  0  0  0  0  0
   18.9979   20.7318   22.0480 H   0  0  0  0  0  0  0  0  0  0  0  0
   19.0365   19.0514   21.5044 H   0  0  0  0  0  0  0  0  0  0  0  0
   20.8223   20.1791   21.0172 C   0  0  0  0  0  0  0  0  0  0  0  0
   21.4215   20.9845   21.4506 H   0  0  0  0  0  0  0  0  0  0  0  0
   21.4602   19.2982   20.9042 H   0  0  0  0  0  0  0  0  0  0  0  0
   20.3800   20.6166   19.6358 N   0  3  0  0  0  0  0  0  0  0  0  0
   21.1796   20.8313   19.0300 H   0  0  0  0  0  0  0  0  0  0  0  0
   19.7971   21.4593   19.6702 H   0  0  0  0  0  0  0  0  0  0  0  0
   19.8331   19.8904   19.1617 H   0  0  0  0  0  0  0  0  0  0  0  0
  1  2  1  0  0  0  0
  1  3  1  0  0  0  0
  1  4  1  0  0  0  0
  1  5  1  0  0  0  0
  5  6  1  0  0  0  0
  5  7  1  0  0  0  0
  5  8  1  0  0  0  0
  8  9  1  0  0  0  0
  8 10  1  0  0  0  0
  8 11  1  0  0  0  0
 11 12  1  0  0  0  0
 11 13  1  0  0  0  0
 11 14  1  0  0  0  0
 14 15  1  0  0  0  0
 14 16  1  0  0  0  0
 14 17  1  0  0  0  0
 17 18  1  0  0  0  0
 17 19  1  0  0  0  0
 17 20  1  0  0  0  0
 20 21  1  0  0  0  0
 20 22  1  0  0  0  0
 20 23  1  0  0  0  0
 23 24  1  0  0  0  0
 23 25  1  0  0  0  0
 23 26  1  0  0  0  0
M  END
> <VConfSearch Rank>
320

> <Conf_Id>
106

> <Delta U+W>
0.767

> <U+W>
-4.785

> <U>
48.494

> <W>
-53.279

> <W(PB)>
-55.569

> <W(SA)>
2.290

> <Valence>
3.117

> <Coulomb>
44.693

> <VdW>
0.684

> <VdW6>
-7.347

> <VdW12>
8.030

> <Bond>
0.208

> <Angle>
1.039

> <Pdih>
1.870

> <Idih>
0.000

> <Tether>
0.000

$$$$
VeraChem MOL file


 26 25  0  0  0  0  0  0  0  0999 V2000     
   21.5618   18.7763   27.5071 C   0  0  0  0  0  0  0  0  0  0  0  0
   20.9279   19.5928   27.8771 H   0  0  0  0  0  0  0  0  0  0  0  0
   21.0757   17.8248   27.7595 H   0  0  0  0  0  0  0  0  0  0  0  0
   22.5168   18.8202   28.0466 H   0  0  0  0  0  0  0  0  0  0  0  0
   21.7894   18.8965   25.9853 C   0  0  0  0  0  0  0  0  0  0  0  0
   22.4534   18.0870   25.6510 H   0  0  0  0  0  0  0  0  0  0  0  0
   22.3069   19.8413   25.7677 H   0  0  0  0  0  0  0  0  0  0  0  0
   20.4595   18.8376   25.2015 C   0  0  0  0  0  0  0  0  0  0  0  0
   19.9448   17.8926   25.4242 H   0  0  0  0  0  0  0  0  0  0  0  0
   19.7984   19.6471   25.5408 H   0  0  0  0  0  0  0  0  0  0  0  0
   20.6833   18.9575   23.6771 C   0  0  0  0  0  0  0  0  0  0  0  0
   21.3448   18.1478   23.3388 H   0  0  0  0  0  0  0  0  0  0  0  0
   21.1985   19.9025   23.4554 H   0  0  0  0  0  0  0  0  0  0  0  0
   19.3526   18.8987   22.8935 C   0  0  0  0  0  0  0  0  0  0  0  0
   18.8370   17.9537   23.1149 H   0  0  0  0  0  0  0  0  0  0  0  0
   18.6908   19.7084   23.2314 H   0  0  0  0  0  0  0  0  0  0  0  0
   19.5755   19.0184   21.3698 C   0  0  0  0  0  0  0  0  0  0  0  0
   20.2321   18.2075   21.0271 H   0  0  0  0  0  0  0  0  0  0  0  0
   20.0860   19.9641   21.1437 H   0  0  0  0  0  0  0  0  0  0  0  0
   18.2445   18.9589   20.5996 C   0  0  0  0  0  0  0  0  0  0  0  0
   17.7403   18.0115   20.8087 H   0  0  0  0  0  0  0  0  0  0  0  0
   17.5936   19.7745   20.9259 H   0  0  0  0  0  0  0  0  0  0  0  0
   18.4213   19.0733   19.0993 N   0  3  0  0  0  0  0  0  0  0  0  0
   17.5231   19.0314   18.6055 H   0  0  0  0  0  0  0  0  0  0  0  0
   19.0034   18.3172   18.7241 H   0  0  0  0  0  0  0  0  0  0  0  0
   18.8669   19.9576   18.8332 H   0  0  0  0  0  0  0  0  0  0  0  0
  1  2  1  0  0  0  0
  1  3  1  0  0  0  0
  1  4  1  0  0  0  0
  1  5  1  0  0  0  0
  5  6  1  0  0  0  0
  5  7  1  0  0  0  0
  5  8  1  0  0  0  0
  8  9  1  0  0  0  0
  8 10  1  0  0  0  0
  8 11  1  0  0  0  0
 11 12  1  0  0  0  0
 11 13  1  0  0  0  0
 11 14  1  0  0  0  0
 14 15  1  0  0  0  0
 14 16  1  0  0  0  0
 14 17  1  0  0  0  0
 17 18  1  0  0  0  0
 17 19  1  0  0  0  0
 17 20  1  0  0  0  0
 20 21  1  0  0  0  0
 20 22  1  0  0  0  0
 20 23  1  0  0  0  0
 23 24  1  0  0  0  0
 23 25  1  0  0  0  0
 23 26  1  0  0  0  0
M  END
> <VConfSearch Rank>
321

> <Conf_Id>
25

> <Delta U+W>
0.000

> <U+W>
-5.552

> <U>
47.192

> <W>
-52.745

> <W(PB)>
-55.134

> <W(SA)>
2.389

> <Valence>
2.156

> <Coulomb>
44.449

> <VdW>
0.587

> <VdW6>
-5.761

> <VdW12>
6.348

> <Bond>
0.129

> <Angle>
0.393

> <Pdih>
1.634

> <Idih>
0.000

> <Tether>
0.000

$$$$
VeraChem MOL file


 26 25  0  0  0  0  0  0  0  0999 V2000     
   20.8569   15.8574   26.1425 C   0  0  0  0  0  0  0  0  0  0  0  0
   20.3336   16.3456   26.9749 H   0  0  0  0  0  0  0  0  0  0  0  0
   20.1527   15.1747   25.6492 H   0  0  0  0  0  0  0  0  0  0  0  0
   21.6716   15.2544   26.5639 H   0  0  0  0  0  0  0  0  0  0  0  0
   21.4090   16.8995   25.1468 C   0  0  0  0  0  0  0  0  0  0  0  0
   21.9554   16.3836   24.3448 H   0  0  0  0  0  0  0  0  0  0  0  0
   22.1349   17.5455   25.6603 H   0  0  0  0  0  0  0  0  0  0  0  0
   20.2817   17.7627   24.5382 C   0  0  0  0  0  0  0  0  0  0  0  0
   19.5575   17.1125   24.0282 H   0  0  0  0  0  0  0  0  0  0  0  0
   19.7370   18.2746   25.3437 H   0  0  0  0  0  0  0  0  0  0  0  0
   20.8308   18.8075   23.5405 C   0  0  0  0  0  0  0  0  0  0  0  0
   21.3752   18.2949   22.7353 H   0  0  0  0  0  0  0  0  0  0  0  0
   21.5557   19.4563   24.0514 H   0  0  0  0  0  0  0  0  0  0  0  0
   19.7028   19.6713   22.9323 C   0  0  0  0  0  0  0  0  0  0  0  0
   18.9790   19.0175   22.4275 H   0  0  0  0  0  0  0  0  0  0  0  0
   19.1604   20.1862   23.7375 H   0  0  0  0  0  0  0  0  0  0  0  0
   20.2545   20.7157   21.9333 C   0  0  0  0  0  0  0  0  0  0  0  0
   20.7721   20.2100   21.1073 H   0  0  0  0  0  0  0  0  0  0  0  0
   21.0041   21.3404   22.4371 H   0  0  0  0  0  0  0  0  0  0  0  0
   19.1559   21.6351   21.3657 C   0  0  0  0  0  0  0  0  0  0  0  0
   18.6345   22.1356   22.1862 H   0  0  0  0  0  0  0  0  0  0  0  0
   19.6145   22.4018   20.7353 H   0  0  0  0  0  0  0  0  0  0  0  0
   18.1239   20.9072   20.5268 N   0  3  0  0  0  0  0  0  0  0  0  0
   17.6270   20.1945   21.0700 H   0  0  0  0  0  0  0  0  0  0  0  0
   18.5510   20.4338   19.7240 H   0  0  0  0  0  0  0  0  0  0  0  0
   17.4153   21.5486   20.1540 H   0  0  0  0  0  0  0  0  0  0  0  0
  1  2  1  0  0  0  0
  1  3  1  0  0  0  0
  1  4  1  0  0  0  0
  1  5  1  0  0  0  0
  5  6  1  0  0  0  0
  5  7  1  0  0  0  0
  5  8  1  0  0  0  0
  8  9  1  0  0  0  0
  8 10  1  0  0  0  0
  8 11  1  0  0  0  0
 11 12  1  0  0  0  0
 11 13  1  0  0  0  0
 11 14  1  0  0  0  0
 14 15  1  0  0  0  0
 14 16  1  0  0  0  0
 14 17  1  0  0  0  0
 17 18  1  0  0  0  0
 17 19  1  0  0  0  0
 17 20  1  0  0  0  0
 20 21  1  0  0  0  0
 20 22  1  0  0  0  0
 20 23  1  0  0  0  0
 23 24  1  0  0  0  0
 23 25  1  0  0  0  0
 23 26  1  0  0  0  0
M  END
> <VConfSearch Rank>
322

> <Conf_Id>
20

> <Delta U+W>
0.150

> <U+W>
-5.403

> <U>
47.845

> <W>
-53.248

> <W(PB)>
-55.599

> <W(SA)>
2.351

> <Valence>
2.258

> <Coulomb>
44.893

> <VdW>
0.694

> <VdW6>
-6.285

> <VdW12>
6.979

> <Bond>
0.149

> <Angle>
0.434

> <Pdih>
1.675

> <Idih>
0.000

> <Tether>
0.000

$$$$
VeraChem MOL file


 26 25  0  0  0  0  0  0  0  0999 V2000     
   17.3229   22.3516   23.5483 C   0  0  0  0  0  0  0  0  0  0  0  0
   16.4505   21.7453   23.2714 H   0  0  0  0  0  0  0  0  0  0  0  0
   17.3601   22.4169   24.6436 H   0  0  0  0  0  0  0  0  0  0  0  0
   17.1675   23.3648   23.1555 H   0  0  0  0  0  0  0  0  0  0  0  0
   18.6238   21.7419   22.9844 C   0  0  0  0  0  0  0  0  0  0  0  0
   19.4732   22.3874   23.2483 H   0  0  0  0  0  0  0  0  0  0  0  0
   18.5706   21.7209   21.8868 H   0  0  0  0  0  0  0  0  0  0  0  0
   18.8667   20.3143   23.5222 C   0  0  0  0  0  0  0  0  0  0  0  0
   18.9168   20.3400   24.6195 H   0  0  0  0  0  0  0  0  0  0  0  0
   18.0140   19.6736   23.2579 H   0  0  0  0  0  0  0  0  0  0  0  0
   20.1686   19.7004   22.9595 C   0  0  0  0  0  0  0  0  0  0  0  0
   21.0203   20.3426   23.2233 H   0  0  0  0  0  0  0  0  0  0  0  0
   20.1176   19.6747   21.8621 H   0  0  0  0  0  0  0  0  0  0  0  0
   20.4116   18.2724   23.4984 C   0  0  0  0  0  0  0  0  0  0  0  0
   20.4656   18.2987   24.5957 H   0  0  0  0  0  0  0  0  0  0  0  0
   19.5555   17.6365   23.2363 H   0  0  0  0  0  0  0  0  0  0  0  0
   21.7148   17.6594   22.9332 C   0  0  0  0  0  0  0  0  0  0  0  0
   22.5595   18.3208   23.1680 H   0  0  0  0  0  0  0  0  0  0  0  0
   21.6588   17.5995   21.8381 H   0  0  0  0  0  0  0  0  0  0  0  0
   22.0147   16.2624   23.5101 C   0  0  0  0  0  0  0  0  0  0  0  0
   22.9847   15.9182   23.1409 H   0  0  0  0  0  0  0  0  0  0  0  0
   22.0652   16.3177   24.6009 H   0  0  0  0  0  0  0  0  0  0  0  0
   20.9836   15.2146   23.1392 N   0  3  0  0  0  0  0  0  0  0  0  0
   20.9058   15.0997   22.1235 H   0  0  0  0  0  0  0  0  0  0  0  0
   20.0519   15.4581   23.4891 H   0  0  0  0  0  0  0  0  0  0  0  0
   21.2191   14.2947   23.5275 H   0  0  0  0  0  0  0  0  0  0  0  0
  1  2  1  0  0  0  0
  1  3  1  0  0  0  0
  1  4  1  0  0  0  0
  1  5  1  0  0  0  0
  5  6  1  0  0  0  0
  5  7  1  0  0  0  0
  5  8  1  0  0  0  0
  8  9  1  0  0  0  0
  8 10  1  0  0  0  0
  8 11  1  0  0  0  0
 11 12  1  0  0  0  0
 11 13  1  0  0  0  0
 11 14  1  0  0  0  0
 14 15  1  0  0  0  0
 14 16  1  0  0  0  0
 14 17  1  0  0  0  0
 17 18  1  0  0  0  0
 17 19  1  0  0  0  0
 17 20  1  0  0  0  0
 20 21  1  0  0  0  0
 20 22  1  0  0  0  0
 20 23  1  0  0  0  0
 23 24  1  0  0  0  0
 23 25  1  0  0  0  0
 23 26  1  0  0  0  0
M  END
> <VConfSearch Rank>
323

> <Conf_Id>
19

> <Delta U+W>
0.162

> <U+W>
-5.391

> <U>
47.845

> <W>
-53.235

> <W(PB)>
-55.585

> <W(SA)>
2.349

> <Valence>
2.258

> <Coulomb>
44.893

> <VdW>
0.694

> <VdW6>
-6.285

> <VdW12>
6.979

> <Bond>
0.149

> <Angle>
0.434

> <Pdih>
1.675

> <Idih>
0.000

> <Tether>
0.000

$$$$
VeraChem MOL file


 26 25  0  0  0  0  0  0  0  0999 V2000     
   20.5304   14.8191   23.7481 C   0  0  0  0  0  0  0  0  0  0  0  0
   21.4088   14.3968   23.2427 H   0  0  0  0  0  0  0  0  0  0  0  0
   20.7326   14.8375   24.8270 H   0  0  0  0  0  0  0  0  0  0  0  0
   19.6843   14.1415   23.5751 H   0  0  0  0  0  0  0  0  0  0  0  0
   20.2124   16.2340   23.2195 C   0  0  0  0  0  0  0  0  0  0  0  0
   19.3067   16.6046   23.7176 H   0  0  0  0  0  0  0  0  0  0  0  0
   19.9861   16.1790   22.1455 H   0  0  0  0  0  0  0  0  0  0  0  0
   21.3900   17.2089   23.4562 C   0  0  0  0  0  0  0  0  0  0  0  0
   21.5813   17.3040   24.5340 H   0  0  0  0  0  0  0  0  0  0  0  0
   22.3018   16.7796   23.0184 H   0  0  0  0  0  0  0  0  0  0  0  0
   21.1659   18.6130   22.8427 C   0  0  0  0  0  0  0  0  0  0  0  0
   20.9899   18.5181   21.7623 H   0  0  0  0  0  0  0  0  0  0  0  0
   22.0927   19.1925   22.9544 H   0  0  0  0  0  0  0  0  0  0  0  0
   20.0008   19.3952   23.4956 C   0  0  0  0  0  0  0  0  0  0  0  0
   19.0529   18.8675   23.3270 H   0  0  0  0  0  0  0  0  0  0  0  0
   20.1524   19.4408   24.5831 H   0  0  0  0  0  0  0  0  0  0  0  0
   19.8858   20.8287   22.9319 C   0  0  0  0  0  0  0  0  0  0  0  0
   19.7330   20.7873   21.8452 H   0  0  0  0  0  0  0  0  0  0  0  0
   20.8247   21.3714   23.1052 H   0  0  0  0  0  0  0  0  0  0  0  0
   18.7231   21.5982   23.5832 C   0  0  0  0  0  0  0  0  0  0  0  0
   17.7834   21.0705   23.3991 H   0  0  0  0  0  0  0  0  0  0  0  0
   18.8794   21.6560   24.6638 H   0  0  0  0  0  0  0  0  0  0  0  0
   18.5772   23.0109   23.0556 N   0  3  0  0  0  0  0  0  0  0  0  0
   18.4003   23.0255   22.0458 H   0  0  0  0  0  0  0  0  0  0  0  0
   19.4201   23.5703   23.2225 H   0  0  0  0  0  0  0  0  0  0  0  0
   17.7974   23.5058   23.5024 H   0  0  0  0  0  0  0  0  0  0  0  0
  1  2  1  0  0  0  0
  1  3  1  0  0  0  0
  1  4  1  0  0  0  0
  1  5  1  0  0  0  0
  5  6  1  0  0  0  0
  5  7  1  0  0  0  0
  5  8  1  0  0  0  0
  8  9  1  0  0  0  0
  8 10  1  0  0  0  0
  8 11  1  0  0  0  0
 11 12  1  0  0  0  0
 11 13  1  0  0  0  0
 11 14  1  0  0  0  0
 14 15  1  0  0  0  0
 14 16  1  0  0  0  0
 14 17  1  0  0  0  0
 17 18  1  0  0  0  0
 17 19  1  0  0  0  0
 17 20  1  0  0  0  0
 20 21  1  0  0  0  0
 20 22  1  0  0  0  0
 20 23  1  0  0  0  0
 23 24  1  0  0  0  0
 23 25  1  0  0  0  0
 23 26  1  0  0  0  0
M  END
> <VConfSearch Rank>
324

> <Conf_Id>
37

> <Delta U+W>
0.565

> <U+W>
-4.988

> <U>
48.035

> <W>
-53.022

> <W(PB)>
-55.379

> <W(SA)>
2.357

> <Valence>
2.701

> <Coulomb>
44.622

> <VdW>
0.712

> <VdW6>
-6.418

> <VdW12>
7.129

> <Bond>
0.168

> <Angle>
0.659

> <Pdih>
1.875

> <Idih>
0.000

> <Tether>
0.000

$$$$
VeraChem MOL file


 26 25  0  0  0  0  0  0  0  0999 V2000     
   21.0321   19.4088   19.4401 C   0  0  0  0  0  0  0  0  0  0  0  0
   21.1456   20.4475   19.7769 H   0  0  0  0  0  0  0  0  0  0  0  0
   22.0010   18.9050   19.5528 H   0  0  0  0  0  0  0  0  0  0  0  0
   20.7840   19.4266   18.3709 H   0  0  0  0  0  0  0  0  0  0  0  0
   19.9322   18.6821   20.2427 C   0  0  0  0  0  0  0  0  0  0  0  0
   19.8184   17.6582   19.8598 H   0  0  0  0  0  0  0  0  0  0  0  0
   18.9699   19.1888   20.0840 H   0  0  0  0  0  0  0  0  0  0  0  0
   20.2574   18.6420   21.7524 C   0  0  0  0  0  0  0  0  0  0  0  0
   21.2189   18.1330   21.9060 H   0  0  0  0  0  0  0  0  0  0  0  0
   20.3775   19.6696   22.1196 H   0  0  0  0  0  0  0  0  0  0  0  0
   19.1529   17.9171   22.5586 C   0  0  0  0  0  0  0  0  0  0  0  0
   18.9928   16.9190   22.1277 H   0  0  0  0  0  0  0  0  0  0  0  0
   18.2012   18.4555   22.4508 H   0  0  0  0  0  0  0  0  0  0  0  0
   19.4889   17.7533   24.0614 C   0  0  0  0  0  0  0  0  0  0  0  0
   18.7113   17.1314   24.5264 H   0  0  0  0  0  0  0  0  0  0  0  0
   20.4319   17.1995   24.1698 H   0  0  0  0  0  0  0  0  0  0  0  0
   19.5815   19.0951   24.8253 C   0  0  0  0  0  0  0  0  0  0  0  0
   18.6584   19.6707   24.6750 H   0  0  0  0  0  0  0  0  0  0  0  0
   20.4082   19.6990   24.4306 H   0  0  0  0  0  0  0  0  0  0  0  0
   19.8024   18.8678   26.3311 C   0  0  0  0  0  0  0  0  0  0  0  0
   18.9746   18.2824   26.7404 H   0  0  0  0  0  0  0  0  0  0  0  0
   20.7291   18.3088   26.4869 H   0  0  0  0  0  0  0  0  0  0  0  0
   19.8966   20.1585   27.1190 N   0  3  0  0  0  0  0  0  0  0  0  0
   19.0427   20.7200   27.0362 H   0  0  0  0  0  0  0  0  0  0  0  0
   20.6755   20.7446   26.8011 H   0  0  0  0  0  0  0  0  0  0  0  0
   20.0432   19.9842   28.1193 H   0  0  0  0  0  0  0  0  0  0  0  0
  1  2  1  0  0  0  0
  1  3  1  0  0  0  0
  1  4  1  0  0  0  0
  1  5  1  0  0  0  0
  5  6  1  0  0  0  0
  5  7  1  0  0  0  0
  5  8  1  0  0  0  0
  8  9  1  0  0  0  0
  8 10  1  0  0  0  0
  8 11  1  0  0  0  0
 11 12  1  0  0  0  0
 11 13  1  0  0  0  0
 11 14  1  0  0  0  0
 14 15  1  0  0  0  0
 14 16  1  0  0  0  0
 14 17  1  0  0  0  0
 17 18  1  0  0  0  0
 17 19  1  0  0  0  0
 17 20  1  0  0  0  0
 20 21  1  0  0  0  0
 20 22  1  0  0  0  0
 20 23  1  0  0  0  0
 23 24  1  0  0  0  0
 23 25  1  0  0  0  0
 23 26  1  0  0  0  0
M  END
> <VConfSearch Rank>
325

> <Conf_Id>
35

> <Delta U+W>
0.587

> <U+W>
-4.965

> <U>
48.214

> <W>
-53.179

> <W(PB)>
-55.527

> <W(SA)>
2.348

> <Valence>
2.697

> <Coulomb>
44.819

> <VdW>
0.699

> <VdW6>
-6.437

> <VdW12>
7.136

> <Bond>
0.168

> <Angle>
0.657

> <Pdih>
1.872

> <Idih>
0.000

> <Tether>
0.000

$$$$
VeraChem MOL file


 26 25  0  0  0  0  0  0  0  0999 V2000     
   21.8838   15.3692   23.3294 C   0  0  0  0  0  0  0  0  0  0  0  0
   21.3363   15.0016   24.2071 H   0  0  0  0  0  0  0  0  0  0  0  0
   21.2519   15.2189   22.4444 H   0  0  0  0  0  0  0  0  0  0  0  0
   22.7832   14.7511   23.2101 H   0  0  0  0  0  0  0  0  0  0  0  0
   22.2627   16.8563   23.4948 C   0  0  0  0  0  0  0  0  0  0  0  0
   22.8371   17.1860   22.6178 H   0  0  0  0  0  0  0  0  0  0  0  0
   22.9223   16.9692   24.3666 H   0  0  0  0  0  0  0  0  0  0  0  0
   21.0138   17.7493   23.6656 C   0  0  0  0  0  0  0  0  0  0  0  0
   20.3599   17.6201   22.7933 H   0  0  0  0  0  0  0  0  0  0  0  0
   20.4441   17.4172   24.5445 H   0  0  0  0  0  0  0  0  0  0  0  0
   21.3925   19.2412   23.8275 C   0  0  0  0  0  0  0  0  0  0  0  0
   21.9149   19.5910   22.9263 H   0  0  0  0  0  0  0  0  0  0  0  0
   22.1073   19.3406   24.6561 H   0  0  0  0  0  0  0  0  0  0  0  0
   20.1799   20.1609   24.1139 C   0  0  0  0  0  0  0  0  0  0  0  0
   19.6675   19.8217   25.0250 H   0  0  0  0  0  0  0  0  0  0  0  0
   20.5529   21.1721   24.3286 H   0  0  0  0  0  0  0  0  0  0  0  0
   19.1699   20.2364   22.9449 C   0  0  0  0  0  0  0  0  0  0  0  0
   18.7220   19.2506   22.7675 H   0  0  0  0  0  0  0  0  0  0  0  0
   19.6918   20.5265   22.0233 H   0  0  0  0  0  0  0  0  0  0  0  0
   18.0493   21.2496   23.2380 C   0  0  0  0  0  0  0  0  0  0  0  0
   17.5160   20.9561   24.1462 H   0  0  0  0  0  0  0  0  0  0  0  0
   18.4820   22.2409   23.3982 H   0  0  0  0  0  0  0  0  0  0  0  0
   17.0374   21.3572   22.1155 N   0  3  0  0  0  0  0  0  0  0  0  0
   16.5726   20.4618   21.9326 H   0  0  0  0  0  0  0  0  0  0  0  0
   17.4721   21.6569   21.2366 H   0  0  0  0  0  0  0  0  0  0  0  0
   16.3005   22.0375   22.3311 H   0  0  0  0  0  0  0  0  0  0  0  0
  1  2  1  0  0  0  0
  1  3  1  0  0  0  0
  1  4  1  0  0  0  0
  1  5  1  0  0  0  0
  5  6  1  0  0  0  0
  5  7  1  0  0  0  0
  5  8  1  0  0  0  0
  8  9  1  0  0  0  0
  8 10  1  0  0  0  0
  8 11  1  0  0  0  0
 11 12  1  0  0  0  0
 11 13  1  0  0  0  0
 11 14  1  0  0  0  0
 14 15  1  0  0  0  0
 14 16  1  0  0  0  0
 14 17  1  0  0  0  0
 17 18  1  0  0  0  0
 17 19  1  0  0  0  0
 17 20  1  0  0  0  0
 20 21  1  0  0  0  0
 20 22  1  0  0  0  0
 20 23  1  0  0  0  0
 23 24  1  0  0  0  0
 23 25  1  0  0  0  0
 23 26  1  0  0  0  0
M  END
> <VConfSearch Rank>
326

> <Conf_Id>
36

> <Delta U+W>
0.565

> <U+W>
-4.987

> <U>
48.214

> <W>
-53.201

> <W(PB)>
-55.543

> <W(SA)>
2.342

> <Valence>
2.697

> <Coulomb>
44.819

> <VdW>
0.698

> <VdW6>
-6.437

> <VdW12>
7.136

> <Bond>
0.168

> <Angle>
0.657

> <Pdih>
1.872

> <Idih>
0.000

> <Tether>
0.000

$$$$
VeraChem MOL file


 26 25  0  0  0  0  0  0  0  0999 V2000     
   18.9799   15.5805   25.8332 C   0  0  0  0  0  0  0  0  0  0  0  0
   19.6875   14.8082   25.5044 H   0  0  0  0  0  0  0  0  0  0  0  0
   18.8586   15.4856   26.9201 H   0  0  0  0  0  0  0  0  0  0  0  0
   18.0078   15.3747   25.3665 H   0  0  0  0  0  0  0  0  0  0  0  0
   19.4859   16.9906   25.4623 C   0  0  0  0  0  0  0  0  0  0  0  0
   20.4419   17.1801   25.9704 H   0  0  0  0  0  0  0  0  0  0  0  0
   18.7752   17.7422   25.8336 H   0  0  0  0  0  0  0  0  0  0  0  0
   19.6654   17.1510   23.9364 C   0  0  0  0  0  0  0  0  0  0  0  0
   20.3744   16.3957   23.5700 H   0  0  0  0  0  0  0  0  0  0  0  0
   18.7079   16.9587   23.4328 H   0  0  0  0  0  0  0  0  0  0  0  0
   20.1724   18.5618   23.5610 C   0  0  0  0  0  0  0  0  0  0  0  0
   21.1312   18.7517   24.0631 H   0  0  0  0  0  0  0  0  0  0  0  0
   19.4625   19.3113   23.9356 H   0  0  0  0  0  0  0  0  0  0  0  0
   20.3499   18.7198   22.0317 C   0  0  0  0  0  0  0  0  0  0  0  0
   21.0237   17.9339   21.6632 H   0  0  0  0  0  0  0  0  0  0  0  0
   19.3857   18.5634   21.5283 H   0  0  0  0  0  0  0  0  0  0  0  0
   20.9258   20.0969   21.6263 C   0  0  0  0  0  0  0  0  0  0  0  0
   21.1060   20.1028   20.5430 H   0  0  0  0  0  0  0  0  0  0  0  0
   21.9015   20.2453   22.1080 H   0  0  0  0  0  0  0  0  0  0  0  0
   19.9874   21.2639   21.9866 C   0  0  0  0  0  0  0  0  0  0  0  0
   19.0164   21.1169   21.5061 H   0  0  0  0  0  0  0  0  0  0  0  0
   19.8353   21.2964   23.0684 H   0  0  0  0  0  0  0  0  0  0  0  0
   20.5248   22.6123   21.5525 N   0  3  0  0  0  0  0  0  0  0  0  0
   19.8858   23.3753   21.8013 H   0  0  0  0  0  0  0  0  0  0  0  0
   20.6645   22.6593   20.5378 H   0  0  0  0  0  0  0  0  0  0  0  0
   21.4270   22.8235   21.9914 H   0  0  0  0  0  0  0  0  0  0  0  0
  1  2  1  0  0  0  0
  1  3  1  0  0  0  0
  1  4  1  0  0  0  0
  1  5  1  0  0  0  0
  5  6  1  0  0  0  0
  5  7  1  0  0  0  0
  5  8  1  0  0  0  0
  8  9  1  0  0  0  0
  8 10  1  0  0  0  0
  8 11  1  0  0  0  0
 11 12  1  0  0  0  0
 11 13  1  0  0  0  0
 11 14  1  0  0  0  0
 14 15  1  0  0  0  0
 14 16  1  0  0  0  0
 14 17  1  0  0  0  0
 17 18  1  0  0  0  0
 17 19  1  0  0  0  0
 17 20  1  0  0  0  0
 20 21  1  0  0  0  0
 20 22  1  0  0  0  0
 20 23  1  0  0  0  0
 23 24  1  0  0  0  0
 23 25  1  0  0  0  0
 23 26  1  0  0  0  0
M  END
> <VConfSearch Rank>
327

> <Conf_Id>
44

> <Delta U+W>
0.371

> <U+W>
-5.181

> <U>
48.002

> <W>
-53.183

> <W(PB)>
-55.533

> <W(SA)>
2.350

> <Valence>
2.459

> <Coulomb>
44.901

> <VdW>
0.643

> <VdW6>
-6.362

> <VdW12>
7.005

> <Bond>
0.151

> <Angle>
0.519

> <Pdih>
1.789

> <Idih>
0.000

> <Tether>
0.000

$$$$
VeraChem MOL file


 26 25  0  0  0  0  0  0  0  0999 V2000     
   16.9342   17.8021   21.0867 C   0  0  0  0  0  0  0  0  0  0  0  0
   17.5715   17.4842   20.2513 H   0  0  0  0  0  0  0  0  0  0  0  0
   15.9214   17.4227   20.8989 H   0  0  0  0  0  0  0  0  0  0  0  0
   16.8808   18.8976   21.0817 H   0  0  0  0  0  0  0  0  0  0  0  0
   17.4717   17.2639   22.4322 C   0  0  0  0  0  0  0  0  0  0  0  0
   17.3835   16.1684   22.4337 H   0  0  0  0  0  0  0  0  0  0  0  0
   16.8381   17.6240   23.2548 H   0  0  0  0  0  0  0  0  0  0  0  0
   18.9482   17.6417   22.7041 C   0  0  0  0  0  0  0  0  0  0  0  0
   19.2742   17.1039   23.6033 H   0  0  0  0  0  0  0  0  0  0  0  0
   19.5770   17.2782   21.8799 H   0  0  0  0  0  0  0  0  0  0  0  0
   19.1694   19.1634   22.8999 C   0  0  0  0  0  0  0  0  0  0  0  0
   18.5436   19.5265   23.7267 H   0  0  0  0  0  0  0  0  0  0  0  0
   18.8346   19.6979   22.0016 H   0  0  0  0  0  0  0  0  0  0  0  0
   20.6471   19.5479   23.1597 C   0  0  0  0  0  0  0  0  0  0  0  0
   21.2747   19.1722   22.3397 H   0  0  0  0  0  0  0  0  0  0  0  0
   20.7238   20.6428   23.1295 H   0  0  0  0  0  0  0  0  0  0  0  0
   21.1945   19.0336   24.5151 C   0  0  0  0  0  0  0  0  0  0  0  0
   21.1664   17.9374   24.5370 H   0  0  0  0  0  0  0  0  0  0  0  0
   20.5543   19.3817   25.3365 H   0  0  0  0  0  0  0  0  0  0  0  0
   22.6481   19.4750   24.7743 C   0  0  0  0  0  0  0  0  0  0  0  0
   23.0111   19.0037   25.6917 H   0  0  0  0  0  0  0  0  0  0  0  0
   23.2851   19.1479   23.9481 H   0  0  0  0  0  0  0  0  0  0  0  0
   22.8141   20.9738   24.9328 N   0  3  0  0  0  0  0  0  0  0  0  0
   22.5264   21.4794   24.0893 H   0  0  0  0  0  0  0  0  0  0  0  0
   23.7896   21.2311   25.1186 H   0  0  0  0  0  0  0  0  0  0  0  0
   22.2550   21.3387   25.7107 H   0  0  0  0  0  0  0  0  0  0  0  0
  1  2  1  0  0  0  0
  1  3  1  0  0  0  0
  1  4  1  0  0  0  0
  1  5  1  0  0  0  0
  5  6  1  0  0  0  0
  5  7  1  0  0  0  0
  5  8  1  0  0  0  0
  8  9  1  0  0  0  0
  8 10  1  0  0  0  0
  8 11  1  0  0  0  0
 11 12  1  0  0  0  0
 11 13  1  0  0  0  0
 11 14  1  0  0  0  0
 14 15  1  0  0  0  0
 14 16  1  0  0  0  0
 14 17  1  0  0  0  0
 17 18  1  0  0  0  0
 17 19  1  0  0  0  0
 17 20  1  0  0  0  0
 20 21  1  0  0  0  0
 20 22  1  0  0  0  0
 20 23  1  0  0  0  0
 23 24  1  0  0  0  0
 23 25  1  0  0  0  0
 23 26  1  0  0  0  0
M  END
> <VConfSearch Rank>
328

> <Conf_Id>
112

> <Delta U+W>
1.422

> <U+W>
-4.130

> <U>
49.323

> <W>
-53.453

> <W(PB)>
-55.749

> <W(SA)>
2.296

> <Valence>
3.408

> <Coulomb>
44.893

> <VdW>
1.021

> <VdW6>
-7.481

> <VdW12>
8.503

> <Bond>
0.239

> <Angle>
1.013

> <Pdih>
2.156

> <Idih>
0.000

> <Tether>
0.000

$$$$
VeraChem MOL file


 26 25  0  0  0  0  0  0  0  0999 V2000     
   17.0394   20.7257   24.5583 C   0  0  0  0  0  0  0  0  0  0  0  0
   16.3236   21.4675   24.9354 H   0  0  0  0  0  0  0  0  0  0  0  0
   16.9289   20.6852   23.4676 H   0  0  0  0  0  0  0  0  0  0  0  0
   16.7575   19.7477   24.9695 H   0  0  0  0  0  0  0  0  0  0  0  0
   18.4800   21.1067   24.9686 C   0  0  0  0  0  0  0  0  0  0  0  0
   18.5128   21.2487   26.0579 H   0  0  0  0  0  0  0  0  0  0  0  0
   18.7466   22.0758   24.5243 H   0  0  0  0  0  0  0  0  0  0  0  0
   19.5319   20.0422   24.5739 C   0  0  0  0  0  0  0  0  0  0  0  0
   20.5043   20.3418   24.9883 H   0  0  0  0  0  0  0  0  0  0  0  0
   19.2711   19.0880   25.0499 H   0  0  0  0  0  0  0  0  0  0  0  0
   19.6693   19.8547   23.0417 C   0  0  0  0  0  0  0  0  0  0  0  0
   19.8003   20.8392   22.5719 H   0  0  0  0  0  0  0  0  0  0  0  0
   18.7423   19.4353   22.6288 H   0  0  0  0  0  0  0  0  0  0  0  0
   20.8612   18.9542   22.6335 C   0  0  0  0  0  0  0  0  0  0  0  0
   20.9498   18.9799   21.5394 H   0  0  0  0  0  0  0  0  0  0  0  0
   21.7948   19.3777   23.0289 H   0  0  0  0  0  0  0  0  0  0  0  0
   20.7143   17.4853   23.1040 C   0  0  0  0  0  0  0  0  0  0  0  0
   19.7710   17.0632   22.7325 H   0  0  0  0  0  0  0  0  0  0  0  0
   20.6653   17.4490   24.1993 H   0  0  0  0  0  0  0  0  0  0  0  0
   21.8888   16.5962   22.6514 C   0  0  0  0  0  0  0  0  0  0  0  0
   22.8313   17.0238   23.0039 H   0  0  0  0  0  0  0  0  0  0  0  0
   21.7802   15.6013   23.0917 H   0  0  0  0  0  0  0  0  0  0  0  0
   21.9825   16.4242   21.1479 N   0  3  0  0  0  0  0  0  0  0  0  0
   22.1240   17.3199   20.6709 H   0  0  0  0  0  0  0  0  0  0  0  0
   21.1318   16.0045   20.7589 H   0  0  0  0  0  0  0  0  0  0  0  0
   22.7648   15.8160   20.8824 H   0  0  0  0  0  0  0  0  0  0  0  0
  1  2  1  0  0  0  0
  1  3  1  0  0  0  0
  1  4  1  0  0  0  0
  1  5  1  0  0  0  0
  5  6  1  0  0  0  0
  5  7  1  0  0  0  0
  5  8  1  0  0  0  0
  8  9  1  0  0  0  0
  8 10  1  0  0  0  0
  8 11  1  0  0  0  0
 11 12  1  0  0  0  0
 11 13  1  0  0  0  0
 11 14  1  0  0  0  0
 14 15  1  0  0  0  0
 14 16  1  0  0  0  0
 14 17  1  0  0  0  0
 17 18  1  0  0  0  0
 17 19  1  0  0  0  0
 17 20  1  0  0  0  0
 20 21  1  0  0  0  0
 20 22  1  0  0  0  0
 20 23  1  0  0  0  0
 23 24  1  0  0  0  0
 23 25  1  0  0  0  0
 23 26  1  0  0  0  0
M  END
> <VConfSearch Rank>
329

> <Conf_Id>
130

> <Delta U+W>
1.282

> <U+W>
-4.270

> <U>
49.153

> <W>
-53.422

> <W(PB)>
-55.725

> <W(SA)>
2.303

> <Valence>
3.298

> <Coulomb>
44.907

> <VdW>
0.948

> <VdW6>
-7.574

> <VdW12>
8.522

> <Bond>
0.229

> <Angle>
0.912

> <Pdih>
2.157

> <Idih>
0.000

> <Tether>
0.000

$$$$
VeraChem MOL file


 26 25  0  0  0  0  0  0  0  0999 V2000     
   20.6421   16.6030   20.8019 C   0  0  0  0  0  0  0  0  0  0  0  0
   20.8379   15.6313   21.2736 H   0  0  0  0  0  0  0  0  0  0  0  0
   20.8098   16.4927   19.7227 H   0  0  0  0  0  0  0  0  0  0  0  0
   21.3788   17.3234   21.1786 H   0  0  0  0  0  0  0  0  0  0  0  0
   19.1967   17.0740   21.0799 C   0  0  0  0  0  0  0  0  0  0  0  0
   18.4990   16.3864   20.5818 H   0  0  0  0  0  0  0  0  0  0  0  0
   19.0309   18.0557   20.6164 H   0  0  0  0  0  0  0  0  0  0  0  0
   18.8440   17.1259   22.5885 C   0  0  0  0  0  0  0  0  0  0  0  0
   17.7978   17.4437   22.6964 H   0  0  0  0  0  0  0  0  0  0  0  0
   18.8918   16.1074   22.9978 H   0  0  0  0  0  0  0  0  0  0  0  0
   19.7427   18.0494   23.4514 C   0  0  0  0  0  0  0  0  0  0  0  0
   20.7775   17.6824   23.4384 H   0  0  0  0  0  0  0  0  0  0  0  0
   19.4070   17.9682   24.4935 H   0  0  0  0  0  0  0  0  0  0  0  0
   19.7077   19.5349   23.0109 C   0  0  0  0  0  0  0  0  0  0  0  0
   20.0716   19.6209   21.9788 H   0  0  0  0  0  0  0  0  0  0  0  0
   18.6702   19.8969   23.0078 H   0  0  0  0  0  0  0  0  0  0  0  0
   20.5726   20.4535   23.9058 C   0  0  0  0  0  0  0  0  0  0  0  0
   20.5841   21.4627   23.4730 H   0  0  0  0  0  0  0  0  0  0  0  0
   21.6119   20.0987   23.9035 H   0  0  0  0  0  0  0  0  0  0  0  0
   20.0555   20.5352   25.3544 C   0  0  0  0  0  0  0  0  0  0  0  0
   19.0204   20.8872   25.3561 H   0  0  0  0  0  0  0  0  0  0  0  0
   20.0832   19.5443   25.8147 H   0  0  0  0  0  0  0  0  0  0  0  0
   20.8697   21.4728   26.2223 N   0  3  0  0  0  0  0  0  0  0  0  0
   21.8508   21.1813   26.2838 H   0  0  0  0  0  0  0  0  0  0  0  0
   20.5094   21.5132   27.1819 H   0  0  0  0  0  0  0  0  0  0  0  0
   20.8620   22.4320   25.8602 H   0  0  0  0  0  0  0  0  0  0  0  0
  1  2  1  0  0  0  0
  1  3  1  0  0  0  0
  1  4  1  0  0  0  0
  1  5  1  0  0  0  0
  5  6  1  0  0  0  0
  5  7  1  0  0  0  0
  5  8  1  0  0  0  0
  8  9  1  0  0  0  0
  8 10  1  0  0  0  0
  8 11  1  0  0  0  0
 11 12  1  0  0  0  0
 11 13  1  0  0  0  0
 11 14  1  0  0  0  0
 14 15  1  0  0  0  0
 14 16  1  0  0  0  0
 14 17  1  0  0  0  0
 17 18  1  0  0  0  0
 17 19  1  0  0  0  0
 17 20  1  0  0  0  0
 20 21  1  0  0  0  0
 20 22  1  0  0  0  0
 20 23  1  0  0  0  0
 23 24  1  0  0  0  0
 23 25  1  0  0  0  0
 23 26  1  0  0  0  0
M  END
> <VConfSearch Rank>
330

> <Conf_Id>
111

> <Delta U+W>
1.290

> <U+W>
-4.262

> <U>
49.209

> <W>
-53.471

> <W(PB)>
-55.745

> <W(SA)>
2.274

> <Valence>
3.465

> <Coulomb>
44.958

> <VdW>
0.786

> <VdW6>
-7.903

> <VdW12>
8.689

> <Bond>
0.237

> <Angle>
1.212

> <Pdih>
2.015

> <Idih>
0.000

> <Tether>
0.000

$$$$
VeraChem MOL file


 26 25  0  0  0  0  0  0  0  0999 V2000     
   21.0296   17.5841   26.8634 C   0  0  0  0  0  0  0  0  0  0  0  0
   20.7199   18.5065   27.3718 H   0  0  0  0  0  0  0  0  0  0  0  0
   20.4375   16.7540   27.2703 H   0  0  0  0  0  0  0  0  0  0  0  0
   22.0829   17.3997   27.1118 H   0  0  0  0  0  0  0  0  0  0  0  0
   20.8427   17.7034   25.3360 C   0  0  0  0  0  0  0  0  0  0  0  0
   21.1879   16.7784   24.8535 H   0  0  0  0  0  0  0  0  0  0  0  0
   21.4802   18.5153   24.9619 H   0  0  0  0  0  0  0  0  0  0  0  0
   19.3651   17.9679   24.9616 C   0  0  0  0  0  0  0  0  0  0  0  0
   18.7375   17.1874   25.4134 H   0  0  0  0  0  0  0  0  0  0  0  0
   19.0363   18.9199   25.4009 H   0  0  0  0  0  0  0  0  0  0  0  0
   19.1051   17.9832   23.4351 C   0  0  0  0  0  0  0  0  0  0  0  0
   18.0217   18.0586   23.2681 H   0  0  0  0  0  0  0  0  0  0  0  0
   19.4181   17.0241   22.9996 H   0  0  0  0  0  0  0  0  0  0  0  0
   19.8104   19.1473   22.6984 C   0  0  0  0  0  0  0  0  0  0  0  0
   19.5389   20.0966   23.1789 H   0  0  0  0  0  0  0  0  0  0  0  0
   20.8996   19.0423   22.7876 H   0  0  0  0  0  0  0  0  0  0  0  0
   19.4298   19.1890   21.1995 C   0  0  0  0  0  0  0  0  0  0  0  0
   18.3465   19.3319   21.0893 H   0  0  0  0  0  0  0  0  0  0  0  0
   19.6669   18.2215   20.7373 H   0  0  0  0  0  0  0  0  0  0  0  0
   20.1749   20.2943   20.4265 C   0  0  0  0  0  0  0  0  0  0  0  0
   21.2540   20.1582   20.5382 H   0  0  0  0  0  0  0  0  0  0  0  0
   19.9303   20.2213   19.3633 H   0  0  0  0  0  0  0  0  0  0  0  0
   19.8280   21.6980   20.8826 N   0  3  0  0  0  0  0  0  0  0  0  0
   20.3303   22.4094   20.3405 H   0  0  0  0  0  0  0  0  0  0  0  0
   20.0671   21.8472   21.8677 H   0  0  0  0  0  0  0  0  0  0  0  0
   18.8271   21.8951   20.7801 H   0  0  0  0  0  0  0  0  0  0  0  0
  1  2  1  0  0  0  0
  1  3  1  0  0  0  0
  1  4  1  0  0  0  0
  1  5  1  0  0  0  0
  5  6  1  0  0  0  0
  5  7  1  0  0  0  0
  5  8  1  0  0  0  0
  8  9  1  0  0  0  0
  8 10  1  0  0  0  0
  8 11  1  0  0  0  0
 11 12  1  0  0  0  0
 11 13  1  0  0  0  0
 11 14  1  0  0  0  0
 14 15  1  0  0  0  0
 14 16  1  0  0  0  0
 14 17  1  0  0  0  0
 17 18  1  0  0  0  0
 17 19  1  0  0  0  0
 17 20  1  0  0  0  0
 20 21  1  0  0  0  0
 20 22  1  0  0  0  0
 20 23  1  0  0  0  0
 23 24  1  0  0  0  0
 23 25  1  0  0  0  0
 23 26  1  0  0  0  0
M  END
> <VConfSearch Rank>
331

> <Conf_Id>
105

> <Delta U+W>
0.736

> <U+W>
-4.817

> <U>
48.735

> <W>
-53.552

> <W(PB)>
-55.889

> <W(SA)>
2.337

> <Valence>
2.803

> <Coulomb>
45.123

> <VdW>
0.809

> <VdW6>
-6.953

> <VdW12>
7.761

> <Bond>
0.188

> <Angle>
0.699

> <Pdih>
1.917

> <Idih>
0.000

> <Tether>
0.000

$$$$
VeraChem MOL file


 26 25  0  0  0  0  0  0  0  0999 V2000     
   19.3361   22.5858   22.7046 C   0  0  0  0  0  0  0  0  0  0  0  0
   19.2479   23.2924   23.5402 H   0  0  0  0  0  0  0  0  0  0  0  0
   20.3587   22.6483   22.3102 H   0  0  0  0  0  0  0  0  0  0  0  0
   18.6490   22.9127   21.9134 H   0  0  0  0  0  0  0  0  0  0  0  0
   19.0028   21.1479   23.1557 C   0  0  0  0  0  0  0  0  0  0  0  0
   19.0626   20.4792   22.2867 H   0  0  0  0  0  0  0  0  0  0  0  0
   17.9657   21.1100   23.5170 H   0  0  0  0  0  0  0  0  0  0  0  0
   19.9614   20.6627   24.2686 C   0  0  0  0  0  0  0  0  0  0  0  0
   20.9938   20.6609   23.8952 H   0  0  0  0  0  0  0  0  0  0  0  0
   19.9429   21.3865   25.0951 H   0  0  0  0  0  0  0  0  0  0  0  0
   19.5984   19.2662   24.8369 C   0  0  0  0  0  0  0  0  0  0  0  0
   18.6133   19.3253   25.3199 H   0  0  0  0  0  0  0  0  0  0  0  0
   20.3092   19.0156   25.6364 H   0  0  0  0  0  0  0  0  0  0  0  0
   19.5763   18.1096   23.8040 C   0  0  0  0  0  0  0  0  0  0  0  0
   19.2923   17.1899   24.3322 H   0  0  0  0  0  0  0  0  0  0  0  0
   18.7878   18.2851   23.0602 H   0  0  0  0  0  0  0  0  0  0  0  0
   20.9327   17.8930   23.0874 C   0  0  0  0  0  0  0  0  0  0  0  0
   21.7288   17.7361   23.8273 H   0  0  0  0  0  0  0  0  0  0  0  0
   21.2011   18.7940   22.5219 H   0  0  0  0  0  0  0  0  0  0  0  0
   20.9026   16.7069   22.1041 C   0  0  0  0  0  0  0  0  0  0  0  0
   20.0982   16.8512   21.3778 H   0  0  0  0  0  0  0  0  0  0  0  0
   21.8498   16.6642   21.5596 H   0  0  0  0  0  0  0  0  0  0  0  0
   20.6977   15.3620   22.7734 N   0  3  0  0  0  0  0  0  0  0  0  0
   19.8050   15.3188   23.2743 H   0  0  0  0  0  0  0  0  0  0  0  0
   21.4373   15.1588   23.4537 H   0  0  0  0  0  0  0  0  0  0  0  0
   20.6975   14.5943   22.0930 H   0  0  0  0  0  0  0  0  0  0  0  0
  1  2  1  0  0  0  0
  1  3  1  0  0  0  0
  1  4  1  0  0  0  0
  1  5  1  0  0  0  0
  5  6  1  0  0  0  0
  5  7  1  0  0  0  0
  5  8  1  0  0  0  0
  8  9  1  0  0  0  0
  8 10  1  0  0  0  0
  8 11  1  0  0  0  0
 11 12  1  0  0  0  0
 11 13  1  0  0  0  0
 11 14  1  0  0  0  0
 14 15  1  0  0  0  0
 14 16  1  0  0  0  0
 14 17  1  0  0  0  0
 17 18  1  0  0  0  0
 17 19  1  0  0  0  0
 17 20  1  0  0  0  0
 20 21  1  0  0  0  0
 20 22  1  0  0  0  0
 20 23  1  0  0  0  0
 23 24  1  0  0  0  0
 23 25  1  0  0  0  0
 23 26  1  0  0  0  0
M  END
> <VConfSearch Rank>
332

> <Conf_Id>
144

> <Delta U+W>
1.073

> <U+W>
-4.479

> <U>
49.231

> <W>
-53.710

> <W(PB)>
-55.983

> <W(SA)>
2.273

> <Valence>
3.276

> <Coulomb>
45.175

> <VdW>
0.779

> <VdW6>
-7.944

> <VdW12>
8.723

> <Bond>
0.239

> <Angle>
1.155

> <Pdih>
1.883

> <Idih>
0.000

> <Tether>
0.000

$$$$
VeraChem MOL file


 26 25  0  0  0  0  0  0  0  0999 V2000     
   19.5063   17.5316   19.9103 C   0  0  0  0  0  0  0  0  0  0  0  0
   19.0485   16.6445   20.3646 H   0  0  0  0  0  0  0  0  0  0  0  0
   19.1181   17.6138   18.8868 H   0  0  0  0  0  0  0  0  0  0  0  0
   20.5894   17.3653   19.8455 H   0  0  0  0  0  0  0  0  0  0  0  0
   19.1877   18.8137   20.7130 C   0  0  0  0  0  0  0  0  0  0  0  0
   18.0991   18.9404   20.7937 H   0  0  0  0  0  0  0  0  0  0  0  0
   19.5567   19.6815   20.1486 H   0  0  0  0  0  0  0  0  0  0  0  0
   19.8247   18.8351   22.1238 C   0  0  0  0  0  0  0  0  0  0  0  0
   20.9100   18.6871   22.0393 H   0  0  0  0  0  0  0  0  0  0  0  0
   19.6723   19.8376   22.5427 H   0  0  0  0  0  0  0  0  0  0  0  0
   19.2217   17.7851   23.0899 C   0  0  0  0  0  0  0  0  0  0  0  0
   19.2782   16.7898   22.6313 H   0  0  0  0  0  0  0  0  0  0  0  0
   18.1528   17.9948   23.2334 H   0  0  0  0  0  0  0  0  0  0  0  0
   19.9213   17.7057   24.4719 C   0  0  0  0  0  0  0  0  0  0  0  0
   19.4323   16.9052   25.0443 H   0  0  0  0  0  0  0  0  0  0  0  0
   20.9655   17.3864   24.3482 H   0  0  0  0  0  0  0  0  0  0  0  0
   19.8599   19.0057   25.3128 C   0  0  0  0  0  0  0  0  0  0  0  0
   19.8879   18.7355   26.3769 H   0  0  0  0  0  0  0  0  0  0  0  0
   18.9024   19.5176   25.1482 H   0  0  0  0  0  0  0  0  0  0  0  0
   21.0358   19.9617   25.0320 C   0  0  0  0  0  0  0  0  0  0  0  0
   21.9793   19.4549   25.2517 H   0  0  0  0  0  0  0  0  0  0  0  0
   21.0441   20.2545   23.9804 H   0  0  0  0  0  0  0  0  0  0  0  0
   20.9817   21.2263   25.8644 N   0  3  0  0  0  0  0  0  0  0  0  0
   21.0051   21.0233   26.8691 H   0  0  0  0  0  0  0  0  0  0  0  0
   20.1284   21.7656   25.6855 H   0  0  0  0  0  0  0  0  0  0  0  0
   21.7744   21.8468   25.6671 H   0  0  0  0  0  0  0  0  0  0  0  0
  1  2  1  0  0  0  0
  1  3  1  0  0  0  0
  1  4  1  0  0  0  0
  1  5  1  0  0  0  0
  5  6  1  0  0  0  0
  5  7  1  0  0  0  0
  5  8  1  0  0  0  0
  8  9  1  0  0  0  0
  8 10  1  0  0  0  0
  8 11  1  0  0  0  0
 11 12  1  0  0  0  0
 11 13  1  0  0  0  0
 11 14  1  0  0  0  0
 14 15  1  0  0  0  0
 14 16  1  0  0  0  0
 14 17  1  0  0  0  0
 17 18  1  0  0  0  0
 17 19  1  0  0  0  0
 17 20  1  0  0  0  0
 20 21  1  0  0  0  0
 20 22  1  0  0  0  0
 20 23  1  0  0  0  0
 23 24  1  0  0  0  0
 23 25  1  0  0  0  0
 23 26  1  0  0  0  0
M  END
> <VConfSearch Rank>
333

> <Conf_Id>
93

> <Delta U+W>
3.253

> <U+W>
-2.300

> <U>
51.609

> <W>
-53.909

> <W(PB)>
-56.178

> <W(SA)>
2.270

> <Valence>
5.204

> <Coulomb>
45.645

> <VdW>
0.760

> <VdW6>
-7.997

> <VdW12>
8.758

> <Bond>
0.240

> <Angle>
1.456

> <Pdih>
3.507

> <Idih>
0.000

> <Tether>
0.000

$$$$
VeraChem MOL file


 26 25  0  0  0  0  0  0  0  0999 V2000     
   19.3351   20.3263   19.9616 C   0  0  0  0  0  0  0  0  0  0  0  0
   20.0022   19.5660   19.5375 H   0  0  0  0  0  0  0  0  0  0  0  0
   18.3241   19.9028   20.0212 H   0  0  0  0  0  0  0  0  0  0  0  0
   19.3051   21.1670   19.2565 H   0  0  0  0  0  0  0  0  0  0  0  0
   19.8210   20.8029   21.3495 C   0  0  0  0  0  0  0  0  0  0  0  0
   19.1965   21.6493   21.6680 H   0  0  0  0  0  0  0  0  0  0  0  0
   20.8463   21.1904   21.2711 H   0  0  0  0  0  0  0  0  0  0  0  0
   19.7568   19.7045   22.4386 C   0  0  0  0  0  0  0  0  0  0  0  0
   19.9693   20.1803   23.4041 H   0  0  0  0  0  0  0  0  0  0  0  0
   18.7348   19.3057   22.4984 H   0  0  0  0  0  0  0  0  0  0  0  0
   20.7627   18.5489   22.2106 C   0  0  0  0  0  0  0  0  0  0  0  0
   21.7862   18.9473   22.2380 H   0  0  0  0  0  0  0  0  0  0  0  0
   20.6236   18.1349   21.2040 H   0  0  0  0  0  0  0  0  0  0  0  0
   20.6382   17.3788   23.2210 C   0  0  0  0  0  0  0  0  0  0  0  0
   19.6541   16.8995   23.1235 H   0  0  0  0  0  0  0  0  0  0  0  0
   21.3710   16.6128   22.9316 H   0  0  0  0  0  0  0  0  0  0  0  0
   20.8987   17.7599   24.7002 C   0  0  0  0  0  0  0  0  0  0  0  0
   21.6789   18.5303   24.7603 H   0  0  0  0  0  0  0  0  0  0  0  0
   21.2921   16.8787   25.2242 H   0  0  0  0  0  0  0  0  0  0  0  0
   19.6267   18.2245   25.4362 C   0  0  0  0  0  0  0  0  0  0  0  0
   19.2024   19.1016   24.9441 H   0  0  0  0  0  0  0  0  0  0  0  0
   18.8794   17.4267   25.4137 H   0  0  0  0  0  0  0  0  0  0  0  0
   19.8802   18.5841   26.8858 N   0  3  0  0  0  0  0  0  0  0  0  0
   20.2503   17.7892   27.4173 H   0  0  0  0  0  0  0  0  0  0  0  0
   19.0218   18.8858   27.3595 H   0  0  0  0  0  0  0  0  0  0  0  0
   20.5566   19.3491   26.9773 H   0  0  0  0  0  0  0  0  0  0  0  0
  1  2  1  0  0  0  0
  1  3  1  0  0  0  0
  1  4  1  0  0  0  0
  1  5  1  0  0  0  0
  5  6  1  0  0  0  0
  5  7  1  0  0  0  0
  5  8  1  0  0  0  0
  8  9  1  0  0  0  0
  8 10  1  0  0  0  0
  8 11  1  0  0  0  0
 11 12  1  0  0  0  0
 11 13  1  0  0  0  0
 11 14  1  0  0  0  0
 14 15  1  0  0  0  0
 14 16  1  0  0  0  0
 14 17  1  0  0  0  0
 17 18  1  0  0  0  0
 17 19  1  0  0  0  0
 17 20  1  0  0  0  0
 20 21  1  0  0  0  0
 20 22  1  0  0  0  0
 20 23  1  0  0  0  0
 23 24  1  0  0  0  0
 23 25  1  0  0  0  0
 23 26  1  0  0  0  0
M  END
> <VConfSearch Rank>
334

> <Conf_Id>
94

> <Delta U+W>
3.247

> <U+W>
-2.305

> <U>
51.609

> <W>
-53.914

> <W(PB)>
-56.221

> <W(SA)>
2.307

> <Valence>
5.204

> <Coulomb>
45.645

> <VdW>
0.760

> <VdW6>
-7.997

> <VdW12>
8.757

> <Bond>
0.240

> <Angle>
1.456

> <Pdih>
3.508

> <Idih>
0.000

> <Tether>
0.000

$$$$
VeraChem MOL file


 26 25  0  0  0  0  0  0  0  0999 V2000     
   21.0988   22.4499   25.1418 C   0  0  0  0  0  0  0  0  0  0  0  0
   21.9480   22.8169   24.5508 H   0  0  0  0  0  0  0  0  0  0  0  0
   20.1913   22.9560   24.7873 H   0  0  0  0  0  0  0  0  0  0  0  0
   21.2628   22.7448   26.1864 H   0  0  0  0  0  0  0  0  0  0  0  0
   20.9614   20.9172   25.0234 C   0  0  0  0  0  0  0  0  0  0  0  0
   20.1261   20.5765   25.6512 H   0  0  0  0  0  0  0  0  0  0  0  0
   21.8693   20.4384   25.4164 H   0  0  0  0  0  0  0  0  0  0  0  0
   20.7296   20.4749   23.5616 C   0  0  0  0  0  0  0  0  0  0  0  0
   19.8224   20.9576   23.1725 H   0  0  0  0  0  0  0  0  0  0  0  0
   21.5657   20.8203   22.9378 H   0  0  0  0  0  0  0  0  0  0  0  0
   20.5921   18.9406   23.4389 C   0  0  0  0  0  0  0  0  0  0  0  0
   19.7599   18.6020   24.0704 H   0  0  0  0  0  0  0  0  0  0  0  0
   21.5013   18.4594   23.8251 H   0  0  0  0  0  0  0  0  0  0  0  0
   20.3579   18.5005   21.9738 C   0  0  0  0  0  0  0  0  0  0  0  0
   19.4365   18.9594   21.5908 H   0  0  0  0  0  0  0  0  0  0  0  0
   21.1738   18.8866   21.3473 H   0  0  0  0  0  0  0  0  0  0  0  0
   20.2915   16.9621   21.8025 C   0  0  0  0  0  0  0  0  0  0  0  0
   21.2507   16.5225   22.1067 H   0  0  0  0  0  0  0  0  0  0  0  0
   20.1681   16.7205   20.7384 H   0  0  0  0  0  0  0  0  0  0  0  0
   19.1614   16.2883   22.6070 C   0  0  0  0  0  0  0  0  0  0  0  0
   19.2010   15.2066   22.4522 H   0  0  0  0  0  0  0  0  0  0  0  0
   19.2994   16.4832   23.6736 H   0  0  0  0  0  0  0  0  0  0  0  0
   17.7740   16.7595   22.2186 N   0  3  0  0  0  0  0  0  0  0  0  0
   17.5732   16.5768   21.2301 H   0  0  0  0  0  0  0  0  0  0  0  0
   17.6613   17.7666   22.3702 H   0  0  0  0  0  0  0  0  0  0  0  0
   17.0445   16.2885   22.7648 H   0  0  0  0  0  0  0  0  0  0  0  0
  1  2  1  0  0  0  0
  1  3  1  0  0  0  0
  1  4  1  0  0  0  0
  1  5  1  0  0  0  0
  5  6  1  0  0  0  0
  5  7  1  0  0  0  0
  5  8  1  0  0  0  0
  8  9  1  0  0  0  0
  8 10  1  0  0  0  0
  8 11  1  0  0  0  0
 11 12  1  0  0  0  0
 11 13  1  0  0  0  0
 11 14  1  0  0  0  0
 14 15  1  0  0  0  0
 14 16  1  0  0  0  0
 14 17  1  0  0  0  0
 17 18  1  0  0  0  0
 17 19  1  0  0  0  0
 17 20  1  0  0  0  0
 20 21  1  0  0  0  0
 20 22  1  0  0  0  0
 20 23  1  0  0  0  0
 23 24  1  0  0  0  0
 23 25  1  0  0  0  0
 23 26  1  0  0  0  0
M  END
> <VConfSearch Rank>
335

> <Conf_Id>
83

> <Delta U+W>
0.559

> <U+W>
-4.994

> <U>
48.668

> <W>
-53.661

> <W(PB)>
-55.972

> <W(SA)>
2.311

> <Valence>
2.543

> <Coulomb>
45.478

> <VdW>
0.646

> <VdW6>
-7.096

> <VdW12>
7.742

> <Bond>
0.176

> <Angle>
0.630

> <Pdih>
1.738

> <Idih>
0.000

> <Tether>
0.000

$$$$
VeraChem MOL file


 26 25  0  0  0  0  0  0  0  0999 V2000     
   19.2093   15.1480   23.5310 C   0  0  0  0  0  0  0  0  0  0  0  0
   18.7611   14.7853   24.4653 H   0  0  0  0  0  0  0  0  0  0  0  0
   18.4334   15.1416   22.7544 H   0  0  0  0  0  0  0  0  0  0  0  0
   19.9899   14.4358   23.2335 H   0  0  0  0  0  0  0  0  0  0  0  0
   19.8016   16.5618   23.7113 C   0  0  0  0  0  0  0  0  0  0  0  0
   20.2752   16.8716   22.7704 H   0  0  0  0  0  0  0  0  0  0  0  0
   20.5938   16.5304   24.4723 H   0  0  0  0  0  0  0  0  0  0  0  0
   18.7181   17.5849   24.1270 C   0  0  0  0  0  0  0  0  0  0  0  0
   17.9542   17.6557   23.3404 H   0  0  0  0  0  0  0  0  0  0  0  0
   18.2029   17.2138   25.0238 H   0  0  0  0  0  0  0  0  0  0  0  0
   19.2803   18.9948   24.4333 C   0  0  0  0  0  0  0  0  0  0  0  0
   20.0337   18.9251   25.2301 H   0  0  0  0  0  0  0  0  0  0  0  0
   18.4652   19.6137   24.8333 H   0  0  0  0  0  0  0  0  0  0  0  0
   19.8898   19.7006   23.1981 C   0  0  0  0  0  0  0  0  0  0  0  0
   20.7512   19.1277   22.8328 H   0  0  0  0  0  0  0  0  0  0  0  0
   19.1503   19.7218   22.3856 H   0  0  0  0  0  0  0  0  0  0  0  0
   20.3345   21.1456   23.5267 C   0  0  0  0  0  0  0  0  0  0  0  0
   21.0944   21.1343   24.3194 H   0  0  0  0  0  0  0  0  0  0  0  0
   19.4785   21.7091   23.9213 H   0  0  0  0  0  0  0  0  0  0  0  0
   20.8845   21.8941   22.2971 C   0  0  0  0  0  0  0  0  0  0  0  0
   20.1329   21.8998   21.5031 H   0  0  0  0  0  0  0  0  0  0  0  0
   21.0996   22.9307   22.5703 H   0  0  0  0  0  0  0  0  0  0  0  0
   22.1582   21.2934   21.7353 N   0  3  0  0  0  0  0  0  0  0  0  0
   22.0171   20.3279   21.4225 H   0  0  0  0  0  0  0  0  0  0  0  0
   22.9117   21.2804   22.4303 H   0  0  0  0  0  0  0  0  0  0  0  0
   22.5046   21.8229   20.9279 H   0  0  0  0  0  0  0  0  0  0  0  0
  1  2  1  0  0  0  0
  1  3  1  0  0  0  0
  1  4  1  0  0  0  0
  1  5  1  0  0  0  0
  5  6  1  0  0  0  0
  5  7  1  0  0  0  0
  5  8  1  0  0  0  0
  8  9  1  0  0  0  0
  8 10  1  0  0  0  0
  8 11  1  0  0  0  0
 11 12  1  0  0  0  0
 11 13  1  0  0  0  0
 11 14  1  0  0  0  0
 14 15  1  0  0  0  0
 14 16  1  0  0  0  0
 14 17  1  0  0  0  0
 17 18  1  0  0  0  0
 17 19  1  0  0  0  0
 17 20  1  0  0  0  0
 20 21  1  0  0  0  0
 20 22  1  0  0  0  0
 20 23  1  0  0  0  0
 23 24  1  0  0  0  0
 23 25  1  0  0  0  0
 23 26  1  0  0  0  0
M  END
> <VConfSearch Rank>
336

> <Conf_Id>
18

> <Delta U+W>
0.759

> <U+W>
-4.793

> <U>
48.945

> <W>
-53.738

> <W(PB)>
-56.051

> <W(SA)>
2.313

> <Valence>
2.802

> <Coulomb>
45.335

> <VdW>
0.807

> <VdW6>
-6.962

> <VdW12>
7.769

> <Bond>
0.189

> <Angle>
0.696

> <Pdih>
1.917

> <Idih>
0.000

> <Tether>
0.000

$$$$
VeraChem MOL file


 26 25  0  0  0  0  0  0  0  0999 V2000     
   17.0445   16.5829   24.6344 C   0  0  0  0  0  0  0  0  0  0  0  0
   16.3263   17.3886   24.8350 H   0  0  0  0  0  0  0  0  0  0  0  0
   16.5774   15.8738   23.9384 H   0  0  0  0  0  0  0  0  0  0  0  0
   17.2308   16.0547   25.5785 H   0  0  0  0  0  0  0  0  0  0  0  0
   18.3603   17.1446   24.0552 C   0  0  0  0  0  0  0  0  0  0  0  0
   19.0680   16.3197   23.8928 H   0  0  0  0  0  0  0  0  0  0  0  0
   18.8166   17.8154   24.7951 H   0  0  0  0  0  0  0  0  0  0  0  0
   18.1218   17.8980   22.7253 C   0  0  0  0  0  0  0  0  0  0  0  0
   17.5915   17.2333   22.0293 H   0  0  0  0  0  0  0  0  0  0  0  0
   17.4569   18.7552   22.8991 H   0  0  0  0  0  0  0  0  0  0  0  0
   19.4253   18.3817   22.0433 C   0  0  0  0  0  0  0  0  0  0  0  0
   19.1685   18.7932   21.0573 H   0  0  0  0  0  0  0  0  0  0  0  0
   20.0834   17.5219   21.8565 H   0  0  0  0  0  0  0  0  0  0  0  0
   20.1872   19.4566   22.8554 C   0  0  0  0  0  0  0  0  0  0  0  0
   19.5104   20.2913   23.0849 H   0  0  0  0  0  0  0  0  0  0  0  0
   20.5119   19.0340   23.8143 H   0  0  0  0  0  0  0  0  0  0  0  0
   21.4183   19.9895   22.0846 C   0  0  0  0  0  0  0  0  0  0  0  0
   21.0960   20.3842   21.1118 H   0  0  0  0  0  0  0  0  0  0  0  0
   22.1152   19.1674   21.8737 H   0  0  0  0  0  0  0  0  0  0  0  0
   22.1574   21.1090   22.8428 C   0  0  0  0  0  0  0  0  0  0  0  0
   22.9609   21.5030   22.2145 H   0  0  0  0  0  0  0  0  0  0  0  0
   21.4640   21.9256   23.0613 H   0  0  0  0  0  0  0  0  0  0  0  0
   22.7773   20.6554   24.1501 N   0  3  0  0  0  0  0  0  0  0  0  0
   23.4570   19.9013   24.0076 H   0  0  0  0  0  0  0  0  0  0  0  0
   22.0704   20.3073   24.8050 H   0  0  0  0  0  0  0  0  0  0  0  0
   23.2728   21.4199   24.6216 H   0  0  0  0  0  0  0  0  0  0  0  0
  1  2  1  0  0  0  0
  1  3  1  0  0  0  0
  1  4  1  0  0  0  0
  1  5  1  0  0  0  0
  5  6  1  0  0  0  0
  5  7  1  0  0  0  0
  5  8  1  0  0  0  0
  8  9  1  0  0  0  0
  8 10  1  0  0  0  0
  8 11  1  0  0  0  0
 11 12  1  0  0  0  0
 11 13  1  0  0  0  0
 11 14  1  0  0  0  0
 14 15  1  0  0  0  0
 14 16  1  0  0  0  0
 14 17  1  0  0  0  0
 17 18  1  0  0  0  0
 17 19  1  0  0  0  0
 17 20  1  0  0  0  0
 20 21  1  0  0  0  0
 20 22  1  0  0  0  0
 20 23  1  0  0  0  0
 23 24  1  0  0  0  0
 23 25  1  0  0  0  0
 23 26  1  0  0  0  0
M  END
> <VConfSearch Rank>
337

> <Conf_Id>
17

> <Delta U+W>
0.843

> <U+W>
-4.709

> <U>
48.945

> <W>
-53.653

> <W(PB)>
-55.991

> <W(SA)>
2.338

> <Valence>
2.802

> <Coulomb>
45.335

> <VdW>
0.807

> <VdW6>
-6.962

> <VdW12>
7.769

> <Bond>
0.189

> <Angle>
0.696

> <Pdih>
1.917

> <Idih>
0.000

> <Tether>
0.000

$$$$
VeraChem MOL file


 26 25  0  0  0  0  0  0  0  0999 V2000     
   21.3500   20.8889   20.8790 C   0  0  0  0  0  0  0  0  0  0  0  0
   20.6714   20.0638   20.6298 H   0  0  0  0  0  0  0  0  0  0  0  0
   20.7443   21.7634   21.1502 H   0  0  0  0  0  0  0  0  0  0  0  0
   21.9124   21.1390   19.9701 H   0  0  0  0  0  0  0  0  0  0  0  0
   22.3153   20.5049   22.0234 C   0  0  0  0  0  0  0  0  0  0  0  0
   23.0511   21.3112   22.1511 H   0  0  0  0  0  0  0  0  0  0  0  0
   22.8865   19.6097   21.7403 H   0  0  0  0  0  0  0  0  0  0  0  0
   21.6023   20.2649   23.3761 C   0  0  0  0  0  0  0  0  0  0  0  0
   22.3669   20.1100   24.1499 H   0  0  0  0  0  0  0  0  0  0  0  0
   21.0494   21.1695   23.6648 H   0  0  0  0  0  0  0  0  0  0  0  0
   20.6440   19.0499   23.3614 C   0  0  0  0  0  0  0  0  0  0  0  0
   21.1895   18.1576   23.0249 H   0  0  0  0  0  0  0  0  0  0  0  0
   19.8395   19.2256   22.6363 H   0  0  0  0  0  0  0  0  0  0  0  0
   20.0336   18.7857   24.7589 C   0  0  0  0  0  0  0  0  0  0  0  0
   20.8444   18.6529   25.4885 H   0  0  0  0  0  0  0  0  0  0  0  0
   19.4624   19.6657   25.0861 H   0  0  0  0  0  0  0  0  0  0  0  0
   19.1230   17.5359   24.7978 C   0  0  0  0  0  0  0  0  0  0  0  0
   18.8017   17.3615   25.8333 H   0  0  0  0  0  0  0  0  0  0  0  0
   19.6978   16.6509   24.4937 H   0  0  0  0  0  0  0  0  0  0  0  0
   17.8781   17.6779   23.9020 C   0  0  0  0  0  0  0  0  0  0  0  0
   17.3054   18.5586   24.2051 H   0  0  0  0  0  0  0  0  0  0  0  0
   18.1838   17.8071   22.8606 H   0  0  0  0  0  0  0  0  0  0  0  0
   16.9586   16.4758   23.9703 N   0  3  0  0  0  0  0  0  0  0  0  0
   16.1364   16.5901   23.3675 H   0  0  0  0  0  0  0  0  0  0  0  0
   16.6110   16.3141   24.9212 H   0  0  0  0  0  0  0  0  0  0  0  0
   17.4306   15.6161   23.6714 H   0  0  0  0  0  0  0  0  0  0  0  0
  1  2  1  0  0  0  0
  1  3  1  0  0  0  0
  1  4  1  0  0  0  0
  1  5  1  0  0  0  0
  5  6  1  0  0  0  0
  5  7  1  0  0  0  0
  5  8  1  0  0  0  0
  8  9  1  0  0  0  0
  8 10  1  0  0  0  0
  8 11  1  0  0  0  0
 11 12  1  0  0  0  0
 11 13  1  0  0  0  0
 11 14  1  0  0  0  0
 14 15  1  0  0  0  0
 14 16  1  0  0  0  0
 14 17  1  0  0  0  0
 17 18  1  0  0  0  0
 17 19  1  0  0  0  0
 17 20  1  0  0  0  0
 20 21  1  0  0  0  0
 20 22  1  0  0  0  0
 20 23  1  0  0  0  0
 23 24  1  0  0  0  0
 23 25  1  0  0  0  0
 23 26  1  0  0  0  0
M  END
> <VConfSearch Rank>
338

> <Conf_Id>
96

> <Delta U+W>
0.912

> <U+W>
-4.640

> <U>
48.723

> <W>
-53.364

> <W(PB)>
-55.683

> <W(SA)>
2.320

> <Valence>
2.962

> <Coulomb>
44.993

> <VdW>
0.768

> <VdW6>
-7.008

> <VdW12>
7.776

> <Bond>
0.188

> <Angle>
0.757

> <Pdih>
2.018

> <Idih>
0.000

> <Tether>
0.000

$$$$
VeraChem MOL file


 26 25  0  0  0  0  0  0  0  0999 V2000     
   18.9979   22.2287   22.7941 C   0  0  0  0  0  0  0  0  0  0  0  0
   19.0754   23.3062   22.5994 H   0  0  0  0  0  0  0  0  0  0  0  0
   17.9980   22.0325   23.2024 H   0  0  0  0  0  0  0  0  0  0  0  0
   19.7391   21.9790   23.5634 H   0  0  0  0  0  0  0  0  0  0  0  0
   19.2351   21.4261   21.4947 C   0  0  0  0  0  0  0  0  0  0  0  0
   20.2522   21.6151   21.1240 H   0  0  0  0  0  0  0  0  0  0  0  0
   18.5512   21.7984   20.7192 H   0  0  0  0  0  0  0  0  0  0  0  0
   19.0133   19.9034   21.6622 C   0  0  0  0  0  0  0  0  0  0  0  0
   17.9888   19.7184   22.0136 H   0  0  0  0  0  0  0  0  0  0  0  0
   19.0914   19.4295   20.6740 H   0  0  0  0  0  0  0  0  0  0  0  0
   20.0239   19.2350   22.6251 C   0  0  0  0  0  0  0  0  0  0  0  0
   19.9075   19.6578   23.6308 H   0  0  0  0  0  0  0  0  0  0  0  0
   21.0475   19.4637   22.2976 H   0  0  0  0  0  0  0  0  0  0  0  0
   19.8306   17.7005   22.6823 C   0  0  0  0  0  0  0  0  0  0  0  0
   18.8171   17.4677   23.0376 H   0  0  0  0  0  0  0  0  0  0  0  0
   19.9059   17.2884   21.6665 H   0  0  0  0  0  0  0  0  0  0  0  0
   20.8687   16.9906   23.5828 C   0  0  0  0  0  0  0  0  0  0  0  0
   21.8818   17.2025   23.2158 H   0  0  0  0  0  0  0  0  0  0  0  0
   20.7261   15.9047   23.5029 H   0  0  0  0  0  0  0  0  0  0  0  0
   20.7564   17.4050   25.0620 C   0  0  0  0  0  0  0  0  0  0  0  0
   20.9411   18.4777   25.1613 H   0  0  0  0  0  0  0  0  0  0  0  0
   19.7479   17.1935   25.4277 H   0  0  0  0  0  0  0  0  0  0  0  0
   21.7402   16.6796   25.9571 N   0  3  0  0  0  0  0  0  0  0  0  0
   22.7114   16.8589   25.6818 H   0  0  0  0  0  0  0  0  0  0  0  0
   21.6022   15.6639   25.9323 H   0  0  0  0  0  0  0  0  0  0  0  0
   21.6492   16.9692   26.9370 H   0  0  0  0  0  0  0  0  0  0  0  0
  1  2  1  0  0  0  0
  1  3  1  0  0  0  0
  1  4  1  0  0  0  0
  1  5  1  0  0  0  0
  5  6  1  0  0  0  0
  5  7  1  0  0  0  0
  5  8  1  0  0  0  0
  8  9  1  0  0  0  0
  8 10  1  0  0  0  0
  8 11  1  0  0  0  0
 11 12  1  0  0  0  0
 11 13  1  0  0  0  0
 11 14  1  0  0  0  0
 14 15  1  0  0  0  0
 14 16  1  0  0  0  0
 14 17  1  0  0  0  0
 17 18  1  0  0  0  0
 17 19  1  0  0  0  0
 17 20  1  0  0  0  0
 20 21  1  0  0  0  0
 20 22  1  0  0  0  0
 20 23  1  0  0  0  0
 23 24  1  0  0  0  0
 23 25  1  0  0  0  0
 23 26  1  0  0  0  0
M  END
> <VConfSearch Rank>
339

> <Conf_Id>
133

> <Delta U+W>
0.844

> <U+W>
-4.708

> <U>
48.723

> <W>
-53.431

> <W(PB)>
-55.776

> <W(SA)>
2.344

> <Valence>
2.962

> <Coulomb>
44.993

> <VdW>
0.768

> <VdW6>
-7.008

> <VdW12>
7.776

> <Bond>
0.188

> <Angle>
0.756

> <Pdih>
2.018

> <Idih>
0.000

> <Tether>
0.000

$$$$
VeraChem MOL file


 26 25  0  0  0  0  0  0  0  0999 V2000     
   19.2929   21.0157   25.8653 C   0  0  0  0  0  0  0  0  0  0  0  0
   19.9680   20.9949   26.7306 H   0  0  0  0  0  0  0  0  0  0  0  0
   19.8919   21.2046   24.9657 H   0  0  0  0  0  0  0  0  0  0  0  0
   18.6100   21.8657   25.9920 H   0  0  0  0  0  0  0  0  0  0  0  0
   18.4982   19.6954   25.7490 C   0  0  0  0  0  0  0  0  0  0  0  0
   17.8458   19.7318   24.8664 H   0  0  0  0  0  0  0  0  0  0  0  0
   17.8269   19.6095   26.6148 H   0  0  0  0  0  0  0  0  0  0  0  0
   19.3998   18.4356   25.6977 C   0  0  0  0  0  0  0  0  0  0  0  0
   19.9511   18.3553   26.6447 H   0  0  0  0  0  0  0  0  0  0  0  0
   18.7595   17.5442   25.6467 H   0  0  0  0  0  0  0  0  0  0  0  0
   20.4154   18.3941   24.5267 C   0  0  0  0  0  0  0  0  0  0  0  0
   21.0023   17.4692   24.6119 H   0  0  0  0  0  0  0  0  0  0  0  0
   21.1348   19.2178   24.6257 H   0  0  0  0  0  0  0  0  0  0  0  0
   19.7516   18.4428   23.1296 C   0  0  0  0  0  0  0  0  0  0  0  0
   19.0005   17.6446   23.0515 H   0  0  0  0  0  0  0  0  0  0  0  0
   19.2206   19.3953   23.0008 H   0  0  0  0  0  0  0  0  0  0  0  0
   20.7888   18.2872   21.9958 C   0  0  0  0  0  0  0  0  0  0  0  0
   21.3192   17.3320   22.1075 H   0  0  0  0  0  0  0  0  0  0  0  0
   21.5405   19.0843   22.0707 H   0  0  0  0  0  0  0  0  0  0  0  0
   20.1209   18.3420   20.6106 C   0  0  0  0  0  0  0  0  0  0  0  0
   19.3828   17.5398   20.5257 H   0  0  0  0  0  0  0  0  0  0  0  0
   19.6053   19.2984   20.4880 H   0  0  0  0  0  0  0  0  0  0  0  0
   21.1069   18.1928   19.4700 N   0  3  0  0  0  0  0  0  0  0  0  0
   20.6416   18.2320   18.5565 H   0  0  0  0  0  0  0  0  0  0  0  0
   21.6071   17.2988   19.5117 H   0  0  0  0  0  0  0  0  0  0  0  0
   21.8142   18.9350   19.4766 H   0  0  0  0  0  0  0  0  0  0  0  0
  1  2  1  0  0  0  0
  1  3  1  0  0  0  0
  1  4  1  0  0  0  0
  1  5  1  0  0  0  0
  5  6  1  0  0  0  0
  5  7  1  0  0  0  0
  5  8  1  0  0  0  0
  8  9  1  0  0  0  0
  8 10  1  0  0  0  0
  8 11  1  0  0  0  0
 11 12  1  0  0  0  0
 11 13  1  0  0  0  0
 11 14  1  0  0  0  0
 14 15  1  0  0  0  0
 14 16  1  0  0  0  0
 14 17  1  0  0  0  0
 17 18  1  0  0  0  0
 17 19  1  0  0  0  0
 17 20  1  0  0  0  0
 20 21  1  0  0  0  0
 20 22  1  0  0  0  0
 20 23  1  0  0  0  0
 23 24  1  0  0  0  0
 23 25  1  0  0  0  0
 23 26  1  0  0  0  0
M  END
> <VConfSearch Rank>
340

> <Conf_Id>
106

> <Delta U+W>
0.767

> <U+W>
-4.785

> <U>
48.494

> <W>
-53.279

> <W(PB)>
-55.569

> <W(SA)>
2.290

> <Valence>
3.117

> <Coulomb>
44.693

> <VdW>
0.684

> <VdW6>
-7.347

> <VdW12>
8.030

> <Bond>
0.208

> <Angle>
1.039

> <Pdih>
1.870

> <Idih>
0.000

> <Tether>
0.000

$$$$
VeraChem MOL file


 26 25  0  0  0  0  0  0  0  0999 V2000     
   18.7184   20.4931   27.3024 C   0  0  0  0  0  0  0  0  0  0  0  0
   19.7327   20.7316   27.6483 H   0  0  0  0  0  0  0  0  0  0  0  0
   18.2657   21.4131   26.9101 H   0  0  0  0  0  0  0  0  0  0  0  0
   18.1317   20.1737   28.1736 H   0  0  0  0  0  0  0  0  0  0  0  0
   18.7449   19.3857   26.2276 C   0  0  0  0  0  0  0  0  0  0  0  0
   17.7156   19.1454   25.9264 H   0  0  0  0  0  0  0  0  0  0  0  0
   19.1711   18.4691   26.6590 H   0  0  0  0  0  0  0  0  0  0  0  0
   19.5652   19.8099   24.9893 C   0  0  0  0  0  0  0  0  0  0  0  0
   19.1368   20.7277   24.5631 H   0  0  0  0  0  0  0  0  0  0  0  0
   20.5925   20.0512   25.2957 H   0  0  0  0  0  0  0  0  0  0  0  0
   19.5939   18.7036   23.9105 C   0  0  0  0  0  0  0  0  0  0  0  0
   18.5662   18.4628   23.6049 H   0  0  0  0  0  0  0  0  0  0  0  0
   20.0219   17.7861   24.3377 H   0  0  0  0  0  0  0  0  0  0  0  0
   20.4148   19.1284   22.6719 C   0  0  0  0  0  0  0  0  0  0  0  0
   19.9871   20.0461   22.2445 H   0  0  0  0  0  0  0  0  0  0  0  0
   21.4428   19.3693   22.9772 H   0  0  0  0  0  0  0  0  0  0  0  0
   20.4439   18.0233   21.5933 C   0  0  0  0  0  0  0  0  0  0  0  0
   19.4185   17.7834   21.2816 H   0  0  0  0  0  0  0  0  0  0  0  0
   20.8756   17.1058   22.0152 H   0  0  0  0  0  0  0  0  0  0  0  0
   21.2637   18.4565   20.3652 C   0  0  0  0  0  0  0  0  0  0  0  0
   20.8277   19.3607   19.9318 H   0  0  0  0  0  0  0  0  0  0  0  0
   22.2901   18.6807   20.6682 H   0  0  0  0  0  0  0  0  0  0  0  0
   21.3163   17.3976   19.2830 N   0  3  0  0  0  0  0  0  0  0  0  0
   21.8670   17.7063   18.4744 H   0  0  0  0  0  0  0  0  0  0  0  0
   20.3817   17.1605   18.9344 H   0  0  0  0  0  0  0  0  0  0  0  0
   21.7425   16.5278   19.6196 H   0  0  0  0  0  0  0  0  0  0  0  0
  1  2  1  0  0  0  0
  1  3  1  0  0  0  0
  1  4  1  0  0  0  0
  1  5  1  0  0  0  0
  5  6  1  0  0  0  0
  5  7  1  0  0  0  0
  5  8  1  0  0  0  0
  8  9  1  0  0  0  0
  8 10  1  0  0  0  0
  8 11  1  0  0  0  0
 11 12  1  0  0  0  0
 11 13  1  0  0  0  0
 11 14  1  0  0  0  0
 14 15  1  0  0  0  0
 14 16  1  0  0  0  0
 14 17  1  0  0  0  0
 17 18  1  0  0  0  0
 17 19  1  0  0  0  0
 17 20  1  0  0  0  0
 20 21  1  0  0  0  0
 20 22  1  0  0  0  0
 20 23  1  0  0  0  0
 23 24  1  0  0  0  0
 23 25  1  0  0  0  0
 23 26  1  0  0  0  0
M  END
> <VConfSearch Rank>
341

> <Conf_Id>
25

> <Delta U+W>
0.000

> <U+W>
-5.552

> <U>
47.192

> <W>
-52.745

> <W(PB)>
-55.134

> <W(SA)>
2.389

> <Valence>
2.156

> <Coulomb>
44.449

> <VdW>
0.587

> <VdW6>
-5.761

> <VdW12>
6.348

> <Bond>
0.129

> <Angle>
0.393

> <Pdih>
1.634

> <Idih>
0.000

> <Tether>
0.000

$$$$
VeraChem MOL file


 26 25  0  0  0  0  0  0  0  0999 V2000     
   19.2877   15.1990   21.3175 C   0  0  0  0  0  0  0  0  0  0  0  0
   18.3632   14.9823   21.8683 H   0  0  0  0  0  0  0  0  0  0  0  0
   19.0171   15.7005   20.3791 H   0  0  0  0  0  0  0  0  0  0  0  0
   19.7610   14.2416   21.0635 H   0  0  0  0  0  0  0  0  0  0  0  0
   20.2425   16.0729   22.1582 C   0  0  0  0  0  0  0  0  0  0  0  0
   21.1707   16.2442   21.5952 H   0  0  0  0  0  0  0  0  0  0  0  0
   20.5219   15.5315   23.0729 H   0  0  0  0  0  0  0  0  0  0  0  0
   19.6002   17.4278   22.5296 C   0  0  0  0  0  0  0  0  0  0  0  0
   19.3205   17.9641   21.6123 H   0  0  0  0  0  0  0  0  0  0  0  0
   18.6718   17.2514   23.0903 H   0  0  0  0  0  0  0  0  0  0  0  0
   20.5535   18.3058   23.3716 C   0  0  0  0  0  0  0  0  0  0  0  0
   21.4816   18.4818   22.8103 H   0  0  0  0  0  0  0  0  0  0  0  0
   20.8333   17.7680   24.2881 H   0  0  0  0  0  0  0  0  0  0  0  0
   19.9104   19.6610   23.7435 C   0  0  0  0  0  0  0  0  0  0  0  0
   19.6284   20.1917   22.8244 H   0  0  0  0  0  0  0  0  0  0  0  0
   18.9838   19.4848   24.3074 H   0  0  0  0  0  0  0  0  0  0  0  0
   20.8666   20.5386   24.5855 C   0  0  0  0  0  0  0  0  0  0  0  0
   21.7838   20.7469   24.0186 H   0  0  0  0  0  0  0  0  0  0  0  0
   21.1722   19.9852   25.4835 H   0  0  0  0  0  0  0  0  0  0  0  0
   20.2221   21.8666   25.0273 C   0  0  0  0  0  0  0  0  0  0  0  0
   19.3052   21.6627   25.5868 H   0  0  0  0  0  0  0  0  0  0  0  0
   20.9111   22.4028   25.6856 H   0  0  0  0  0  0  0  0  0  0  0  0
   19.8751   22.7896   23.8755 N   0  3  0  0  0  0  0  0  0  0  0  0
   19.2001   22.3605   23.2351 H   0  0  0  0  0  0  0  0  0  0  0  0
   20.7026   23.0369   23.3232 H   0  0  0  0  0  0  0  0  0  0  0  0
   19.4605   23.6687   24.2038 H   0  0  0  0  0  0  0  0  0  0  0  0
  1  2  1  0  0  0  0
  1  3  1  0  0  0  0
  1  4  1  0  0  0  0
  1  5  1  0  0  0  0
  5  6  1  0  0  0  0
  5  7  1  0  0  0  0
  5  8  1  0  0  0  0
  8  9  1  0  0  0  0
  8 10  1  0  0  0  0
  8 11  1  0  0  0  0
 11 12  1  0  0  0  0
 11 13  1  0  0  0  0
 11 14  1  0  0  0  0
 14 15  1  0  0  0  0
 14 16  1  0  0  0  0
 14 17  1  0  0  0  0
 17 18  1  0  0  0  0
 17 19  1  0  0  0  0
 17 20  1  0  0  0  0
 20 21  1  0  0  0  0
 20 22  1  0  0  0  0
 20 23  1  0  0  0  0
 23 24  1  0  0  0  0
 23 25  1  0  0  0  0
 23 26  1  0  0  0  0
M  END
> <VConfSearch Rank>
342

> <Conf_Id>
20

> <Delta U+W>
0.150

> <U+W>
-5.403

> <U>
47.845

> <W>
-53.248

> <W(PB)>
-55.599

> <W(SA)>
2.351

> <Valence>
2.258

> <Coulomb>
44.893

> <VdW>
0.694

> <VdW6>
-6.285

> <VdW12>
6.979

> <Bond>
0.149

> <Angle>
0.434

> <Pdih>
1.675

> <Idih>
0.000

> <Tether>
0.000

$$$$
VeraChem MOL file


 26 25  0  0  0  0  0  0  0  0999 V2000     
   18.9899   17.8114   19.2032 C   0  0  0  0  0  0  0  0  0  0  0  0
   19.7632   17.0321   19.2010 H   0  0  0  0  0  0  0  0  0  0  0  0
   18.0303   17.3402   19.4526 H   0  0  0  0  0  0  0  0  0  0  0  0
   18.9134   18.2130   18.1844 H   0  0  0  0  0  0  0  0  0  0  0  0
   19.3348   18.9325   20.2064 C   0  0  0  0  0  0  0  0  0  0  0  0
   18.5619   19.7125   20.1613 H   0  0  0  0  0  0  0  0  0  0  0  0
   20.2815   19.4068   19.9117 H   0  0  0  0  0  0  0  0  0  0  0  0
   19.4485   18.3936   21.6496 C   0  0  0  0  0  0  0  0  0  0  0  0
   18.5008   17.9185   21.9388 H   0  0  0  0  0  0  0  0  0  0  0  0
   20.2205   17.6127   21.6891 H   0  0  0  0  0  0  0  0  0  0  0  0
   19.7938   19.5134   22.6572 C   0  0  0  0  0  0  0  0  0  0  0  0
   19.0218   20.2943   22.6159 H   0  0  0  0  0  0  0  0  0  0  0  0
   20.7418   19.9878   22.3675 H   0  0  0  0  0  0  0  0  0  0  0  0
   19.9067   18.9741   24.1011 C   0  0  0  0  0  0  0  0  0  0  0  0
   18.9577   18.5024   24.3917 H   0  0  0  0  0  0  0  0  0  0  0  0
   20.6758   18.1910   24.1354 H   0  0  0  0  0  0  0  0  0  0  0  0
   20.2534   20.0964   25.1079 C   0  0  0  0  0  0  0  0  0  0  0  0
   19.4993   20.8919   25.0397 H   0  0  0  0  0  0  0  0  0  0  0  0
   21.2163   20.5542   24.8447 H   0  0  0  0  0  0  0  0  0  0  0  0
   20.3029   19.5955   26.5642 C   0  0  0  0  0  0  0  0  0  0  0  0
   20.4676   20.4439   27.2341 H   0  0  0  0  0  0  0  0  0  0  0  0
   19.3474   19.1338   26.8274 H   0  0  0  0  0  0  0  0  0  0  0  0
   21.4019   18.5841   26.8249 N   0  3  0  0  0  0  0  0  0  0  0  0
   22.3296   18.9678   26.6171 H   0  0  0  0  0  0  0  0  0  0  0  0
   21.2868   17.7422   26.2523 H   0  0  0  0  0  0  0  0  0  0  0  0
   21.4158   18.2811   27.8048 H   0  0  0  0  0  0  0  0  0  0  0  0
  1  2  1  0  0  0  0
  1  3  1  0  0  0  0
  1  4  1  0  0  0  0
  1  5  1  0  0  0  0
  5  6  1  0  0  0  0
  5  7  1  0  0  0  0
  5  8  1  0  0  0  0
  8  9  1  0  0  0  0
  8 10  1  0  0  0  0
  8 11  1  0  0  0  0
 11 12  1  0  0  0  0
 11 13  1  0  0  0  0
 11 14  1  0  0  0  0
 14 15  1  0  0  0  0
 14 16  1  0  0  0  0
 14 17  1  0  0  0  0
 17 18  1  0  0  0  0
 17 19  1  0  0  0  0
 17 20  1  0  0  0  0
 20 21  1  0  0  0  0
 20 22  1  0  0  0  0
 20 23  1  0  0  0  0
 23 24  1  0  0  0  0
 23 25  1  0  0  0  0
 23 26  1  0  0  0  0
M  END
> <VConfSearch Rank>
343

> <Conf_Id>
19

> <Delta U+W>
0.162

> <U+W>
-5.391

> <U>
47.845

> <W>
-53.235

> <W(PB)>
-55.585

> <W(SA)>
2.349

> <Valence>
2.258

> <Coulomb>
44.893

> <VdW>
0.694

> <VdW6>
-6.285

> <VdW12>
6.979

> <Bond>
0.149

> <Angle>
0.434

> <Pdih>
1.675

> <Idih>
0.000

> <Tether>
0.000

$$$$
VeraChem MOL file


 26 25  0  0  0  0  0  0  0  0999 V2000     
   17.9165   20.9078   20.2393 C   0  0  0  0  0  0  0  0  0  0  0  0
   17.8646   20.3648   19.2865 H   0  0  0  0  0  0  0  0  0  0  0  0
   16.9298   20.8539   20.7177 H   0  0  0  0  0  0  0  0  0  0  0  0
   18.1253   21.9619   20.0150 H   0  0  0  0  0  0  0  0  0  0  0  0
   19.0098   20.3186   21.1557 C   0  0  0  0  0  0  0  0  0  0  0  0
   19.0587   20.9121   22.0781 H   0  0  0  0  0  0  0  0  0  0  0  0
   19.9876   20.4133   20.6631 H   0  0  0  0  0  0  0  0  0  0  0  0
   18.7344   18.8333   21.4893 C   0  0  0  0  0  0  0  0  0  0  0  0
   17.7813   18.7453   22.0287 H   0  0  0  0  0  0  0  0  0  0  0  0
   18.6101   18.2743   20.5515 H   0  0  0  0  0  0  0  0  0  0  0  0
   19.8613   18.1633   22.3135 C   0  0  0  0  0  0  0  0  0  0  0  0
   20.8111   18.2382   21.7662 H   0  0  0  0  0  0  0  0  0  0  0  0
   19.6383   17.0907   22.3985 H   0  0  0  0  0  0  0  0  0  0  0  0
   20.0273   18.7575   23.7329 C   0  0  0  0  0  0  0  0  0  0  0  0
   20.3258   19.8120   23.6663 H   0  0  0  0  0  0  0  0  0  0  0  0
   19.0623   18.7310   24.2579 H   0  0  0  0  0  0  0  0  0  0  0  0
   21.0823   17.9872   24.5571 C   0  0  0  0  0  0  0  0  0  0  0  0
   22.0488   18.0124   24.0362 H   0  0  0  0  0  0  0  0  0  0  0  0
   20.7887   16.9323   24.6413 H   0  0  0  0  0  0  0  0  0  0  0  0
   21.2441   18.5864   25.9653 C   0  0  0  0  0  0  0  0  0  0  0  0
   21.5527   19.6324   25.8871 H   0  0  0  0  0  0  0  0  0  0  0  0
   20.2876   18.5484   26.4937 H   0  0  0  0  0  0  0  0  0  0  0  0
   22.2721   17.8571   26.8060 N   0  3  0  0  0  0  0  0  0  0  0  0
   23.2028   17.8796   26.3764 H   0  0  0  0  0  0  0  0  0  0  0  0
   22.0257   16.8710   26.9408 H   0  0  0  0  0  0  0  0  0  0  0  0
   22.3643   18.2720   27.7398 H   0  0  0  0  0  0  0  0  0  0  0  0
  1  2  1  0  0  0  0
  1  3  1  0  0  0  0
  1  4  1  0  0  0  0
  1  5  1  0  0  0  0
  5  6  1  0  0  0  0
  5  7  1  0  0  0  0
  5  8  1  0  0  0  0
  8  9  1  0  0  0  0
  8 10  1  0  0  0  0
  8 11  1  0  0  0  0
 11 12  1  0  0  0  0
 11 13  1  0  0  0  0
 11 14  1  0  0  0  0
 14 15  1  0  0  0  0
 14 16  1  0  0  0  0
 14 17  1  0  0  0  0
 17 18  1  0  0  0  0
 17 19  1  0  0  0  0
 17 20  1  0  0  0  0
 20 21  1  0  0  0  0
 20 22  1  0  0  0  0
 20 23  1  0  0  0  0
 23 24  1  0  0  0  0
 23 25  1  0  0  0  0
 23 26  1  0  0  0  0
M  END
> <VConfSearch Rank>
344

> <Conf_Id>
37

> <Delta U+W>
0.565

> <U+W>
-4.988

> <U>
48.035

> <W>
-53.022

> <W(PB)>
-55.379

> <W(SA)>
2.357

> <Valence>
2.701

> <Coulomb>
44.622

> <VdW>
0.712

> <VdW6>
-6.418

> <VdW12>
7.129

> <Bond>
0.168

> <Angle>
0.659

> <Pdih>
1.875

> <Idih>
0.000

> <Tether>
0.000

$$$$
VeraChem MOL file


 26 25  0  0  0  0  0  0  0  0999 V2000     
   16.3875   16.9994   23.6773 C   0  0  0  0  0  0  0  0  0  0  0  0
   16.0401   18.0243   23.8620 H   0  0  0  0  0  0  0  0  0  0  0  0
   16.2793   16.7897   22.6051 H   0  0  0  0  0  0  0  0  0  0  0  0
   15.7245   16.3154   24.2229 H   0  0  0  0  0  0  0  0  0  0  0  0
   17.8510   16.8188   24.1330 C   0  0  0  0  0  0  0  0  0  0  0  0
   18.1577   15.7764   23.9679 H   0  0  0  0  0  0  0  0  0  0  0  0
   17.9216   17.0025   25.2143 H   0  0  0  0  0  0  0  0  0  0  0  0
   18.8066   17.7701   23.3792 C   0  0  0  0  0  0  0  0  0  0  0  0
   18.7340   17.5812   22.2992 H   0  0  0  0  0  0  0  0  0  0  0  0
   18.4837   18.8062   23.5449 H   0  0  0  0  0  0  0  0  0  0  0  0
   20.2739   17.5926   23.8385 C   0  0  0  0  0  0  0  0  0  0  0  0
   20.5542   16.5349   23.7381 H   0  0  0  0  0  0  0  0  0  0  0  0
   20.3597   17.8340   24.9070 H   0  0  0  0  0  0  0  0  0  0  0  0
   21.2834   18.4454   23.0313 C   0  0  0  0  0  0  0  0  0  0  0  0
   22.3003   18.1701   23.3442 H   0  0  0  0  0  0  0  0  0  0  0  0
   21.2100   18.1916   21.9646 H   0  0  0  0  0  0  0  0  0  0  0  0
   21.0962   19.9693   23.2187 C   0  0  0  0  0  0  0  0  0  0  0  0
   21.1190   20.2159   24.2886 H   0  0  0  0  0  0  0  0  0  0  0  0
   20.1164   20.2802   22.8350 H   0  0  0  0  0  0  0  0  0  0  0  0
   22.1942   20.7622   22.4881 C   0  0  0  0  0  0  0  0  0  0  0  0
   23.1755   20.4746   22.8753 H   0  0  0  0  0  0  0  0  0  0  0  0
   22.1651   20.5322   21.4196 H   0  0  0  0  0  0  0  0  0  0  0  0
   22.0499   22.2619   22.6479 N   0  3  0  0  0  0  0  0  0  0  0  0
   22.0964   22.5476   23.6315 H   0  0  0  0  0  0  0  0  0  0  0  0
   21.1568   22.6018   22.2766 H   0  0  0  0  0  0  0  0  0  0  0  0
   22.7914   22.7706   22.1541 H   0  0  0  0  0  0  0  0  0  0  0  0
  1  2  1  0  0  0  0
  1  3  1  0  0  0  0
  1  4  1  0  0  0  0
  1  5  1  0  0  0  0
  5  6  1  0  0  0  0
  5  7  1  0  0  0  0
  5  8  1  0  0  0  0
  8  9  1  0  0  0  0
  8 10  1  0  0  0  0
  8 11  1  0  0  0  0
 11 12  1  0  0  0  0
 11 13  1  0  0  0  0
 11 14  1  0  0  0  0
 14 15  1  0  0  0  0
 14 16  1  0  0  0  0
 14 17  1  0  0  0  0
 17 18  1  0  0  0  0
 17 19  1  0  0  0  0
 17 20  1  0  0  0  0
 20 21  1  0  0  0  0
 20 22  1  0  0  0  0
 20 23  1  0  0  0  0
 23 24  1  0  0  0  0
 23 25  1  0  0  0  0
 23 26  1  0  0  0  0
M  END
> <VConfSearch Rank>
345

> <Conf_Id>
35

> <Delta U+W>
0.587

> <U+W>
-4.965

> <U>
48.214

> <W>
-53.179

> <W(PB)>
-55.527

> <W(SA)>
2.348

> <Valence>
2.697

> <Coulomb>
44.819

> <VdW>
0.699

> <VdW6>
-6.437

> <VdW12>
7.136

> <Bond>
0.168

> <Angle>
0.657

> <Pdih>
1.872

> <Idih>
0.000

> <Tether>
0.000

$$$$
VeraChem MOL file


 26 25  0  0  0  0  0  0  0  0999 V2000     
   23.3403   21.0977   24.3649 C   0  0  0  0  0  0  0  0  0  0  0  0
   22.9969   22.0326   23.9030 H   0  0  0  0  0  0  0  0  0  0  0  0
   22.8759   21.0154   25.3563 H   0  0  0  0  0  0  0  0  0  0  0  0
   24.4263   21.1710   24.5067 H   0  0  0  0  0  0  0  0  0  0  0  0
   22.9867   19.8810   23.4837 C   0  0  0  0  0  0  0  0  0  0  0  0
   23.3714   18.9655   23.9546 H   0  0  0  0  0  0  0  0  0  0  0  0
   23.4933   19.9750   22.5129 H   0  0  0  0  0  0  0  0  0  0  0  0
   21.4623   19.7548   23.2673 C   0  0  0  0  0  0  0  0  0  0  0  0
   20.9683   19.6709   24.2441 H   0  0  0  0  0  0  0  0  0  0  0  0
   21.0829   20.6712   22.7946 H   0  0  0  0  0  0  0  0  0  0  0  0
   21.1065   18.5325   22.3871 C   0  0  0  0  0  0  0  0  0  0  0  0
   21.4365   17.6094   22.8834 H   0  0  0  0  0  0  0  0  0  0  0  0
   21.6696   18.5942   21.4455 H   0  0  0  0  0  0  0  0  0  0  0  0
   19.5986   18.4295   22.0499 C   0  0  0  0  0  0  0  0  0  0  0  0
   19.2722   19.3454   21.5378 H   0  0  0  0  0  0  0  0  0  0  0  0
   19.4573   17.6088   21.3329 H   0  0  0  0  0  0  0  0  0  0  0  0
   18.7034   18.1757   23.2856 C   0  0  0  0  0  0  0  0  0  0  0  0
   18.7654   19.0243   23.9784 H   0  0  0  0  0  0  0  0  0  0  0  0
   19.0612   17.2890   23.8256 H   0  0  0  0  0  0  0  0  0  0  0  0
   17.2339   17.9680   22.8789 C   0  0  0  0  0  0  0  0  0  0  0  0
   16.8681   18.8552   22.3549 H   0  0  0  0  0  0  0  0  0  0  0  0
   17.1565   17.1125   22.2025 H   0  0  0  0  0  0  0  0  0  0  0  0
   16.3209   17.7133   24.0610 N   0  3  0  0  0  0  0  0  0  0  0  0
   16.3263   18.4955   24.7238 H   0  0  0  0  0  0  0  0  0  0  0  0
   16.5955   16.8741   24.5820 H   0  0  0  0  0  0  0  0  0  0  0  0
   15.3473   17.5773   23.7678 H   0  0  0  0  0  0  0  0  0  0  0  0
  1  2  1  0  0  0  0
  1  3  1  0  0  0  0
  1  4  1  0  0  0  0
  1  5  1  0  0  0  0
  5  6  1  0  0  0  0
  5  7  1  0  0  0  0
  5  8  1  0  0  0  0
  8  9  1  0  0  0  0
  8 10  1  0  0  0  0
  8 11  1  0  0  0  0
 11 12  1  0  0  0  0
 11 13  1  0  0  0  0
 11 14  1  0  0  0  0
 14 15  1  0  0  0  0
 14 16  1  0  0  0  0
 14 17  1  0  0  0  0
 17 18  1  0  0  0  0
 17 19  1  0  0  0  0
 17 20  1  0  0  0  0
 20 21  1  0  0  0  0
 20 22  1  0  0  0  0
 20 23  1  0  0  0  0
 23 24  1  0  0  0  0
 23 25  1  0  0  0  0
 23 26  1  0  0  0  0
M  END
> <VConfSearch Rank>
346

> <Conf_Id>
36

> <Delta U+W>
0.565

> <U+W>
-4.987

> <U>
48.214

> <W>
-53.201

> <W(PB)>
-55.543

> <W(SA)>
2.342

> <Valence>
2.697

> <Coulomb>
44.819

> <VdW>
0.698

> <VdW6>
-6.437

> <VdW12>
7.136

> <Bond>
0.168

> <Angle>
0.657

> <Pdih>
1.872

> <Idih>
0.000

> <Tether>
0.000

$$$$
VeraChem MOL file


 26 25  0  0  0  0  0  0  0  0999 V2000     
   23.4944   21.3354   23.7501 C   0  0  0  0  0  0  0  0  0  0  0  0
   23.3002   21.8394   24.7059 H   0  0  0  0  0  0  0  0  0  0  0  0
   24.5692   21.1189   23.6957 H   0  0  0  0  0  0  0  0  0  0  0  0
   23.2500   22.0340   22.9393 H   0  0  0  0  0  0  0  0  0  0  0  0
   22.6700   20.0362   23.6304 C   0  0  0  0  0  0  0  0  0  0  0  0
   22.9605   19.3447   24.4338 H   0  0  0  0  0  0  0  0  0  0  0  0
   22.9108   19.5379   22.6808 H   0  0  0  0  0  0  0  0  0  0  0  0
   21.1520   20.3131   23.7041 C   0  0  0  0  0  0  0  0  0  0  0  0
   20.9171   20.8137   24.6537 H   0  0  0  0  0  0  0  0  0  0  0  0
   20.8667   21.0061   22.9005 H   0  0  0  0  0  0  0  0  0  0  0  0
   20.3229   19.0143   23.5849 C   0  0  0  0  0  0  0  0  0  0  0  0
   20.6073   18.3234   24.3906 H   0  0  0  0  0  0  0  0  0  0  0  0
   20.5674   18.5165   22.6370 H   0  0  0  0  0  0  0  0  0  0  0  0
   18.8027   19.2951   23.6577 C   0  0  0  0  0  0  0  0  0  0  0  0
   18.5795   19.8363   24.5876 H   0  0  0  0  0  0  0  0  0  0  0  0
   18.5083   19.9595   22.8334 H   0  0  0  0  0  0  0  0  0  0  0  0
   17.9448   18.0088   23.6147 C   0  0  0  0  0  0  0  0  0  0  0  0
   16.8902   18.2789   23.7592 H   0  0  0  0  0  0  0  0  0  0  0  0
   18.2193   17.3539   24.4524 H   0  0  0  0  0  0  0  0  0  0  0  0
   18.0900   17.2406   22.2876 C   0  0  0  0  0  0  0  0  0  0  0  0
   17.8157   17.8922   21.4535 H   0  0  0  0  0  0  0  0  0  0  0  0
   19.1284   16.9270   22.1529 H   0  0  0  0  0  0  0  0  0  0  0  0
   17.2187   16.0031   22.2206 N   0  3  0  0  0  0  0  0  0  0  0  0
   17.3299   15.5064   21.3299 H   0  0  0  0  0  0  0  0  0  0  0  0
   16.2233   16.2311   22.3126 H   0  0  0  0  0  0  0  0  0  0  0  0
   17.4453   15.3354   22.9650 H   0  0  0  0  0  0  0  0  0  0  0  0
  1  2  1  0  0  0  0
  1  3  1  0  0  0  0
  1  4  1  0  0  0  0
  1  5  1  0  0  0  0
  5  6  1  0  0  0  0
  5  7  1  0  0  0  0
  5  8  1  0  0  0  0
  8  9  1  0  0  0  0
  8 10  1  0  0  0  0
  8 11  1  0  0  0  0
 11 12  1  0  0  0  0
 11 13  1  0  0  0  0
 11 14  1  0  0  0  0
 14 15  1  0  0  0  0
 14 16  1  0  0  0  0
 14 17  1  0  0  0  0
 17 18  1  0  0  0  0
 17 19  1  0  0  0  0
 17 20  1  0  0  0  0
 20 21  1  0  0  0  0
 20 22  1  0  0  0  0
 20 23  1  0  0  0  0
 23 24  1  0  0  0  0
 23 25  1  0  0  0  0
 23 26  1  0  0  0  0
M  END
> <VConfSearch Rank>
347

> <Conf_Id>
44

> <Delta U+W>
0.371

> <U+W>
-5.181

> <U>
48.002

> <W>
-53.183

> <W(PB)>
-55.533

> <W(SA)>
2.350

> <Valence>
2.459

> <Coulomb>
44.901

> <VdW>
0.643

> <VdW6>
-6.362

> <VdW12>
7.005

> <Bond>
0.151

> <Angle>
0.519

> <Pdih>
1.789

> <Idih>
0.000

> <Tether>
0.000

$$$$
VeraChem MOL file


 26 25  0  0  0  0  0  0  0  0999 V2000     
   23.3530   19.7132   21.5053 C   0  0  0  0  0  0  0  0  0  0  0  0
   22.8617   20.2002   20.6530 H   0  0  0  0  0  0  0  0  0  0  0  0
   24.4243   19.9468   21.4531 H   0  0  0  0  0  0  0  0  0  0  0  0
   23.2474   18.6276   21.3894 H   0  0  0  0  0  0  0  0  0  0  0  0
   22.7579   20.2038   22.8448 C   0  0  0  0  0  0  0  0  0  0  0  0
   23.0031   21.2677   22.9703 H   0  0  0  0  0  0  0  0  0  0  0  0
   23.2408   19.6769   23.6797 H   0  0  0  0  0  0  0  0  0  0  0  0
   21.2217   20.0359   22.9377 C   0  0  0  0  0  0  0  0  0  0  0  0
   20.8825   20.5339   23.8547 H   0  0  0  0  0  0  0  0  0  0  0  0
   20.7442   20.5655   22.1019 H   0  0  0  0  0  0  0  0  0  0  0  0
   20.7628   18.5553   22.9501 C   0  0  0  0  0  0  0  0  0  0  0  0
   21.2371   18.0263   23.7881 H   0  0  0  0  0  0  0  0  0  0  0  0
   21.1111   18.0591   22.0351 H   0  0  0  0  0  0  0  0  0  0  0  0
   19.2258   18.3821   23.0301 C   0  0  0  0  0  0  0  0  0  0  0  0
   18.7508   18.9231   22.2000 H   0  0  0  0  0  0  0  0  0  0  0  0
   18.9950   17.3195   22.8773 H   0  0  0  0  0  0  0  0  0  0  0  0
   18.6164   18.8498   24.3759 C   0  0  0  0  0  0  0  0  0  0  0  0
   18.8004   19.9219   24.5162 H   0  0  0  0  0  0  0  0  0  0  0  0
   19.1077   18.3339   25.2116 H   0  0  0  0  0  0  0  0  0  0  0  0
   17.0949   18.6169   24.4516 C   0  0  0  0  0  0  0  0  0  0  0  0
   16.7077   19.0536   25.3763 H   0  0  0  0  0  0  0  0  0  0  0  0
   16.6043   19.1122   23.6094 H   0  0  0  0  0  0  0  0  0  0  0  0
   16.6976   17.1538   24.4346 N   0  3  0  0  0  0  0  0  0  0  0  0
   16.9979   16.6883   23.5727 H   0  0  0  0  0  0  0  0  0  0  0  0
   15.6809   17.0347   24.5013 H   0  0  0  0  0  0  0  0  0  0  0  0
   17.1113   16.6378   25.2179 H   0  0  0  0  0  0  0  0  0  0  0  0
  1  2  1  0  0  0  0
  1  3  1  0  0  0  0
  1  4  1  0  0  0  0
  1  5  1  0  0  0  0
  5  6  1  0  0  0  0
  5  7  1  0  0  0  0
  5  8  1  0  0  0  0
  8  9  1  0  0  0  0
  8 10  1  0  0  0  0
  8 11  1  0  0  0  0
 11 12  1  0  0  0  0
 11 13  1  0  0  0  0
 11 14  1  0  0  0  0
 14 15  1  0  0  0  0
 14 16  1  0  0  0  0
 14 17  1  0  0  0  0
 17 18  1  0  0  0  0
 17 19  1  0  0  0  0
 17 20  1  0  0  0  0
 20 21  1  0  0  0  0
 20 22  1  0  0  0  0
 20 23  1  0  0  0  0
 23 24  1  0  0  0  0
 23 25  1  0  0  0  0
 23 26  1  0  0  0  0
M  END
> <VConfSearch Rank>
348

> <Conf_Id>
112

> <Delta U+W>
1.422

> <U+W>
-4.130

> <U>
49.323

> <W>
-53.453

> <W(PB)>
-55.749

> <W(SA)>
2.296

> <Valence>
3.408

> <Coulomb>
44.893

> <VdW>
1.021

> <VdW6>
-7.481

> <VdW12>
8.503

> <Bond>
0.239

> <Angle>
1.013

> <Pdih>
2.156

> <Idih>
0.000

> <Tether>
0.000

$$$$
VeraChem MOL file


 26 25  0  0  0  0  0  0  0  0999 V2000     
   23.3823   19.0009   21.8473 C   0  0  0  0  0  0  0  0  0  0  0  0
   24.3742   18.7900   21.4272 H   0  0  0  0  0  0  0  0  0  0  0  0
   22.6883   19.1278   21.0071 H   0  0  0  0  0  0  0  0  0  0  0  0
   23.4431   19.9530   22.3903 H   0  0  0  0  0  0  0  0  0  0  0  0
   22.9362   17.8548   22.7832 C   0  0  0  0  0  0  0  0  0  0  0  0
   23.7173   17.6890   23.5383 H   0  0  0  0  0  0  0  0  0  0  0  0
   22.8585   16.9196   22.2111 H   0  0  0  0  0  0  0  0  0  0  0  0
   21.5978   18.1392   23.5064 C   0  0  0  0  0  0  0  0  0  0  0  0
   21.4075   17.3269   24.2212 H   0  0  0  0  0  0  0  0  0  0  0  0
   21.6995   19.0580   24.0987 H   0  0  0  0  0  0  0  0  0  0  0  0
   20.3919   18.2576   22.5402 C   0  0  0  0  0  0  0  0  0  0  0  0
   20.3857   17.3880   21.8687 H   0  0  0  0  0  0  0  0  0  0  0  0
   20.5073   19.1424   21.9002 H   0  0  0  0  0  0  0  0  0  0  0  0
   19.0245   18.3281   23.2637 C   0  0  0  0  0  0  0  0  0  0  0  0
   18.2333   18.2870   22.5036 H   0  0  0  0  0  0  0  0  0  0  0  0
   18.8947   17.4366   23.8929 H   0  0  0  0  0  0  0  0  0  0  0  0
   18.8465   19.6043   24.1240 C   0  0  0  0  0  0  0  0  0  0  0  0
   18.9992   20.4993   23.5063 H   0  0  0  0  0  0  0  0  0  0  0  0
   19.6103   19.6313   24.9111 H   0  0  0  0  0  0  0  0  0  0  0  0
   17.4641   19.6764   24.8009 C   0  0  0  0  0  0  0  0  0  0  0  0
   17.3011   18.7778   25.4020 H   0  0  0  0  0  0  0  0  0  0  0  0
   17.4322   20.5426   25.4674 H   0  0  0  0  0  0  0  0  0  0  0  0
   16.3107   19.8063   23.8253 N   0  3  0  0  0  0  0  0  0  0  0  0
   16.2577   19.0037   23.1905 H   0  0  0  0  0  0  0  0  0  0  0  0
   16.3958   20.6470   23.2448 H   0  0  0  0  0  0  0  0  0  0  0  0
   15.4080   19.8664   24.3089 H   0  0  0  0  0  0  0  0  0  0  0  0
  1  2  1  0  0  0  0
  1  3  1  0  0  0  0
  1  4  1  0  0  0  0
  1  5  1  0  0  0  0
  5  6  1  0  0  0  0
  5  7  1  0  0  0  0
  5  8  1  0  0  0  0
  8  9  1  0  0  0  0
  8 10  1  0  0  0  0
  8 11  1  0  0  0  0
 11 12  1  0  0  0  0
 11 13  1  0  0  0  0
 11 14  1  0  0  0  0
 14 15  1  0  0  0  0
 14 16  1  0  0  0  0
 14 17  1  0  0  0  0
 17 18  1  0  0  0  0
 17 19  1  0  0  0  0
 17 20  1  0  0  0  0
 20 21  1  0  0  0  0
 20 22  1  0  0  0  0
 20 23  1  0  0  0  0
 23 24  1  0  0  0  0
 23 25  1  0  0  0  0
 23 26  1  0  0  0  0
M  END
> <VConfSearch Rank>
349

> <Conf_Id>
130

> <Delta U+W>
1.282

> <U+W>
-4.270

> <U>
49.153

> <W>
-53.422

> <W(PB)>
-55.725

> <W(SA)>
2.303

> <Valence>
3.298

> <Coulomb>
44.907

> <VdW>
0.948

> <VdW6>
-7.574

> <VdW12>
8.522

> <Bond>
0.229

> <Angle>
0.912

> <Pdih>
2.157

> <Idih>
0.000

> <Tether>
0.000

$$$$
VeraChem MOL file


 26 25  0  0  0  0  0  0  0  0999 V2000     
   19.0111   19.1082   26.6045 C   0  0  0  0  0  0  0  0  0  0  0  0
   17.9154   19.0442   26.6214 H   0  0  0  0  0  0  0  0  0  0  0  0
   19.3518   19.3114   27.6280 H   0  0  0  0  0  0  0  0  0  0  0  0
   19.2964   19.9674   25.9848 H   0  0  0  0  0  0  0  0  0  0  0  0
   19.6358   17.7972   26.0762 C   0  0  0  0  0  0  0  0  0  0  0  0
   19.4232   16.9909   26.7919 H   0  0  0  0  0  0  0  0  0  0  0  0
   20.7295   17.8921   26.0489 H   0  0  0  0  0  0  0  0  0  0  0  0
   19.0986   17.3746   24.6848 C   0  0  0  0  0  0  0  0  0  0  0  0
   19.5718   16.4260   24.3961 H   0  0  0  0  0  0  0  0  0  0  0  0
   18.0246   17.1599   24.7710 H   0  0  0  0  0  0  0  0  0  0  0  0
   19.3076   18.4084   23.5479 C   0  0  0  0  0  0  0  0  0  0  0  0
   18.7525   19.3287   23.7728 H   0  0  0  0  0  0  0  0  0  0  0  0
   18.8567   18.0001   22.6340 H   0  0  0  0  0  0  0  0  0  0  0  0
   20.7970   18.7457   23.2837 C   0  0  0  0  0  0  0  0  0  0  0  0
   21.2410   19.1820   24.1879 H   0  0  0  0  0  0  0  0  0  0  0  0
   21.3554   17.8226   23.0753 H   0  0  0  0  0  0  0  0  0  0  0  0
   20.9955   19.7437   22.1186 C   0  0  0  0  0  0  0  0  0  0  0  0
   22.0580   20.0152   22.0604 H   0  0  0  0  0  0  0  0  0  0  0  0
   20.4453   20.6705   22.3287 H   0  0  0  0  0  0  0  0  0  0  0  0
   20.5492   19.1720   20.7597 C   0  0  0  0  0  0  0  0  0  0  0  0
   21.0963   18.2486   20.5516 H   0  0  0  0  0  0  0  0  0  0  0  0
   19.4813   18.9411   20.7871 H   0  0  0  0  0  0  0  0  0  0  0  0
   20.7880   20.1269   19.6079 N   0  3  0  0  0  0  0  0  0  0  0  0
   20.2782   21.0080   19.7301 H   0  0  0  0  0  0  0  0  0  0  0  0
   20.4846   19.7278   18.7129 H   0  0  0  0  0  0  0  0  0  0  0  0
   21.7805   20.3638   19.5076 H   0  0  0  0  0  0  0  0  0  0  0  0
  1  2  1  0  0  0  0
  1  3  1  0  0  0  0
  1  4  1  0  0  0  0
  1  5  1  0  0  0  0
  5  6  1  0  0  0  0
  5  7  1  0  0  0  0
  5  8  1  0  0  0  0
  8  9  1  0  0  0  0
  8 10  1  0  0  0  0
  8 11  1  0  0  0  0
 11 12  1  0  0  0  0
 11 13  1  0  0  0  0
 11 14  1  0  0  0  0
 14 15  1  0  0  0  0
 14 16  1  0  0  0  0
 14 17  1  0  0  0  0
 17 18  1  0  0  0  0
 17 19  1  0  0  0  0
 17 20  1  0  0  0  0
 20 21  1  0  0  0  0
 20 22  1  0  0  0  0
 20 23  1  0  0  0  0
 23 24  1  0  0  0  0
 23 25  1  0  0  0  0
 23 26  1  0  0  0  0
M  END
> <VConfSearch Rank>
350

> <Conf_Id>
111

> <Delta U+W>
1.290

> <U+W>
-4.262

> <U>
49.209

> <W>
-53.471

> <W(PB)>
-55.745

> <W(SA)>
2.274

> <Valence>
3.465

> <Coulomb>
44.958

> <VdW>
0.786

> <VdW6>
-7.903

> <VdW12>
8.689

> <Bond>
0.237

> <Angle>
1.212

> <Pdih>
2.015

> <Idih>
0.000

> <Tether>
0.000

$$$$
VeraChem MOL file


 26 25  0  0  0  0  0  0  0  0999 V2000     
   22.4989   16.2050   21.9154 C   0  0  0  0  0  0  0  0  0  0  0  0
   23.2751   16.4805   22.6413 H   0  0  0  0  0  0  0  0  0  0  0  0
   22.2271   15.1554   22.0872 H   0  0  0  0  0  0  0  0  0  0  0  0
   22.9351   16.2798   20.9109 H   0  0  0  0  0  0  0  0  0  0  0  0
   21.2672   17.1261   22.0447 C   0  0  0  0  0  0  0  0  0  0  0  0
   20.5217   16.8455   21.2875 H   0  0  0  0  0  0  0  0  0  0  0  0
   21.5705   18.1586   21.8262 H   0  0  0  0  0  0  0  0  0  0  0  0
   20.6372   17.0409   23.4550 C   0  0  0  0  0  0  0  0  0  0  0  0
   20.4154   15.9892   23.6835 H   0  0  0  0  0  0  0  0  0  0  0  0
   21.3664   17.3721   24.2072 H   0  0  0  0  0  0  0  0  0  0  0  0
   19.3313   17.8601   23.6017 C   0  0  0  0  0  0  0  0  0  0  0  0
   18.8968   17.6472   24.5882 H   0  0  0  0  0  0  0  0  0  0  0  0
   18.5967   17.5160   22.8606 H   0  0  0  0  0  0  0  0  0  0  0  0
   19.5394   19.3873   23.4620 C   0  0  0  0  0  0  0  0  0  0  0  0
   20.3185   19.7118   24.1646 H   0  0  0  0  0  0  0  0  0  0  0  0
   19.8981   19.6260   22.4522 H   0  0  0  0  0  0  0  0  0  0  0  0
   18.2315   20.1691   23.7296 C   0  0  0  0  0  0  0  0  0  0  0  0
   17.8767   19.9725   24.7501 H   0  0  0  0  0  0  0  0  0  0  0  0
   17.4474   19.8087   23.0504 H   0  0  0  0  0  0  0  0  0  0  0  0
   18.3932   21.6878   23.5255 C   0  0  0  0  0  0  0  0  0  0  0  0
   18.7513   21.8870   22.5118 H   0  0  0  0  0  0  0  0  0  0  0  0
   17.4220   22.1754   23.6459 H   0  0  0  0  0  0  0  0  0  0  0  0
   19.3567   22.3355   24.5007 N   0  3  0  0  0  0  0  0  0  0  0  0
   19.4319   23.3468   24.3465 H   0  0  0  0  0  0  0  0  0  0  0  0
   20.3014   21.9479   24.4152 H   0  0  0  0  0  0  0  0  0  0  0  0
   19.0610   22.2021   25.4732 H   0  0  0  0  0  0  0  0  0  0  0  0
  1  2  1  0  0  0  0
  1  3  1  0  0  0  0
  1  4  1  0  0  0  0
  1  5  1  0  0  0  0
  5  6  1  0  0  0  0
  5  7  1  0  0  0  0
  5  8  1  0  0  0  0
  8  9  1  0  0  0  0
  8 10  1  0  0  0  0
  8 11  1  0  0  0  0
 11 12  1  0  0  0  0
 11 13  1  0  0  0  0
 11 14  1  0  0  0  0
 14 15  1  0  0  0  0
 14 16  1  0  0  0  0
 14 17  1  0  0  0  0
 17 18  1  0  0  0  0
 17 19  1  0  0  0  0
 17 20  1  0  0  0  0
 20 21  1  0  0  0  0
 20 22  1  0  0  0  0
 20 23  1  0  0  0  0
 23 24  1  0  0  0  0
 23 25  1  0  0  0  0
 23 26  1  0  0  0  0
M  END
> <VConfSearch Rank>
351

> <Conf_Id>
105

> <Delta U+W>
0.736

> <U+W>
-4.817

> <U>
48.735

> <W>
-53.552

> <W(PB)>
-55.889

> <W(SA)>
2.337

> <Valence>
2.803

> <Coulomb>
45.123

> <VdW>
0.809

> <VdW6>
-6.953

> <VdW12>
7.761

> <Bond>
0.188

> <Angle>
0.699

> <Pdih>
1.917

> <Idih>
0.000

> <Tether>
0.000

$$$$
VeraChem MOL file


 26 25  0  0  0  0  0  0  0  0999 V2000     
   18.7428   22.2942   22.1867 C   0  0  0  0  0  0  0  0  0  0  0  0
   17.6669   22.4995   22.1130 H   0  0  0  0  0  0  0  0  0  0  0  0
   19.1004   22.6845   23.1484 H   0  0  0  0  0  0  0  0  0  0  0  0
   19.2476   22.8526   21.3876 H   0  0  0  0  0  0  0  0  0  0  0  0
   19.0298   20.7830   22.0605 C   0  0  0  0  0  0  0  0  0  0  0  0
   20.1155   20.6224   22.0986 H   0  0  0  0  0  0  0  0  0  0  0  0
   18.6887   20.4276   21.0782 H   0  0  0  0  0  0  0  0  0  0  0  0
   18.3319   19.9746   23.1794 C   0  0  0  0  0  0  0  0  0  0  0  0
   18.7026   20.3005   24.1601 H   0  0  0  0  0  0  0  0  0  0  0  0
   17.2585   20.2092   23.1716 H   0  0  0  0  0  0  0  0  0  0  0  0
   18.4951   18.4394   23.0319 C   0  0  0  0  0  0  0  0  0  0  0  0
   18.0029   18.1183   22.1035 H   0  0  0  0  0  0  0  0  0  0  0  0
   17.9472   17.9470   23.8471 H   0  0  0  0  0  0  0  0  0  0  0  0
   19.9566   17.9206   23.0240 C   0  0  0  0  0  0  0  0  0  0  0  0
   19.9277   16.8302   22.8989 H   0  0  0  0  0  0  0  0  0  0  0  0
   20.4888   18.3102   22.1461 H   0  0  0  0  0  0  0  0  0  0  0  0
   20.7448   18.2697   24.3112 C   0  0  0  0  0  0  0  0  0  0  0  0
   20.2073   17.8994   25.1942 H   0  0  0  0  0  0  0  0  0  0  0  0
   20.8147   19.3593   24.4189 H   0  0  0  0  0  0  0  0  0  0  0  0
   22.1768   17.7007   24.3039 C   0  0  0  0  0  0  0  0  0  0  0  0
   22.7083   18.0525   23.4156 H   0  0  0  0  0  0  0  0  0  0  0  0
   22.7134   18.0596   25.1865 H   0  0  0  0  0  0  0  0  0  0  0  0
   22.2336   16.1856   24.3180 N   0  3  0  0  0  0  0  0  0  0  0  0
   21.7790   15.7806   23.4939 H   0  0  0  0  0  0  0  0  0  0  0  0
   21.7682   15.7950   25.1437 H   0  0  0  0  0  0  0  0  0  0  0  0
   23.1997   15.8410   24.3276 H   0  0  0  0  0  0  0  0  0  0  0  0
  1  2  1  0  0  0  0
  1  3  1  0  0  0  0
  1  4  1  0  0  0  0
  1  5  1  0  0  0  0
  5  6  1  0  0  0  0
  5  7  1  0  0  0  0
  5  8  1  0  0  0  0
  8  9  1  0  0  0  0
  8 10  1  0  0  0  0
  8 11  1  0  0  0  0
 11 12  1  0  0  0  0
 11 13  1  0  0  0  0
 11 14  1  0  0  0  0
 14 15  1  0  0  0  0
 14 16  1  0  0  0  0
 14 17  1  0  0  0  0
 17 18  1  0  0  0  0
 17 19  1  0  0  0  0
 17 20  1  0  0  0  0
 20 21  1  0  0  0  0
 20 22  1  0  0  0  0
 20 23  1  0  0  0  0
 23 24  1  0  0  0  0
 23 25  1  0  0  0  0
 23 26  1  0  0  0  0
M  END
> <VConfSearch Rank>
352

> <Conf_Id>
144

> <Delta U+W>
1.073

> <U+W>
-4.479

> <U>
49.231

> <W>
-53.710

> <W(PB)>
-55.983

> <W(SA)>
2.273

> <Valence>
3.276

> <Coulomb>
45.175

> <VdW>
0.779

> <VdW6>
-7.944

> <VdW12>
8.723

> <Bond>
0.239

> <Angle>
1.155

> <Pdih>
1.883

> <Idih>
0.000

> <Tether>
0.000

$$$$
VeraChem MOL file


 26 25  0  0  0  0  0  0  0  0999 V2000     
   20.3583   18.6410   26.9214 C   0  0  0  0  0  0  0  0  0  0  0  0
   21.3566   18.2193   26.7530 H   0  0  0  0  0  0  0  0  0  0  0  0
   20.3580   19.0956   27.9205 H   0  0  0  0  0  0  0  0  0  0  0  0
   19.6330   17.8171   26.9280 H   0  0  0  0  0  0  0  0  0  0  0  0
   19.9943   19.6936   25.8493 C   0  0  0  0  0  0  0  0  0  0  0  0
   20.7519   20.4896   25.8381 H   0  0  0  0  0  0  0  0  0  0  0  0
   19.0486   20.1741   26.1367 H   0  0  0  0  0  0  0  0  0  0  0  0
   19.8349   19.1004   24.4283 C   0  0  0  0  0  0  0  0  0  0  0  0
   19.0920   18.2913   24.4490 H   0  0  0  0  0  0  0  0  0  0  0  0
   19.4286   19.8886   23.7822 H   0  0  0  0  0  0  0  0  0  0  0  0
   21.1633   18.5830   23.8224 C   0  0  0  0  0  0  0  0  0  0  0  0
   21.6278   17.8684   24.5135 H   0  0  0  0  0  0  0  0  0  0  0  0
   21.8696   19.4191   23.7276 H   0  0  0  0  0  0  0  0  0  0  0  0
   21.0125   17.8778   22.4492 C   0  0  0  0  0  0  0  0  0  0  0  0
   22.0085   17.5249   22.1478 H   0  0  0  0  0  0  0  0  0  0  0  0
   20.3970   16.9736   22.5552 H   0  0  0  0  0  0  0  0  0  0  0  0
   20.4534   18.7701   21.3124 C   0  0  0  0  0  0  0  0  0  0  0  0
   20.8495   18.4060   20.3551 H   0  0  0  0  0  0  0  0  0  0  0  0
   20.8169   19.8000   21.4267 H   0  0  0  0  0  0  0  0  0  0  0  0
   18.9144   18.7493   21.2311 C   0  0  0  0  0  0  0  0  0  0  0  0
   18.5710   17.7249   21.0637 H   0  0  0  0  0  0  0  0  0  0  0  0
   18.4799   19.1048   22.1672 H   0  0  0  0  0  0  0  0  0  0  0  0
   18.3697   19.6117   20.1109 N   0  3  0  0  0  0  0  0  0  0  0  0
   18.7139   19.3087   19.1939 H   0  0  0  0  0  0  0  0  0  0  0  0
   18.6348   20.5957   20.2225 H   0  0  0  0  0  0  0  0  0  0  0  0
   17.3451   19.5809   20.0699 H   0  0  0  0  0  0  0  0  0  0  0  0
  1  2  1  0  0  0  0
  1  3  1  0  0  0  0
  1  4  1  0  0  0  0
  1  5  1  0  0  0  0
  5  6  1  0  0  0  0
  5  7  1  0  0  0  0
  5  8  1  0  0  0  0
  8  9  1  0  0  0  0
  8 10  1  0  0  0  0
  8 11  1  0  0  0  0
 11 12  1  0  0  0  0
 11 13  1  0  0  0  0
 11 14  1  0  0  0  0
 14 15  1  0  0  0  0
 14 16  1  0  0  0  0
 14 17  1  0  0  0  0
 17 18  1  0  0  0  0
 17 19  1  0  0  0  0
 17 20  1  0  0  0  0
 20 21  1  0  0  0  0
 20 22  1  0  0  0  0
 20 23  1  0  0  0  0
 23 24  1  0  0  0  0
 23 25  1  0  0  0  0
 23 26  1  0  0  0  0
M  END
> <VConfSearch Rank>
353

> <Conf_Id>
93

> <Delta U+W>
3.253

> <U+W>
-2.300

> <U>
51.609

> <W>
-53.909

> <W(PB)>
-56.178

> <W(SA)>
2.270

> <Valence>
5.204

> <Coulomb>
45.645

> <VdW>
0.760

> <VdW6>
-7.997

> <VdW12>
8.758

> <Bond>
0.240

> <Angle>
1.456

> <Pdih>
3.507

> <Idih>
0.000

> <Tether>
0.000

$$$$
VeraChem MOL file


 26 25  0  0  0  0  0  0  0  0999 V2000     
   16.8117   18.3138   24.8757 C   0  0  0  0  0  0  0  0  0  0  0  0
   16.7170   19.3928   25.0480 H   0  0  0  0  0  0  0  0  0  0  0  0
   16.3894   18.0842   23.8888 H   0  0  0  0  0  0  0  0  0  0  0  0
   16.1967   17.8056   25.6297 H   0  0  0  0  0  0  0  0  0  0  0  0
   18.2818   17.8462   24.9737 C   0  0  0  0  0  0  0  0  0  0  0  0
   18.3047   16.7486   24.9235 H   0  0  0  0  0  0  0  0  0  0  0  0
   18.6929   18.1170   25.9563 H   0  0  0  0  0  0  0  0  0  0  0  0
   19.1872   18.4109   23.8521 C   0  0  0  0  0  0  0  0  0  0  0  0
   20.1568   17.9020   23.9192 H   0  0  0  0  0  0  0  0  0  0  0  0
   18.7608   18.1557   22.8723 H   0  0  0  0  0  0  0  0  0  0  0  0
   19.4098   19.9407   23.9495 C   0  0  0  0  0  0  0  0  0  0  0  0
   19.9144   20.1750   24.8969 H   0  0  0  0  0  0  0  0  0  0  0  0
   18.4391   20.4509   23.9868 H   0  0  0  0  0  0  0  0  0  0  0  0
   20.2154   20.5498   22.7724 C   0  0  0  0  0  0  0  0  0  0  0  0
   19.6641   20.4194   21.8307 H   0  0  0  0  0  0  0  0  0  0  0  0
   20.2703   21.6350   22.9360 H   0  0  0  0  0  0  0  0  0  0  0  0
   21.6607   20.0121   22.6200 C   0  0  0  0  0  0  0  0  0  0  0  0
   22.0944   19.8083   23.6081 H   0  0  0  0  0  0  0  0  0  0  0  0
   22.2798   20.7972   22.1658 H   0  0  0  0  0  0  0  0  0  0  0  0
   21.7469   18.7593   21.7264 C   0  0  0  0  0  0  0  0  0  0  0  0
   21.1420   17.9525   22.1444 H   0  0  0  0  0  0  0  0  0  0  0  0
   21.3610   18.9934   20.7306 H   0  0  0  0  0  0  0  0  0  0  0  0
   23.1621   18.2425   21.5675 N   0  3  0  0  0  0  0  0  0  0  0  0
   23.7797   18.9440   21.1459 H   0  0  0  0  0  0  0  0  0  0  0  0
   23.1995   17.4123   20.9660 H   0  0  0  0  0  0  0  0  0  0  0  0
   23.5759   17.9782   22.4675 H   0  0  0  0  0  0  0  0  0  0  0  0
  1  2  1  0  0  0  0
  1  3  1  0  0  0  0
  1  4  1  0  0  0  0
  1  5  1  0  0  0  0
  5  6  1  0  0  0  0
  5  7  1  0  0  0  0
  5  8  1  0  0  0  0
  8  9  1  0  0  0  0
  8 10  1  0  0  0  0
  8 11  1  0  0  0  0
 11 12  1  0  0  0  0
 11 13  1  0  0  0  0
 11 14  1  0  0  0  0
 14 15  1  0  0  0  0
 14 16  1  0  0  0  0
 14 17  1  0  0  0  0
 17 18  1  0  0  0  0
 17 19  1  0  0  0  0
 17 20  1  0  0  0  0
 20 21  1  0  0  0  0
 20 22  1  0  0  0  0
 20 23  1  0  0  0  0
 23 24  1  0  0  0  0
 23 25  1  0  0  0  0
 23 26  1  0  0  0  0
M  END
> <VConfSearch Rank>
354

> <Conf_Id>
94

> <Delta U+W>
3.247

> <U+W>
-2.305

> <U>
51.609

> <W>
-53.914

> <W(PB)>
-56.221

> <W(SA)>
2.307

> <Valence>
5.204

> <Coulomb>
45.645

> <VdW>
0.760

> <VdW6>
-7.997

> <VdW12>
8.757

> <Bond>
0.240

> <Angle>
1.456

> <Pdih>
3.508

> <Idih>
0.000

> <Tether>
0.000

$$$$
VeraChem MOL file


 26 25  0  0  0  0  0  0  0  0999 V2000     
   16.4331   17.1050   23.5387 C   0  0  0  0  0  0  0  0  0  0  0  0
   16.2279   17.1127   24.6171 H   0  0  0  0  0  0  0  0  0  0  0  0
   15.9157   17.9609   23.0860 H   0  0  0  0  0  0  0  0  0  0  0  0
   15.9983   16.1883   23.1195 H   0  0  0  0  0  0  0  0  0  0  0  0
   17.9504   17.1643   23.2623 C   0  0  0  0  0  0  0  0  0  0  0  0
   18.1253   17.1207   22.1781 H   0  0  0  0  0  0  0  0  0  0  0  0
   18.4351   16.2791   23.6975 H   0  0  0  0  0  0  0  0  0  0  0  0
   18.5879   18.4462   23.8425 C   0  0  0  0  0  0  0  0  0  0  0  0
   18.0988   19.3281   23.4062 H   0  0  0  0  0  0  0  0  0  0  0  0
   18.4078   18.4863   24.9257 H   0  0  0  0  0  0  0  0  0  0  0  0
   20.1074   18.5089   23.5681 C   0  0  0  0  0  0  0  0  0  0  0  0
   20.2799   18.4606   22.4847 H   0  0  0  0  0  0  0  0  0  0  0  0
   20.5955   17.6282   24.0080 H   0  0  0  0  0  0  0  0  0  0  0  0
   20.7429   19.7950   24.1486 C   0  0  0  0  0  0  0  0  0  0  0  0
   20.2754   20.6785   23.6938 H   0  0  0  0  0  0  0  0  0  0  0  0
   20.5216   19.8523   25.2233 H   0  0  0  0  0  0  0  0  0  0  0  0
   22.2795   19.8550   23.9588 C   0  0  0  0  0  0  0  0  0  0  0  0
   22.7430   19.0144   24.4921 H   0  0  0  0  0  0  0  0  0  0  0  0
   22.6679   20.7677   24.4299 H   0  0  0  0  0  0  0  0  0  0  0  0
   22.7327   19.8160   22.4852 C   0  0  0  0  0  0  0  0  0  0  0  0
   23.8250   19.8354   22.4409 H   0  0  0  0  0  0  0  0  0  0  0  0
   22.3910   18.8892   22.0173 H   0  0  0  0  0  0  0  0  0  0  0  0
   22.2168   20.9777   21.6592 N   0  3  0  0  0  0  0  0  0  0  0  0
   22.5296   21.8792   22.0339 H   0  0  0  0  0  0  0  0  0  0  0  0
   21.1926   20.9980   21.6351 H   0  0  0  0  0  0  0  0  0  0  0  0
   22.5408   20.9280   20.6873 H   0  0  0  0  0  0  0  0  0  0  0  0
  1  2  1  0  0  0  0
  1  3  1  0  0  0  0
  1  4  1  0  0  0  0
  1  5  1  0  0  0  0
  5  6  1  0  0  0  0
  5  7  1  0  0  0  0
  5  8  1  0  0  0  0
  8  9  1  0  0  0  0
  8 10  1  0  0  0  0
  8 11  1  0  0  0  0
 11 12  1  0  0  0  0
 11 13  1  0  0  0  0
 11 14  1  0  0  0  0
 14 15  1  0  0  0  0
 14 16  1  0  0  0  0
 14 17  1  0  0  0  0
 17 18  1  0  0  0  0
 17 19  1  0  0  0  0
 17 20  1  0  0  0  0
 20 21  1  0  0  0  0
 20 22  1  0  0  0  0
 20 23  1  0  0  0  0
 23 24  1  0  0  0  0
 23 25  1  0  0  0  0
 23 26  1  0  0  0  0
M  END
> <VConfSearch Rank>
355

> <Conf_Id>
83

> <Delta U+W>
0.559

> <U+W>
-4.994

> <U>
48.668

> <W>
-53.661

> <W(PB)>
-55.972

> <W(SA)>
2.311

> <Valence>
2.543

> <Coulomb>
45.478

> <VdW>
0.646

> <VdW6>
-7.096

> <VdW12>
7.742

> <Bond>
0.176

> <Angle>
0.630

> <Pdih>
1.738

> <Idih>
0.000

> <Tether>
0.000

$$$$
VeraChem MOL file


 26 25  0  0  0  0  0  0  0  0999 V2000     
   16.7270   17.7279   21.6303 C   0  0  0  0  0  0  0  0  0  0  0  0
   15.7812   18.0396   22.0926 H   0  0  0  0  0  0  0  0  0  0  0  0
   16.8394   18.2703   20.6824 H   0  0  0  0  0  0  0  0  0  0  0  0
   16.6520   16.6574   21.3993 H   0  0  0  0  0  0  0  0  0  0  0  0
   17.9208   18.0004   22.5698 C   0  0  0  0  0  0  0  0  0  0  0  0
   18.8401   17.6386   22.0907 H   0  0  0  0  0  0  0  0  0  0  0  0
   17.7947   17.4223   23.4959 H   0  0  0  0  0  0  0  0  0  0  0  0
   18.0494   19.5049   22.9063 C   0  0  0  0  0  0  0  0  0  0  0  0
   18.2298   20.0765   21.9854 H   0  0  0  0  0  0  0  0  0  0  0  0
   17.0917   19.8633   23.3083 H   0  0  0  0  0  0  0  0  0  0  0  0
   19.1613   19.8176   23.9378 C   0  0  0  0  0  0  0  0  0  0  0  0
   18.9722   19.2568   24.8636 H   0  0  0  0  0  0  0  0  0  0  0  0
   19.0980   20.8819   24.2038 H   0  0  0  0  0  0  0  0  0  0  0  0
   20.5882   19.5106   23.4229 C   0  0  0  0  0  0  0  0  0  0  0  0
   20.6853   18.4365   23.2218 H   0  0  0  0  0  0  0  0  0  0  0  0
   20.7545   20.0320   22.4700 H   0  0  0  0  0  0  0  0  0  0  0  0
   21.6691   19.9434   24.4417 C   0  0  0  0  0  0  0  0  0  0  0  0
   21.5287   19.4074   25.3898 H   0  0  0  0  0  0  0  0  0  0  0  0
   21.5514   21.0120   24.6655 H   0  0  0  0  0  0  0  0  0  0  0  0
   23.1021   19.7096   23.9256 C   0  0  0  0  0  0  0  0  0  0  0  0
   23.2423   20.2355   22.9774 H   0  0  0  0  0  0  0  0  0  0  0  0
   23.8176   20.1123   24.6478 H   0  0  0  0  0  0  0  0  0  0  0  0
   23.4425   18.2482   23.7081 N   0  3  0  0  0  0  0  0  0  0  0  0
   22.8303   17.8155   23.0097 H   0  0  0  0  0  0  0  0  0  0  0  0
   23.3506   17.7034   24.5717 H   0  0  0  0  0  0  0  0  0  0  0  0
   24.4064   18.1270   23.3787 H   0  0  0  0  0  0  0  0  0  0  0  0
  1  2  1  0  0  0  0
  1  3  1  0  0  0  0
  1  4  1  0  0  0  0
  1  5  1  0  0  0  0
  5  6  1  0  0  0  0
  5  7  1  0  0  0  0
  5  8  1  0  0  0  0
  8  9  1  0  0  0  0
  8 10  1  0  0  0  0
  8 11  1  0  0  0  0
 11 12  1  0  0  0  0
 11 13  1  0  0  0  0
 11 14  1  0  0  0  0
 14 15  1  0  0  0  0
 14 16  1  0  0  0  0
 14 17  1  0  0  0  0
 17 18  1  0  0  0  0
 17 19  1  0  0  0  0
 17 20  1  0  0  0  0
 20 21  1  0  0  0  0
 20 22  1  0  0  0  0
 20 23  1  0  0  0  0
 23 24  1  0  0  0  0
 23 25  1  0  0  0  0
 23 26  1  0  0  0  0
M  END
> <VConfSearch Rank>
356

> <Conf_Id>
18

> <Delta U+W>
0.759

> <U+W>
-4.793

> <U>
48.945

> <W>
-53.738

> <W(PB)>
-56.051

> <W(SA)>
2.313

> <Valence>
2.802

> <Coulomb>
45.335

> <VdW>
0.807

> <VdW6>
-6.962

> <VdW12>
7.769

> <Bond>
0.189

> <Angle>
0.696

> <Pdih>
1.917

> <Idih>
0.000

> <Tether>
0.000

$$$$
VeraChem MOL file


 26 25  0  0  0  0  0  0  0  0999 V2000     
   21.8013   16.9636   26.1521 C   0  0  0  0  0  0  0  0  0  0  0  0
   21.6824   17.7413   26.9177 H   0  0  0  0  0  0  0  0  0  0  0  0
   21.3488   16.0381   26.5315 H   0  0  0  0  0  0  0  0  0  0  0  0
   22.8758   16.7830   26.0190 H   0  0  0  0  0  0  0  0  0  0  0  0
   21.1518   17.3937   24.8196 C   0  0  0  0  0  0  0  0  0  0  0  0
   21.3123   16.6095   24.0665 H   0  0  0  0  0  0  0  0  0  0  0  0
   21.6576   18.2965   24.4527 H   0  0  0  0  0  0  0  0  0  0  0  0
   19.6365   17.6585   24.9835 C   0  0  0  0  0  0  0  0  0  0  0  0
   19.1655   16.7707   25.4278 H   0  0  0  0  0  0  0  0  0  0  0  0
   19.4788   18.4798   25.6962 H   0  0  0  0  0  0  0  0  0  0  0  0
   18.9149   17.9809   23.6518 C   0  0  0  0  0  0  0  0  0  0  0  0
   17.8347   18.0331   23.8466 H   0  0  0  0  0  0  0  0  0  0  0  0
   19.0608   17.1526   22.9447 H   0  0  0  0  0  0  0  0  0  0  0  0
   19.3751   19.3089   23.0035 C   0  0  0  0  0  0  0  0  0  0  0  0
   19.2765   20.1260   23.7315 H   0  0  0  0  0  0  0  0  0  0  0  0
   20.4375   19.2419   22.7385 H   0  0  0  0  0  0  0  0  0  0  0  0
   18.5492   19.6441   21.7389 C   0  0  0  0  0  0  0  0  0  0  0  0
   17.4830   19.6804   21.9994 H   0  0  0  0  0  0  0  0  0  0  0  0
   18.6624   18.8461   20.9930 H   0  0  0  0  0  0  0  0  0  0  0  0
   18.9426   20.9952   21.1110 C   0  0  0  0  0  0  0  0  0  0  0  0
   18.2703   21.2170   20.2777 H   0  0  0  0  0  0  0  0  0  0  0  0
   18.8386   21.7906   21.8539 H   0  0  0  0  0  0  0  0  0  0  0  0
   20.3617   21.0313   20.5783 N   0  3  0  0  0  0  0  0  0  0  0  0
   20.5161   20.3185   19.8578 H   0  0  0  0  0  0  0  0  0  0  0  0
   21.0500   20.8677   21.3195 H   0  0  0  0  0  0  0  0  0  0  0  0
   20.5862   21.9384   20.1551 H   0  0  0  0  0  0  0  0  0  0  0  0
  1  2  1  0  0  0  0
  1  3  1  0  0  0  0
  1  4  1  0  0  0  0
  1  5  1  0  0  0  0
  5  6  1  0  0  0  0
  5  7  1  0  0  0  0
  5  8  1  0  0  0  0
  8  9  1  0  0  0  0
  8 10  1  0  0  0  0
  8 11  1  0  0  0  0
 11 12  1  0  0  0  0
 11 13  1  0  0  0  0
 11 14  1  0  0  0  0
 14 15  1  0  0  0  0
 14 16  1  0  0  0  0
 14 17  1  0  0  0  0
 17 18  1  0  0  0  0
 17 19  1  0  0  0  0
 17 20  1  0  0  0  0
 20 21  1  0  0  0  0
 20 22  1  0  0  0  0
 20 23  1  0  0  0  0
 23 24  1  0  0  0  0
 23 25  1  0  0  0  0
 23 26  1  0  0  0  0
M  END
> <VConfSearch Rank>
357

> <Conf_Id>
17

> <Delta U+W>
0.843

> <U+W>
-4.709

> <U>
48.945

> <W>
-53.653

> <W(PB)>
-55.991

> <W(SA)>
2.338

> <Valence>
2.802

> <Coulomb>
45.335

> <VdW>
0.807

> <VdW6>
-6.962

> <VdW12>
7.769

> <Bond>
0.189

> <Angle>
0.696

> <Pdih>
1.917

> <Idih>
0.000

> <Tether>
0.000

$$$$
VeraChem MOL file


 26 25  0  0  0  0  0  0  0  0999 V2000     
   17.7700   16.4321   24.4588 C   0  0  0  0  0  0  0  0  0  0  0  0
   18.8130   16.4931   24.7934 H   0  0  0  0  0  0  0  0  0  0  0  0
   17.1756   17.1384   25.0530 H   0  0  0  0  0  0  0  0  0  0  0  0
   17.4107   15.4194   24.6832 H   0  0  0  0  0  0  0  0  0  0  0  0
   17.6396   16.7296   22.9478 C   0  0  0  0  0  0  0  0  0  0  0  0
   16.6035   16.5353   22.6371 H   0  0  0  0  0  0  0  0  0  0  0  0
   18.2675   16.0304   22.3779 H   0  0  0  0  0  0  0  0  0  0  0  0
   18.0052   18.1862   22.5730 C   0  0  0  0  0  0  0  0  0  0  0  0
   17.7777   18.3394   21.5090 H   0  0  0  0  0  0  0  0  0  0  0  0
   17.3611   18.8808   23.1298 H   0  0  0  0  0  0  0  0  0  0  0  0
   19.4914   18.5344   22.8279 C   0  0  0  0  0  0  0  0  0  0  0  0
   20.1316   17.8078   22.3091 H   0  0  0  0  0  0  0  0  0  0  0  0
   19.7105   18.4466   23.8993 H   0  0  0  0  0  0  0  0  0  0  0  0
   19.8351   19.9638   22.3440 C   0  0  0  0  0  0  0  0  0  0  0  0
   19.5738   20.0584   21.2809 H   0  0  0  0  0  0  0  0  0  0  0  0
   19.2170   20.6959   22.8822 H   0  0  0  0  0  0  0  0  0  0  0  0
   21.3296   20.3218   22.5201 C   0  0  0  0  0  0  0  0  0  0  0  0
   21.5143   21.3087   22.0752 H   0  0  0  0  0  0  0  0  0  0  0  0
   21.9488   19.6053   21.9639 H   0  0  0  0  0  0  0  0  0  0  0  0
   21.7662   20.3463   23.9970 C   0  0  0  0  0  0  0  0  0  0  0  0
   21.1503   21.0600   24.5508 H   0  0  0  0  0  0  0  0  0  0  0  0
   21.6296   19.3566   24.4402 H   0  0  0  0  0  0  0  0  0  0  0  0
   23.2176   20.7406   24.1796 N   0  3  0  0  0  0  0  0  0  0  0  0
   23.4881   20.7511   25.1691 H   0  0  0  0  0  0  0  0  0  0  0  0
   23.4087   21.6770   23.8082 H   0  0  0  0  0  0  0  0  0  0  0  0
   23.8527   20.0917   23.7033 H   0  0  0  0  0  0  0  0  0  0  0  0
  1  2  1  0  0  0  0
  1  3  1  0  0  0  0
  1  4  1  0  0  0  0
  1  5  1  0  0  0  0
  5  6  1  0  0  0  0
  5  7  1  0  0  0  0
  5  8  1  0  0  0  0
  8  9  1  0  0  0  0
  8 10  1  0  0  0  0
  8 11  1  0  0  0  0
 11 12  1  0  0  0  0
 11 13  1  0  0  0  0
 11 14  1  0  0  0  0
 14 15  1  0  0  0  0
 14 16  1  0  0  0  0
 14 17  1  0  0  0  0
 17 18  1  0  0  0  0
 17 19  1  0  0  0  0
 17 20  1  0  0  0  0
 20 21  1  0  0  0  0
 20 22  1  0  0  0  0
 20 23  1  0  0  0  0
 23 24  1  0  0  0  0
 23 25  1  0  0  0  0
 23 26  1  0  0  0  0
M  END
> <VConfSearch Rank>
358

> <Conf_Id>
96

> <Delta U+W>
0.912

> <U+W>
-4.640

> <U>
48.723

> <W>
-53.364

> <W(PB)>
-55.683

> <W(SA)>
2.320

> <Valence>
2.962

> <Coulomb>
44.993

> <VdW>
0.768

> <VdW6>
-7.008

> <VdW12>
7.776

> <Bond>
0.188

> <Angle>
0.757

> <Pdih>
2.018

> <Idih>
0.000

> <Tether>
0.000

$$$$
VeraChem MOL file


 26 25  0  0  0  0  0  0  0  0999 V2000     
   17.3475   18.3388   25.3380 C   0  0  0  0  0  0  0  0  0  0  0  0
   16.7241   18.3626   26.2411 H   0  0  0  0  0  0  0  0  0  0  0  0
   16.9847   17.5214   24.7013 H   0  0  0  0  0  0  0  0  0  0  0  0
   18.3720   18.1027   25.6512 H   0  0  0  0  0  0  0  0  0  0  0  0
   17.2776   19.6934   24.5971 C   0  0  0  0  0  0  0  0  0  0  0  0
   17.6749   20.4889   25.2430 H   0  0  0  0  0  0  0  0  0  0  0  0
   16.2229   19.9433   24.4154 H   0  0  0  0  0  0  0  0  0  0  0  0
   18.0281   19.6944   23.2434 C   0  0  0  0  0  0  0  0  0  0  0  0
   17.6139   18.9110   22.5937 H   0  0  0  0  0  0  0  0  0  0  0  0
   17.8329   20.6503   22.7379 H   0  0  0  0  0  0  0  0  0  0  0  0
   19.5569   19.5002   23.3854 C   0  0  0  0  0  0  0  0  0  0  0  0
   19.7625   18.5188   23.8307 H   0  0  0  0  0  0  0  0  0  0  0  0
   19.9593   20.2556   24.0744 H   0  0  0  0  0  0  0  0  0  0  0  0
   20.2769   19.6109   22.0198 C   0  0  0  0  0  0  0  0  0  0  0  0
   19.8977   18.8377   21.3372 H   0  0  0  0  0  0  0  0  0  0  0  0
   20.0328   20.5784   21.5596 H   0  0  0  0  0  0  0  0  0  0  0  0
   21.8149   19.4904   22.1324 C   0  0  0  0  0  0  0  0  0  0  0  0
   22.1992   20.2768   22.7957 H   0  0  0  0  0  0  0  0  0  0  0  0
   22.2594   19.6678   21.1440 H   0  0  0  0  0  0  0  0  0  0  0  0
   22.2681   18.1113   22.6474 C   0  0  0  0  0  0  0  0  0  0  0  0
   21.8689   17.9409   23.6505 H   0  0  0  0  0  0  0  0  0  0  0  0
   21.8861   17.3283   21.9868 H   0  0  0  0  0  0  0  0  0  0  0  0
   23.7750   17.9706   22.7171 N   0  3  0  0  0  0  0  0  0  0  0  0
   24.1949   18.6636   23.3452 H   0  0  0  0  0  0  0  0  0  0  0  0
   24.2130   18.0919   21.7980 H   0  0  0  0  0  0  0  0  0  0  0  0
   24.0559   17.0461   23.0617 H   0  0  0  0  0  0  0  0  0  0  0  0
  1  2  1  0  0  0  0
  1  3  1  0  0  0  0
  1  4  1  0  0  0  0
  1  5  1  0  0  0  0
  5  6  1  0  0  0  0
  5  7  1  0  0  0  0
  5  8  1  0  0  0  0
  8  9  1  0  0  0  0
  8 10  1  0  0  0  0
  8 11  1  0  0  0  0
 11 12  1  0  0  0  0
 11 13  1  0  0  0  0
 11 14  1  0  0  0  0
 14 15  1  0  0  0  0
 14 16  1  0  0  0  0
 14 17  1  0  0  0  0
 17 18  1  0  0  0  0
 17 19  1  0  0  0  0
 17 20  1  0  0  0  0
 20 21  1  0  0  0  0
 20 22  1  0  0  0  0
 20 23  1  0  0  0  0
 23 24  1  0  0  0  0
 23 25  1  0  0  0  0
 23 26  1  0  0  0  0
M  END
> <VConfSearch Rank>
359

> <Conf_Id>
133

> <Delta U+W>
0.844

> <U+W>
-4.708

> <U>
48.723

> <W>
-53.431

> <W(PB)>
-55.776

> <W(SA)>
2.344

> <Valence>
2.962

> <Coulomb>
44.993

> <VdW>
0.768

> <VdW6>
-7.008

> <VdW12>
7.776

> <Bond>
0.188

> <Angle>
0.756

> <Pdih>
2.018

> <Idih>
0.000

> <Tether>
0.000

$$$$
VeraChem MOL file


 26 25  0  0  0  0  0  0  0  0999 V2000     
   20.1427   22.2382   22.9210 C   0  0  0  0  0  0  0  0  0  0  0  0
   21.0083   22.7535   23.3570 H   0  0  0  0  0  0  0  0  0  0  0  0
   20.5118   21.4520   22.2506 H   0  0  0  0  0  0  0  0  0  0  0  0
   19.5931   22.9640   22.3078 H   0  0  0  0  0  0  0  0  0  0  0  0
   19.2282   21.6584   24.0236 C   0  0  0  0  0  0  0  0  0  0  0  0
   18.3815   21.1314   23.5638 H   0  0  0  0  0  0  0  0  0  0  0  0
   18.7902   22.4900   24.5930 H   0  0  0  0  0  0  0  0  0  0  0  0
   19.9704   20.7220   25.0110 C   0  0  0  0  0  0  0  0  0  0  0  0
   20.7317   21.3046   25.5478 H   0  0  0  0  0  0  0  0  0  0  0  0
   19.2597   20.3799   25.7759 H   0  0  0  0  0  0  0  0  0  0  0  0
   20.6522   19.4867   24.3680 C   0  0  0  0  0  0  0  0  0  0  0  0
   21.1556   18.9183   25.1623 H   0  0  0  0  0  0  0  0  0  0  0  0
   21.4449   19.8117   23.6813 H   0  0  0  0  0  0  0  0  0  0  0  0
   19.6668   18.5518   23.6265 C   0  0  0  0  0  0  0  0  0  0  0  0
   18.8510   18.2653   24.3047 H   0  0  0  0  0  0  0  0  0  0  0  0
   19.2089   19.0847   22.7826 H   0  0  0  0  0  0  0  0  0  0  0  0
   20.3685   17.2811   23.0987 C   0  0  0  0  0  0  0  0  0  0  0  0
   20.8213   16.7332   23.9358 H   0  0  0  0  0  0  0  0  0  0  0  0
   21.1839   17.5643   22.4197 H   0  0  0  0  0  0  0  0  0  0  0  0
   19.3827   16.3601   22.3585 C   0  0  0  0  0  0  0  0  0  0  0  0
   18.5774   16.0627   23.0357 H   0  0  0  0  0  0  0  0  0  0  0  0
   18.9416   16.8960   21.5137 H   0  0  0  0  0  0  0  0  0  0  0  0
   20.0339   15.1006   21.8246 N   0  3  0  0  0  0  0  0  0  0  0  0
   19.3601   14.5014   21.3353 H   0  0  0  0  0  0  0  0  0  0  0  0
   20.4456   14.5358   22.5747 H   0  0  0  0  0  0  0  0  0  0  0  0
   20.7844   15.3112   21.1586 H   0  0  0  0  0  0  0  0  0  0  0  0
  1  2  1  0  0  0  0
  1  3  1  0  0  0  0
  1  4  1  0  0  0  0
  1  5  1  0  0  0  0
  5  6  1  0  0  0  0
  5  7  1  0  0  0  0
  5  8  1  0  0  0  0
  8  9  1  0  0  0  0
  8 10  1  0  0  0  0
  8 11  1  0  0  0  0
 11 12  1  0  0  0  0
 11 13  1  0  0  0  0
 11 14  1  0  0  0  0
 14 15  1  0  0  0  0
 14 16  1  0  0  0  0
 14 17  1  0  0  0  0
 17 18  1  0  0  0  0
 17 19  1  0  0  0  0
 17 20  1  0  0  0  0
 20 21  1  0  0  0  0
 20 22  1  0  0  0  0
 20 23  1  0  0  0  0
 23 24  1  0  0  0  0
 23 25  1  0  0  0  0
 23 26  1  0  0  0  0
M  END
> <VConfSearch Rank>
360

> <Conf_Id>
106

> <Delta U+W>
0.767

> <U+W>
-4.785

> <U>
48.494

> <W>
-53.279

> <W(PB)>
-55.569

> <W(SA)>
2.290

> <Valence>
3.117

> <Coulomb>
44.693

> <VdW>
0.684

> <VdW6>
-7.347

> <VdW12>
8.030

> <Bond>
0.208

> <Angle>
1.039

> <Pdih>
1.870

> <Idih>
0.000

> <Tether>
0.000

$$$$
VeraChem MOL file


 26 25  0  0  0  0  0  0  0  0999 V2000     
   21.6845   15.3238   21.1936 C   0  0  0  0  0  0  0  0  0  0  0  0
   22.7239   15.6773   21.2014 H   0  0  0  0  0  0  0  0  0  0  0  0
   21.5492   14.6409   22.0425 H   0  0  0  0  0  0  0  0  0  0  0  0
   21.5310   14.7491   20.2710 H   0  0  0  0  0  0  0  0  0  0  0  0
   20.6957   16.5064   21.2699 C   0  0  0  0  0  0  0  0  0  0  0  0
   19.6662   16.1242   21.2260 H   0  0  0  0  0  0  0  0  0  0  0  0
   20.8318   17.1526   20.3913 H   0  0  0  0  0  0  0  0  0  0  0  0
   20.8907   17.3329   22.5604 C   0  0  0  0  0  0  0  0  0  0  0  0
   20.7562   16.6823   23.4357 H   0  0  0  0  0  0  0  0  0  0  0  0
   21.9217   17.7108   22.6009 H   0  0  0  0  0  0  0  0  0  0  0  0
   19.9022   18.5181   22.6405 C   0  0  0  0  0  0  0  0  0  0  0  0
   18.8715   18.1393   22.5997 H   0  0  0  0  0  0  0  0  0  0  0  0
   20.0371   19.1678   21.7646 H   0  0  0  0  0  0  0  0  0  0  0  0
   20.0979   19.3447   23.9316 C   0  0  0  0  0  0  0  0  0  0  0  0
   19.9631   18.6952   24.8079 H   0  0  0  0  0  0  0  0  0  0  0  0
   21.1285   19.7238   23.9727 H   0  0  0  0  0  0  0  0  0  0  0  0
   19.1101   20.5294   24.0124 C   0  0  0  0  0  0  0  0  0  0  0  0
   18.0786   20.1541   23.9771 H   0  0  0  0  0  0  0  0  0  0  0  0
   19.2452   21.1838   23.1409 H   0  0  0  0  0  0  0  0  0  0  0  0
   19.3138   21.3453   25.3012 C   0  0  0  0  0  0  0  0  0  0  0  0
   19.1639   20.7015   26.1721 H   0  0  0  0  0  0  0  0  0  0  0  0
   20.3349   21.7348   25.3329 H   0  0  0  0  0  0  0  0  0  0  0  0
   18.3620   22.5184   25.4176 N   0  3  0  0  0  0  0  0  0  0  0  0
   18.5145   23.0482   26.2828 H   0  0  0  0  0  0  0  0  0  0  0  0
   17.3821   22.2167   25.4214 H   0  0  0  0  0  0  0  0  0  0  0  0
   18.4717   23.1782   24.6405 H   0  0  0  0  0  0  0  0  0  0  0  0
  1  2  1  0  0  0  0
  1  3  1  0  0  0  0
  1  4  1  0  0  0  0
  1  5  1  0  0  0  0
  5  6  1  0  0  0  0
  5  7  1  0  0  0  0
  5  8  1  0  0  0  0
  8  9  1  0  0  0  0
  8 10  1  0  0  0  0
  8 11  1  0  0  0  0
 11 12  1  0  0  0  0
 11 13  1  0  0  0  0
 11 14  1  0  0  0  0
 14 15  1  0  0  0  0
 14 16  1  0  0  0  0
 14 17  1  0  0  0  0
 17 18  1  0  0  0  0
 17 19  1  0  0  0  0
 17 20  1  0  0  0  0
 20 21  1  0  0  0  0
 20 22  1  0  0  0  0
 20 23  1  0  0  0  0
 23 24  1  0  0  0  0
 23 25  1  0  0  0  0
 23 26  1  0  0  0  0
M  END
> <VConfSearch Rank>
361

> <Conf_Id>
25

> <Delta U+W>
0.000

> <U+W>
-5.552

> <U>
47.192

> <W>
-52.745

> <W(PB)>
-55.134

> <W(SA)>
2.389

> <Valence>
2.156

> <Coulomb>
44.449

> <VdW>
0.587

> <VdW6>
-5.761

> <VdW12>
6.348

> <Bond>
0.129

> <Angle>
0.393

> <Pdih>
1.634

> <Idih>
0.000

> <Tether>
0.000

$$$$
VeraChem MOL file


 26 25  0  0  0  0  0  0  0  0999 V2000     
   17.9526   21.2947   20.2672 C   0  0  0  0  0  0  0  0  0  0  0  0
   18.8367   21.4588   19.6374 H   0  0  0  0  0  0  0  0  0  0  0  0
   17.4300   20.4029   19.8972 H   0  0  0  0  0  0  0  0  0  0  0  0
   17.2830   22.1551   20.1390 H   0  0  0  0  0  0  0  0  0  0  0  0
   18.3502   21.1297   21.7494 C   0  0  0  0  0  0  0  0  0  0  0  0
   17.4439   21.0013   22.3578 H   0  0  0  0  0  0  0  0  0  0  0  0
   18.8397   22.0491   22.1000 H   0  0  0  0  0  0  0  0  0  0  0  0
   19.2935   19.9244   21.9580 C   0  0  0  0  0  0  0  0  0  0  0  0
   18.8008   19.0083   21.6039 H   0  0  0  0  0  0  0  0  0  0  0  0
   20.1968   20.0562   21.3463 H   0  0  0  0  0  0  0  0  0  0  0  0
   19.6938   19.7560   23.4412 C   0  0  0  0  0  0  0  0  0  0  0  0
   18.7901   19.6241   24.0522 H   0  0  0  0  0  0  0  0  0  0  0  0
   20.1854   20.6730   23.7944 H   0  0  0  0  0  0  0  0  0  0  0  0
   20.6380   18.5503   23.6495 C   0  0  0  0  0  0  0  0  0  0  0  0
   20.1438   17.6378   23.2903 H   0  0  0  0  0  0  0  0  0  0  0  0
   21.5431   18.6838   23.0406 H   0  0  0  0  0  0  0  0  0  0  0  0
   21.0368   18.3830   25.1348 C   0  0  0  0  0  0  0  0  0  0  0  0
   20.1414   18.2177   25.7488 H   0  0  0  0  0  0  0  0  0  0  0  0
   21.4963   19.3131   25.4950 H   0  0  0  0  0  0  0  0  0  0  0  0
   22.0333   17.2290   25.3575 C   0  0  0  0  0  0  0  0  0  0  0  0
   22.9235   17.3876   24.7428 H   0  0  0  0  0  0  0  0  0  0  0  0
   22.3417   17.2135   26.4064 H   0  0  0  0  0  0  0  0  0  0  0  0
   21.4687   15.8620   25.0242 N   0  3  0  0  0  0  0  0  0  0  0  0
   21.1919   15.7951   24.0399 H   0  0  0  0  0  0  0  0  0  0  0  0
   20.6403   15.6444   25.5877 H   0  0  0  0  0  0  0  0  0  0  0  0
   22.1517   15.1160   25.1953 H   0  0  0  0  0  0  0  0  0  0  0  0
  1  2  1  0  0  0  0
  1  3  1  0  0  0  0
  1  4  1  0  0  0  0
  1  5  1  0  0  0  0
  5  6  1  0  0  0  0
  5  7  1  0  0  0  0
  5  8  1  0  0  0  0
  8  9  1  0  0  0  0
  8 10  1  0  0  0  0
  8 11  1  0  0  0  0
 11 12  1  0  0  0  0
 11 13  1  0  0  0  0
 11 14  1  0  0  0  0
 14 15  1  0  0  0  0
 14 16  1  0  0  0  0
 14 17  1  0  0  0  0
 17 18  1  0  0  0  0
 17 19  1  0  0  0  0
 17 20  1  0  0  0  0
 20 21  1  0  0  0  0
 20 22  1  0  0  0  0
 20 23  1  0  0  0  0
 23 24  1  0  0  0  0
 23 25  1  0  0  0  0
 23 26  1  0  0  0  0
M  END
> <VConfSearch Rank>
362

> <Conf_Id>
20

> <Delta U+W>
0.150

> <U+W>
-5.403

> <U>
47.845

> <W>
-53.248

> <W(PB)>
-55.599

> <W(SA)>
2.351

> <Valence>
2.258

> <Coulomb>
44.893

> <VdW>
0.694

> <VdW6>
-6.285

> <VdW12>
6.979

> <Bond>
0.149

> <Angle>
0.434

> <Pdih>
1.675

> <Idih>
0.000

> <Tether>
0.000

$$$$
VeraChem MOL file


 26 25  0  0  0  0  0  0  0  0999 V2000     
   22.0444   15.4759   24.8129 C   0  0  0  0  0  0  0  0  0  0  0  0
   21.1178   15.0598   25.2293 H   0  0  0  0  0  0  0  0  0  0  0  0
   22.2151   15.0152   23.8311 H   0  0  0  0  0  0  0  0  0  0  0  0
   22.8718   15.1818   25.4716 H   0  0  0  0  0  0  0  0  0  0  0  0
   21.9597   17.0127   24.6974 C   0  0  0  0  0  0  0  0  0  0  0  0
   22.9118   17.4022   24.3105 H   0  0  0  0  0  0  0  0  0  0  0  0
   21.8228   17.4464   25.6979 H   0  0  0  0  0  0  0  0  0  0  0  0
   20.8021   17.4541   23.7747 C   0  0  0  0  0  0  0  0  0  0  0  0
   20.9421   17.0163   22.7766 H   0  0  0  0  0  0  0  0  0  0  0  0
   19.8530   17.0604   24.1641 H   0  0  0  0  0  0  0  0  0  0  0  0
   20.7140   18.9925   23.6565 C   0  0  0  0  0  0  0  0  0  0  0  0
   21.6641   19.3851   23.2682 H   0  0  0  0  0  0  0  0  0  0  0  0
   20.5738   19.4296   24.6550 H   0  0  0  0  0  0  0  0  0  0  0  0
   19.5563   19.4338   22.7327 C   0  0  0  0  0  0  0  0  0  0  0  0
   19.6983   18.9991   21.7335 H   0  0  0  0  0  0  0  0  0  0  0  0
   18.6104   19.0347   23.1227 H   0  0  0  0  0  0  0  0  0  0  0  0
   19.4694   20.9740   22.6166 C   0  0  0  0  0  0  0  0  0  0  0  0
   20.4315   21.3669   22.2616 H   0  0  0  0  0  0  0  0  0  0  0  0
   19.2960   21.4171   23.6064 H   0  0  0  0  0  0  0  0  0  0  0  0
   18.3660   21.4366   21.6456 C   0  0  0  0  0  0  0  0  0  0  0  0
   18.4080   22.5242   21.5406 H   0  0  0  0  0  0  0  0  0  0  0  0
   18.5324   20.9923   20.6606 H   0  0  0  0  0  0  0  0  0  0  0  0
   16.9647   21.0722   22.0955 N   0  3  0  0  0  0  0  0  0  0  0  0
   16.7395   21.4809   23.0084 H   0  0  0  0  0  0  0  0  0  0  0  0
   16.8445   20.0581   22.1793 H   0  0  0  0  0  0  0  0  0  0  0  0
   16.2541   21.4051   21.4348 H   0  0  0  0  0  0  0  0  0  0  0  0
  1  2  1  0  0  0  0
  1  3  1  0  0  0  0
  1  4  1  0  0  0  0
  1  5  1  0  0  0  0
  5  6  1  0  0  0  0
  5  7  1  0  0  0  0
  5  8  1  0  0  0  0
  8  9  1  0  0  0  0
  8 10  1  0  0  0  0
  8 11  1  0  0  0  0
 11 12  1  0  0  0  0
 11 13  1  0  0  0  0
 11 14  1  0  0  0  0
 14 15  1  0  0  0  0
 14 16  1  0  0  0  0
 14 17  1  0  0  0  0
 17 18  1  0  0  0  0
 17 19  1  0  0  0  0
 17 20  1  0  0  0  0
 20 21  1  0  0  0  0
 20 22  1  0  0  0  0
 20 23  1  0  0  0  0
 23 24  1  0  0  0  0
 23 25  1  0  0  0  0
 23 26  1  0  0  0  0
M  END
> <VConfSearch Rank>
363

> <Conf_Id>
19

> <Delta U+W>
0.162

> <U+W>
-5.391

> <U>
47.845

> <W>
-53.235

> <W(PB)>
-55.585

> <W(SA)>
2.349

> <Valence>
2.258

> <Coulomb>
44.893

> <VdW>
0.694

> <VdW6>
-6.285

> <VdW12>
6.979

> <Bond>
0.149

> <Angle>
0.434

> <Pdih>
1.675

> <Idih>
0.000

> <Tether>
0.000

$$$$
VeraChem MOL file


 26 25  0  0  0  0  0  0  0  0999 V2000     
   18.7771   22.6052   24.9617 C   0  0  0  0  0  0  0  0  0  0  0  0
   19.3249   23.4908   24.6140 H   0  0  0  0  0  0  0  0  0  0  0  0
   17.7816   22.6155   24.4992 H   0  0  0  0  0  0  0  0  0  0  0  0
   18.6452   22.6960   26.0477 H   0  0  0  0  0  0  0  0  0  0  0  0
   19.5378   21.3087   24.6116 C   0  0  0  0  0  0  0  0  0  0  0  0
   18.9807   20.4507   25.0106 H   0  0  0  0  0  0  0  0  0  0  0  0
   20.5164   21.3143   25.1117 H   0  0  0  0  0  0  0  0  0  0  0  0
   19.7322   21.1566   23.0844 C   0  0  0  0  0  0  0  0  0  0  0  0
   18.7526   21.0979   22.5902 H   0  0  0  0  0  0  0  0  0  0  0  0
   20.2196   22.0613   22.6953 H   0  0  0  0  0  0  0  0  0  0  0  0
   20.5886   19.9291   22.6872 C   0  0  0  0  0  0  0  0  0  0  0  0
   21.5735   19.9966   23.1696 H   0  0  0  0  0  0  0  0  0  0  0  0
   20.7722   19.9697   21.6046 H   0  0  0  0  0  0  0  0  0  0  0  0
   19.9273   18.5739   23.0357 C   0  0  0  0  0  0  0  0  0  0  0  0
   19.8059   18.4836   24.1231 H   0  0  0  0  0  0  0  0  0  0  0  0
   18.9206   18.5324   22.5971 H   0  0  0  0  0  0  0  0  0  0  0  0
   20.7616   17.3799   22.5217 C   0  0  0  0  0  0  0  0  0  0  0  0
   21.7684   17.4171   22.9588 H   0  0  0  0  0  0  0  0  0  0  0  0
   20.8801   17.4523   21.4323 H   0  0  0  0  0  0  0  0  0  0  0  0
   20.0995   16.0365   22.8754 C   0  0  0  0  0  0  0  0  0  0  0  0
   19.9945   15.9522   23.9605 H   0  0  0  0  0  0  0  0  0  0  0  0
   19.1028   15.9883   22.4285 H   0  0  0  0  0  0  0  0  0  0  0  0
   20.8891   14.8390   22.3876 N   0  3  0  0  0  0  0  0  0  0  0  0
   21.8301   14.8104   22.7938 H   0  0  0  0  0  0  0  0  0  0  0  0
   21.0004   14.8441   21.3684 H   0  0  0  0  0  0  0  0  0  0  0  0
   20.4309   13.9547   22.6334 H   0  0  0  0  0  0  0  0  0  0  0  0
  1  2  1  0  0  0  0
  1  3  1  0  0  0  0
  1  4  1  0  0  0  0
  1  5  1  0  0  0  0
  5  6  1  0  0  0  0
  5  7  1  0  0  0  0
  5  8  1  0  0  0  0
  8  9  1  0  0  0  0
  8 10  1  0  0  0  0
  8 11  1  0  0  0  0
 11 12  1  0  0  0  0
 11 13  1  0  0  0  0
 11 14  1  0  0  0  0
 14 15  1  0  0  0  0
 14 16  1  0  0  0  0
 14 17  1  0  0  0  0
 17 18  1  0  0  0  0
 17 19  1  0  0  0  0
 17 20  1  0  0  0  0
 20 21  1  0  0  0  0
 20 22  1  0  0  0  0
 20 23  1  0  0  0  0
 23 24  1  0  0  0  0
 23 25  1  0  0  0  0
 23 26  1  0  0  0  0
M  END
> <VConfSearch Rank>
364

> <Conf_Id>
37

> <Delta U+W>
0.565

> <U+W>
-4.988

> <U>
48.035

> <W>
-53.022

> <W(PB)>
-55.379

> <W(SA)>
2.357

> <Valence>
2.701

> <Coulomb>
44.622

> <VdW>
0.712

> <VdW6>
-6.418

> <VdW12>
7.129

> <Bond>
0.168

> <Angle>
0.659

> <Pdih>
1.875

> <Idih>
0.000

> <Tether>
0.000

$$$$
VeraChem MOL file


 26 25  0  0  0  0  0  0  0  0999 V2000     
   16.5038   16.7880   22.9465 C   0  0  0  0  0  0  0  0  0  0  0  0
   16.5068   17.2474   21.9494 H   0  0  0  0  0  0  0  0  0  0  0  0
   17.0015   15.8121   22.8749 H   0  0  0  0  0  0  0  0  0  0  0  0
   15.4588   16.6131   23.2337 H   0  0  0  0  0  0  0  0  0  0  0  0
   17.2078   17.6954   23.9777 C   0  0  0  0  0  0  0  0  0  0  0  0
   17.1578   17.2257   24.9700 H   0  0  0  0  0  0  0  0  0  0  0  0
   16.6686   18.6503   24.0513 H   0  0  0  0  0  0  0  0  0  0  0  0
   18.6820   17.9572   23.5974 C   0  0  0  0  0  0  0  0  0  0  0  0
   19.2170   17.0001   23.5270 H   0  0  0  0  0  0  0  0  0  0  0  0
   18.7179   18.4175   22.6014 H   0  0  0  0  0  0  0  0  0  0  0  0
   19.3875   18.8704   24.6287 C   0  0  0  0  0  0  0  0  0  0  0  0
   19.2741   18.4326   25.6301 H   0  0  0  0  0  0  0  0  0  0  0  0
   18.8874   19.8482   24.6615 H   0  0  0  0  0  0  0  0  0  0  0  0
   20.8977   19.0693   24.3495 C   0  0  0  0  0  0  0  0  0  0  0  0
   21.3361   19.6286   25.1877 H   0  0  0  0  0  0  0  0  0  0  0  0
   21.4012   18.0926   24.3340 H   0  0  0  0  0  0  0  0  0  0  0  0
   21.1897   19.8274   23.0332 C   0  0  0  0  0  0  0  0  0  0  0  0
   20.6456   20.7813   23.0273 H   0  0  0  0  0  0  0  0  0  0  0  0
   20.8332   19.2453   22.1742 H   0  0  0  0  0  0  0  0  0  0  0  0
   22.6954   20.0970   22.8648 C   0  0  0  0  0  0  0  0  0  0  0  0
   23.0590   20.6930   23.7062 H   0  0  0  0  0  0  0  0  0  0  0  0
   23.2400   19.1490   22.8539 H   0  0  0  0  0  0  0  0  0  0  0  0
   23.0262   20.8412   21.5872 N   0  3  0  0  0  0  0  0  0  0  0  0
   22.5650   21.7561   21.5476 H   0  0  0  0  0  0  0  0  0  0  0  0
   22.7343   20.3195   20.7543 H   0  0  0  0  0  0  0  0  0  0  0  0
   24.0338   21.0107   21.4953 H   0  0  0  0  0  0  0  0  0  0  0  0
  1  2  1  0  0  0  0
  1  3  1  0  0  0  0
  1  4  1  0  0  0  0
  1  5  1  0  0  0  0
  5  6  1  0  0  0  0
  5  7  1  0  0  0  0
  5  8  1  0  0  0  0
  8  9  1  0  0  0  0
  8 10  1  0  0  0  0
  8 11  1  0  0  0  0
 11 12  1  0  0  0  0
 11 13  1  0  0  0  0
 11 14  1  0  0  0  0
 14 15  1  0  0  0  0
 14 16  1  0  0  0  0
 14 17  1  0  0  0  0
 17 18  1  0  0  0  0
 17 19  1  0  0  0  0
 17 20  1  0  0  0  0
 20 21  1  0  0  0  0
 20 22  1  0  0  0  0
 20 23  1  0  0  0  0
 23 24  1  0  0  0  0
 23 25  1  0  0  0  0
 23 26  1  0  0  0  0
M  END
> <VConfSearch Rank>
365

> <Conf_Id>
35

> <Delta U+W>
0.587

> <U+W>
-4.965

> <U>
48.214

> <W>
-53.179

> <W(PB)>
-55.527

> <W(SA)>
2.348

> <Valence>
2.697

> <Coulomb>
44.819

> <VdW>
0.699

> <VdW6>
-6.437

> <VdW12>
7.136

> <Bond>
0.168

> <Angle>
0.657

> <Pdih>
1.872

> <Idih>
0.000

> <Tether>
0.000

$$$$
VeraChem MOL file


 26 25  0  0  0  0  0  0  0  0999 V2000     
   21.7621   16.1603   25.6433 C   0  0  0  0  0  0  0  0  0  0  0  0
   20.9042   15.4769   25.5955 H   0  0  0  0  0  0  0  0  0  0  0  0
   22.3746   16.0035   24.7458 H   0  0  0  0  0  0  0  0  0  0  0  0
   22.3664   15.8820   26.5165 H   0  0  0  0  0  0  0  0  0  0  0  0
   21.2967   17.6282   25.7482 C   0  0  0  0  0  0  0  0  0  0  0  0
   22.1748   18.2843   25.8278 H   0  0  0  0  0  0  0  0  0  0  0  0
   20.7168   17.7611   26.6723 H   0  0  0  0  0  0  0  0  0  0  0  0
   20.4425   18.0460   24.5308 C   0  0  0  0  0  0  0  0  0  0  0  0
   21.0298   17.8997   23.6149 H   0  0  0  0  0  0  0  0  0  0  0  0
   19.5652   17.3887   24.4567 H   0  0  0  0  0  0  0  0  0  0  0  0
   19.9788   19.5191   24.6331 C   0  0  0  0  0  0  0  0  0  0  0  0
   20.8542   20.1829   24.6525 H   0  0  0  0  0  0  0  0  0  0  0  0
   19.4604   19.6647   25.5910 H   0  0  0  0  0  0  0  0  0  0  0  0
   19.0264   19.9498   23.4906 C   0  0  0  0  0  0  0  0  0  0  0  0
   18.1424   19.2970   23.4820 H   0  0  0  0  0  0  0  0  0  0  0  0
   18.6591   20.9628   23.7066 H   0  0  0  0  0  0  0  0  0  0  0  0
   19.6919   19.9448   22.0943 C   0  0  0  0  0  0  0  0  0  0  0  0
   19.9924   18.9252   21.8220 H   0  0  0  0  0  0  0  0  0  0  0  0
   20.6034   20.5568   22.1168 H   0  0  0  0  0  0  0  0  0  0  0  0
   18.7372   20.4894   21.0172 C   0  0  0  0  0  0  0  0  0  0  0  0
   17.8347   19.8733   20.9798 H   0  0  0  0  0  0  0  0  0  0  0  0
   18.4450   21.5127   21.2677 H   0  0  0  0  0  0  0  0  0  0  0  0
   19.3511   20.5043   19.6321 N   0  3  0  0  0  0  0  0  0  0  0  0
   19.6233   19.5650   19.3243 H   0  0  0  0  0  0  0  0  0  0  0  0
   20.1916   21.0903   19.5929 H   0  0  0  0  0  0  0  0  0  0  0  0
   18.6987   20.8710   18.9304 H   0  0  0  0  0  0  0  0  0  0  0  0
  1  2  1  0  0  0  0
  1  3  1  0  0  0  0
  1  4  1  0  0  0  0
  1  5  1  0  0  0  0
  5  6  1  0  0  0  0
  5  7  1  0  0  0  0
  5  8  1  0  0  0  0
  8  9  1  0  0  0  0
  8 10  1  0  0  0  0
  8 11  1  0  0  0  0
 11 12  1  0  0  0  0
 11 13  1  0  0  0  0
 11 14  1  0  0  0  0
 14 15  1  0  0  0  0
 14 16  1  0  0  0  0
 14 17  1  0  0  0  0
 17 18  1  0  0  0  0
 17 19  1  0  0  0  0
 17 20  1  0  0  0  0
 20 21  1  0  0  0  0
 20 22  1  0  0  0  0
 20 23  1  0  0  0  0
 23 24  1  0  0  0  0
 23 25  1  0  0  0  0
 23 26  1  0  0  0  0
M  END
> <VConfSearch Rank>
366

> <Conf_Id>
36

> <Delta U+W>
0.565

> <U+W>
-4.987

> <U>
48.214

> <W>
-53.201

> <W(PB)>
-55.543

> <W(SA)>
2.342

> <Valence>
2.697

> <Coulomb>
44.819

> <VdW>
0.698

> <VdW6>
-6.437

> <VdW12>
7.136

> <Bond>
0.168

> <Angle>
0.657

> <Pdih>
1.872

> <Idih>
0.000

> <Tether>
0.000

$$$$
VeraChem MOL file


 26 25  0  0  0  0  0  0  0  0999 V2000     
   21.7911   22.0515   25.5697 C   0  0  0  0  0  0  0  0  0  0  0  0
   21.0965   22.1523   26.4139 H   0  0  0  0  0  0  0  0  0  0  0  0
   22.8084   22.2128   25.9494 H   0  0  0  0  0  0  0  0  0  0  0  0
   21.5703   22.8488   24.8481 H   0  0  0  0  0  0  0  0  0  0  0  0
   21.6686   20.6598   24.9137 C   0  0  0  0  0  0  0  0  0  0  0  0
   21.9279   19.8858   25.6496 H   0  0  0  0  0  0  0  0  0  0  0  0
   22.3982   20.5769   24.0959 H   0  0  0  0  0  0  0  0  0  0  0  0
   20.2448   20.4069   24.3703 C   0  0  0  0  0  0  0  0  0  0  0  0
   19.5192   20.4938   25.1909 H   0  0  0  0  0  0  0  0  0  0  0  0
   19.9893   21.1841   23.6367 H   0  0  0  0  0  0  0  0  0  0  0  0
   20.1180   19.0141   23.7127 C   0  0  0  0  0  0  0  0  0  0  0  0
   20.3711   18.2378   24.4481 H   0  0  0  0  0  0  0  0  0  0  0  0
   20.8500   18.9322   22.8982 H   0  0  0  0  0  0  0  0  0  0  0  0
   18.6910   18.7642   23.1683 C   0  0  0  0  0  0  0  0  0  0  0  0
   17.9653   18.8973   23.9825 H   0  0  0  0  0  0  0  0  0  0  0  0
   18.4466   19.5191   22.4080 H   0  0  0  0  0  0  0  0  0  0  0  0
   18.5090   17.3503   22.5681 C   0  0  0  0  0  0  0  0  0  0  0  0
   17.4564   17.2160   22.2855 H   0  0  0  0  0  0  0  0  0  0  0  0
   18.7281   16.5935   23.3332 H   0  0  0  0  0  0  0  0  0  0  0  0
   19.3963   17.1094   21.3324 C   0  0  0  0  0  0  0  0  0  0  0  0
   19.1776   17.8621   20.5701 H   0  0  0  0  0  0  0  0  0  0  0  0
   20.4498   17.1965   21.6103 H   0  0  0  0  0  0  0  0  0  0  0  0
   19.1909   15.7424   20.7125 N   0  3  0  0  0  0  0  0  0  0  0  0
   19.7903   15.6021   19.8919 H   0  0  0  0  0  0  0  0  0  0  0  0
   18.2234   15.6050   20.4021 H   0  0  0  0  0  0  0  0  0  0  0  0
   19.4063   14.9874   21.3720 H   0  0  0  0  0  0  0  0  0  0  0  0
  1  2  1  0  0  0  0
  1  3  1  0  0  0  0
  1  4  1  0  0  0  0
  1  5  1  0  0  0  0
  5  6  1  0  0  0  0
  5  7  1  0  0  0  0
  5  8  1  0  0  0  0
  8  9  1  0  0  0  0
  8 10  1  0  0  0  0
  8 11  1  0  0  0  0
 11 12  1  0  0  0  0
 11 13  1  0  0  0  0
 11 14  1  0  0  0  0
 14 15  1  0  0  0  0
 14 16  1  0  0  0  0
 14 17  1  0  0  0  0
 17 18  1  0  0  0  0
 17 19  1  0  0  0  0
 17 20  1  0  0  0  0
 20 21  1  0  0  0  0
 20 22  1  0  0  0  0
 20 23  1  0  0  0  0
 23 24  1  0  0  0  0
 23 25  1  0  0  0  0
 23 26  1  0  0  0  0
M  END
> <VConfSearch Rank>
367

> <Conf_Id>
44

> <Delta U+W>
0.371

> <U+W>
-5.181

> <U>
48.002

> <W>
-53.183

> <W(PB)>
-55.533

> <W(SA)>
2.350

> <Valence>
2.459

> <Coulomb>
44.901

> <VdW>
0.643

> <VdW6>
-6.362

> <VdW12>
7.005

> <Bond>
0.151

> <Angle>
0.519

> <Pdih>
1.789

> <Idih>
0.000

> <Tether>
0.000

$$$$
VeraChem MOL file


 26 25  0  0  0  0  0  0  0  0999 V2000     
   18.5912   16.1285   20.9043 C   0  0  0  0  0  0  0  0  0  0  0  0
   17.5530   16.4727   20.9978 H   0  0  0  0  0  0  0  0  0  0  0  0
   18.6343   15.4155   20.0709 H   0  0  0  0  0  0  0  0  0  0  0  0
   18.8566   15.5825   21.8179 H   0  0  0  0  0  0  0  0  0  0  0  0
   19.5495   17.3145   20.6506 C   0  0  0  0  0  0  0  0  0  0  0  0
   19.3235   17.7450   19.6650 H   0  0  0  0  0  0  0  0  0  0  0  0
   20.5845   16.9491   20.5959 H   0  0  0  0  0  0  0  0  0  0  0  0
   19.4444   18.4335   21.7152 C   0  0  0  0  0  0  0  0  0  0  0  0
   20.0535   19.2807   21.3757 H   0  0  0  0  0  0  0  0  0  0  0  0
   18.4084   18.7959   21.7646 H   0  0  0  0  0  0  0  0  0  0  0  0
   19.9117   17.9893   23.1249 C   0  0  0  0  0  0  0  0  0  0  0  0
   20.9489   17.6305   23.0766 H   0  0  0  0  0  0  0  0  0  0  0  0
   19.3053   17.1369   23.4570 H   0  0  0  0  0  0  0  0  0  0  0  0
   19.7966   19.1017   24.1965 C   0  0  0  0  0  0  0  0  0  0  0  0
   18.7621   19.4703   24.2346 H   0  0  0  0  0  0  0  0  0  0  0  0
   19.9993   18.6513   25.1771 H   0  0  0  0  0  0  0  0  0  0  0  0
   20.7665   20.2884   23.9678 C   0  0  0  0  0  0  0  0  0  0  0  0
   20.5412   20.7754   23.0112 H   0  0  0  0  0  0  0  0  0  0  0  0
   21.7997   19.9228   23.8995 H   0  0  0  0  0  0  0  0  0  0  0  0
   20.6714   21.3551   25.0759 C   0  0  0  0  0  0  0  0  0  0  0  0
   21.3015   22.2086   24.8116 H   0  0  0  0  0  0  0  0  0  0  0  0
   19.6396   21.7067   25.1609 H   0  0  0  0  0  0  0  0  0  0  0  0
   21.1154   20.8630   26.4396 N   0  3  0  0  0  0  0  0  0  0  0  0
   20.5389   20.0822   26.7683 H   0  0  0  0  0  0  0  0  0  0  0  0
   21.0535   21.6011   27.1493 H   0  0  0  0  0  0  0  0  0  0  0  0
   22.0879   20.5386   26.4293 H   0  0  0  0  0  0  0  0  0  0  0  0
  1  2  1  0  0  0  0
  1  3  1  0  0  0  0
  1  4  1  0  0  0  0
  1  5  1  0  0  0  0
  5  6  1  0  0  0  0
  5  7  1  0  0  0  0
  5  8  1  0  0  0  0
  8  9  1  0  0  0  0
  8 10  1  0  0  0  0
  8 11  1  0  0  0  0
 11 12  1  0  0  0  0
 11 13  1  0  0  0  0
 11 14  1  0  0  0  0
 14 15  1  0  0  0  0
 14 16  1  0  0  0  0
 14 17  1  0  0  0  0
 17 18  1  0  0  0  0
 17 19  1  0  0  0  0
 17 20  1  0  0  0  0
 20 21  1  0  0  0  0
 20 22  1  0  0  0  0
 20 23  1  0  0  0  0
 23 24  1  0  0  0  0
 23 25  1  0  0  0  0
 23 26  1  0  0  0  0
M  END
> <VConfSearch Rank>
368

> <Conf_Id>
112

> <Delta U+W>
1.422

> <U+W>
-4.130

> <U>
49.323

> <W>
-53.453

> <W(PB)>
-55.749

> <W(SA)>
2.296

> <Valence>
3.408

> <Coulomb>
44.893

> <VdW>
1.021

> <VdW6>
-7.481

> <VdW12>
8.503

> <Bond>
0.239

> <Angle>
1.013

> <Pdih>
2.156

> <Idih>
0.000

> <Tether>
0.000

$$$$
VeraChem MOL file


 26 25  0  0  0  0  0  0  0  0999 V2000     
   22.9566   20.2627   21.5930 C   0  0  0  0  0  0  0  0  0  0  0  0
   23.9529   20.4758   21.1845 H   0  0  0  0  0  0  0  0  0  0  0  0
   22.3971   19.7110   20.8274 H   0  0  0  0  0  0  0  0  0  0  0  0
   22.4515   21.2222   21.7640 H   0  0  0  0  0  0  0  0  0  0  0  0
   23.0715   19.4537   22.9048 C   0  0  0  0  0  0  0  0  0  0  0  0
   23.7345   19.9918   23.5966 H   0  0  0  0  0  0  0  0  0  0  0  0
   23.5567   18.4886   22.7025 H   0  0  0  0  0  0  0  0  0  0  0  0
   21.7098   19.2193   23.6021 C   0  0  0  0  0  0  0  0  0  0  0  0
   21.8921   18.7295   24.5685 H   0  0  0  0  0  0  0  0  0  0  0  0
   21.2512   20.1911   23.8270 H   0  0  0  0  0  0  0  0  0  0  0  0
   20.7356   18.3493   22.7681 C   0  0  0  0  0  0  0  0  0  0  0  0
   21.2583   17.4390   22.4437 H   0  0  0  0  0  0  0  0  0  0  0  0
   20.4439   18.8817   21.8532 H   0  0  0  0  0  0  0  0  0  0  0  0
   19.4608   17.9330   23.5426 C   0  0  0  0  0  0  0  0  0  0  0  0
   18.8975   17.2265   22.9189 H   0  0  0  0  0  0  0  0  0  0  0  0
   19.7450   17.3841   24.4511 H   0  0  0  0  0  0  0  0  0  0  0  0
   18.5494   19.1281   23.9188 C   0  0  0  0  0  0  0  0  0  0  0  0
   18.2814   19.6957   23.0178 H   0  0  0  0  0  0  0  0  0  0  0  0
   19.0937   19.8184   24.5751 H   0  0  0  0  0  0  0  0  0  0  0  0
   17.2662   18.6893   24.6506 C   0  0  0  0  0  0  0  0  0  0  0  0
   17.5291   18.1078   25.5383 H   0  0  0  0  0  0  0  0  0  0  0  0
   16.7135   19.5752   24.9749 H   0  0  0  0  0  0  0  0  0  0  0  0
   16.3314   17.8525   23.7990 N   0  3  0  0  0  0  0  0  0  0  0  0
   16.7755   16.9824   23.4899 H   0  0  0  0  0  0  0  0  0  0  0  0
   16.0304   18.3550   22.9577 H   0  0  0  0  0  0  0  0  0  0  0  0
   15.4821   17.5904   24.3112 H   0  0  0  0  0  0  0  0  0  0  0  0
  1  2  1  0  0  0  0
  1  3  1  0  0  0  0
  1  4  1  0  0  0  0
  1  5  1  0  0  0  0
  5  6  1  0  0  0  0
  5  7  1  0  0  0  0
  5  8  1  0  0  0  0
  8  9  1  0  0  0  0
  8 10  1  0  0  0  0
  8 11  1  0  0  0  0
 11 12  1  0  0  0  0
 11 13  1  0  0  0  0
 11 14  1  0  0  0  0
 14 15  1  0  0  0  0
 14 16  1  0  0  0  0
 14 17  1  0  0  0  0
 17 18  1  0  0  0  0
 17 19  1  0  0  0  0
 17 20  1  0  0  0  0
 20 21  1  0  0  0  0
 20 22  1  0  0  0  0
 20 23  1  0  0  0  0
 23 24  1  0  0  0  0
 23 25  1  0  0  0  0
 23 26  1  0  0  0  0
M  END
> <VConfSearch Rank>
369

> <Conf_Id>
130

> <Delta U+W>
1.282

> <U+W>
-4.270

> <U>
49.153

> <W>
-53.422

> <W(PB)>
-55.725

> <W(SA)>
2.303

> <Valence>
3.298

> <Coulomb>
44.907

> <VdW>
0.948

> <VdW6>
-7.574

> <VdW12>
8.522

> <Bond>
0.229

> <Angle>
0.912

> <Pdih>
2.157

> <Idih>
0.000

> <Tether>
0.000

$$$$
VeraChem MOL file


 26 25  0  0  0  0  0  0  0  0999 V2000     
   17.4389   17.4156   21.5501 C   0  0  0  0  0  0  0  0  0  0  0  0
   17.4996   17.7822   20.5173 H   0  0  0  0  0  0  0  0  0  0  0  0
   16.5334   16.8012   21.6362 H   0  0  0  0  0  0  0  0  0  0  0  0
   17.3165   18.2792   22.2156 H   0  0  0  0  0  0  0  0  0  0  0  0
   18.6911   16.5890   21.9204 C   0  0  0  0  0  0  0  0  0  0  0  0
   18.7048   15.6755   21.3097 H   0  0  0  0  0  0  0  0  0  0  0  0
   18.6175   16.2509   22.9626 H   0  0  0  0  0  0  0  0  0  0  0  0
   20.0221   17.3512   21.6959 C   0  0  0  0  0  0  0  0  0  0  0  0
   20.8581   16.6879   21.9575 H   0  0  0  0  0  0  0  0  0  0  0  0
   20.1315   17.5628   20.6233 H   0  0  0  0  0  0  0  0  0  0  0  0
   20.1692   18.6806   22.4807 C   0  0  0  0  0  0  0  0  0  0  0  0
   19.4019   19.3947   22.1537 H   0  0  0  0  0  0  0  0  0  0  0  0
   21.1337   19.1283   22.2076 H   0  0  0  0  0  0  0  0  0  0  0  0
   20.0984   18.5028   24.0186 C   0  0  0  0  0  0  0  0  0  0  0  0
   19.1226   18.0830   24.2956 H   0  0  0  0  0  0  0  0  0  0  0  0
   20.8552   17.7754   24.3436 H   0  0  0  0  0  0  0  0  0  0  0  0
   20.2907   19.8286   24.7921 C   0  0  0  0  0  0  0  0  0  0  0  0
   20.1227   19.6437   25.8614 H   0  0  0  0  0  0  0  0  0  0  0  0
   19.5298   20.5543   24.4753 H   0  0  0  0  0  0  0  0  0  0  0  0
   21.6948   20.4327   24.6023 C   0  0  0  0  0  0  0  0  0  0  0  0
   22.4520   19.7093   24.9166 H   0  0  0  0  0  0  0  0  0  0  0  0
   21.8586   20.6666   23.5474 H   0  0  0  0  0  0  0  0  0  0  0  0
   21.9049   21.7050   25.3977 N   0  3  0  0  0  0  0  0  0  0  0  0
   21.2389   22.4371   25.1302 H   0  0  0  0  0  0  0  0  0  0  0  0
   22.8450   22.0909   25.2579 H   0  0  0  0  0  0  0  0  0  0  0  0
   21.7933   21.5488   26.4048 H   0  0  0  0  0  0  0  0  0  0  0  0
  1  2  1  0  0  0  0
  1  3  1  0  0  0  0
  1  4  1  0  0  0  0
  1  5  1  0  0  0  0
  5  6  1  0  0  0  0
  5  7  1  0  0  0  0
  5  8  1  0  0  0  0
  8  9  1  0  0  0  0
  8 10  1  0  0  0  0
  8 11  1  0  0  0  0
 11 12  1  0  0  0  0
 11 13  1  0  0  0  0
 11 14  1  0  0  0  0
 14 15  1  0  0  0  0
 14 16  1  0  0  0  0
 14 17  1  0  0  0  0
 17 18  1  0  0  0  0
 17 19  1  0  0  0  0
 17 20  1  0  0  0  0
 20 21  1  0  0  0  0
 20 22  1  0  0  0  0
 20 23  1  0  0  0  0
 23 24  1  0  0  0  0
 23 25  1  0  0  0  0
 23 26  1  0  0  0  0
M  END
> <VConfSearch Rank>
370

> <Conf_Id>
111

> <Delta U+W>
1.290

> <U+W>
-4.262

> <U>
49.209

> <W>
-53.471

> <W(PB)>
-55.745

> <W(SA)>
2.274

> <Valence>
3.465

> <Coulomb>
44.958

> <VdW>
0.786

> <VdW6>
-7.903

> <VdW12>
8.689

> <Bond>
0.237

> <Angle>
1.212

> <Pdih>
2.015

> <Idih>
0.000

> <Tether>
0.000

$$$$
VeraChem MOL file


 26 25  0  0  0  0  0  0  0  0999 V2000     
   22.8532   19.8325   20.6213 C   0  0  0  0  0  0  0  0  0  0  0  0
   23.2316   20.6711   21.2203 H   0  0  0  0  0  0  0  0  0  0  0  0
   23.6633   19.1003   20.5080 H   0  0  0  0  0  0  0  0  0  0  0  0
   22.6044   20.2163   19.6234 H   0  0  0  0  0  0  0  0  0  0  0  0
   21.6146   19.1926   21.2836 C   0  0  0  0  0  0  0  0  0  0  0  0
   21.2421   18.3774   20.6477 H   0  0  0  0  0  0  0  0  0  0  0  0
   20.8148   19.9426   21.3417 H   0  0  0  0  0  0  0  0  0  0  0  0
   21.9403   18.6476   22.6944 C   0  0  0  0  0  0  0  0  0  0  0  0
   22.7947   17.9605   22.6228 H   0  0  0  0  0  0  0  0  0  0  0  0
   22.2624   19.4725   23.3449 H   0  0  0  0  0  0  0  0  0  0  0  0
   20.7601   17.8947   23.3563 C   0  0  0  0  0  0  0  0  0  0  0  0
   21.1165   17.4461   24.2939 H   0  0  0  0  0  0  0  0  0  0  0  0
   20.4503   17.0594   22.7131 H   0  0  0  0  0  0  0  0  0  0  0  0
   19.5420   18.7992   23.6620 C   0  0  0  0  0  0  0  0  0  0  0  0
   19.8726   19.6629   24.2542 H   0  0  0  0  0  0  0  0  0  0  0  0
   19.1231   19.1928   22.7266 H   0  0  0  0  0  0  0  0  0  0  0  0
   18.4368   18.0309   24.4247 C   0  0  0  0  0  0  0  0  0  0  0  0
   18.8268   17.6613   25.3824 H   0  0  0  0  0  0  0  0  0  0  0  0
   18.1423   17.1466   23.8440 H   0  0  0  0  0  0  0  0  0  0  0  0
   17.1818   18.8884   24.6776 C   0  0  0  0  0  0  0  0  0  0  0  0
   16.7936   19.2625   23.7263 H   0  0  0  0  0  0  0  0  0  0  0  0
   16.4083   18.2709   25.1422 H   0  0  0  0  0  0  0  0  0  0  0  0
   17.4278   20.0774   25.5856 N   0  3  0  0  0  0  0  0  0  0  0  0
   16.5712   20.6193   25.7437 H   0  0  0  0  0  0  0  0  0  0  0  0
   18.1207   20.7203   25.1900 H   0  0  0  0  0  0  0  0  0  0  0  0
   17.7733   19.7881   26.5064 H   0  0  0  0  0  0  0  0  0  0  0  0
  1  2  1  0  0  0  0
  1  3  1  0  0  0  0
  1  4  1  0  0  0  0
  1  5  1  0  0  0  0
  5  6  1  0  0  0  0
  5  7  1  0  0  0  0
  5  8  1  0  0  0  0
  8  9  1  0  0  0  0
  8 10  1  0  0  0  0
  8 11  1  0  0  0  0
 11 12  1  0  0  0  0
 11 13  1  0  0  0  0
 11 14  1  0  0  0  0
 14 15  1  0  0  0  0
 14 16  1  0  0  0  0
 14 17  1  0  0  0  0
 17 18  1  0  0  0  0
 17 19  1  0  0  0  0
 17 20  1  0  0  0  0
 20 21  1  0  0  0  0
 20 22  1  0  0  0  0
 20 23  1  0  0  0  0
 23 24  1  0  0  0  0
 23 25  1  0  0  0  0
 23 26  1  0  0  0  0
M  END
> <VConfSearch Rank>
371

> <Conf_Id>
105

> <Delta U+W>
0.736

> <U+W>
-4.817

> <U>
48.735

> <W>
-53.552

> <W(PB)>
-55.889

> <W(SA)>
2.337

> <Valence>
2.803

> <Coulomb>
45.123

> <VdW>
0.809

> <VdW6>
-6.953

> <VdW12>
7.761

> <Bond>
0.188

> <Angle>
0.699

> <Pdih>
1.917

> <Idih>
0.000

> <Tether>
0.000

$$$$
VeraChem MOL file


 26 25  0  0  0  0  0  0  0  0999 V2000     
   18.0645   20.2152   26.2267 C   0  0  0  0  0  0  0  0  0  0  0  0
   18.5487   20.7940   27.0241 H   0  0  0  0  0  0  0  0  0  0  0  0
   17.5861   20.9202   25.5345 H   0  0  0  0  0  0  0  0  0  0  0  0
   17.2756   19.6050   26.6852 H   0  0  0  0  0  0  0  0  0  0  0  0
   19.0855   19.3221   25.4905 C   0  0  0  0  0  0  0  0  0  0  0  0
   18.5582   18.7311   24.7298 H   0  0  0  0  0  0  0  0  0  0  0  0
   19.5253   18.6085   26.2011 H   0  0  0  0  0  0  0  0  0  0  0  0
   20.2061   20.1606   24.8317 C   0  0  0  0  0  0  0  0  0  0  0  0
   19.7718   20.8452   24.0914 H   0  0  0  0  0  0  0  0  0  0  0  0
   20.6687   20.8000   25.5962 H   0  0  0  0  0  0  0  0  0  0  0  0
   21.3199   19.3039   24.1755 C   0  0  0  0  0  0  0  0  0  0  0  0
   21.8266   18.7219   24.9577 H   0  0  0  0  0  0  0  0  0  0  0  0
   22.0833   19.9765   23.7609 H   0  0  0  0  0  0  0  0  0  0  0  0
   20.8476   18.3333   23.0619 C   0  0  0  0  0  0  0  0  0  0  0  0
   21.7254   17.7830   22.6983 H   0  0  0  0  0  0  0  0  0  0  0  0
   20.1722   17.5774   23.4840 H   0  0  0  0  0  0  0  0  0  0  0  0
   20.1576   19.0451   21.8714 C   0  0  0  0  0  0  0  0  0  0  0  0
   20.8211   19.8159   21.4574 H   0  0  0  0  0  0  0  0  0  0  0  0
   19.2548   19.5613   22.2211 H   0  0  0  0  0  0  0  0  0  0  0  0
   19.7430   18.0682   20.7541 C   0  0  0  0  0  0  0  0  0  0  0  0
   19.0976   17.2885   21.1675 H   0  0  0  0  0  0  0  0  0  0  0  0
   19.1772   18.6100   19.9913 H   0  0  0  0  0  0  0  0  0  0  0  0
   20.9134   17.3947   20.0646 N   0  3  0  0  0  0  0  0  0  0  0  0
   21.4691   16.8351   20.7187 H   0  0  0  0  0  0  0  0  0  0  0  0
   21.5466   18.0774   19.6357 H   0  0  0  0  0  0  0  0  0  0  0  0
   20.6033   16.7634   19.3179 H   0  0  0  0  0  0  0  0  0  0  0  0
  1  2  1  0  0  0  0
  1  3  1  0  0  0  0
  1  4  1  0  0  0  0
  1  5  1  0  0  0  0
  5  6  1  0  0  0  0
  5  7  1  0  0  0  0
  5  8  1  0  0  0  0
  8  9  1  0  0  0  0
  8 10  1  0  0  0  0
  8 11  1  0  0  0  0
 11 12  1  0  0  0  0
 11 13  1  0  0  0  0
 11 14  1  0  0  0  0
 14 15  1  0  0  0  0
 14 16  1  0  0  0  0
 14 17  1  0  0  0  0
 17 18  1  0  0  0  0
 17 19  1  0  0  0  0
 17 20  1  0  0  0  0
 20 21  1  0  0  0  0
 20 22  1  0  0  0  0
 20 23  1  0  0  0  0
 23 24  1  0  0  0  0
 23 25  1  0  0  0  0
 23 26  1  0  0  0  0
M  END
> <VConfSearch Rank>
372

> <Conf_Id>
144

> <Delta U+W>
1.073

> <U+W>
-4.479

> <U>
49.231

> <W>
-53.710

> <W(PB)>
-55.983

> <W(SA)>
2.273

> <Valence>
3.276

> <Coulomb>
45.175

> <VdW>
0.779

> <VdW6>
-7.944

> <VdW12>
8.723

> <Bond>
0.239

> <Angle>
1.155

> <Pdih>
1.883

> <Idih>
0.000

> <Tether>
0.000

$$$$
VeraChem MOL file


 26 25  0  0  0  0  0  0  0  0999 V2000     
   18.9012   15.9552   21.3679 C   0  0  0  0  0  0  0  0  0  0  0  0
   19.9003   15.9261   20.9164 H   0  0  0  0  0  0  0  0  0  0  0  0
   18.4896   14.9386   21.3206 H   0  0  0  0  0  0  0  0  0  0  0  0
   18.2639   16.6036   20.7527 H   0  0  0  0  0  0  0  0  0  0  0  0
   18.9497   16.4503   22.8315 C   0  0  0  0  0  0  0  0  0  0  0  0
   19.6195   15.8070   23.4191 H   0  0  0  0  0  0  0  0  0  0  0  0
   17.9498   16.3370   23.2733 H   0  0  0  0  0  0  0  0  0  0  0  0
   19.3864   17.9290   22.9707 C   0  0  0  0  0  0  0  0  0  0  0  0
   18.7269   18.5654   22.3650 H   0  0  0  0  0  0  0  0  0  0  0  0
   19.2382   18.2227   24.0173 H   0  0  0  0  0  0  0  0  0  0  0  0
   20.8647   18.1760   22.5794 C   0  0  0  0  0  0  0  0  0  0  0  0
   21.0458   17.7901   21.5683 H   0  0  0  0  0  0  0  0  0  0  0  0
   21.5188   17.5994   23.2478 H   0  0  0  0  0  0  0  0  0  0  0  0
   21.2946   19.6661   22.5972 C   0  0  0  0  0  0  0  0  0  0  0  0
   22.3414   19.7121   22.2662 H   0  0  0  0  0  0  0  0  0  0  0  0
   20.7220   20.2327   21.8497 H   0  0  0  0  0  0  0  0  0  0  0  0
   21.1956   20.3600   23.9792 C   0  0  0  0  0  0  0  0  0  0  0  0
   21.9507   21.1560   24.0257 H   0  0  0  0  0  0  0  0  0  0  0  0
   21.4452   19.6490   24.7780 H   0  0  0  0  0  0  0  0  0  0  0  0
   19.8154   20.9957   24.2373 C   0  0  0  0  0  0  0  0  0  0  0  0
   19.6051   21.7394   23.4640 H   0  0  0  0  0  0  0  0  0  0  0  0
   19.0338   20.2347   24.1987 H   0  0  0  0  0  0  0  0  0  0  0  0
   19.7243   21.6852   25.5832 N   0  3  0  0  0  0  0  0  0  0  0  0
   20.4135   22.4388   25.6736 H   0  0  0  0  0  0  0  0  0  0  0  0
   19.8863   21.0338   26.3582 H   0  0  0  0  0  0  0  0  0  0  0  0
   18.8009   22.1058   25.7343 H   0  0  0  0  0  0  0  0  0  0  0  0
  1  2  1  0  0  0  0
  1  3  1  0  0  0  0
  1  4  1  0  0  0  0
  1  5  1  0  0  0  0
  5  6  1  0  0  0  0
  5  7  1  0  0  0  0
  5  8  1  0  0  0  0
  8  9  1  0  0  0  0
  8 10  1  0  0  0  0
  8 11  1  0  0  0  0
 11 12  1  0  0  0  0
 11 13  1  0  0  0  0
 11 14  1  0  0  0  0
 14 15  1  0  0  0  0
 14 16  1  0  0  0  0
 14 17  1  0  0  0  0
 17 18  1  0  0  0  0
 17 19  1  0  0  0  0
 17 20  1  0  0  0  0
 20 21  1  0  0  0  0
 20 22  1  0  0  0  0
 20 23  1  0  0  0  0
 23 24  1  0  0  0  0
 23 25  1  0  0  0  0
 23 26  1  0  0  0  0
M  END
> <VConfSearch Rank>
373

> <Conf_Id>
93

> <Delta U+W>
3.253

> <U+W>
-2.300

> <U>
51.609

> <W>
-53.909

> <W(PB)>
-56.178

> <W(SA)>
2.270

> <Valence>
5.204

> <Coulomb>
45.645

> <VdW>
0.760

> <VdW6>
-7.997

> <VdW12>
8.758

> <Bond>
0.240

> <Angle>
1.456

> <Pdih>
3.507

> <Idih>
0.000

> <Tether>
0.000

$$$$
VeraChem MOL file


 26 25  0  0  0  0  0  0  0  0999 V2000     
   20.8942   16.5186   20.6775 C   0  0  0  0  0  0  0  0  0  0  0  0
   21.9263   16.5230   21.0485 H   0  0  0  0  0  0  0  0  0  0  0  0
   20.3327   15.7544   21.2303 H   0  0  0  0  0  0  0  0  0  0  0  0
   20.9254   16.2144   19.6233 H   0  0  0  0  0  0  0  0  0  0  0  0
   20.2302   17.9074   20.8190 C   0  0  0  0  0  0  0  0  0  0  0  0
   19.2524   17.8812   20.3178 H   0  0  0  0  0  0  0  0  0  0  0  0
   20.8277   18.6607   20.2869 H   0  0  0  0  0  0  0  0  0  0  0  0
   20.0201   18.3463   22.2886 C   0  0  0  0  0  0  0  0  0  0  0  0
   19.4097   19.2579   22.2798 H   0  0  0  0  0  0  0  0  0  0  0  0
   19.4405   17.5802   22.8216 H   0  0  0  0  0  0  0  0  0  0  0  0
   21.3426   18.6292   23.0439 C   0  0  0  0  0  0  0  0  0  0  0  0
   21.8732   19.4552   22.5508 H   0  0  0  0  0  0  0  0  0  0  0  0
   22.0020   17.7554   22.9686 H   0  0  0  0  0  0  0  0  0  0  0  0
   21.1663   18.9560   24.5498 C   0  0  0  0  0  0  0  0  0  0  0  0
   20.7379   18.0914   25.0757 H   0  0  0  0  0  0  0  0  0  0  0  0
   22.1689   19.0962   24.9771 H   0  0  0  0  0  0  0  0  0  0  0  0
   20.3325   20.2269   24.8510 C   0  0  0  0  0  0  0  0  0  0  0  0
   20.5171   20.9908   24.0840 H   0  0  0  0  0  0  0  0  0  0  0  0
   20.6768   20.6536   25.8026 H   0  0  0  0  0  0  0  0  0  0  0  0
   18.8227   19.9425   24.9740 C   0  0  0  0  0  0  0  0  0  0  0  0
   18.4402   19.5150   24.0453 H   0  0  0  0  0  0  0  0  0  0  0  0
   18.6510   19.2208   25.7771 H   0  0  0  0  0  0  0  0  0  0  0  0
   18.0102   21.1836   25.2817 N   0  3  0  0  0  0  0  0  0  0  0  0
   18.2975   21.6187   26.1645 H   0  0  0  0  0  0  0  0  0  0  0  0
   17.0096   20.9733   25.3646 H   0  0  0  0  0  0  0  0  0  0  0  0
   18.1064   21.8948   24.5496 H   0  0  0  0  0  0  0  0  0  0  0  0
  1  2  1  0  0  0  0
  1  3  1  0  0  0  0
  1  4  1  0  0  0  0
  1  5  1  0  0  0  0
  5  6  1  0  0  0  0
  5  7  1  0  0  0  0
  5  8  1  0  0  0  0
  8  9  1  0  0  0  0
  8 10  1  0  0  0  0
  8 11  1  0  0  0  0
 11 12  1  0  0  0  0
 11 13  1  0  0  0  0
 11 14  1  0  0  0  0
 14 15  1  0  0  0  0
 14 16  1  0  0  0  0
 14 17  1  0  0  0  0
 17 18  1  0  0  0  0
 17 19  1  0  0  0  0
 17 20  1  0  0  0  0
 20 21  1  0  0  0  0
 20 22  1  0  0  0  0
 20 23  1  0  0  0  0
 23 24  1  0  0  0  0
 23 25  1  0  0  0  0
 23 26  1  0  0  0  0
M  END
> <VConfSearch Rank>
374

> <Conf_Id>
94

> <Delta U+W>
3.247

> <U+W>
-2.305

> <U>
51.609

> <W>
-53.914

> <W(PB)>
-56.221

> <W(SA)>
2.307

> <Valence>
5.204

> <Coulomb>
45.645

> <VdW>
0.760

> <VdW6>
-7.997

> <VdW12>
8.757

> <Bond>
0.240

> <Angle>
1.456

> <Pdih>
3.508

> <Idih>
0.000

> <Tether>
0.000

$$$$
VeraChem MOL file


 26 25  0  0  0  0  0  0  0  0999 V2000     
   23.6682   17.0190   23.0704 C   0  0  0  0  0  0  0  0  0  0  0  0
   23.9303   17.0717   22.0056 H   0  0  0  0  0  0  0  0  0  0  0  0
   24.1826   17.8379   23.5901 H   0  0  0  0  0  0  0  0  0  0  0  0
   24.0567   16.0718   23.4666 H   0  0  0  0  0  0  0  0  0  0  0  0
   22.1405   17.1078   23.2707 C   0  0  0  0  0  0  0  0  0  0  0  0
   21.9074   17.0183   24.3411 H   0  0  0  0  0  0  0  0  0  0  0  0
   21.6570   16.2580   22.7688 H   0  0  0  0  0  0  0  0  0  0  0  0
   21.5675   18.4329   22.7211 C   0  0  0  0  0  0  0  0  0  0  0  0
   22.0552   19.2794   23.2242 H   0  0  0  0  0  0  0  0  0  0  0  0
   21.8056   18.5189   21.6518 H   0  0  0  0  0  0  0  0  0  0  0  0
   20.0377   18.5253   22.9195 C   0  0  0  0  0  0  0  0  0  0  0  0
   19.8070   18.4311   23.9889 H   0  0  0  0  0  0  0  0  0  0  0  0
   19.5511   17.6803   22.4129 H   0  0  0  0  0  0  0  0  0  0  0  0
   19.4668   19.8546   22.3698 C   0  0  0  0  0  0  0  0  0  0  0  0
   19.9321   20.7023   22.8904 H   0  0  0  0  0  0  0  0  0  0  0  0
   19.7461   19.9561   21.3120 H   0  0  0  0  0  0  0  0  0  0  0  0
   17.9245   19.9487   22.4828 C   0  0  0  0  0  0  0  0  0  0  0  0
   17.4684   19.1474   21.8863 H   0  0  0  0  0  0  0  0  0  0  0  0
   17.5849   20.8930   22.0370 H   0  0  0  0  0  0  0  0  0  0  0  0
   17.3931   19.8532   23.9275 C   0  0  0  0  0  0  0  0  0  0  0  0
   16.3008   19.9012   23.9162 H   0  0  0  0  0  0  0  0  0  0  0  0
   17.6858   18.8962   24.3670 H   0  0  0  0  0  0  0  0  0  0  0  0
   17.8942   20.9599   24.8342 N   0  3  0  0  0  0  0  0  0  0  0  0
   17.6247   21.8864   24.4879 H   0  0  0  0  0  0  0  0  0  0  0  0
   18.9159   20.9503   24.9121 H   0  0  0  0  0  0  0  0  0  0  0  0
   17.5181   20.8738   25.7846 H   0  0  0  0  0  0  0  0  0  0  0  0
  1  2  1  0  0  0  0
  1  3  1  0  0  0  0
  1  4  1  0  0  0  0
  1  5  1  0  0  0  0
  5  6  1  0  0  0  0
  5  7  1  0  0  0  0
  5  8  1  0  0  0  0
  8  9  1  0  0  0  0
  8 10  1  0  0  0  0
  8 11  1  0  0  0  0
 11 12  1  0  0  0  0
 11 13  1  0  0  0  0
 11 14  1  0  0  0  0
 14 15  1  0  0  0  0
 14 16  1  0  0  0  0
 14 17  1  0  0  0  0
 17 18  1  0  0  0  0
 17 19  1  0  0  0  0
 17 20  1  0  0  0  0
 20 21  1  0  0  0  0
 20 22  1  0  0  0  0
 20 23  1  0  0  0  0
 23 24  1  0  0  0  0
 23 25  1  0  0  0  0
 23 26  1  0  0  0  0
M  END
> <VConfSearch Rank>
375

> <Conf_Id>
83

> <Delta U+W>
0.559

> <U+W>
-4.994

> <U>
48.668

> <W>
-53.661

> <W(PB)>
-55.972

> <W(SA)>
2.311

> <Valence>
2.543

> <Coulomb>
45.478

> <VdW>
0.646

> <VdW6>
-7.096

> <VdW12>
7.742

> <Bond>
0.176

> <Angle>
0.630

> <Pdih>
1.738

> <Idih>
0.000

> <Tether>
0.000

$$$$
VeraChem MOL file


 26 25  0  0  0  0  0  0  0  0999 V2000     
   20.0254   17.6701   26.9825 C   0  0  0  0  0  0  0  0  0  0  0  0
   19.9714   18.4131   27.7889 H   0  0  0  0  0  0  0  0  0  0  0  0
   19.0552   17.1599   26.9221 H   0  0  0  0  0  0  0  0  0  0  0  0
   20.7815   16.9248   27.2616 H   0  0  0  0  0  0  0  0  0  0  0  0
   20.3866   18.3355   25.6375 C   0  0  0  0  0  0  0  0  0  0  0  0
   20.4715   17.5574   24.8674 H   0  0  0  0  0  0  0  0  0  0  0  0
   21.3736   18.8117   25.7203 H   0  0  0  0  0  0  0  0  0  0  0  0
   19.3319   19.3878   25.2209 C   0  0  0  0  0  0  0  0  0  0  0  0
   18.3563   18.9011   25.0854 H   0  0  0  0  0  0  0  0  0  0  0  0
   19.2050   20.1089   26.0402 H   0  0  0  0  0  0  0  0  0  0  0  0
   19.7063   20.1672   23.9361 C   0  0  0  0  0  0  0  0  0  0  0  0
   20.6753   20.6655   24.0777 H   0  0  0  0  0  0  0  0  0  0  0  0
   18.9673   20.9667   23.7880 H   0  0  0  0  0  0  0  0  0  0  0  0
   19.7538   19.2829   22.6668 C   0  0  0  0  0  0  0  0  0  0  0  0
   20.5389   18.5242   22.7742 H   0  0  0  0  0  0  0  0  0  0  0  0
   18.8012   18.7461   22.5578 H   0  0  0  0  0  0  0  0  0  0  0  0
   20.0197   20.1225   21.3948 C   0  0  0  0  0  0  0  0  0  0  0  0
   20.9832   20.6422   21.4815 H   0  0  0  0  0  0  0  0  0  0  0  0
   19.2507   20.9012   21.3051 H   0  0  0  0  0  0  0  0  0  0  0  0
   20.0061   19.2751   20.1078 C   0  0  0  0  0  0  0  0  0  0  0  0
   19.0509   18.7500   20.0228 H   0  0  0  0  0  0  0  0  0  0  0  0
   20.1122   19.9321   19.2402 H   0  0  0  0  0  0  0  0  0  0  0  0
   21.1169   18.2452   20.0425 N   0  3  0  0  0  0  0  0  0  0  0  0
   21.0545   17.5700   20.8107 H   0  0  0  0  0  0  0  0  0  0  0  0
   22.0435   18.6807   20.0955 H   0  0  0  0  0  0  0  0  0  0  0  0
   21.0876   17.7090   19.1684 H   0  0  0  0  0  0  0  0  0  0  0  0
  1  2  1  0  0  0  0
  1  3  1  0  0  0  0
  1  4  1  0  0  0  0
  1  5  1  0  0  0  0
  5  6  1  0  0  0  0
  5  7  1  0  0  0  0
  5  8  1  0  0  0  0
  8  9  1  0  0  0  0
  8 10  1  0  0  0  0
  8 11  1  0  0  0  0
 11 12  1  0  0  0  0
 11 13  1  0  0  0  0
 11 14  1  0  0  0  0
 14 15  1  0  0  0  0
 14 16  1  0  0  0  0
 14 17  1  0  0  0  0
 17 18  1  0  0  0  0
 17 19  1  0  0  0  0
 17 20  1  0  0  0  0
 20 21  1  0  0  0  0
 20 22  1  0  0  0  0
 20 23  1  0  0  0  0
 23 24  1  0  0  0  0
 23 25  1  0  0  0  0
 23 26  1  0  0  0  0
M  END
> <VConfSearch Rank>
376

> <Conf_Id>
18

> <Delta U+W>
0.759

> <U+W>
-4.793

> <U>
48.945

> <W>
-53.738

> <W(PB)>
-56.051

> <W(SA)>
2.313

> <Valence>
2.802

> <Coulomb>
45.335

> <VdW>
0.807

> <VdW6>
-6.962

> <VdW12>
7.769

> <Bond>
0.189

> <Angle>
0.696

> <Pdih>
1.917

> <Idih>
0.000

> <Tether>
0.000

$$$$
VeraChem MOL file


 26 25  0  0  0  0  0  0  0  0999 V2000     
   23.3197   17.1936   24.3555 C   0  0  0  0  0  0  0  0  0  0  0  0
   23.9508   17.6740   23.5965 H   0  0  0  0  0  0  0  0  0  0  0  0
   23.7239   17.4443   25.3449 H   0  0  0  0  0  0  0  0  0  0  0  0
   23.4022   16.1069   24.2237 H   0  0  0  0  0  0  0  0  0  0  0  0
   21.8507   17.6486   24.2239 C   0  0  0  0  0  0  0  0  0  0  0  0
   21.2401   17.1298   24.9761 H   0  0  0  0  0  0  0  0  0  0  0  0
   21.4710   17.3442   23.2397 H   0  0  0  0  0  0  0  0  0  0  0  0
   21.7100   19.1789   24.4017 C   0  0  0  0  0  0  0  0  0  0  0  0
   22.1696   19.4705   25.3562 H   0  0  0  0  0  0  0  0  0  0  0  0
   22.2772   19.6969   23.6160 H   0  0  0  0  0  0  0  0  0  0  0  0
   20.2423   19.6726   24.3938 C   0  0  0  0  0  0  0  0  0  0  0  0
   20.2350   20.7421   24.6457 H   0  0  0  0  0  0  0  0  0  0  0  0
   19.6794   19.1649   25.1892 H   0  0  0  0  0  0  0  0  0  0  0  0
   19.5276   19.4693   23.0362 C   0  0  0  0  0  0  0  0  0  0  0  0
   20.1206   19.9337   22.2362 H   0  0  0  0  0  0  0  0  0  0  0  0
   19.4650   18.3980   22.8083 H   0  0  0  0  0  0  0  0  0  0  0  0
   18.1053   20.0783   23.0419 C   0  0  0  0  0  0  0  0  0  0  0  0
   18.1665   21.1438   23.3004 H   0  0  0  0  0  0  0  0  0  0  0  0
   17.4950   19.6015   23.8205 H   0  0  0  0  0  0  0  0  0  0  0  0
   17.3958   19.9482   21.6802 C   0  0  0  0  0  0  0  0  0  0  0  0
   16.4359   20.4701   21.7204 H   0  0  0  0  0  0  0  0  0  0  0  0
   18.0051   20.4149   20.9015 H   0  0  0  0  0  0  0  0  0  0  0  0
   17.1224   18.5149   21.2681 N   0  3  0  0  0  0  0  0  0  0  0  0
   16.5337   18.0280   21.9517 H   0  0  0  0  0  0  0  0  0  0  0  0
   17.9881   17.9750   21.1738 H   0  0  0  0  0  0  0  0  0  0  0  0
   16.6374   18.4645   20.3656 H   0  0  0  0  0  0  0  0  0  0  0  0
  1  2  1  0  0  0  0
  1  3  1  0  0  0  0
  1  4  1  0  0  0  0
  1  5  1  0  0  0  0
  5  6  1  0  0  0  0
  5  7  1  0  0  0  0
  5  8  1  0  0  0  0
  8  9  1  0  0  0  0
  8 10  1  0  0  0  0
  8 11  1  0  0  0  0
 11 12  1  0  0  0  0
 11 13  1  0  0  0  0
 11 14  1  0  0  0  0
 14 15  1  0  0  0  0
 14 16  1  0  0  0  0
 14 17  1  0  0  0  0
 17 18  1  0  0  0  0
 17 19  1  0  0  0  0
 17 20  1  0  0  0  0
 20 21  1  0  0  0  0
 20 22  1  0  0  0  0
 20 23  1  0  0  0  0
 23 24  1  0  0  0  0
 23 25  1  0  0  0  0
 23 26  1  0  0  0  0
M  END
> <VConfSearch Rank>
377

> <Conf_Id>
17

> <Delta U+W>
0.843

> <U+W>
-4.709

> <U>
48.945

> <W>
-53.653

> <W(PB)>
-55.991

> <W(SA)>
2.338

> <Valence>
2.802

> <Coulomb>
45.335

> <VdW>
0.807

> <VdW6>
-6.962

> <VdW12>
7.769

> <Bond>
0.189

> <Angle>
0.696

> <Pdih>
1.917

> <Idih>
0.000

> <Tether>
0.000

$$$$
VeraChem MOL file


 26 25  0  0  0  0  0  0  0  0999 V2000     
   18.7117   15.8176   22.2631 C   0  0  0  0  0  0  0  0  0  0  0  0
   18.3089   16.7646   21.8833 H   0  0  0  0  0  0  0  0  0  0  0  0
   19.6194   15.5765   21.6948 H   0  0  0  0  0  0  0  0  0  0  0  0
   17.9686   15.0367   22.0558 H   0  0  0  0  0  0  0  0  0  0  0  0
   19.0081   15.8931   23.7782 C   0  0  0  0  0  0  0  0  0  0  0  0
   19.2890   14.8920   24.1340 H   0  0  0  0  0  0  0  0  0  0  0  0
   18.0923   16.1663   24.3208 H   0  0  0  0  0  0  0  0  0  0  0  0
   20.1432   16.8831   24.1351 C   0  0  0  0  0  0  0  0  0  0  0  0
   20.3618   16.7898   25.2078 H   0  0  0  0  0  0  0  0  0  0  0  0
   21.0619   16.5939   23.6063 H   0  0  0  0  0  0  0  0  0  0  0  0
   19.7991   18.3576   23.8152 C   0  0  0  0  0  0  0  0  0  0  0  0
   18.8541   18.6277   24.3063 H   0  0  0  0  0  0  0  0  0  0  0  0
   19.6428   18.4721   22.7353 H   0  0  0  0  0  0  0  0  0  0  0  0
   20.9174   19.3203   24.2821 C   0  0  0  0  0  0  0  0  0  0  0  0
   21.0986   19.1706   25.3554 H   0  0  0  0  0  0  0  0  0  0  0  0
   21.8578   19.0717   23.7706 H   0  0  0  0  0  0  0  0  0  0  0  0
   20.5769   20.8097   24.0405 C   0  0  0  0  0  0  0  0  0  0  0  0
   21.3704   21.4316   24.4758 H   0  0  0  0  0  0  0  0  0  0  0  0
   19.6497   21.0669   24.5699 H   0  0  0  0  0  0  0  0  0  0  0  0
   20.4321   21.1528   22.5459 C   0  0  0  0  0  0  0  0  0  0  0  0
   21.3553   20.8973   22.0188 H   0  0  0  0  0  0  0  0  0  0  0  0
   19.6146   20.5727   22.1101 H   0  0  0  0  0  0  0  0  0  0  0  0
   20.1434   22.6195   22.2997 N   0  3  0  0  0  0  0  0  0  0  0  0
   20.0509   22.8270   21.2993 H   0  0  0  0  0  0  0  0  0  0  0  0
   20.8901   23.2218   22.6614 H   0  0  0  0  0  0  0  0  0  0  0  0
   19.2712   22.9179   22.7484 H   0  0  0  0  0  0  0  0  0  0  0  0
  1  2  1  0  0  0  0
  1  3  1  0  0  0  0
  1  4  1  0  0  0  0
  1  5  1  0  0  0  0
  5  6  1  0  0  0  0
  5  7  1  0  0  0  0
  5  8  1  0  0  0  0
  8  9  1  0  0  0  0
  8 10  1  0  0  0  0
  8 11  1  0  0  0  0
 11 12  1  0  0  0  0
 11 13  1  0  0  0  0
 11 14  1  0  0  0  0
 14 15  1  0  0  0  0
 14 16  1  0  0  0  0
 14 17  1  0  0  0  0
 17 18  1  0  0  0  0
 17 19  1  0  0  0  0
 17 20  1  0  0  0  0
 20 21  1  0  0  0  0
 20 22  1  0  0  0  0
 20 23  1  0  0  0  0
 23 24  1  0  0  0  0
 23 25  1  0  0  0  0
 23 26  1  0  0  0  0
M  END
> <VConfSearch Rank>
378

> <Conf_Id>
96

> <Delta U+W>
0.912

> <U+W>
-4.640

> <U>
48.723

> <W>
-53.364

> <W(PB)>
-55.683

> <W(SA)>
2.320

> <Valence>
2.962

> <Coulomb>
44.993

> <VdW>
0.768

> <VdW6>
-7.008

> <VdW12>
7.776

> <Bond>
0.188

> <Angle>
0.757

> <Pdih>
2.018

> <Idih>
0.000

> <Tether>
0.000

$$$$
VeraChem MOL file


 26 25  0  0  0  0  0  0  0  0999 V2000     
   21.8432   19.4403   20.3749 C   0  0  0  0  0  0  0  0  0  0  0  0
   22.7064   19.4340   19.6968 H   0  0  0  0  0  0  0  0  0  0  0  0
   21.0804   20.0997   19.9411 H   0  0  0  0  0  0  0  0  0  0  0  0
   22.1746   19.8757   21.3257 H   0  0  0  0  0  0  0  0  0  0  0  0
   21.2958   18.0076   20.5663 C   0  0  0  0  0  0  0  0  0  0  0  0
   22.0664   17.3763   21.0302 H   0  0  0  0  0  0  0  0  0  0  0  0
   21.0947   17.5708   19.5780 H   0  0  0  0  0  0  0  0  0  0  0  0
   19.9973   17.9517   21.4069 C   0  0  0  0  0  0  0  0  0  0  0  0
   19.2237   18.5680   20.9284 H   0  0  0  0  0  0  0  0  0  0  0  0
   19.6203   16.9196   21.3968 H   0  0  0  0  0  0  0  0  0  0  0  0
   20.1921   18.4047   22.8738 C   0  0  0  0  0  0  0  0  0  0  0  0
   20.5066   19.4556   22.8948 H   0  0  0  0  0  0  0  0  0  0  0  0
   21.0001   17.8190   23.3335 H   0  0  0  0  0  0  0  0  0  0  0  0
   18.8957   18.2350   23.7019 C   0  0  0  0  0  0  0  0  0  0  0  0
   18.0927   18.8427   23.2620 H   0  0  0  0  0  0  0  0  0  0  0  0
   18.5624   17.1897   23.6420 H   0  0  0  0  0  0  0  0  0  0  0  0
   19.0722   18.6137   25.1913 C   0  0  0  0  0  0  0  0  0  0  0  0
   19.8581   17.9914   25.6397 H   0  0  0  0  0  0  0  0  0  0  0  0
   18.1433   18.3833   25.7298 H   0  0  0  0  0  0  0  0  0  0  0  0
   19.4132   20.1024   25.3909 C   0  0  0  0  0  0  0  0  0  0  0  0
   20.3601   20.3349   24.8970 H   0  0  0  0  0  0  0  0  0  0  0  0
   18.6305   20.7221   24.9451 H   0  0  0  0  0  0  0  0  0  0  0  0
   19.5429   20.4903   26.8497 N   0  3  0  0  0  0  0  0  0  0  0  0
   20.2830   19.9605   27.3217 H   0  0  0  0  0  0  0  0  0  0  0  0
   18.6743   20.3228   27.3682 H   0  0  0  0  0  0  0  0  0  0  0  0
   19.7698   21.4845   26.9610 H   0  0  0  0  0  0  0  0  0  0  0  0
  1  2  1  0  0  0  0
  1  3  1  0  0  0  0
  1  4  1  0  0  0  0
  1  5  1  0  0  0  0
  5  6  1  0  0  0  0
  5  7  1  0  0  0  0
  5  8  1  0  0  0  0
  8  9  1  0  0  0  0
  8 10  1  0  0  0  0
  8 11  1  0  0  0  0
 11 12  1  0  0  0  0
 11 13  1  0  0  0  0
 11 14  1  0  0  0  0
 14 15  1  0  0  0  0
 14 16  1  0  0  0  0
 14 17  1  0  0  0  0
 17 18  1  0  0  0  0
 17 19  1  0  0  0  0
 17 20  1  0  0  0  0
 20 21  1  0  0  0  0
 20 22  1  0  0  0  0
 20 23  1  0  0  0  0
 23 24  1  0  0  0  0
 23 25  1  0  0  0  0
 23 26  1  0  0  0  0
M  END
> <VConfSearch Rank>
379

> <Conf_Id>
133

> <Delta U+W>
0.844

> <U+W>
-4.708

> <U>
48.723

> <W>
-53.431

> <W(PB)>
-55.776

> <W(SA)>
2.344

> <Valence>
2.962

> <Coulomb>
44.993

> <VdW>
0.768

> <VdW6>
-7.008

> <VdW12>
7.776

> <Bond>
0.188

> <Angle>
0.756

> <Pdih>
2.018

> <Idih>
0.000

> <Tether>
0.000

$$$$
VeraChem MOL file


 26 25  0  0  0  0  0  0  0  0999 V2000     
   22.0379   18.5810   20.7184 C   0  0  0  0  0  0  0  0  0  0  0  0
   21.5982   18.3681   19.7354 H   0  0  0  0  0  0  0  0  0  0  0  0
   21.5814   19.4993   21.1082 H   0  0  0  0  0  0  0  0  0  0  0  0
   23.1075   18.7800   20.5723 H   0  0  0  0  0  0  0  0  0  0  0  0
   21.8354   17.3934   21.6863 C   0  0  0  0  0  0  0  0  0  0  0  0
   22.2650   17.6370   22.6671 H   0  0  0  0  0  0  0  0  0  0  0  0
   22.4077   16.5323   21.3138 H   0  0  0  0  0  0  0  0  0  0  0  0
   20.3524   16.9698   21.8407 C   0  0  0  0  0  0  0  0  0  0  0  0
   19.9824   16.6136   20.8694 H   0  0  0  0  0  0  0  0  0  0  0  0
   20.3000   16.1055   22.5171 H   0  0  0  0  0  0  0  0  0  0  0  0
   19.3976   18.0753   22.3608 C   0  0  0  0  0  0  0  0  0  0  0  0
   18.3817   17.6595   22.4076 H   0  0  0  0  0  0  0  0  0  0  0  0
   19.3523   18.9011   21.6385 H   0  0  0  0  0  0  0  0  0  0  0  0
   19.7839   18.6204   23.7567 C   0  0  0  0  0  0  0  0  0  0  0  0
   19.8720   17.7856   24.4658 H   0  0  0  0  0  0  0  0  0  0  0  0
   20.7680   19.1053   23.7097 H   0  0  0  0  0  0  0  0  0  0  0  0
   18.7465   19.6363   24.2832 C   0  0  0  0  0  0  0  0  0  0  0  0
   17.7592   19.1592   24.3453 H   0  0  0  0  0  0  0  0  0  0  0  0
   18.6568   20.4725   23.5769 H   0  0  0  0  0  0  0  0  0  0  0  0
   19.1410   20.1769   25.6689 C   0  0  0  0  0  0  0  0  0  0  0  0
   19.2158   19.3491   26.3793 H   0  0  0  0  0  0  0  0  0  0  0  0
   20.1162   20.6677   25.6086 H   0  0  0  0  0  0  0  0  0  0  0  0
   18.1468   21.1782   26.2205 N   0  3  0  0  0  0  0  0  0  0  0  0
   18.4283   21.5255   27.1438 H   0  0  0  0  0  0  0  0  0  0  0  0
   17.2125   20.7697   26.3276 H   0  0  0  0  0  0  0  0  0  0  0  0
   18.0502   21.9966   25.6105 H   0  0  0  0  0  0  0  0  0  0  0  0
  1  2  1  0  0  0  0
  1  3  1  0  0  0  0
  1  4  1  0  0  0  0
  1  5  1  0  0  0  0
  5  6  1  0  0  0  0
  5  7  1  0  0  0  0
  5  8  1  0  0  0  0
  8  9  1  0  0  0  0
  8 10  1  0  0  0  0
  8 11  1  0  0  0  0
 11 12  1  0  0  0  0
 11 13  1  0  0  0  0
 11 14  1  0  0  0  0
 14 15  1  0  0  0  0
 14 16  1  0  0  0  0
 14 17  1  0  0  0  0
 17 18  1  0  0  0  0
 17 19  1  0  0  0  0
 17 20  1  0  0  0  0
 20 21  1  0  0  0  0
 20 22  1  0  0  0  0
 20 23  1  0  0  0  0
 23 24  1  0  0  0  0
 23 25  1  0  0  0  0
 23 26  1  0  0  0  0
M  END
> <VConfSearch Rank>
380

> <Conf_Id>
106

> <Delta U+W>
0.767

> <U+W>
-4.785

> <U>
48.494

> <W>
-53.279

> <W(PB)>
-55.569

> <W(SA)>
2.290

> <Valence>
3.117

> <Coulomb>
44.693

> <VdW>
0.684

> <VdW6>
-7.347

> <VdW12>
8.030

> <Bond>
0.208

> <Angle>
1.039

> <Pdih>
1.870

> <Idih>
0.000

> <Tether>
0.000

$$$$
VeraChem MOL file


 26 25  0  0  0  0  0  0  0  0999 V2000     
   16.1563   21.0111   22.2874 C   0  0  0  0  0  0  0  0  0  0  0  0
   16.5519   22.0258   22.4257 H   0  0  0  0  0  0  0  0  0  0  0  0
   16.1901   20.7739   21.2161 H   0  0  0  0  0  0  0  0  0  0  0  0
   15.1035   21.0146   22.5986 H   0  0  0  0  0  0  0  0  0  0  0  0
   16.9640   19.9840   23.1089 C   0  0  0  0  0  0  0  0  0  0  0  0
   16.5245   18.9853   22.9772 H   0  0  0  0  0  0  0  0  0  0  0  0
   16.8833   20.2275   24.1776 H   0  0  0  0  0  0  0  0  0  0  0  0
   18.4508   19.9589   22.6904 C   0  0  0  0  0  0  0  0  0  0  0  0
   18.5262   19.7175   21.6211 H   0  0  0  0  0  0  0  0  0  0  0  0
   18.8851   20.9597   22.8216 H   0  0  0  0  0  0  0  0  0  0  0  0
   19.2630   18.9314   23.5107 C   0  0  0  0  0  0  0  0  0  0  0  0
   18.8279   17.9310   23.3792 H   0  0  0  0  0  0  0  0  0  0  0  0
   19.1866   19.1732   24.5800 H   0  0  0  0  0  0  0  0  0  0  0  0
   20.7504   18.9068   23.0918 C   0  0  0  0  0  0  0  0  0  0  0  0
   20.8272   18.6649   22.0225 H   0  0  0  0  0  0  0  0  0  0  0  0
   21.1860   19.9072   23.2234 H   0  0  0  0  0  0  0  0  0  0  0  0
   21.5628   17.8800   23.9112 C   0  0  0  0  0  0  0  0  0  0  0  0
   21.1338   16.8778   23.7781 H   0  0  0  0  0  0  0  0  0  0  0  0
   21.4928   18.1213   24.9803 H   0  0  0  0  0  0  0  0  0  0  0  0
   23.0417   17.8640   23.4862 C   0  0  0  0  0  0  0  0  0  0  0  0
   23.1173   17.6079   22.4259 H   0  0  0  0  0  0  0  0  0  0  0  0
   23.4776   18.8560   23.6325 H   0  0  0  0  0  0  0  0  0  0  0  0
   23.8733   16.8679   24.2684 N   0  3  0  0  0  0  0  0  0  0  0  0
   24.8547   16.8733   23.9697 H   0  0  0  0  0  0  0  0  0  0  0  0
   23.5311   15.9086   24.1509 H   0  0  0  0  0  0  0  0  0  0  0  0
   23.8663   17.0699   25.2736 H   0  0  0  0  0  0  0  0  0  0  0  0
  1  2  1  0  0  0  0
  1  3  1  0  0  0  0
  1  4  1  0  0  0  0
  1  5  1  0  0  0  0
  5  6  1  0  0  0  0
  5  7  1  0  0  0  0
  5  8  1  0  0  0  0
  8  9  1  0  0  0  0
  8 10  1  0  0  0  0
  8 11  1  0  0  0  0
 11 12  1  0  0  0  0
 11 13  1  0  0  0  0
 11 14  1  0  0  0  0
 14 15  1  0  0  0  0
 14 16  1  0  0  0  0
 14 17  1  0  0  0  0
 17 18  1  0  0  0  0
 17 19  1  0  0  0  0
 17 20  1  0  0  0  0
 20 21  1  0  0  0  0
 20 22  1  0  0  0  0
 20 23  1  0  0  0  0
 23 24  1  0  0  0  0
 23 25  1  0  0  0  0
 23 26  1  0  0  0  0
M  END
> <VConfSearch Rank>
381

> <Conf_Id>
25

> <Delta U+W>
0.000

> <U+W>
-5.552

> <U>
47.192

> <W>
-52.745

> <W(PB)>
-55.134

> <W(SA)>
2.389

> <Valence>
2.156

> <Coulomb>
44.449

> <VdW>
0.587

> <VdW6>
-5.761

> <VdW12>
6.348

> <Bond>
0.129

> <Angle>
0.393

> <Pdih>
1.634

> <Idih>
0.000

> <Tether>
0.000

$$$$
VeraChem MOL file


 26 25  0  0  0  0  0  0  0  0999 V2000     
   18.0080   22.7900   22.9482 C   0  0  0  0  0  0  0  0  0  0  0  0
   18.8799   23.3346   22.5630 H   0  0  0  0  0  0  0  0  0  0  0  0
   17.4179   22.4395   22.0913 H   0  0  0  0  0  0  0  0  0  0  0  0
   17.3909   23.4994   23.5147 H   0  0  0  0  0  0  0  0  0  0  0  0
   18.4420   21.6097   23.8429 C   0  0  0  0  0  0  0  0  0  0  0  0
   17.5496   21.1058   24.2400 H   0  0  0  0  0  0  0  0  0  0  0  0
   19.0003   21.9941   24.7081 H   0  0  0  0  0  0  0  0  0  0  0  0
   19.3129   20.5952   23.0692 C   0  0  0  0  0  0  0  0  0  0  0  0
   18.7515   20.2156   22.2042 H   0  0  0  0  0  0  0  0  0  0  0  0
   20.2024   21.1038   22.6724 H   0  0  0  0  0  0  0  0  0  0  0  0
   19.7494   19.4116   23.9620 C   0  0  0  0  0  0  0  0  0  0  0  0
   18.8594   18.9034   24.3582 H   0  0  0  0  0  0  0  0  0  0  0  0
   20.3097   19.7925   24.8272 H   0  0  0  0  0  0  0  0  0  0  0  0
   20.6211   18.3972   23.1878 C   0  0  0  0  0  0  0  0  0  0  0  0
   20.0583   18.0237   22.3218 H   0  0  0  0  0  0  0  0  0  0  0  0
   21.5127   18.9049   22.7941 H   0  0  0  0  0  0  0  0  0  0  0  0
   21.0562   17.2129   24.0830 C   0  0  0  0  0  0  0  0  0  0  0  0
   20.1725   16.6790   24.4570 H   0  0  0  0  0  0  0  0  0  0  0  0
   21.5855   17.5986   24.9645 H   0  0  0  0  0  0  0  0  0  0  0  0
   21.9839   16.2232   23.3520 C   0  0  0  0  0  0  0  0  0  0  0  0
   22.8620   16.7531   22.9730 H   0  0  0  0  0  0  0  0  0  0  0  0
   22.3244   15.4583   24.0552 H   0  0  0  0  0  0  0  0  0  0  0  0
   21.3228   15.5141   22.1863 N   0  3  0  0  0  0  0  0  0  0  0  0
   21.0106   16.1745   21.4677 H   0  0  0  0  0  0  0  0  0  0  0  0
   20.5009   14.9780   22.4832 H   0  0  0  0  0  0  0  0  0  0  0  0
   21.9620   14.8541   21.7301 H   0  0  0  0  0  0  0  0  0  0  0  0
  1  2  1  0  0  0  0
  1  3  1  0  0  0  0
  1  4  1  0  0  0  0
  1  5  1  0  0  0  0
  5  6  1  0  0  0  0
  5  7  1  0  0  0  0
  5  8  1  0  0  0  0
  8  9  1  0  0  0  0
  8 10  1  0  0  0  0
  8 11  1  0  0  0  0
 11 12  1  0  0  0  0
 11 13  1  0  0  0  0
 11 14  1  0  0  0  0
 14 15  1  0  0  0  0
 14 16  1  0  0  0  0
 14 17  1  0  0  0  0
 17 18  1  0  0  0  0
 17 19  1  0  0  0  0
 17 20  1  0  0  0  0
 20 21  1  0  0  0  0
 20 22  1  0  0  0  0
 20 23  1  0  0  0  0
 23 24  1  0  0  0  0
 23 25  1  0  0  0  0
 23 26  1  0  0  0  0
M  END
> <VConfSearch Rank>
382

> <Conf_Id>
20

> <Delta U+W>
0.150

> <U+W>
-5.403

> <U>
47.845

> <W>
-53.248

> <W(PB)>
-55.599

> <W(SA)>
2.351

> <Valence>
2.258

> <Coulomb>
44.893

> <VdW>
0.694

> <VdW6>
-6.285

> <VdW12>
6.979

> <Bond>
0.149

> <Angle>
0.434

> <Pdih>
1.675

> <Idih>
0.000

> <Tether>
0.000

$$$$
VeraChem MOL file


 26 25  0  0  0  0  0  0  0  0999 V2000     
   18.3716   21.6189   20.2744 C   0  0  0  0  0  0  0  0  0  0  0  0
   19.3789   21.8441   19.9003 H   0  0  0  0  0  0  0  0  0  0  0  0
   17.9422   20.8281   19.6455 H   0  0  0  0  0  0  0  0  0  0  0  0
   17.7567   22.5197   20.1498 H   0  0  0  0  0  0  0  0  0  0  0  0
   18.4134   21.1883   21.7559 C   0  0  0  0  0  0  0  0  0  0  0  0
   17.3898   21.0030   22.1107 H   0  0  0  0  0  0  0  0  0  0  0  0
   18.8155   22.0111   22.3635 H   0  0  0  0  0  0  0  0  0  0  0  0
   19.2733   19.9212   21.9593 C   0  0  0  0  0  0  0  0  0  0  0  0
   18.8689   19.1023   21.3484 H   0  0  0  0  0  0  0  0  0  0  0  0
   20.2946   20.1105   21.6011 H   0  0  0  0  0  0  0  0  0  0  0  0
   19.3175   19.4868   23.4418 C   0  0  0  0  0  0  0  0  0  0  0  0
   18.2955   19.2990   23.7993 H   0  0  0  0  0  0  0  0  0  0  0  0
   19.7223   20.3061   24.0521 H   0  0  0  0  0  0  0  0  0  0  0  0
   20.1772   18.2187   23.6449 C   0  0  0  0  0  0  0  0  0  0  0  0
   19.7706   17.3986   23.0368 H   0  0  0  0  0  0  0  0  0  0  0  0
   21.1957   18.4104   23.2816 H   0  0  0  0  0  0  0  0  0  0  0  0
   20.2210   17.7862   25.1296 C   0  0  0  0  0  0  0  0  0  0  0  0
   19.1965   17.6330   25.4941 H   0  0  0  0  0  0  0  0  0  0  0  0
   20.6552   18.5873   25.7426 H   0  0  0  0  0  0  0  0  0  0  0  0
   21.0155   16.4839   25.3473 C   0  0  0  0  0  0  0  0  0  0  0  0
   20.9406   16.1845   26.3962 H   0  0  0  0  0  0  0  0  0  0  0  0
   20.5892   15.6857   24.7337 H   0  0  0  0  0  0  0  0  0  0  0  0
   22.4882   16.6033   25.0074 N   0  3  0  0  0  0  0  0  0  0  0  0
   22.9515   17.3246   25.5697 H   0  0  0  0  0  0  0  0  0  0  0  0
   22.6322   16.8473   24.0227 H   0  0  0  0  0  0  0  0  0  0  0  0
   22.9900   15.7244   25.1753 H   0  0  0  0  0  0  0  0  0  0  0  0
  1  2  1  0  0  0  0
  1  3  1  0  0  0  0
  1  4  1  0  0  0  0
  1  5  1  0  0  0  0
  5  6  1  0  0  0  0
  5  7  1  0  0  0  0
  5  8  1  0  0  0  0
  8  9  1  0  0  0  0
  8 10  1  0  0  0  0
  8 11  1  0  0  0  0
 11 12  1  0  0  0  0
 11 13  1  0  0  0  0
 11 14  1  0  0  0  0
 14 15  1  0  0  0  0
 14 16  1  0  0  0  0
 14 17  1  0  0  0  0
 17 18  1  0  0  0  0
 17 19  1  0  0  0  0
 17 20  1  0  0  0  0
 20 21  1  0  0  0  0
 20 22  1  0  0  0  0
 20 23  1  0  0  0  0
 23 24  1  0  0  0  0
 23 25  1  0  0  0  0
 23 26  1  0  0  0  0
M  END
> <VConfSearch Rank>
383

> <Conf_Id>
19

> <Delta U+W>
0.162

> <U+W>
-5.391

> <U>
47.845

> <W>
-53.235

> <W(PB)>
-55.585

> <W(SA)>
2.349

> <Valence>
2.258

> <Coulomb>
44.893

> <VdW>
0.694

> <VdW6>
-6.285

> <VdW12>
6.979

> <Bond>
0.149

> <Angle>
0.434

> <Pdih>
1.675

> <Idih>
0.000

> <Tether>
0.000

$$$$
VeraChem MOL file


 26 25  0  0  0  0  0  0  0  0999 V2000     
   21.7274   15.1345   23.0412 C   0  0  0  0  0  0  0  0  0  0  0  0
   21.1327   14.3252   23.4847 H   0  0  0  0  0  0  0  0  0  0  0  0
   21.6635   15.0468   21.9488 H   0  0  0  0  0  0  0  0  0  0  0  0
   22.7749   14.9803   23.3311 H   0  0  0  0  0  0  0  0  0  0  0  0
   21.2281   16.5155   23.5166 C   0  0  0  0  0  0  0  0  0  0  0  0
   21.8715   17.2940   23.0858 H   0  0  0  0  0  0  0  0  0  0  0  0
   21.3316   16.5840   24.6085 H   0  0  0  0  0  0  0  0  0  0  0  0
   19.7537   16.7576   23.1153 C   0  0  0  0  0  0  0  0  0  0  0  0
   19.6602   16.7414   22.0207 H   0  0  0  0  0  0  0  0  0  0  0  0
   19.1413   15.9253   23.4889 H   0  0  0  0  0  0  0  0  0  0  0  0
   19.1701   18.0816   23.6669 C   0  0  0  0  0  0  0  0  0  0  0  0
   19.2499   18.0901   24.7627 H   0  0  0  0  0  0  0  0  0  0  0  0
   18.0962   18.1103   23.4359 H   0  0  0  0  0  0  0  0  0  0  0  0
   19.8450   19.3463   23.0834 C   0  0  0  0  0  0  0  0  0  0  0  0
   20.9045   19.3730   23.3701 H   0  0  0  0  0  0  0  0  0  0  0  0
   19.8115   19.3077   21.9857 H   0  0  0  0  0  0  0  0  0  0  0  0
   19.1585   20.6403   23.5735 C   0  0  0  0  0  0  0  0  0  0  0  0
   19.1908   20.6832   24.6704 H   0  0  0  0  0  0  0  0  0  0  0  0
   18.0997   20.6312   23.2822 H   0  0  0  0  0  0  0  0  0  0  0  0
   19.8376   21.8929   22.9922 C   0  0  0  0  0  0  0  0  0  0  0  0
   20.8884   21.9154   23.2934 H   0  0  0  0  0  0  0  0  0  0  0  0
   19.7933   21.8624   21.9001 H   0  0  0  0  0  0  0  0  0  0  0  0
   19.1920   23.1847   23.4504 N   0  3  0  0  0  0  0  0  0  0  0  0
   19.2253   23.2879   24.4700 H   0  0  0  0  0  0  0  0  0  0  0  0
   18.2063   23.2386   23.1736 H   0  0  0  0  0  0  0  0  0  0  0  0
   19.6593   24.0064   23.0519 H   0  0  0  0  0  0  0  0  0  0  0  0
  1  2  1  0  0  0  0
  1  3  1  0  0  0  0
  1  4  1  0  0  0  0
  1  5  1  0  0  0  0
  5  6  1  0  0  0  0
  5  7  1  0  0  0  0
  5  8  1  0  0  0  0
  8  9  1  0  0  0  0
  8 10  1  0  0  0  0
  8 11  1  0  0  0  0
 11 12  1  0  0  0  0
 11 13  1  0  0  0  0
 11 14  1  0  0  0  0
 14 15  1  0  0  0  0
 14 16  1  0  0  0  0
 14 17  1  0  0  0  0
 17 18  1  0  0  0  0
 17 19  1  0  0  0  0
 17 20  1  0  0  0  0
 20 21  1  0  0  0  0
 20 22  1  0  0  0  0
 20 23  1  0  0  0  0
 23 24  1  0  0  0  0
 23 25  1  0  0  0  0
 23 26  1  0  0  0  0
M  END
> <VConfSearch Rank>
384

> <Conf_Id>
37

> <Delta U+W>
0.565

> <U+W>
-4.988

> <U>
48.035

> <W>
-53.022

> <W(PB)>
-55.379

> <W(SA)>
2.357

> <Valence>
2.701

> <Coulomb>
44.622

> <VdW>
0.712

> <VdW6>
-6.418

> <VdW12>
7.129

> <Bond>
0.168

> <Angle>
0.659

> <Pdih>
1.875

> <Idih>
0.000

> <Tether>
0.000

$$$$
VeraChem MOL file


 26 25  0  0  0  0  0  0  0  0999 V2000     
   20.9929   19.5402   27.1328 C   0  0  0  0  0  0  0  0  0  0  0  0
   21.9407   19.8270   26.6589 H   0  0  0  0  0  0  0  0  0  0  0  0
   20.3788   20.4435   27.2433 H   0  0  0  0  0  0  0  0  0  0  0  0
   21.2196   19.1618   28.1380 H   0  0  0  0  0  0  0  0  0  0  0  0
   20.2581   18.4684   26.3000 C   0  0  0  0  0  0  0  0  0  0  0  0
   19.3327   18.1772   26.8165 H   0  0  0  0  0  0  0  0  0  0  0  0
   20.8822   17.5660   26.2349 H   0  0  0  0  0  0  0  0  0  0  0  0
   19.9259   18.9759   24.8793 C   0  0  0  0  0  0  0  0  0  0  0  0
   19.3004   19.8765   24.9496 H   0  0  0  0  0  0  0  0  0  0  0  0
   20.8569   19.2717   24.3785 H   0  0  0  0  0  0  0  0  0  0  0  0
   19.1927   17.9003   24.0421 C   0  0  0  0  0  0  0  0  0  0  0  0
   18.3057   17.5608   24.5947 H   0  0  0  0  0  0  0  0  0  0  0  0
   19.8381   17.0189   23.9238 H   0  0  0  0  0  0  0  0  0  0  0  0
   18.7393   18.4019   22.6490 C   0  0  0  0  0  0  0  0  0  0  0  0
   18.1316   17.6173   22.1771 H   0  0  0  0  0  0  0  0  0  0  0  0
   18.0797   19.2728   22.7677 H   0  0  0  0  0  0  0  0  0  0  0  0
   19.9131   18.7613   21.7078 C   0  0  0  0  0  0  0  0  0  0  0  0
   20.5991   17.9074   21.6295 H   0  0  0  0  0  0  0  0  0  0  0  0
   20.4860   19.6009   22.1210 H   0  0  0  0  0  0  0  0  0  0  0  0
   19.4089   19.1420   20.3046 C   0  0  0  0  0  0  0  0  0  0  0  0
   18.8517   18.3055   19.8741 H   0  0  0  0  0  0  0  0  0  0  0  0
   18.7378   20.0023   20.3755 H   0  0  0  0  0  0  0  0  0  0  0  0
   20.5283   19.4995   19.3482 N   0  3  0  0  0  0  0  0  0  0  0  0
   21.1817   18.7205   19.2163 H   0  0  0  0  0  0  0  0  0  0  0  0
   21.0756   20.2996   19.6821 H   0  0  0  0  0  0  0  0  0  0  0  0
   20.1706   19.7493   18.4197 H   0  0  0  0  0  0  0  0  0  0  0  0
  1  2  1  0  0  0  0
  1  3  1  0  0  0  0
  1  4  1  0  0  0  0
  1  5  1  0  0  0  0
  5  6  1  0  0  0  0
  5  7  1  0  0  0  0
  5  8  1  0  0  0  0
  8  9  1  0  0  0  0
  8 10  1  0  0  0  0
  8 11  1  0  0  0  0
 11 12  1  0  0  0  0
 11 13  1  0  0  0  0
 11 14  1  0  0  0  0
 14 15  1  0  0  0  0
 14 16  1  0  0  0  0
 14 17  1  0  0  0  0
 17 18  1  0  0  0  0
 17 19  1  0  0  0  0
 17 20  1  0  0  0  0
 20 21  1  0  0  0  0
 20 22  1  0  0  0  0
 20 23  1  0  0  0  0
 23 24  1  0  0  0  0
 23 25  1  0  0  0  0
 23 26  1  0  0  0  0
M  END
> <VConfSearch Rank>
385

> <Conf_Id>
35

> <Delta U+W>
0.587

> <U+W>
-4.965

> <U>
48.214

> <W>
-53.179

> <W(PB)>
-55.527

> <W(SA)>
2.348

> <Valence>
2.697

> <Coulomb>
44.819

> <VdW>
0.699

> <VdW6>
-6.437

> <VdW12>
7.136

> <Bond>
0.168

> <Angle>
0.657

> <Pdih>
1.872

> <Idih>
0.000

> <Tether>
0.000

$$$$
VeraChem MOL file


 26 25  0  0  0  0  0  0  0  0999 V2000     
   23.9495   17.8774   23.0281 C   0  0  0  0  0  0  0  0  0  0  0  0
   24.1050   17.8288   24.1138 H   0  0  0  0  0  0  0  0  0  0  0  0
   23.4956   16.9314   22.7051 H   0  0  0  0  0  0  0  0  0  0  0  0
   24.9343   17.9591   22.5500 H   0  0  0  0  0  0  0  0  0  0  0  0
   23.0581   19.0789   22.6486 C   0  0  0  0  0  0  0  0  0  0  0  0
   22.9481   19.1205   21.5558 H   0  0  0  0  0  0  0  0  0  0  0  0
   23.5545   20.0110   22.9530 H   0  0  0  0  0  0  0  0  0  0  0  0
   21.6648   18.9891   23.3096 C   0  0  0  0  0  0  0  0  0  0  0  0
   21.1843   18.0502   23.0048 H   0  0  0  0  0  0  0  0  0  0  0  0
   21.7799   18.9497   24.4016 H   0  0  0  0  0  0  0  0  0  0  0  0
   20.7688   20.1914   22.9263 C   0  0  0  0  0  0  0  0  0  0  0  0
   20.6071   20.2017   21.8395 H   0  0  0  0  0  0  0  0  0  0  0  0
   21.2987   21.1232   23.1678 H   0  0  0  0  0  0  0  0  0  0  0  0
   19.4020   20.2027   23.6543 C   0  0  0  0  0  0  0  0  0  0  0  0
   19.5636   20.2101   24.7412 H   0  0  0  0  0  0  0  0  0  0  0  0
   18.8868   21.1430   23.4131 H   0  0  0  0  0  0  0  0  0  0  0  0
   18.4863   19.0165   23.2712 C   0  0  0  0  0  0  0  0  0  0  0  0
   18.9457   18.0689   23.5793 H   0  0  0  0  0  0  0  0  0  0  0  0
   18.3660   18.9793   22.1803 H   0  0  0  0  0  0  0  0  0  0  0  0
   17.1029   19.1406   23.9338 C   0  0  0  0  0  0  0  0  0  0  0  0
   17.2162   19.1617   25.0211 H   0  0  0  0  0  0  0  0  0  0  0  0
   16.6264   20.0731   23.6194 H   0  0  0  0  0  0  0  0  0  0  0  0
   16.1716   17.9983   23.5826 N   0  3  0  0  0  0  0  0  0  0  0  0
   16.5497   17.0921   23.8777 H   0  0  0  0  0  0  0  0  0  0  0  0
   16.0017   17.9403   22.5731 H   0  0  0  0  0  0  0  0  0  0  0  0
   15.2560   18.1009   24.0338 H   0  0  0  0  0  0  0  0  0  0  0  0
  1  2  1  0  0  0  0
  1  3  1  0  0  0  0
  1  4  1  0  0  0  0
  1  5  1  0  0  0  0
  5  6  1  0  0  0  0
  5  7  1  0  0  0  0
  5  8  1  0  0  0  0
  8  9  1  0  0  0  0
  8 10  1  0  0  0  0
  8 11  1  0  0  0  0
 11 12  1  0  0  0  0
 11 13  1  0  0  0  0
 11 14  1  0  0  0  0
 14 15  1  0  0  0  0
 14 16  1  0  0  0  0
 14 17  1  0  0  0  0
 17 18  1  0  0  0  0
 17 19  1  0  0  0  0
 17 20  1  0  0  0  0
 20 21  1  0  0  0  0
 20 22  1  0  0  0  0
 20 23  1  0  0  0  0
 23 24  1  0  0  0  0
 23 25  1  0  0  0  0
 23 26  1  0  0  0  0
M  END
> <VConfSearch Rank>
386

> <Conf_Id>
36

> <Delta U+W>
0.565

> <U+W>
-4.987

> <U>
48.214

> <W>
-53.201

> <W(PB)>
-55.543

> <W(SA)>
2.342

> <Valence>
2.697

> <Coulomb>
44.819

> <VdW>
0.698

> <VdW6>
-6.437

> <VdW12>
7.136

> <Bond>
0.168

> <Angle>
0.657

> <Pdih>
1.872

> <Idih>
0.000

> <Tether>
0.000

$$$$
VeraChem MOL file


 26 25  0  0  0  0  0  0  0  0999 V2000     
   17.6459   22.4070   22.5117 C   0  0  0  0  0  0  0  0  0  0  0  0
   17.9211   23.0585   23.3514 H   0  0  0  0  0  0  0  0  0  0  0  0
   17.5170   23.0386   21.6232 H   0  0  0  0  0  0  0  0  0  0  0  0
   16.6765   21.9453   22.7405 H   0  0  0  0  0  0  0  0  0  0  0  0
   18.7271   21.3335   22.2650 C   0  0  0  0  0  0  0  0  0  0  0  0
   19.6756   21.8244   22.0056 H   0  0  0  0  0  0  0  0  0  0  0  0
   18.4406   20.7199   21.3994 H   0  0  0  0  0  0  0  0  0  0  0  0
   18.9286   20.4297   23.5015 C   0  0  0  0  0  0  0  0  0  0  0  0
   19.2120   21.0482   24.3645 H   0  0  0  0  0  0  0  0  0  0  0  0
   17.9775   19.9428   23.7582 H   0  0  0  0  0  0  0  0  0  0  0  0
   20.0108   19.3536   23.2586 C   0  0  0  0  0  0  0  0  0  0  0  0
   20.9619   19.8419   23.0046 H   0  0  0  0  0  0  0  0  0  0  0  0
   19.7242   18.7437   22.3914 H   0  0  0  0  0  0  0  0  0  0  0  0
   20.2094   18.4490   24.4985 C   0  0  0  0  0  0  0  0  0  0  0  0
   20.4476   19.0762   25.3687 H   0  0  0  0  0  0  0  0  0  0  0  0
   19.2686   17.9330   24.7357 H   0  0  0  0  0  0  0  0  0  0  0  0
   21.3373   17.4065   24.3153 C   0  0  0  0  0  0  0  0  0  0  0  0
   21.4785   16.8647   25.2600 H   0  0  0  0  0  0  0  0  0  0  0  0
   22.2842   17.9206   24.1030 H   0  0  0  0  0  0  0  0  0  0  0  0
   21.0353   16.3937   23.1948 C   0  0  0  0  0  0  0  0  0  0  0  0
   20.0932   15.8810   23.4065 H   0  0  0  0  0  0  0  0  0  0  0  0
   20.9363   16.9164   22.2399 H   0  0  0  0  0  0  0  0  0  0  0  0
   22.1152   15.3426   23.0391 N   0  3  0  0  0  0  0  0  0  0  0  0
   21.8953   14.6785   22.2887 H   0  0  0  0  0  0  0  0  0  0  0  0
   22.2404   14.7935   23.8959 H   0  0  0  0  0  0  0  0  0  0  0  0
   23.0242   15.7591   22.8122 H   0  0  0  0  0  0  0  0  0  0  0  0
  1  2  1  0  0  0  0
  1  3  1  0  0  0  0
  1  4  1  0  0  0  0
  1  5  1  0  0  0  0
  5  6  1  0  0  0  0
  5  7  1  0  0  0  0
  5  8  1  0  0  0  0
  8  9  1  0  0  0  0
  8 10  1  0  0  0  0
  8 11  1  0  0  0  0
 11 12  1  0  0  0  0
 11 13  1  0  0  0  0
 11 14  1  0  0  0  0
 14 15  1  0  0  0  0
 14 16  1  0  0  0  0
 14 17  1  0  0  0  0
 17 18  1  0  0  0  0
 17 19  1  0  0  0  0
 17 20  1  0  0  0  0
 20 21  1  0  0  0  0
 20 22  1  0  0  0  0
 20 23  1  0  0  0  0
 23 24  1  0  0  0  0
 23 25  1  0  0  0  0
 23 26  1  0  0  0  0
M  END
> <VConfSearch Rank>
387

> <Conf_Id>
44

> <Delta U+W>
0.371

> <U+W>
-5.181

> <U>
48.002

> <W>
-53.183

> <W(PB)>
-55.533

> <W(SA)>
2.350

> <Valence>
2.459

> <Coulomb>
44.901

> <VdW>
0.643

> <VdW6>
-6.362

> <VdW12>
7.005

> <Bond>
0.151

> <Angle>
0.519

> <Pdih>
1.789

> <Idih>
0.000

> <Tether>
0.000

$$$$
VeraChem MOL file


 26 25  0  0  0  0  0  0  0  0999 V2000     
   22.0162   22.2075   22.8775 C   0  0  0  0  0  0  0  0  0  0  0  0
   21.1182   22.8387   22.8661 H   0  0  0  0  0  0  0  0  0  0  0  0
   22.8869   22.8652   22.9969 H   0  0  0  0  0  0  0  0  0  0  0  0
   22.1057   21.7182   21.8999 H   0  0  0  0  0  0  0  0  0  0  0  0
   21.9565   21.1764   24.0275 C   0  0  0  0  0  0  0  0  0  0  0  0
   21.9986   21.7142   24.9850 H   0  0  0  0  0  0  0  0  0  0  0  0
   22.8482   20.5348   23.9963 H   0  0  0  0  0  0  0  0  0  0  0  0
   20.6800   20.3007   24.0075 C   0  0  0  0  0  0  0  0  0  0  0  0
   20.6646   19.7055   24.9292 H   0  0  0  0  0  0  0  0  0  0  0  0
   19.7921   20.9469   24.0403 H   0  0  0  0  0  0  0  0  0  0  0  0
   20.5973   19.3590   22.7791 C   0  0  0  0  0  0  0  0  0  0  0  0
   21.4832   18.7099   22.7482 H   0  0  0  0  0  0  0  0  0  0  0  0
   20.6212   19.9579   21.8596 H   0  0  0  0  0  0  0  0  0  0  0  0
   19.3157   18.4897   22.7480 C   0  0  0  0  0  0  0  0  0  0  0  0
   18.4300   19.1385   22.7933 H   0  0  0  0  0  0  0  0  0  0  0  0
   19.2745   17.9796   21.7765 H   0  0  0  0  0  0  0  0  0  0  0  0
   19.2510   17.4362   23.8825 C   0  0  0  0  0  0  0  0  0  0  0  0
   19.2438   17.9382   24.8577 H   0  0  0  0  0  0  0  0  0  0  0  0
   20.1481   16.8033   23.8606 H   0  0  0  0  0  0  0  0  0  0  0  0
   17.9940   16.5488   23.7977 C   0  0  0  0  0  0  0  0  0  0  0  0
   17.9526   15.8955   24.6736 H   0  0  0  0  0  0  0  0  0  0  0  0
   17.0991   17.1769   23.7986 H   0  0  0  0  0  0  0  0  0  0  0  0
   17.9493   15.6662   22.5656 N   0  3  0  0  0  0  0  0  0  0  0  0
   17.9470   16.2182   21.7025 H   0  0  0  0  0  0  0  0  0  0  0  0
   17.1084   15.0789   22.5485 H   0  0  0  0  0  0  0  0  0  0  0  0
   18.7560   15.0351   22.5199 H   0  0  0  0  0  0  0  0  0  0  0  0
  1  2  1  0  0  0  0
  1  3  1  0  0  0  0
  1  4  1  0  0  0  0
  1  5  1  0  0  0  0
  5  6  1  0  0  0  0
  5  7  1  0  0  0  0
  5  8  1  0  0  0  0
  8  9  1  0  0  0  0
  8 10  1  0  0  0  0
  8 11  1  0  0  0  0
 11 12  1  0  0  0  0
 11 13  1  0  0  0  0
 11 14  1  0  0  0  0
 14 15  1  0  0  0  0
 14 16  1  0  0  0  0
 14 17  1  0  0  0  0
 17 18  1  0  0  0  0
 17 19  1  0  0  0  0
 17 20  1  0  0  0  0
 20 21  1  0  0  0  0
 20 22  1  0  0  0  0
 20 23  1  0  0  0  0
 23 24  1  0  0  0  0
 23 25  1  0  0  0  0
 23 26  1  0  0  0  0
M  END
> <VConfSearch Rank>
388

> <Conf_Id>
112

> <Delta U+W>
1.422

> <U+W>
-4.130

> <U>
49.323

> <W>
-53.453

> <W(PB)>
-55.749

> <W(SA)>
2.296

> <Valence>
3.408

> <Coulomb>
44.893

> <VdW>
1.021

> <VdW6>
-7.481

> <VdW12>
8.503

> <Bond>
0.239

> <Angle>
1.013

> <Pdih>
2.156

> <Idih>
0.000

> <Tether>
0.000

$$$$
VeraChem MOL file


 26 25  0  0  0  0  0  0  0  0999 V2000     
   22.2592   16.8768   21.1770 C   0  0  0  0  0  0  0  0  0  0  0  0
   23.0459   16.2323   20.7640 H   0  0  0  0  0  0  0  0  0  0  0  0
   21.3753   16.2499   21.3485 H   0  0  0  0  0  0  0  0  0  0  0  0
   22.0066   17.6275   20.4170 H   0  0  0  0  0  0  0  0  0  0  0  0
   22.7403   17.5484   22.4832 C   0  0  0  0  0  0  0  0  0  0  0  0
   23.6887   18.0678   22.2866 H   0  0  0  0  0  0  0  0  0  0  0  0
   22.9620   16.7780   23.2349 H   0  0  0  0  0  0  0  0  0  0  0  0
   21.7262   18.5658   23.0592 C   0  0  0  0  0  0  0  0  0  0  0  0
   22.1857   19.0661   23.9228 H   0  0  0  0  0  0  0  0  0  0  0  0
   21.5383   19.3465   22.3106 H   0  0  0  0  0  0  0  0  0  0  0  0
   20.3900   17.9167   23.5007 C   0  0  0  0  0  0  0  0  0  0  0  0
   20.6079   17.0556   24.1473 H   0  0  0  0  0  0  0  0  0  0  0  0
   19.8566   17.5206   22.6265 H   0  0  0  0  0  0  0  0  0  0  0  0
   19.4573   18.8841   24.2704 C   0  0  0  0  0  0  0  0  0  0  0  0
   18.6006   18.3079   24.6439 H   0  0  0  0  0  0  0  0  0  0  0  0
   19.9790   19.2710   25.1567 H   0  0  0  0  0  0  0  0  0  0  0  0
   18.9468   20.0658   23.4082 C   0  0  0  0  0  0  0  0  0  0  0  0
   18.4455   19.6863   22.5079 H   0  0  0  0  0  0  0  0  0  0  0  0
   19.7961   20.6692   23.0646 H   0  0  0  0  0  0  0  0  0  0  0  0
   17.9868   20.9925   24.1792 C   0  0  0  0  0  0  0  0  0  0  0  0
   18.4764   21.3575   25.0861 H   0  0  0  0  0  0  0  0  0  0  0  0
   17.7379   21.8555   23.5555 H   0  0  0  0  0  0  0  0  0  0  0  0
   16.6850   20.3274   24.5816 N   0  3  0  0  0  0  0  0  0  0  0  0
   16.8429   19.5275   25.2022 H   0  0  0  0  0  0  0  0  0  0  0  0
   16.1665   19.9819   23.7675 H   0  0  0  0  0  0  0  0  0  0  0  0
   16.0644   20.9752   25.0790 H   0  0  0  0  0  0  0  0  0  0  0  0
  1  2  1  0  0  0  0
  1  3  1  0  0  0  0
  1  4  1  0  0  0  0
  1  5  1  0  0  0  0
  5  6  1  0  0  0  0
  5  7  1  0  0  0  0
  5  8  1  0  0  0  0
  8  9  1  0  0  0  0
  8 10  1  0  0  0  0
  8 11  1  0  0  0  0
 11 12  1  0  0  0  0
 11 13  1  0  0  0  0
 11 14  1  0  0  0  0
 14 15  1  0  0  0  0
 14 16  1  0  0  0  0
 14 17  1  0  0  0  0
 17 18  1  0  0  0  0
 17 19  1  0  0  0  0
 17 20  1  0  0  0  0
 20 21  1  0  0  0  0
 20 22  1  0  0  0  0
 20 23  1  0  0  0  0
 23 24  1  0  0  0  0
 23 25  1  0  0  0  0
 23 26  1  0  0  0  0
M  END
> <VConfSearch Rank>
389

> <Conf_Id>
130

> <Delta U+W>
1.282

> <U+W>
-4.270

> <U>
49.153

> <W>
-53.422

> <W(PB)>
-55.725

> <W(SA)>
2.303

> <Valence>
3.298

> <Coulomb>
44.907

> <VdW>
0.948

> <VdW6>
-7.574

> <VdW12>
8.522

> <Bond>
0.229

> <Angle>
0.912

> <Pdih>
2.157

> <Idih>
0.000

> <Tether>
0.000

$$$$
VeraChem MOL file


 26 25  0  0  0  0  0  0  0  0999 V2000     
   22.1289   21.5486   23.7625 C   0  0  0  0  0  0  0  0  0  0  0  0
   22.6077   21.4323   24.7434 H   0  0  0  0  0  0  0  0  0  0  0  0
   22.4437   22.5146   23.3471 H   0  0  0  0  0  0  0  0  0  0  0  0
   21.0429   21.5918   23.9123 H   0  0  0  0  0  0  0  0  0  0  0  0
   22.5235   20.3960   22.8117 C   0  0  0  0  0  0  0  0  0  0  0  0
   23.5991   20.4671   22.5976 H   0  0  0  0  0  0  0  0  0  0  0  0
   22.0173   20.5223   21.8455 H   0  0  0  0  0  0  0  0  0  0  0  0
   22.2292   18.9890   23.3922 C   0  0  0  0  0  0  0  0  0  0  0  0
   22.5608   18.2314   22.6689 H   0  0  0  0  0  0  0  0  0  0  0  0
   22.8481   18.8398   24.2877 H   0  0  0  0  0  0  0  0  0  0  0  0
   20.7480   18.7178   23.7628 C   0  0  0  0  0  0  0  0  0  0  0  0
   20.4314   19.4007   24.5621 H   0  0  0  0  0  0  0  0  0  0  0  0
   20.6865   17.7073   24.1875 H   0  0  0  0  0  0  0  0  0  0  0  0
   19.7777   18.8330   22.5598 C   0  0  0  0  0  0  0  0  0  0  0  0
   19.8161   19.8519   22.1529 H   0  0  0  0  0  0  0  0  0  0  0  0
   20.1045   18.1619   21.7535 H   0  0  0  0  0  0  0  0  0  0  0  0
   18.3099   18.5169   22.9319 C   0  0  0  0  0  0  0  0  0  0  0  0
   17.6709   18.7216   22.0625 H   0  0  0  0  0  0  0  0  0  0  0  0
   17.9782   19.1925   23.7317 H   0  0  0  0  0  0  0  0  0  0  0  0
   18.1064   17.0544   23.3703 C   0  0  0  0  0  0  0  0  0  0  0  0
   18.4379   16.3823   22.5742 H   0  0  0  0  0  0  0  0  0  0  0  0
   18.7004   16.8491   24.2644 H   0  0  0  0  0  0  0  0  0  0  0  0
   16.6617   16.7266   23.6877 N   0  3  0  0  0  0  0  0  0  0  0  0
   16.2964   17.3079   24.4492 H   0  0  0  0  0  0  0  0  0  0  0  0
   16.5475   15.7490   23.9771 H   0  0  0  0  0  0  0  0  0  0  0  0
   16.0502   16.8712   22.8776 H   0  0  0  0  0  0  0  0  0  0  0  0
  1  2  1  0  0  0  0
  1  3  1  0  0  0  0
  1  4  1  0  0  0  0
  1  5  1  0  0  0  0
  5  6  1  0  0  0  0
  5  7  1  0  0  0  0
  5  8  1  0  0  0  0
  8  9  1  0  0  0  0
  8 10  1  0  0  0  0
  8 11  1  0  0  0  0
 11 12  1  0  0  0  0
 11 13  1  0  0  0  0
 11 14  1  0  0  0  0
 14 15  1  0  0  0  0
 14 16  1  0  0  0  0
 14 17  1  0  0  0  0
 17 18  1  0  0  0  0
 17 19  1  0  0  0  0
 17 20  1  0  0  0  0
 20 21  1  0  0  0  0
 20 22  1  0  0  0  0
 20 23  1  0  0  0  0
 23 24  1  0  0  0  0
 23 25  1  0  0  0  0
 23 26  1  0  0  0  0
M  END
> <VConfSearch Rank>
390

> <Conf_Id>
111

> <Delta U+W>
1.290

> <U+W>
-4.262

> <U>
49.209

> <W>
-53.471

> <W(PB)>
-55.745

> <W(SA)>
2.274

> <Valence>
3.465

> <Coulomb>
44.958

> <VdW>
0.786

> <VdW6>
-7.903

> <VdW12>
8.689

> <Bond>
0.237

> <Angle>
1.212

> <Pdih>
2.015

> <Idih>
0.000

> <Tether>
0.000

$$$$
VeraChem MOL file


 26 25  0  0  0  0  0  0  0  0999 V2000     
   18.3164   22.5846   23.8455 C   0  0  0  0  0  0  0  0  0  0  0  0
   17.5434   22.1747   24.5086 H   0  0  0  0  0  0  0  0  0  0  0  0
   18.8957   23.3251   24.4123 H   0  0  0  0  0  0  0  0  0  0  0  0
   17.8119   23.1093   23.0237 H   0  0  0  0  0  0  0  0  0  0  0  0
   19.2284   21.4657   23.2992 C   0  0  0  0  0  0  0  0  0  0  0  0
   19.9716   21.9021   22.6173 H   0  0  0  0  0  0  0  0  0  0  0  0
   18.6210   20.7696   22.7057 H   0  0  0  0  0  0  0  0  0  0  0  0
   19.9476   20.7085   24.4405 C   0  0  0  0  0  0  0  0  0  0  0  0
   20.4835   21.4343   25.0677 H   0  0  0  0  0  0  0  0  0  0  0  0
   19.2047   20.2281   25.0921 H   0  0  0  0  0  0  0  0  0  0  0  0
   20.9614   19.6502   23.9404 C   0  0  0  0  0  0  0  0  0  0  0  0
   21.5037   19.2512   24.8088 H   0  0  0  0  0  0  0  0  0  0  0  0
   21.7140   20.1348   23.3031 H   0  0  0  0  0  0  0  0  0  0  0  0
   20.3045   18.4767   23.1744 C   0  0  0  0  0  0  0  0  0  0  0  0
   19.5128   18.0375   23.7957 H   0  0  0  0  0  0  0  0  0  0  0  0
   19.8253   18.8481   22.2590 H   0  0  0  0  0  0  0  0  0  0  0  0
   21.3393   17.3907   22.7960 C   0  0  0  0  0  0  0  0  0  0  0  0
   21.8030   16.9796   23.7026 H   0  0  0  0  0  0  0  0  0  0  0  0
   22.1479   17.8478   22.2101 H   0  0  0  0  0  0  0  0  0  0  0  0
   20.7248   16.2453   21.9684 C   0  0  0  0  0  0  0  0  0  0  0  0
   20.2576   16.6518   21.0673 H   0  0  0  0  0  0  0  0  0  0  0  0
   21.5153   15.5554   21.6610 H   0  0  0  0  0  0  0  0  0  0  0  0
   19.6803   15.4425   22.7189 N   0  3  0  0  0  0  0  0  0  0  0  0
   19.3008   14.6813   22.1454 H   0  0  0  0  0  0  0  0  0  0  0  0
   18.8879   16.0251   23.0065 H   0  0  0  0  0  0  0  0  0  0  0  0
   20.0659   15.0147   23.5670 H   0  0  0  0  0  0  0  0  0  0  0  0
  1  2  1  0  0  0  0
  1  3  1  0  0  0  0
  1  4  1  0  0  0  0
  1  5  1  0  0  0  0
  5  6  1  0  0  0  0
  5  7  1  0  0  0  0
  5  8  1  0  0  0  0
  8  9  1  0  0  0  0
  8 10  1  0  0  0  0
  8 11  1  0  0  0  0
 11 12  1  0  0  0  0
 11 13  1  0  0  0  0
 11 14  1  0  0  0  0
 14 15  1  0  0  0  0
 14 16  1  0  0  0  0
 14 17  1  0  0  0  0
 17 18  1  0  0  0  0
 17 19  1  0  0  0  0
 17 20  1  0  0  0  0
 20 21  1  0  0  0  0
 20 22  1  0  0  0  0
 20 23  1  0  0  0  0
 23 24  1  0  0  0  0
 23 25  1  0  0  0  0
 23 26  1  0  0  0  0
M  END
> <VConfSearch Rank>
391

> <Conf_Id>
105

> <Delta U+W>
0.736

> <U+W>
-4.817

> <U>
48.735

> <W>
-53.552

> <W(PB)>
-55.889

> <W(SA)>
2.337

> <Valence>
2.803

> <Coulomb>
45.123

> <VdW>
0.809

> <VdW6>
-6.953

> <VdW12>
7.761

> <Bond>
0.188

> <Angle>
0.699

> <Pdih>
1.917

> <Idih>
0.000

> <Tether>
0.000

$$$$
VeraChem MOL file


 26 25  0  0  0  0  0  0  0  0999 V2000     
   20.1938   18.6359   27.0048 C   0  0  0  0  0  0  0  0  0  0  0  0
   20.7574   19.3564   27.6118 H   0  0  0  0  0  0  0  0  0  0  0  0
   19.1350   18.9251   27.0260 H   0  0  0  0  0  0  0  0  0  0  0  0
   20.2839   17.6511   27.4812 H   0  0  0  0  0  0  0  0  0  0  0  0
   20.7276   18.5918   25.5573 C   0  0  0  0  0  0  0  0  0  0  0  0
   20.1672   17.8336   24.9942 H   0  0  0  0  0  0  0  0  0  0  0  0
   21.7787   18.2712   25.5656 H   0  0  0  0  0  0  0  0  0  0  0  0
   20.6072   19.9687   24.8628 C   0  0  0  0  0  0  0  0  0  0  0  0
   19.5527   20.2710   24.8170 H   0  0  0  0  0  0  0  0  0  0  0  0
   21.1092   20.7249   25.4819 H   0  0  0  0  0  0  0  0  0  0  0  0
   21.2341   20.0070   23.4448 C   0  0  0  0  0  0  0  0  0  0  0  0
   22.3148   19.8283   23.5302 H   0  0  0  0  0  0  0  0  0  0  0  0
   21.1297   21.0234   23.0409 H   0  0  0  0  0  0  0  0  0  0  0  0
   20.6431   18.9985   22.4255 C   0  0  0  0  0  0  0  0  0  0  0  0
   21.1828   19.1207   21.4772 H   0  0  0  0  0  0  0  0  0  0  0  0
   20.8429   17.9704   22.7553 H   0  0  0  0  0  0  0  0  0  0  0  0
   19.1246   19.1836   22.1803 C   0  0  0  0  0  0  0  0  0  0  0  0
   18.9163   20.2158   21.8690 H   0  0  0  0  0  0  0  0  0  0  0  0
   18.5755   19.0198   23.1160 H   0  0  0  0  0  0  0  0  0  0  0  0
   18.5692   18.2059   21.1268 C   0  0  0  0  0  0  0  0  0  0  0  0
   18.7921   17.1778   21.4248 H   0  0  0  0  0  0  0  0  0  0  0  0
   17.4829   18.3158   21.0681 H   0  0  0  0  0  0  0  0  0  0  0  0
   19.1276   18.4246   19.7342 N   0  3  0  0  0  0  0  0  0  0  0  0
   20.1442   18.2989   19.7084 H   0  0  0  0  0  0  0  0  0  0  0  0
   18.9300   19.3694   19.3889 H   0  0  0  0  0  0  0  0  0  0  0  0
   18.7267   17.7678   19.0558 H   0  0  0  0  0  0  0  0  0  0  0  0
  1  2  1  0  0  0  0
  1  3  1  0  0  0  0
  1  4  1  0  0  0  0
  1  5  1  0  0  0  0
  5  6  1  0  0  0  0
  5  7  1  0  0  0  0
  5  8  1  0  0  0  0
  8  9  1  0  0  0  0
  8 10  1  0  0  0  0
  8 11  1  0  0  0  0
 11 12  1  0  0  0  0
 11 13  1  0  0  0  0
 11 14  1  0  0  0  0
 14 15  1  0  0  0  0
 14 16  1  0  0  0  0
 14 17  1  0  0  0  0
 17 18  1  0  0  0  0
 17 19  1  0  0  0  0
 17 20  1  0  0  0  0
 20 21  1  0  0  0  0
 20 22  1  0  0  0  0
 20 23  1  0  0  0  0
 23 24  1  0  0  0  0
 23 25  1  0  0  0  0
 23 26  1  0  0  0  0
M  END
> <VConfSearch Rank>
392

> <Conf_Id>
144

> <Delta U+W>
1.073

> <U+W>
-4.479

> <U>
49.231

> <W>
-53.710

> <W(PB)>
-55.983

> <W(SA)>
2.273

> <Valence>
3.276

> <Coulomb>
45.175

> <VdW>
0.779

> <VdW6>
-7.944

> <VdW12>
8.723

> <Bond>
0.239

> <Angle>
1.155

> <Pdih>
1.883

> <Idih>
0.000

> <Tether>
0.000

$$$$
VeraChem MOL file


 26 25  0  0  0  0  0  0  0  0999 V2000     
   23.1500   20.1347   24.6156 C   0  0  0  0  0  0  0  0  0  0  0  0
   23.0900   20.9657   23.9024 H   0  0  0  0  0  0  0  0  0  0  0  0
   23.7744   20.4668   25.4551 H   0  0  0  0  0  0  0  0  0  0  0  0
   23.6641   19.2973   24.1263 H   0  0  0  0  0  0  0  0  0  0  0  0
   21.7509   19.7109   25.1181 C   0  0  0  0  0  0  0  0  0  0  0  0
   21.2427   20.5728   25.5726 H   0  0  0  0  0  0  0  0  0  0  0  0
   21.8761   18.9703   25.9205 H   0  0  0  0  0  0  0  0  0  0  0  0
   20.8565   19.0964   24.0141 C   0  0  0  0  0  0  0  0  0  0  0  0
   21.3774   18.2484   23.5487 H   0  0  0  0  0  0  0  0  0  0  0  0
   19.9599   18.6910   24.4994 H   0  0  0  0  0  0  0  0  0  0  0  0
   20.4285   20.1145   22.9279 C   0  0  0  0  0  0  0  0  0  0  0  0
   21.3190   20.5998   22.5090 H   0  0  0  0  0  0  0  0  0  0  0  0
   19.8354   20.9140   23.3927 H   0  0  0  0  0  0  0  0  0  0  0  0
   19.6303   19.4998   21.7487 C   0  0  0  0  0  0  0  0  0  0  0  0
   19.4223   20.3077   21.0336 H   0  0  0  0  0  0  0  0  0  0  0  0
   20.2556   18.7771   21.2061 H   0  0  0  0  0  0  0  0  0  0  0  0
   18.2817   18.8451   22.1412 C   0  0  0  0  0  0  0  0  0  0  0  0
   17.5964   18.9165   21.2860 H   0  0  0  0  0  0  0  0  0  0  0  0
   17.8136   19.4060   22.9611 H   0  0  0  0  0  0  0  0  0  0  0  0
   18.4209   17.3572   22.5186 C   0  0  0  0  0  0  0  0  0  0  0  0
   18.8383   16.8033   21.6734 H   0  0  0  0  0  0  0  0  0  0  0  0
   19.0974   17.2427   23.3675 H   0  0  0  0  0  0  0  0  0  0  0  0
   17.0998   16.7151   22.8892 N   0  3  0  0  0  0  0  0  0  0  0  0
   16.4248   16.7582   22.1187 H   0  0  0  0  0  0  0  0  0  0  0  0
   16.6652   17.1734   23.6968 H   0  0  0  0  0  0  0  0  0  0  0  0
   17.2122   15.7248   23.1322 H   0  0  0  0  0  0  0  0  0  0  0  0
  1  2  1  0  0  0  0
  1  3  1  0  0  0  0
  1  4  1  0  0  0  0
  1  5  1  0  0  0  0
  5  6  1  0  0  0  0
  5  7  1  0  0  0  0
  5  8  1  0  0  0  0
  8  9  1  0  0  0  0
  8 10  1  0  0  0  0
  8 11  1  0  0  0  0
 11 12  1  0  0  0  0
 11 13  1  0  0  0  0
 11 14  1  0  0  0  0
 14 15  1  0  0  0  0
 14 16  1  0  0  0  0
 14 17  1  0  0  0  0
 17 18  1  0  0  0  0
 17 19  1  0  0  0  0
 17 20  1  0  0  0  0
 20 21  1  0  0  0  0
 20 22  1  0  0  0  0
 20 23  1  0  0  0  0
 23 24  1  0  0  0  0
 23 25  1  0  0  0  0
 23 26  1  0  0  0  0
M  END
> <VConfSearch Rank>
393

> <Conf_Id>
93

> <Delta U+W>
3.253

> <U+W>
-2.300

> <U>
51.609

> <W>
-53.909

> <W(PB)>
-56.178

> <W(SA)>
2.270

> <Valence>
5.204

> <Coulomb>
45.645

> <VdW>
0.760

> <VdW6>
-7.997

> <VdW12>
8.758

> <Bond>
0.240

> <Angle>
1.456

> <Pdih>
3.507

> <Idih>
0.000

> <Tether>
0.000

$$$$
VeraChem MOL file


 26 25  0  0  0  0  0  0  0  0999 V2000     
   16.5711   17.8592   22.9452 C   0  0  0  0  0  0  0  0  0  0  0  0
   16.4302   18.0768   24.0109 H   0  0  0  0  0  0  0  0  0  0  0  0
   16.3543   18.7723   22.3756 H   0  0  0  0  0  0  0  0  0  0  0  0
   15.8265   17.1036   22.6630 H   0  0  0  0  0  0  0  0  0  0  0  0
   17.9992   17.3461   22.6506 C   0  0  0  0  0  0  0  0  0  0  0  0
   18.0459   17.0224   21.6014 H   0  0  0  0  0  0  0  0  0  0  0  0
   18.2053   16.4529   23.2568 H   0  0  0  0  0  0  0  0  0  0  0  0
   19.1001   18.4080   22.8892 C   0  0  0  0  0  0  0  0  0  0  0  0
   20.0442   18.0005   22.5067 H   0  0  0  0  0  0  0  0  0  0  0  0
   18.8782   19.3067   22.2975 H   0  0  0  0  0  0  0  0  0  0  0  0
   19.2791   18.7878   24.3803 C   0  0  0  0  0  0  0  0  0  0  0  0
   19.5843   17.8980   24.9478 H   0  0  0  0  0  0  0  0  0  0  0  0
   18.3135   19.0994   24.7978 H   0  0  0  0  0  0  0  0  0  0  0  0
   20.2926   19.9340   24.6350 C   0  0  0  0  0  0  0  0  0  0  0  0
   19.9391   20.8616   24.1635 H   0  0  0  0  0  0  0  0  0  0  0  0
   20.3000   20.1346   25.7154 H   0  0  0  0  0  0  0  0  0  0  0  0
   21.7465   19.6336   24.1910 C   0  0  0  0  0  0  0  0  0  0  0  0
   21.9799   18.5729   24.3534 H   0  0  0  0  0  0  0  0  0  0  0  0
   22.4325   20.2035   24.8318 H   0  0  0  0  0  0  0  0  0  0  0  0
   22.0233   20.0269   22.7267 C   0  0  0  0  0  0  0  0  0  0  0  0
   21.3586   19.4808   22.0549 H   0  0  0  0  0  0  0  0  0  0  0  0
   21.8378   21.0963   22.5942 H   0  0  0  0  0  0  0  0  0  0  0  0
   23.4488   19.7451   22.2980 N   0  3  0  0  0  0  0  0  0  0  0  0
   24.1280   20.2571   22.8705 H   0  0  0  0  0  0  0  0  0  0  0  0
   23.6147   20.0179   21.3232 H   0  0  0  0  0  0  0  0  0  0  0  0
   23.6808   18.7493   22.3732 H   0  0  0  0  0  0  0  0  0  0  0  0
  1  2  1  0  0  0  0
  1  3  1  0  0  0  0
  1  4  1  0  0  0  0
  1  5  1  0  0  0  0
  5  6  1  0  0  0  0
  5  7  1  0  0  0  0
  5  8  1  0  0  0  0
  8  9  1  0  0  0  0
  8 10  1  0  0  0  0
  8 11  1  0  0  0  0
 11 12  1  0  0  0  0
 11 13  1  0  0  0  0
 11 14  1  0  0  0  0
 14 15  1  0  0  0  0
 14 16  1  0  0  0  0
 14 17  1  0  0  0  0
 17 18  1  0  0  0  0
 17 19  1  0  0  0  0
 17 20  1  0  0  0  0
 20 21  1  0  0  0  0
 20 22  1  0  0  0  0
 20 23  1  0  0  0  0
 23 24  1  0  0  0  0
 23 25  1  0  0  0  0
 23 26  1  0  0  0  0
M  END
> <VConfSearch Rank>
394

> <Conf_Id>
94

> <Delta U+W>
3.247

> <U+W>
-2.305

> <U>
51.609

> <W>
-53.914

> <W(PB)>
-56.221

> <W(SA)>
2.307

> <Valence>
5.204

> <Coulomb>
45.645

> <VdW>
0.760

> <VdW6>
-7.997

> <VdW12>
8.757

> <Bond>
0.240

> <Angle>
1.456

> <Pdih>
3.508

> <Idih>
0.000

> <Tether>
0.000

$$$$
VeraChem MOL file


 26 25  0  0  0  0  0  0  0  0999 V2000     
   21.7088   22.1816   21.3241 C   0  0  0  0  0  0  0  0  0  0  0  0
   21.5002   23.0183   22.0036 H   0  0  0  0  0  0  0  0  0  0  0  0
   22.7300   21.8290   21.5194 H   0  0  0  0  0  0  0  0  0  0  0  0
   21.6758   22.5660   20.2964 H   0  0  0  0  0  0  0  0  0  0  0  0
   20.6832   21.0440   21.5137 C   0  0  0  0  0  0  0  0  0  0  0  0
   20.8970   20.2376   20.7982 H   0  0  0  0  0  0  0  0  0  0  0  0
   19.6767   21.4177   21.2788 H   0  0  0  0  0  0  0  0  0  0  0  0
   20.7090   20.4846   22.9534 C   0  0  0  0  0  0  0  0  0  0  0  0
   21.7174   20.1142   23.1843 H   0  0  0  0  0  0  0  0  0  0  0  0
   20.4976   21.2950   23.6647 H   0  0  0  0  0  0  0  0  0  0  0  0
   19.6829   19.3454   23.1473 C   0  0  0  0  0  0  0  0  0  0  0  0
   19.8957   18.5430   22.4284 H   0  0  0  0  0  0  0  0  0  0  0  0
   18.6747   19.7182   22.9195 H   0  0  0  0  0  0  0  0  0  0  0  0
   19.7124   18.7856   24.5897 C   0  0  0  0  0  0  0  0  0  0  0  0
   20.7117   18.3891   24.8141 H   0  0  0  0  0  0  0  0  0  0  0  0
   19.5447   19.6083   25.2985 H   0  0  0  0  0  0  0  0  0  0  0  0
   18.6430   17.6932   24.8418 C   0  0  0  0  0  0  0  0  0  0  0  0
   17.6437   18.1256   24.6994 H   0  0  0  0  0  0  0  0  0  0  0  0
   18.6912   17.3734   25.8912 H   0  0  0  0  0  0  0  0  0  0  0  0
   18.7810   16.4565   23.9308 C   0  0  0  0  0  0  0  0  0  0  0  0
   17.9769   15.7500   24.1538 H   0  0  0  0  0  0  0  0  0  0  0  0
   18.6883   16.7558   22.8837 H   0  0  0  0  0  0  0  0  0  0  0  0
   20.0977   15.7237   24.0955 N   0  3  0  0  0  0  0  0  0  0  0  0
   20.2303   15.3911   25.0561 H   0  0  0  0  0  0  0  0  0  0  0  0
   20.8955   16.3260   23.8701 H   0  0  0  0  0  0  0  0  0  0  0  0
   20.1565   14.9029   23.4831 H   0  0  0  0  0  0  0  0  0  0  0  0
  1  2  1  0  0  0  0
  1  3  1  0  0  0  0
  1  4  1  0  0  0  0
  1  5  1  0  0  0  0
  5  6  1  0  0  0  0
  5  7  1  0  0  0  0
  5  8  1  0  0  0  0
  8  9  1  0  0  0  0
  8 10  1  0  0  0  0
  8 11  1  0  0  0  0
 11 12  1  0  0  0  0
 11 13  1  0  0  0  0
 11 14  1  0  0  0  0
 14 15  1  0  0  0  0
 14 16  1  0  0  0  0
 14 17  1  0  0  0  0
 17 18  1  0  0  0  0
 17 19  1  0  0  0  0
 17 20  1  0  0  0  0
 20 21  1  0  0  0  0
 20 22  1  0  0  0  0
 20 23  1  0  0  0  0
 23 24  1  0  0  0  0
 23 25  1  0  0  0  0
 23 26  1  0  0  0  0
M  END
> <VConfSearch Rank>
395

> <Conf_Id>
83

> <Delta U+W>
0.559

> <U+W>
-4.994

> <U>
48.668

> <W>
-53.661

> <W(PB)>
-55.972

> <W(SA)>
2.311

> <Valence>
2.543

> <Coulomb>
45.478

> <VdW>
0.646

> <VdW6>
-7.096

> <VdW12>
7.742

> <Bond>
0.176

> <Angle>
0.630

> <Pdih>
1.738

> <Idih>
0.000

> <Tether>
0.000

$$$$
VeraChem MOL file


 26 25  0  0  0  0  0  0  0  0999 V2000     
   20.9096   18.0633   19.5299 C   0  0  0  0  0  0  0  0  0  0  0  0
   21.9550   18.1348   19.2022 H   0  0  0  0  0  0  0  0  0  0  0  0
   20.6447   17.0001   19.5984 H   0  0  0  0  0  0  0  0  0  0  0  0
   20.2814   18.5178   18.7528 H   0  0  0  0  0  0  0  0  0  0  0  0
   20.7020   18.7747   20.8838 C   0  0  0  0  0  0  0  0  0  0  0  0
   19.6400   18.7172   21.1565 H   0  0  0  0  0  0  0  0  0  0  0  0
   20.9468   19.8407   20.7762 H   0  0  0  0  0  0  0  0  0  0  0  0
   21.5748   18.1478   21.9967 C   0  0  0  0  0  0  0  0  0  0  0  0
   21.2920   17.0960   22.1411 H   0  0  0  0  0  0  0  0  0  0  0  0
   22.6230   18.1422   21.6669 H   0  0  0  0  0  0  0  0  0  0  0  0
   21.4908   18.8984   23.3485 C   0  0  0  0  0  0  0  0  0  0  0  0
   21.7877   19.9467   23.2061 H   0  0  0  0  0  0  0  0  0  0  0  0
   22.2282   18.4598   24.0350 H   0  0  0  0  0  0  0  0  0  0  0  0
   20.0908   18.8364   24.0056 C   0  0  0  0  0  0  0  0  0  0  0  0
   19.3574   19.3361   23.3606 H   0  0  0  0  0  0  0  0  0  0  0  0
   19.7753   17.7880   24.0985 H   0  0  0  0  0  0  0  0  0  0  0  0
   20.0850   19.5011   25.4026 C   0  0  0  0  0  0  0  0  0  0  0  0
   20.3727   20.5576   25.3179 H   0  0  0  0  0  0  0  0  0  0  0  0
   20.8410   19.0205   26.0377 H   0  0  0  0  0  0  0  0  0  0  0  0
   18.7188   19.3947   26.1075 C   0  0  0  0  0  0  0  0  0  0  0  0
   18.4259   18.3443   26.1861 H   0  0  0  0  0  0  0  0  0  0  0  0
   18.8002   19.8024   27.1189 H   0  0  0  0  0  0  0  0  0  0  0  0
   17.6059   20.1421   25.3993 N   0  3  0  0  0  0  0  0  0  0  0  0
   17.4496   19.7828   24.4525 H   0  0  0  0  0  0  0  0  0  0  0  0
   17.8133   21.1425   25.3141 H   0  0  0  0  0  0  0  0  0  0  0  0
   16.7148   20.0628   25.9013 H   0  0  0  0  0  0  0  0  0  0  0  0
  1  2  1  0  0  0  0
  1  3  1  0  0  0  0
  1  4  1  0  0  0  0
  1  5  1  0  0  0  0
  5  6  1  0  0  0  0
  5  7  1  0  0  0  0
  5  8  1  0  0  0  0
  8  9  1  0  0  0  0
  8 10  1  0  0  0  0
  8 11  1  0  0  0  0
 11 12  1  0  0  0  0
 11 13  1  0  0  0  0
 11 14  1  0  0  0  0
 14 15  1  0  0  0  0
 14 16  1  0  0  0  0
 14 17  1  0  0  0  0
 17 18  1  0  0  0  0
 17 19  1  0  0  0  0
 17 20  1  0  0  0  0
 20 21  1  0  0  0  0
 20 22  1  0  0  0  0
 20 23  1  0  0  0  0
 23 24  1  0  0  0  0
 23 25  1  0  0  0  0
 23 26  1  0  0  0  0
M  END
> <VConfSearch Rank>
396

> <Conf_Id>
18

> <Delta U+W>
0.759

> <U+W>
-4.793

> <U>
48.945

> <W>
-53.738

> <W(PB)>
-56.051

> <W(SA)>
2.313

> <Valence>
2.802

> <Coulomb>
45.335

> <VdW>
0.807

> <VdW6>
-6.962

> <VdW12>
7.769

> <Bond>
0.189

> <Angle>
0.696

> <Pdih>
1.917

> <Idih>
0.000

> <Tether>
0.000

$$$$
VeraChem MOL file


 26 25  0  0  0  0  0  0  0  0999 V2000     
   18.5588   19.7689   19.6826 C   0  0  0  0  0  0  0  0  0  0  0  0
   19.4181   19.3837   19.1183 H   0  0  0  0  0  0  0  0  0  0  0  0
   17.6584   19.2468   19.3333 H   0  0  0  0  0  0  0  0  0  0  0  0
   18.4460   20.8335   19.4400 H   0  0  0  0  0  0  0  0  0  0  0  0
   18.7601   19.5742   21.2005 C   0  0  0  0  0  0  0  0  0  0  0  0
   17.8993   19.9948   21.7388 H   0  0  0  0  0  0  0  0  0  0  0  0
   19.6438   20.1432   21.5178 H   0  0  0  0  0  0  0  0  0  0  0  0
   18.9260   18.0802   21.5663 C   0  0  0  0  0  0  0  0  0  0  0  0
   18.0699   17.5185   21.1677 H   0  0  0  0  0  0  0  0  0  0  0  0
   19.8184   17.6742   21.0704 H   0  0  0  0  0  0  0  0  0  0  0  0
   19.0154   17.8204   23.0903 C   0  0  0  0  0  0  0  0  0  0  0  0
   19.0089   16.7344   23.2578 H   0  0  0  0  0  0  0  0  0  0  0  0
   18.1159   18.2137   23.5837 H   0  0  0  0  0  0  0  0  0  0  0  0
   20.2792   18.4245   23.7487 C   0  0  0  0  0  0  0  0  0  0  0  0
   21.1741   18.0695   23.2190 H   0  0  0  0  0  0  0  0  0  0  0  0
   20.2607   19.5170   23.6504 H   0  0  0  0  0  0  0  0  0  0  0  0
   20.3820   18.0438   25.2447 C   0  0  0  0  0  0  0  0  0  0  0  0
   20.3693   16.9502   25.3439 H   0  0  0  0  0  0  0  0  0  0  0  0
   19.5048   18.4180   25.7894 H   0  0  0  0  0  0  0  0  0  0  0  0
   21.6661   18.5775   25.9086 C   0  0  0  0  0  0  0  0  0  0  0  0
   21.7249   18.2056   26.9351 H   0  0  0  0  0  0  0  0  0  0  0  0
   22.5411   18.2132   25.3635 H   0  0  0  0  0  0  0  0  0  0  0  0
   21.7422   20.0908   25.9633 N   0  3  0  0  0  0  0  0  0  0  0  0
   20.9557   20.4929   26.4837 H   0  0  0  0  0  0  0  0  0  0  0  0
   21.7303   20.5059   25.0267 H   0  0  0  0  0  0  0  0  0  0  0  0
   22.6010   20.4122   26.4232 H   0  0  0  0  0  0  0  0  0  0  0  0
  1  2  1  0  0  0  0
  1  3  1  0  0  0  0
  1  4  1  0  0  0  0
  1  5  1  0  0  0  0
  5  6  1  0  0  0  0
  5  7  1  0  0  0  0
  5  8  1  0  0  0  0
  8  9  1  0  0  0  0
  8 10  1  0  0  0  0
  8 11  1  0  0  0  0
 11 12  1  0  0  0  0
 11 13  1  0  0  0  0
 11 14  1  0  0  0  0
 14 15  1  0  0  0  0
 14 16  1  0  0  0  0
 14 17  1  0  0  0  0
 17 18  1  0  0  0  0
 17 19  1  0  0  0  0
 17 20  1  0  0  0  0
 20 21  1  0  0  0  0
 20 22  1  0  0  0  0
 20 23  1  0  0  0  0
 23 24  1  0  0  0  0
 23 25  1  0  0  0  0
 23 26  1  0  0  0  0
M  END
> <VConfSearch Rank>
397

> <Conf_Id>
17

> <Delta U+W>
0.843

> <U+W>
-4.709

> <U>
48.945

> <W>
-53.653

> <W(PB)>
-55.991

> <W(SA)>
2.338

> <Valence>
2.802

> <Coulomb>
45.335

> <VdW>
0.807

> <VdW6>
-6.962

> <VdW12>
7.769

> <Bond>
0.189

> <Angle>
0.696

> <Pdih>
1.917

> <Idih>
0.000

> <Tether>
0.000

$$$$
VeraChem MOL file


 26 25  0  0  0  0  0  0  0  0999 V2000     
   19.8739   19.0383   19.8561 C   0  0  0  0  0  0  0  0  0  0  0  0
   20.8021   18.8756   20.4176 H   0  0  0  0  0  0  0  0  0  0  0  0
   19.3597   18.0739   19.7532 H   0  0  0  0  0  0  0  0  0  0  0  0
   20.1526   19.3789   18.8505 H   0  0  0  0  0  0  0  0  0  0  0  0
   18.9665   20.0810   20.5478 C   0  0  0  0  0  0  0  0  0  0  0  0
   18.1144   20.3005   19.8895 H   0  0  0  0  0  0  0  0  0  0  0  0
   19.5142   21.0263   20.6671 H   0  0  0  0  0  0  0  0  0  0  0  0
   18.4255   19.6125   21.9203 C   0  0  0  0  0  0  0  0  0  0  0  0
   17.7070   20.3598   22.2846 H   0  0  0  0  0  0  0  0  0  0  0  0
   17.8615   18.6782   21.7927 H   0  0  0  0  0  0  0  0  0  0  0  0
   19.5316   19.4134   22.9842 C   0  0  0  0  0  0  0  0  0  0  0  0
   20.1239   20.3344   23.0730 H   0  0  0  0  0  0  0  0  0  0  0  0
   20.2174   18.6220   22.6569 H   0  0  0  0  0  0  0  0  0  0  0  0
   18.9374   19.0461   24.3653 C   0  0  0  0  0  0  0  0  0  0  0  0
   18.2196   19.8211   24.6678 H   0  0  0  0  0  0  0  0  0  0  0  0
   18.3684   18.1093   24.2866 H   0  0  0  0  0  0  0  0  0  0  0  0
   20.0105   18.9066   25.4706 C   0  0  0  0  0  0  0  0  0  0  0  0
   19.5102   18.7359   26.4331 H   0  0  0  0  0  0  0  0  0  0  0  0
   20.5652   19.8494   25.5675 H   0  0  0  0  0  0  0  0  0  0  0  0
   20.9942   17.7519   25.2034 C   0  0  0  0  0  0  0  0  0  0  0  0
   20.4421   16.8131   25.1075 H   0  0  0  0  0  0  0  0  0  0  0  0
   21.5322   17.9323   24.2692 H   0  0  0  0  0  0  0  0  0  0  0  0
   22.0204   17.5807   26.3047 N   0  3  0  0  0  0  0  0  0  0  0  0
   22.6652   16.8074   26.1080 H   0  0  0  0  0  0  0  0  0  0  0  0
   21.5807   17.3796   27.2088 H   0  0  0  0  0  0  0  0  0  0  0  0
   22.5927   18.4225   26.4281 H   0  0  0  0  0  0  0  0  0  0  0  0
  1  2  1  0  0  0  0
  1  3  1  0  0  0  0
  1  4  1  0  0  0  0
  1  5  1  0  0  0  0
  5  6  1  0  0  0  0
  5  7  1  0  0  0  0
  5  8  1  0  0  0  0
  8  9  1  0  0  0  0
  8 10  1  0  0  0  0
  8 11  1  0  0  0  0
 11 12  1  0  0  0  0
 11 13  1  0  0  0  0
 11 14  1  0  0  0  0
 14 15  1  0  0  0  0
 14 16  1  0  0  0  0
 14 17  1  0  0  0  0
 17 18  1  0  0  0  0
 17 19  1  0  0  0  0
 17 20  1  0  0  0  0
 20 21  1  0  0  0  0
 20 22  1  0  0  0  0
 20 23  1  0  0  0  0
 23 24  1  0  0  0  0
 23 25  1  0  0  0  0
 23 26  1  0  0  0  0
M  END
> <VConfSearch Rank>
398

> <Conf_Id>
96

> <Delta U+W>
0.912

> <U+W>
-4.640

> <U>
48.723

> <W>
-53.364

> <W(PB)>
-55.683

> <W(SA)>
2.320

> <Valence>
2.962

> <Coulomb>
44.993

> <VdW>
0.768

> <VdW6>
-7.008

> <VdW12>
7.776

> <Bond>
0.188

> <Angle>
0.757

> <Pdih>
2.018

> <Idih>
0.000

> <Tether>
0.000

$$$$
VeraChem MOL file


 26 25  0  0  0  0  0  0  0  0999 V2000     
   17.7804   21.2602   24.5422 C   0  0  0  0  0  0  0  0  0  0  0  0
   16.8056   21.6398   24.8748 H   0  0  0  0  0  0  0  0  0  0  0  0
   18.4244   22.1247   24.3354 H   0  0  0  0  0  0  0  0  0  0  0  0
   17.6193   20.7180   23.6023 H   0  0  0  0  0  0  0  0  0  0  0  0
   18.4034   20.3492   25.6243 C   0  0  0  0  0  0  0  0  0  0  0  0
   17.7564   19.4764   25.7901 H   0  0  0  0  0  0  0  0  0  0  0  0
   18.4295   20.8976   26.5763 H   0  0  0  0  0  0  0  0  0  0  0  0
   19.8382   19.8797   25.2826 C   0  0  0  0  0  0  0  0  0  0  0  0
   20.4859   20.7554   25.1377 H   0  0  0  0  0  0  0  0  0  0  0  0
   20.2421   19.3365   26.1481 H   0  0  0  0  0  0  0  0  0  0  0  0
   19.9080   18.9669   24.0348 C   0  0  0  0  0  0  0  0  0  0  0  0
   19.5668   19.5236   23.1531 H   0  0  0  0  0  0  0  0  0  0  0  0
   19.2219   18.1184   24.1634 H   0  0  0  0  0  0  0  0  0  0  0  0
   21.3424   18.4391   23.7916 C   0  0  0  0  0  0  0  0  0  0  0  0
   22.0264   19.2844   23.6333 H   0  0  0  0  0  0  0  0  0  0  0  0
   21.6943   17.9194   24.6935 H   0  0  0  0  0  0  0  0  0  0  0  0
   21.4369   17.4674   22.5917 C   0  0  0  0  0  0  0  0  0  0  0  0
   20.7716   16.6096   22.7582 H   0  0  0  0  0  0  0  0  0  0  0  0
   22.4581   17.0673   22.5371 H   0  0  0  0  0  0  0  0  0  0  0  0
   21.0882   18.1408   21.2511 C   0  0  0  0  0  0  0  0  0  0  0  0
   20.0577   18.5042   21.2760 H   0  0  0  0  0  0  0  0  0  0  0  0
   21.7508   18.9944   21.0849 H   0  0  0  0  0  0  0  0  0  0  0  0
   21.2226   17.2066   20.0660 N   0  3  0  0  0  0  0  0  0  0  0  0
   20.6036   16.3934   20.1482 H   0  0  0  0  0  0  0  0  0  0  0  0
   22.1786   16.8494   19.9676 H   0  0  0  0  0  0  0  0  0  0  0  0
   20.9865   17.6738   19.1837 H   0  0  0  0  0  0  0  0  0  0  0  0
  1  2  1  0  0  0  0
  1  3  1  0  0  0  0
  1  4  1  0  0  0  0
  1  5  1  0  0  0  0
  5  6  1  0  0  0  0
  5  7  1  0  0  0  0
  5  8  1  0  0  0  0
  8  9  1  0  0  0  0
  8 10  1  0  0  0  0
  8 11  1  0  0  0  0
 11 12  1  0  0  0  0
 11 13  1  0  0  0  0
 11 14  1  0  0  0  0
 14 15  1  0  0  0  0
 14 16  1  0  0  0  0
 14 17  1  0  0  0  0
 17 18  1  0  0  0  0
 17 19  1  0  0  0  0
 17 20  1  0  0  0  0
 20 21  1  0  0  0  0
 20 22  1  0  0  0  0
 20 23  1  0  0  0  0
 23 24  1  0  0  0  0
 23 25  1  0  0  0  0
 23 26  1  0  0  0  0
M  END
> <VConfSearch Rank>
399

> <Conf_Id>
133

> <Delta U+W>
0.844

> <U+W>
-4.708

> <U>
48.723

> <W>
-53.431

> <W(PB)>
-55.776

> <W(SA)>
2.344

> <Valence>
2.962

> <Coulomb>
44.993

> <VdW>
0.768

> <VdW6>
-7.008

> <VdW12>
7.776

> <Bond>
0.188

> <Angle>
0.756

> <Pdih>
2.018

> <Idih>
0.000

> <Tether>
0.000

$$$$
VeraChem MOL file


 26 25  0  0  0  0  0  0  0  0999 V2000     
   20.0673   15.5853   23.8432 C   0  0  0  0  0  0  0  0  0  0  0  0
   19.1193   15.0614   24.0216 H   0  0  0  0  0  0  0  0  0  0  0  0
   19.9914   16.1186   22.8874 H   0  0  0  0  0  0  0  0  0  0  0  0
   20.8551   14.8283   23.7376 H   0  0  0  0  0  0  0  0  0  0  0  0
   20.3957   16.5500   25.0050 C   0  0  0  0  0  0  0  0  0  0  0  0
   21.3363   17.0765   24.7951 H   0  0  0  0  0  0  0  0  0  0  0  0
   20.5788   15.9597   25.9137 H   0  0  0  0  0  0  0  0  0  0  0  0
   19.2650   17.5688   25.2988 C   0  0  0  0  0  0  0  0  0  0  0  0
   18.3705   17.0211   25.6259 H   0  0  0  0  0  0  0  0  0  0  0  0
   19.5640   18.1925   26.1525 H   0  0  0  0  0  0  0  0  0  0  0  0
   18.8776   18.4899   24.1130 C   0  0  0  0  0  0  0  0  0  0  0  0
   18.0599   19.1470   24.4397 H   0  0  0  0  0  0  0  0  0  0  0  0
   18.4704   17.8885   23.2894 H   0  0  0  0  0  0  0  0  0  0  0  0
   20.0484   19.3606   23.5974 C   0  0  0  0  0  0  0  0  0  0  0  0
   20.4817   19.9266   24.4338 H   0  0  0  0  0  0  0  0  0  0  0  0
   20.8451   18.7183   23.1992 H   0  0  0  0  0  0  0  0  0  0  0  0
   19.5923   20.3402   22.4938 C   0  0  0  0  0  0  0  0  0  0  0  0
   18.8026   20.9960   22.8840 H   0  0  0  0  0  0  0  0  0  0  0  0
   19.1596   19.7773   21.6560 H   0  0  0  0  0  0  0  0  0  0  0  0
   20.7634   21.1980   21.9835 C   0  0  0  0  0  0  0  0  0  0  0  0
   21.1872   21.7725   22.8116 H   0  0  0  0  0  0  0  0  0  0  0  0
   21.5455   20.5500   21.5786 H   0  0  0  0  0  0  0  0  0  0  0  0
   20.3559   22.1733   20.8981 N   0  3  0  0  0  0  0  0  0  0  0  0
   21.1504   22.7347   20.5724 H   0  0  0  0  0  0  0  0  0  0  0  0
   19.6399   22.8308   21.2242 H   0  0  0  0  0  0  0  0  0  0  0  0
   19.9733   21.6932   20.0769 H   0  0  0  0  0  0  0  0  0  0  0  0
  1  2  1  0  0  0  0
  1  3  1  0  0  0  0
  1  4  1  0  0  0  0
  1  5  1  0  0  0  0
  5  6  1  0  0  0  0
  5  7  1  0  0  0  0
  5  8  1  0  0  0  0
  8  9  1  0  0  0  0
  8 10  1  0  0  0  0
  8 11  1  0  0  0  0
 11 12  1  0  0  0  0
 11 13  1  0  0  0  0
 11 14  1  0  0  0  0
 14 15  1  0  0  0  0
 14 16  1  0  0  0  0
 14 17  1  0  0  0  0
 17 18  1  0  0  0  0
 17 19  1  0  0  0  0
 17 20  1  0  0  0  0
 20 21  1  0  0  0  0
 20 22  1  0  0  0  0
 20 23  1  0  0  0  0
 23 24  1  0  0  0  0
 23 25  1  0  0  0  0
 23 26  1  0  0  0  0
M  END
> <VConfSearch Rank>
400

> <Conf_Id>
106

> <Delta U+W>
0.767

> <U+W>
-4.785

> <U>
48.494

> <W>
-53.279

> <W(PB)>
-55.569

> <W(SA)>
2.290

> <Valence>
3.117

> <Coulomb>
44.693

> <VdW>
0.684

> <VdW6>
-7.347

> <VdW12>
8.030

> <Bond>
0.208

> <Angle>
1.039

> <Pdih>
1.870

> <Idih>
0.000

> <Tether>
0.000

$$$$
VeraChem MOL file


 26 25  0  0  0  0  0  0  0  0999 V2000     
   18.6725   18.8480   19.0026 C   0  0  0  0  0  0  0  0  0  0  0  0
   19.5835   19.3141   18.6050 H   0  0  0  0  0  0  0  0  0  0  0  0
   18.7668   17.7603   18.8879 H   0  0  0  0  0  0  0  0  0  0  0  0
   17.8274   19.1799   18.3856 H   0  0  0  0  0  0  0  0  0  0  0  0
   18.4523   19.2330   20.4810 C   0  0  0  0  0  0  0  0  0  0  0  0
   17.5174   18.7803   20.8401 H   0  0  0  0  0  0  0  0  0  0  0  0
   18.3277   20.3221   20.5594 H   0  0  0  0  0  0  0  0  0  0  0  0
   19.6287   18.7769   21.3722 C   0  0  0  0  0  0  0  0  0  0  0  0
   19.7508   17.6881   21.2886 H   0  0  0  0  0  0  0  0  0  0  0  0
   20.5611   19.2301   21.0080 H   0  0  0  0  0  0  0  0  0  0  0  0
   19.4118   19.1605   22.8535 C   0  0  0  0  0  0  0  0  0  0  0  0
   18.4791   18.7071   23.2168 H   0  0  0  0  0  0  0  0  0  0  0  0
   19.2893   20.2494   22.9361 H   0  0  0  0  0  0  0  0  0  0  0  0
   20.5892   18.7042   23.7447 C   0  0  0  0  0  0  0  0  0  0  0  0
   20.7120   17.6152   23.6623 H   0  0  0  0  0  0  0  0  0  0  0  0
   21.5222   19.1576   23.3817 H   0  0  0  0  0  0  0  0  0  0  0  0
   20.3730   19.0872   25.2253 C   0  0  0  0  0  0  0  0  0  0  0  0
   19.4441   18.6315   25.5935 H   0  0  0  0  0  0  0  0  0  0  0  0
   20.2549   20.1755   25.3125 H   0  0  0  0  0  0  0  0  0  0  0  0
   21.5508   18.6285   26.1032 C   0  0  0  0  0  0  0  0  0  0  0  0
   21.6618   17.5430   26.0325 H   0  0  0  0  0  0  0  0  0  0  0  0
   22.4757   19.0927   25.7503 H   0  0  0  0  0  0  0  0  0  0  0  0
   21.3761   18.9864   27.5650 N   0  3  0  0  0  0  0  0  0  0  0  0
   22.1712   18.6720   28.1318 H   0  0  0  0  0  0  0  0  0  0  0  0
   20.5357   18.5570   27.9659 H   0  0  0  0  0  0  0  0  0  0  0  0
   21.2930   19.9989   27.7034 H   0  0  0  0  0  0  0  0  0  0  0  0
  1  2  1  0  0  0  0
  1  3  1  0  0  0  0
  1  4  1  0  0  0  0
  1  5  1  0  0  0  0
  5  6  1  0  0  0  0
  5  7  1  0  0  0  0
  5  8  1  0  0  0  0
  8  9  1  0  0  0  0
  8 10  1  0  0  0  0
  8 11  1  0  0  0  0
 11 12  1  0  0  0  0
 11 13  1  0  0  0  0
 11 14  1  0  0  0  0
 14 15  1  0  0  0  0
 14 16  1  0  0  0  0
 14 17  1  0  0  0  0
 17 18  1  0  0  0  0
 17 19  1  0  0  0  0
 17 20  1  0  0  0  0
 20 21  1  0  0  0  0
 20 22  1  0  0  0  0
 20 23  1  0  0  0  0
 23 24  1  0  0  0  0
 23 25  1  0  0  0  0
 23 26  1  0  0  0  0
M  END
> <VConfSearch Rank>
401

> <Conf_Id>
25

> <Delta U+W>
0.000

> <U+W>
-5.552

> <U>
47.192

> <W>
-52.745

> <W(PB)>
-55.134

> <W(SA)>
2.389

> <Valence>
2.156

> <Coulomb>
44.449

> <VdW>
0.587

> <VdW6>
-5.761

> <VdW12>
6.348

> <Bond>
0.129

> <Angle>
0.393

> <Pdih>
1.634

> <Idih>
0.000

> <Tether>
0.000

$$$$
VeraChem MOL file


 26 25  0  0  0  0  0  0  0  0999 V2000     
   21.4453   21.9078   20.4173 C   0  0  0  0  0  0  0  0  0  0  0  0
   20.4451   22.2519   20.1233 H   0  0  0  0  0  0  0  0  0  0  0  0
   21.8098   22.5620   21.2200 H   0  0  0  0  0  0  0  0  0  0  0  0
   22.1114   22.0309   19.5535 H   0  0  0  0  0  0  0  0  0  0  0  0
   21.4127   20.4340   20.8746 C   0  0  0  0  0  0  0  0  0  0  0  0
   22.4312   20.1088   21.1294 H   0  0  0  0  0  0  0  0  0  0  0  0
   21.0771   19.8010   20.0411 H   0  0  0  0  0  0  0  0  0  0  0  0
   20.4813   20.2326   22.0904 C   0  0  0  0  0  0  0  0  0  0  0  0
   20.8194   20.8691   22.9199 H   0  0  0  0  0  0  0  0  0  0  0  0
   19.4652   20.5611   21.8316 H   0  0  0  0  0  0  0  0  0  0  0  0
   20.4462   18.7579   22.5513 C   0  0  0  0  0  0  0  0  0  0  0  0
   21.4627   18.4302   22.8101 H   0  0  0  0  0  0  0  0  0  0  0  0
   20.1091   18.1224   21.7207 H   0  0  0  0  0  0  0  0  0  0  0  0
   19.5139   18.5567   23.7673 C   0  0  0  0  0  0  0  0  0  0  0  0
   19.8524   19.1976   24.5924 H   0  0  0  0  0  0  0  0  0  0  0  0
   18.4968   18.8816   23.5075 H   0  0  0  0  0  0  0  0  0  0  0  0
   19.4809   17.0801   24.2276 C   0  0  0  0  0  0  0  0  0  0  0  0
   20.4881   16.7540   24.5196 H   0  0  0  0  0  0  0  0  0  0  0  0
   19.1773   16.4435   23.3858 H   0  0  0  0  0  0  0  0  0  0  0  0
   18.5044   16.8421   25.3956 C   0  0  0  0  0  0  0  0  0  0  0  0
   17.5017   17.1714   25.1100 H   0  0  0  0  0  0  0  0  0  0  0  0
   18.4611   15.7728   25.6199 H   0  0  0  0  0  0  0  0  0  0  0  0
   18.8913   17.5639   26.6715 N   0  3  0  0  0  0  0  0  0  0  0  0
   18.9152   18.5799   26.5407 H   0  0  0  0  0  0  0  0  0  0  0  0
   19.8183   17.2790   27.0041 H   0  0  0  0  0  0  0  0  0  0  0  0
   18.2292   17.3746   27.4317 H   0  0  0  0  0  0  0  0  0  0  0  0
  1  2  1  0  0  0  0
  1  3  1  0  0  0  0
  1  4  1  0  0  0  0
  1  5  1  0  0  0  0
  5  6  1  0  0  0  0
  5  7  1  0  0  0  0
  5  8  1  0  0  0  0
  8  9  1  0  0  0  0
  8 10  1  0  0  0  0
  8 11  1  0  0  0  0
 11 12  1  0  0  0  0
 11 13  1  0  0  0  0
 11 14  1  0  0  0  0
 14 15  1  0  0  0  0
 14 16  1  0  0  0  0
 14 17  1  0  0  0  0
 17 18  1  0  0  0  0
 17 19  1  0  0  0  0
 17 20  1  0  0  0  0
 20 21  1  0  0  0  0
 20 22  1  0  0  0  0
 20 23  1  0  0  0  0
 23 24  1  0  0  0  0
 23 25  1  0  0  0  0
 23 26  1  0  0  0  0
M  END
> <VConfSearch Rank>
402

> <Conf_Id>
20

> <Delta U+W>
0.150

> <U+W>
-5.403

> <U>
47.845

> <W>
-53.248

> <W(PB)>
-55.599

> <W(SA)>
2.351

> <Valence>
2.258

> <Coulomb>
44.893

> <VdW>
0.694

> <VdW6>
-6.285

> <VdW12>
6.979

> <Bond>
0.149

> <Angle>
0.434

> <Pdih>
1.675

> <Idih>
0.000

> <Tether>
0.000

$$$$
VeraChem MOL file


 26 25  0  0  0  0  0  0  0  0999 V2000     
   17.7909   17.6863   26.8037 C   0  0  0  0  0  0  0  0  0  0  0  0
   18.3826   16.7647   26.8800 H   0  0  0  0  0  0  0  0  0  0  0  0
   18.2417   18.4378   27.4650 H   0  0  0  0  0  0  0  0  0  0  0  0
   16.7815   17.4707   27.1774 H   0  0  0  0  0  0  0  0  0  0  0  0
   17.7361   18.1913   25.3462 C   0  0  0  0  0  0  0  0  0  0  0  0
   17.1104   19.0935   25.2963 H   0  0  0  0  0  0  0  0  0  0  0  0
   17.2503   17.4333   24.7158 H   0  0  0  0  0  0  0  0  0  0  0  0
   19.1453   18.5027   24.7952 C   0  0  0  0  0  0  0  0  0  0  0  0
   19.6276   19.2591   25.4298 H   0  0  0  0  0  0  0  0  0  0  0  0
   19.7676   17.5987   24.8495 H   0  0  0  0  0  0  0  0  0  0  0  0
   19.0945   19.0087   23.3358 C   0  0  0  0  0  0  0  0  0  0  0  0
   18.4709   19.9119   23.2827 H   0  0  0  0  0  0  0  0  0  0  0  0
   18.6123   18.2517   22.7018 H   0  0  0  0  0  0  0  0  0  0  0  0
   20.5044   19.3208   22.7852 C   0  0  0  0  0  0  0  0  0  0  0  0
   20.9853   20.0801   23.4176 H   0  0  0  0  0  0  0  0  0  0  0  0
   21.1244   18.4164   22.8453 H   0  0  0  0  0  0  0  0  0  0  0  0
   20.4513   19.8262   21.3240 C   0  0  0  0  0  0  0  0  0  0  0  0
   19.7996   20.7083   21.2677 H   0  0  0  0  0  0  0  0  0  0  0  0
   20.0005   19.0617   20.6772 H   0  0  0  0  0  0  0  0  0  0  0  0
   21.8393   20.2102   20.7760 C   0  0  0  0  0  0  0  0  0  0  0  0
   21.7288   20.6371   19.7754 H   0  0  0  0  0  0  0  0  0  0  0  0
   22.2934   20.9671   21.4213 H   0  0  0  0  0  0  0  0  0  0  0  0
   22.7998   19.0416   20.6734 N   0  3  0  0  0  0  0  0  0  0  0  0
   22.4382   18.3042   20.0599 H   0  0  0  0  0  0  0  0  0  0  0  0
   22.9779   18.6150   21.5879 H   0  0  0  0  0  0  0  0  0  0  0  0
   23.7087   19.3281   20.2938 H   0  0  0  0  0  0  0  0  0  0  0  0
  1  2  1  0  0  0  0
  1  3  1  0  0  0  0
  1  4  1  0  0  0  0
  1  5  1  0  0  0  0
  5  6  1  0  0  0  0
  5  7  1  0  0  0  0
  5  8  1  0  0  0  0
  8  9  1  0  0  0  0
  8 10  1  0  0  0  0
  8 11  1  0  0  0  0
 11 12  1  0  0  0  0
 11 13  1  0  0  0  0
 11 14  1  0  0  0  0
 14 15  1  0  0  0  0
 14 16  1  0  0  0  0
 14 17  1  0  0  0  0
 17 18  1  0  0  0  0
 17 19  1  0  0  0  0
 17 20  1  0  0  0  0
 20 21  1  0  0  0  0
 20 22  1  0  0  0  0
 20 23  1  0  0  0  0
 23 24  1  0  0  0  0
 23 25  1  0  0  0  0
 23 26  1  0  0  0  0
M  END
> <VConfSearch Rank>
403

> <Conf_Id>
19

> <Delta U+W>
0.162

> <U+W>
-5.391

> <U>
47.845

> <W>
-53.235

> <W(PB)>
-55.585

> <W(SA)>
2.349

> <Valence>
2.258

> <Coulomb>
44.893

> <VdW>
0.694

> <VdW6>
-6.285

> <VdW12>
6.979

> <Bond>
0.149

> <Angle>
0.434

> <Pdih>
1.675

> <Idih>
0.000

> <Tether>
0.000

$$$$
VeraChem MOL file


 26 25  0  0  0  0  0  0  0  0999 V2000     
   21.9191   21.0596   20.2015 C   0  0  0  0  0  0  0  0  0  0  0  0
   21.8632   20.5872   19.2121 H   0  0  0  0  0  0  0  0  0  0  0  0
   21.2409   21.9229   20.2072 H   0  0  0  0  0  0  0  0  0  0  0  0
   22.9420   21.4336   20.3386 H   0  0  0  0  0  0  0  0  0  0  0  0
   21.5510   20.0582   21.3169 C   0  0  0  0  0  0  0  0  0  0  0  0
   21.6584   20.5546   22.2904 H   0  0  0  0  0  0  0  0  0  0  0  0
   22.2637   19.2217   21.3048 H   0  0  0  0  0  0  0  0  0  0  0  0
   20.1106   19.5200   21.1470 C   0  0  0  0  0  0  0  0  0  0  0  0
   19.3946   20.3509   21.2121 H   0  0  0  0  0  0  0  0  0  0  0  0
   20.0037   19.0998   20.1374 H   0  0  0  0  0  0  0  0  0  0  0  0
   19.7317   18.4263   22.1757 C   0  0  0  0  0  0  0  0  0  0  0  0
   20.4391   17.5890   22.0993 H   0  0  0  0  0  0  0  0  0  0  0  0
   18.7460   18.0225   21.9058 H   0  0  0  0  0  0  0  0  0  0  0  0
   19.6837   18.9389   23.6353 C   0  0  0  0  0  0  0  0  0  0  0  0
   20.6807   19.2762   23.9480 H   0  0  0  0  0  0  0  0  0  0  0  0
   19.0173   19.8105   23.6972 H   0  0  0  0  0  0  0  0  0  0  0  0
   19.1933   17.8464   24.6108 C   0  0  0  0  0  0  0  0  0  0  0  0
   19.8577   16.9738   24.5528 H   0  0  0  0  0  0  0  0  0  0  0  0
   18.1909   17.5088   24.3154 H   0  0  0  0  0  0  0  0  0  0  0  0
   19.1522   18.3627   26.0599 C   0  0  0  0  0  0  0  0  0  0  0  0
   20.1517   18.6846   26.3646 H   0  0  0  0  0  0  0  0  0  0  0  0
   18.4791   19.2218   26.1257 H   0  0  0  0  0  0  0  0  0  0  0  0
   18.6756   17.3184   27.0487 N   0  3  0  0  0  0  0  0  0  0  0  0
   19.2839   16.4930   27.0558 H   0  0  0  0  0  0  0  0  0  0  0  0
   17.7275   16.9928   26.8335 H   0  0  0  0  0  0  0  0  0  0  0  0
   18.6556   17.6827   28.0075 H   0  0  0  0  0  0  0  0  0  0  0  0
  1  2  1  0  0  0  0
  1  3  1  0  0  0  0
  1  4  1  0  0  0  0
  1  5  1  0  0  0  0
  5  6  1  0  0  0  0
  5  7  1  0  0  0  0
  5  8  1  0  0  0  0
  8  9  1  0  0  0  0
  8 10  1  0  0  0  0
  8 11  1  0  0  0  0
 11 12  1  0  0  0  0
 11 13  1  0  0  0  0
 11 14  1  0  0  0  0
 14 15  1  0  0  0  0
 14 16  1  0  0  0  0
 14 17  1  0  0  0  0
 17 18  1  0  0  0  0
 17 19  1  0  0  0  0
 17 20  1  0  0  0  0
 20 21  1  0  0  0  0
 20 22  1  0  0  0  0
 20 23  1  0  0  0  0
 23 24  1  0  0  0  0
 23 25  1  0  0  0  0
 23 26  1  0  0  0  0
M  END
> <VConfSearch Rank>
404

> <Conf_Id>
37

> <Delta U+W>
0.565

> <U+W>
-4.988

> <U>
48.035

> <W>
-53.022

> <W(PB)>
-55.379

> <W(SA)>
2.357

> <Valence>
2.701

> <Coulomb>
44.622

> <VdW>
0.712

> <VdW6>
-6.418

> <VdW12>
7.129

> <Bond>
0.168

> <Angle>
0.659

> <Pdih>
1.875

> <Idih>
0.000

> <Tether>
0.000

$$$$
VeraChem MOL file


 26 25  0  0  0  0  0  0  0  0999 V2000     
   19.1573   14.9340   23.0275 C   0  0  0  0  0  0  0  0  0  0  0  0
   18.7851   15.2328   22.0389 H   0  0  0  0  0  0  0  0  0  0  0  0
   20.2102   14.6413   22.9225 H   0  0  0  0  0  0  0  0  0  0  0  0
   18.5918   14.0490   23.3471 H   0  0  0  0  0  0  0  0  0  0  0  0
   18.9994   16.0798   24.0495 C   0  0  0  0  0  0  0  0  0  0  0  0
   19.3473   15.7393   25.0349 H   0  0  0  0  0  0  0  0  0  0  0  0
   17.9342   16.3278   24.1577 H   0  0  0  0  0  0  0  0  0  0  0  0
   19.7870   17.3388   23.6239 C   0  0  0  0  0  0  0  0  0  0  0  0
   20.8512   17.0863   23.5191 H   0  0  0  0  0  0  0  0  0  0  0  0
   19.4364   17.6625   22.6352 H   0  0  0  0  0  0  0  0  0  0  0  0
   19.6260   18.4897   24.6461 C   0  0  0  0  0  0  0  0  0  0  0  0
   19.9079   18.1240   25.6432 H   0  0  0  0  0  0  0  0  0  0  0  0
   18.5687   18.7814   24.7125 H   0  0  0  0  0  0  0  0  0  0  0  0
   20.4878   19.7340   24.3191 C   0  0  0  0  0  0  0  0  0  0  0  0
   20.4006   20.4464   25.1514 H   0  0  0  0  0  0  0  0  0  0  0  0
   21.5471   19.4459   24.2700 H   0  0  0  0  0  0  0  0  0  0  0  0
   20.0788   20.4434   23.0068 C   0  0  0  0  0  0  0  0  0  0  0  0
   19.0082   20.6860   23.0356 H   0  0  0  0  0  0  0  0  0  0  0  0
   20.2373   19.7758   22.1506 H   0  0  0  0  0  0  0  0  0  0  0  0
   20.8895   21.7337   22.7920 C   0  0  0  0  0  0  0  0  0  0  0  0
   20.7250   22.4157   23.6306 H   0  0  0  0  0  0  0  0  0  0  0  0
   21.9556   21.4953   22.7464 H   0  0  0  0  0  0  0  0  0  0  0  0
   20.5183   22.4628   21.5168 N   0  3  0  0  0  0  0  0  0  0  0  0
   19.5312   22.7398   21.5084 H   0  0  0  0  0  0  0  0  0  0  0  0
   20.6766   21.8840   20.6855 H   0  0  0  0  0  0  0  0  0  0  0  0
   21.0695   23.3192   21.3936 H   0  0  0  0  0  0  0  0  0  0  0  0
  1  2  1  0  0  0  0
  1  3  1  0  0  0  0
  1  4  1  0  0  0  0
  1  5  1  0  0  0  0
  5  6  1  0  0  0  0
  5  7  1  0  0  0  0
  5  8  1  0  0  0  0
  8  9  1  0  0  0  0
  8 10  1  0  0  0  0
  8 11  1  0  0  0  0
 11 12  1  0  0  0  0
 11 13  1  0  0  0  0
 11 14  1  0  0  0  0
 14 15  1  0  0  0  0
 14 16  1  0  0  0  0
 14 17  1  0  0  0  0
 17 18  1  0  0  0  0
 17 19  1  0  0  0  0
 17 20  1  0  0  0  0
 20 21  1  0  0  0  0
 20 22  1  0  0  0  0
 20 23  1  0  0  0  0
 23 24  1  0  0  0  0
 23 25  1  0  0  0  0
 23 26  1  0  0  0  0
M  END
> <VConfSearch Rank>
405

> <Conf_Id>
35

> <Delta U+W>
0.587

> <U+W>
-4.965

> <U>
48.214

> <W>
-53.179

> <W(PB)>
-55.527

> <W(SA)>
2.348

> <Valence>
2.697

> <Coulomb>
44.819

> <VdW>
0.699

> <VdW6>
-6.437

> <VdW12>
7.136

> <Bond>
0.168

> <Angle>
0.657

> <Pdih>
1.872

> <Idih>
0.000

> <Tether>
0.000

$$$$
VeraChem MOL file


 26 25  0  0  0  0  0  0  0  0999 V2000     
   23.7656   18.3340   21.7921 C   0  0  0  0  0  0  0  0  0  0  0  0
   23.7059   19.1451   21.0546 H   0  0  0  0  0  0  0  0  0  0  0  0
   24.0628   18.7688   22.7553 H   0  0  0  0  0  0  0  0  0  0  0  0
   24.5599   17.6466   21.4734 H   0  0  0  0  0  0  0  0  0  0  0  0
   22.4176   17.5917   21.9106 C   0  0  0  0  0  0  0  0  0  0  0  0
   22.5176   16.7665   22.6297 H   0  0  0  0  0  0  0  0  0  0  0  0
   22.1649   17.1389   20.9416 H   0  0  0  0  0  0  0  0  0  0  0  0
   21.2808   18.5375   22.3575 C   0  0  0  0  0  0  0  0  0  0  0  0
   21.5499   18.9895   23.3210 H   0  0  0  0  0  0  0  0  0  0  0  0
   21.1834   19.3592   21.6347 H   0  0  0  0  0  0  0  0  0  0  0  0
   19.9295   17.7930   22.4805 C   0  0  0  0  0  0  0  0  0  0  0  0
   20.0081   17.0053   23.2424 H   0  0  0  0  0  0  0  0  0  0  0  0
   19.7147   17.2831   21.5312 H   0  0  0  0  0  0  0  0  0  0  0  0
   18.7380   18.7231   22.8171 C   0  0  0  0  0  0  0  0  0  0  0  0
   18.6483   19.5008   22.0459 H   0  0  0  0  0  0  0  0  0  0  0  0
   17.8117   18.1337   22.7693 H   0  0  0  0  0  0  0  0  0  0  0  0
   18.8416   19.3822   24.2126 C   0  0  0  0  0  0  0  0  0  0  0  0
   19.7168   20.0426   24.2551 H   0  0  0  0  0  0  0  0  0  0  0  0
   18.9819   18.6075   24.9781 H   0  0  0  0  0  0  0  0  0  0  0  0
   17.5805   20.2012   24.5398 C   0  0  0  0  0  0  0  0  0  0  0  0
   17.4454   20.9846   23.7891 H   0  0  0  0  0  0  0  0  0  0  0  0
   16.7027   19.5497   24.5190 H   0  0  0  0  0  0  0  0  0  0  0  0
   17.6390   20.8633   25.9014 N   0  3  0  0  0  0  0  0  0  0  0  0
   18.4291   21.5123   25.9773 H   0  0  0  0  0  0  0  0  0  0  0  0
   17.7386   20.1766   26.6562 H   0  0  0  0  0  0  0  0  0  0  0  0
   16.7893   21.4030   26.0992 H   0  0  0  0  0  0  0  0  0  0  0  0
  1  2  1  0  0  0  0
  1  3  1  0  0  0  0
  1  4  1  0  0  0  0
  1  5  1  0  0  0  0
  5  6  1  0  0  0  0
  5  7  1  0  0  0  0
  5  8  1  0  0  0  0
  8  9  1  0  0  0  0
  8 10  1  0  0  0  0
  8 11  1  0  0  0  0
 11 12  1  0  0  0  0
 11 13  1  0  0  0  0
 11 14  1  0  0  0  0
 14 15  1  0  0  0  0
 14 16  1  0  0  0  0
 14 17  1  0  0  0  0
 17 18  1  0  0  0  0
 17 19  1  0  0  0  0
 17 20  1  0  0  0  0
 20 21  1  0  0  0  0
 20 22  1  0  0  0  0
 20 23  1  0  0  0  0
 23 24  1  0  0  0  0
 23 25  1  0  0  0  0
 23 26  1  0  0  0  0
M  END
> <VConfSearch Rank>
406

> <Conf_Id>
36

> <Delta U+W>
0.565

> <U+W>
-4.987

> <U>
48.214

> <W>
-53.201

> <W(PB)>
-55.543

> <W(SA)>
2.342

> <Valence>
2.697

> <Coulomb>
44.819

> <VdW>
0.698

> <VdW6>
-6.437

> <VdW12>
7.136

> <Bond>
0.168

> <Angle>
0.657

> <Pdih>
1.872

> <Idih>
0.000

> <Tether>
0.000

$$$$
VeraChem MOL file


 26 25  0  0  0  0  0  0  0  0999 V2000     
   21.4582   21.6398   20.3231 C   0  0  0  0  0  0  0  0  0  0  0  0
   20.5565   21.8491   19.7329 H   0  0  0  0  0  0  0  0  0  0  0  0
   22.0401   22.5682   20.3901 H   0  0  0  0  0  0  0  0  0  0  0  0
   22.0612   20.9029   19.7767 H   0  0  0  0  0  0  0  0  0  0  0  0
   21.0923   21.1231   21.7307 C   0  0  0  0  0  0  0  0  0  0  0  0
   20.5193   21.8943   22.2645 H   0  0  0  0  0  0  0  0  0  0  0  0
   22.0124   20.9554   22.3079 H   0  0  0  0  0  0  0  0  0  0  0  0
   20.2720   19.8158   21.6649 C   0  0  0  0  0  0  0  0  0  0  0  0
   19.3550   19.9881   21.0845 H   0  0  0  0  0  0  0  0  0  0  0  0
   20.8479   19.0487   21.1289 H   0  0  0  0  0  0  0  0  0  0  0  0
   19.9033   19.2953   23.0726 C   0  0  0  0  0  0  0  0  0  0  0  0
   19.3253   20.0623   23.6065 H   0  0  0  0  0  0  0  0  0  0  0  0
   20.8239   19.1315   23.6486 H   0  0  0  0  0  0  0  0  0  0  0  0
   19.0828   17.9850   23.0033 C   0  0  0  0  0  0  0  0  0  0  0  0
   18.1903   18.1499   22.3840 H   0  0  0  0  0  0  0  0  0  0  0  0
   19.6708   17.2053   22.4993 H   0  0  0  0  0  0  0  0  0  0  0  0
   18.6344   17.4751   24.3931 C   0  0  0  0  0  0  0  0  0  0  0  0
   17.9873   16.5981   24.2591 H   0  0  0  0  0  0  0  0  0  0  0  0
   18.0252   18.2426   24.8890 H   0  0  0  0  0  0  0  0  0  0  0  0
   19.8207   17.0914   25.2975 C   0  0  0  0  0  0  0  0  0  0  0  0
   20.4268   16.3265   24.8045 H   0  0  0  0  0  0  0  0  0  0  0  0
   20.4495   17.9676   25.4753 H   0  0  0  0  0  0  0  0  0  0  0  0
   19.3881   16.5492   26.6444 N   0  3  0  0  0  0  0  0  0  0  0  0
   20.1920   16.2998   27.2309 H   0  0  0  0  0  0  0  0  0  0  0  0
   18.8145   15.7046   26.5500 H   0  0  0  0  0  0  0  0  0  0  0  0
   18.8346   17.2325   27.1716 H   0  0  0  0  0  0  0  0  0  0  0  0
  1  2  1  0  0  0  0
  1  3  1  0  0  0  0
  1  4  1  0  0  0  0
  1  5  1  0  0  0  0
  5  6  1  0  0  0  0
  5  7  1  0  0  0  0
  5  8  1  0  0  0  0
  8  9  1  0  0  0  0
  8 10  1  0  0  0  0
  8 11  1  0  0  0  0
 11 12  1  0  0  0  0
 11 13  1  0  0  0  0
 11 14  1  0  0  0  0
 14 15  1  0  0  0  0
 14 16  1  0  0  0  0
 14 17  1  0  0  0  0
 17 18  1  0  0  0  0
 17 19  1  0  0  0  0
 17 20  1  0  0  0  0
 20 21  1  0  0  0  0
 20 22  1  0  0  0  0
 20 23  1  0  0  0  0
 23 24  1  0  0  0  0
 23 25  1  0  0  0  0
 23 26  1  0  0  0  0
M  END
> <VConfSearch Rank>
407

> <Conf_Id>
44

> <Delta U+W>
0.371

> <U+W>
-5.181

> <U>
48.002

> <W>
-53.183

> <W(PB)>
-55.533

> <W(SA)>
2.350

> <Valence>
2.459

> <Coulomb>
44.901

> <VdW>
0.643

> <VdW6>
-6.362

> <VdW12>
7.005

> <Bond>
0.151

> <Angle>
0.519

> <Pdih>
1.789

> <Idih>
0.000

> <Tether>
0.000

$$$$
VeraChem MOL file


 26 25  0  0  0  0  0  0  0  0999 V2000     
   19.2678   17.4160   26.8372 C   0  0  0  0  0  0  0  0  0  0  0  0
   20.1423   17.9040   27.2866 H   0  0  0  0  0  0  0  0  0  0  0  0
   18.6428   17.0304   27.6530 H   0  0  0  0  0  0  0  0  0  0  0  0
   19.6158   16.5543   26.2545 H   0  0  0  0  0  0  0  0  0  0  0  0
   18.4652   18.4075   25.9642 C   0  0  0  0  0  0  0  0  0  0  0  0
   18.0321   19.1793   26.6157 H   0  0  0  0  0  0  0  0  0  0  0  0
   17.6166   17.8875   25.4981 H   0  0  0  0  0  0  0  0  0  0  0  0
   19.3172   19.1016   24.8738 C   0  0  0  0  0  0  0  0  0  0  0  0
   18.6989   19.8778   24.4055 H   0  0  0  0  0  0  0  0  0  0  0  0
   20.1630   19.6208   25.3452 H   0  0  0  0  0  0  0  0  0  0  0  0
   19.8404   18.1278   23.7871 C   0  0  0  0  0  0  0  0  0  0  0  0
   18.9946   17.6113   23.3128 H   0  0  0  0  0  0  0  0  0  0  0  0
   20.4514   17.3488   24.2608 H   0  0  0  0  0  0  0  0  0  0  0  0
   20.7040   18.8154   22.7007 C   0  0  0  0  0  0  0  0  0  0  0  0
   21.5417   19.3439   23.1766 H   0  0  0  0  0  0  0  0  0  0  0  0
   21.1501   18.0315   22.0746 H   0  0  0  0  0  0  0  0  0  0  0  0
   19.9088   19.7969   21.8031 C   0  0  0  0  0  0  0  0  0  0  0  0
   19.4982   20.6109   22.4128 H   0  0  0  0  0  0  0  0  0  0  0  0
   19.0527   19.2817   21.3476 H   0  0  0  0  0  0  0  0  0  0  0  0
   20.7775   20.4263   20.6967 C   0  0  0  0  0  0  0  0  0  0  0  0
   20.1922   21.1789   20.1614 H   0  0  0  0  0  0  0  0  0  0  0  0
   21.6422   20.9228   21.1452 H   0  0  0  0  0  0  0  0  0  0  0  0
   21.2849   19.4283   19.6742 N   0  3  0  0  0  0  0  0  0  0  0  0
   21.8764   18.7107   20.1044 H   0  0  0  0  0  0  0  0  0  0  0  0
   21.8461   19.8822   18.9452 H   0  0  0  0  0  0  0  0  0  0  0  0
   20.5155   18.9434   19.2010 H   0  0  0  0  0  0  0  0  0  0  0  0
  1  2  1  0  0  0  0
  1  3  1  0  0  0  0
  1  4  1  0  0  0  0
  1  5  1  0  0  0  0
  5  6  1  0  0  0  0
  5  7  1  0  0  0  0
  5  8  1  0  0  0  0
  8  9  1  0  0  0  0
  8 10  1  0  0  0  0
  8 11  1  0  0  0  0
 11 12  1  0  0  0  0
 11 13  1  0  0  0  0
 11 14  1  0  0  0  0
 14 15  1  0  0  0  0
 14 16  1  0  0  0  0
 14 17  1  0  0  0  0
 17 18  1  0  0  0  0
 17 19  1  0  0  0  0
 17 20  1  0  0  0  0
 20 21  1  0  0  0  0
 20 22  1  0  0  0  0
 20 23  1  0  0  0  0
 23 24  1  0  0  0  0
 23 25  1  0  0  0  0
 23 26  1  0  0  0  0
M  END
> <VConfSearch Rank>
408

> <Conf_Id>
112

> <Delta U+W>
1.422

> <U+W>
-4.130

> <U>
49.323

> <W>
-53.453

> <W(PB)>
-55.749

> <W(SA)>
2.296

> <Valence>
3.408

> <Coulomb>
44.893

> <VdW>
1.021

> <VdW6>
-7.481

> <VdW12>
8.503

> <Bond>
0.239

> <Angle>
1.013

> <Pdih>
2.156

> <Idih>
0.000

> <Tether>
0.000

$$$$
VeraChem MOL file


 26 25  0  0  0  0  0  0  0  0999 V2000     
   17.2202   17.5913   25.3953 C   0  0  0  0  0  0  0  0  0  0  0  0
   16.3872   17.4464   26.0954 H   0  0  0  0  0  0  0  0  0  0  0  0
   16.7894   17.7728   24.4028 H   0  0  0  0  0  0  0  0  0  0  0  0
   17.7926   16.6554   25.3562 H   0  0  0  0  0  0  0  0  0  0  0  0
   18.1112   18.7691   25.8509 C   0  0  0  0  0  0  0  0  0  0  0  0
   18.4235   18.5963   26.8903 H   0  0  0  0  0  0  0  0  0  0  0  0
   17.5224   19.6970   25.8572 H   0  0  0  0  0  0  0  0  0  0  0  0
   19.3746   18.9563   24.9766 C   0  0  0  0  0  0  0  0  0  0  0  0
   19.9970   19.7422   25.4261 H   0  0  0  0  0  0  0  0  0  0  0  0
   19.9690   18.0337   25.0049 H   0  0  0  0  0  0  0  0  0  0  0  0
   19.0538   19.3400   23.5098 C   0  0  0  0  0  0  0  0  0  0  0  0
   18.3530   20.1862   23.5072 H   0  0  0  0  0  0  0  0  0  0  0  0
   18.5395   18.5102   23.0071 H   0  0  0  0  0  0  0  0  0  0  0  0
   20.3042   19.7365   22.6869 C   0  0  0  0  0  0  0  0  0  0  0  0
   19.9670   20.1054   21.7092 H   0  0  0  0  0  0  0  0  0  0  0  0
   20.8144   20.5783   23.1752 H   0  0  0  0  0  0  0  0  0  0  0  0
   21.3028   18.5699   22.4807 C   0  0  0  0  0  0  0  0  0  0  0  0
   20.7934   17.7158   22.0151 H   0  0  0  0  0  0  0  0  0  0  0  0
   21.6745   18.2227   23.4528 H   0  0  0  0  0  0  0  0  0  0  0  0
   22.5185   18.9730   21.6238 C   0  0  0  0  0  0  0  0  0  0  0  0
   23.0173   19.8351   22.0748 H   0  0  0  0  0  0  0  0  0  0  0  0
   23.2311   18.1442   21.5941 H   0  0  0  0  0  0  0  0  0  0  0  0
   22.1679   19.3273   20.1919 N   0  3  0  0  0  0  0  0  0  0  0  0
   21.5283   20.1264   20.1438 H   0  0  0  0  0  0  0  0  0  0  0  0
   21.7145   18.5463   19.7065 H   0  0  0  0  0  0  0  0  0  0  0  0
   23.0004   19.5761   19.6466 H   0  0  0  0  0  0  0  0  0  0  0  0
  1  2  1  0  0  0  0
  1  3  1  0  0  0  0
  1  4  1  0  0  0  0
  1  5  1  0  0  0  0
  5  6  1  0  0  0  0
  5  7  1  0  0  0  0
  5  8  1  0  0  0  0
  8  9  1  0  0  0  0
  8 10  1  0  0  0  0
  8 11  1  0  0  0  0
 11 12  1  0  0  0  0
 11 13  1  0  0  0  0
 11 14  1  0  0  0  0
 14 15  1  0  0  0  0
 14 16  1  0  0  0  0
 14 17  1  0  0  0  0
 17 18  1  0  0  0  0
 17 19  1  0  0  0  0
 17 20  1  0  0  0  0
 20 21  1  0  0  0  0
 20 22  1  0  0  0  0
 20 23  1  0  0  0  0
 23 24  1  0  0  0  0
 23 25  1  0  0  0  0
 23 26  1  0  0  0  0
M  END
> <VConfSearch Rank>
409

> <Conf_Id>
130

> <Delta U+W>
1.282

> <U+W>
-4.270

> <U>
49.153

> <W>
-53.422

> <W(PB)>
-55.725

> <W(SA)>
2.303

> <Valence>
3.298

> <Coulomb>
44.907

> <VdW>
0.948

> <VdW6>
-7.574

> <VdW12>
8.522

> <Bond>
0.229

> <Angle>
0.912

> <Pdih>
2.157

> <Idih>
0.000

> <Tether>
0.000

$$$$
VeraChem MOL file


 26 25  0  0  0  0  0  0  0  0999 V2000     
   21.2458   17.3109   20.5051 C   0  0  0  0  0  0  0  0  0  0  0  0
   20.8011   16.3082   20.4610 H   0  0  0  0  0  0  0  0  0  0  0  0
   21.9738   17.3921   19.6877 H   0  0  0  0  0  0  0  0  0  0  0  0
   21.7976   17.4017   21.4490 H   0  0  0  0  0  0  0  0  0  0  0  0
   20.1621   18.4051   20.3757 C   0  0  0  0  0  0  0  0  0  0  0  0
   19.7215   18.3488   19.3706 H   0  0  0  0  0  0  0  0  0  0  0  0
   20.6272   19.3975   20.4432 H   0  0  0  0  0  0  0  0  0  0  0  0
   19.0242   18.2731   21.4201 C   0  0  0  0  0  0  0  0  0  0  0  0
   18.2876   19.0690   21.2432 H   0  0  0  0  0  0  0  0  0  0  0  0
   18.4921   17.3278   21.2454 H   0  0  0  0  0  0  0  0  0  0  0  0
   19.4727   18.3224   22.9038 C   0  0  0  0  0  0  0  0  0  0  0  0
   20.1288   17.4701   23.1246 H   0  0  0  0  0  0  0  0  0  0  0  0
   18.5812   18.1867   23.5300 H   0  0  0  0  0  0  0  0  0  0  0  0
   20.1817   19.6445   23.2928 C   0  0  0  0  0  0  0  0  0  0  0  0
   21.0897   19.7663   22.6880 H   0  0  0  0  0  0  0  0  0  0  0  0
   19.5316   20.4981   23.0561 H   0  0  0  0  0  0  0  0  0  0  0  0
   20.5847   19.7004   24.7852 C   0  0  0  0  0  0  0  0  0  0  0  0
   21.1716   20.6117   24.9609 H   0  0  0  0  0  0  0  0  0  0  0  0
   21.2418   18.8529   25.0220 H   0  0  0  0  0  0  0  0  0  0  0  0
   19.3702   19.6959   25.7326 C   0  0  0  0  0  0  0  0  0  0  0  0
   18.7157   20.5390   25.4955 H   0  0  0  0  0  0  0  0  0  0  0  0
   18.8019   18.7714   25.6028 H   0  0  0  0  0  0  0  0  0  0  0  0
   19.7578   19.8010   27.1934 N   0  3  0  0  0  0  0  0  0  0  0  0
   20.3542   19.0206   27.4876 H   0  0  0  0  0  0  0  0  0  0  0  0
   18.9358   19.7965   27.8070 H   0  0  0  0  0  0  0  0  0  0  0  0
   20.2727   20.6654   27.3908 H   0  0  0  0  0  0  0  0  0  0  0  0
  1  2  1  0  0  0  0
  1  3  1  0  0  0  0
  1  4  1  0  0  0  0
  1  5  1  0  0  0  0
  5  6  1  0  0  0  0
  5  7  1  0  0  0  0
  5  8  1  0  0  0  0
  8  9  1  0  0  0  0
  8 10  1  0  0  0  0
  8 11  1  0  0  0  0
 11 12  1  0  0  0  0
 11 13  1  0  0  0  0
 11 14  1  0  0  0  0
 14 15  1  0  0  0  0
 14 16  1  0  0  0  0
 14 17  1  0  0  0  0
 17 18  1  0  0  0  0
 17 19  1  0  0  0  0
 17 20  1  0  0  0  0
 20 21  1  0  0  0  0
 20 22  1  0  0  0  0
 20 23  1  0  0  0  0
 23 24  1  0  0  0  0
 23 25  1  0  0  0  0
 23 26  1  0  0  0  0
M  END
> <VConfSearch Rank>
410

> <Conf_Id>
111

> <Delta U+W>
1.290

> <U+W>
-4.262

> <U>
49.209

> <W>
-53.471

> <W(PB)>
-55.745

> <W(SA)>
2.274

> <Valence>
3.465

> <Coulomb>
44.958

> <VdW>
0.786

> <VdW6>
-7.903

> <VdW12>
8.689

> <Bond>
0.237

> <Angle>
1.212

> <Pdih>
2.015

> <Idih>
0.000

> <Tether>
0.000

$$$$
VeraChem MOL file


 26 25  0  0  0  0  0  0  0  0999 V2000     
   16.8552   18.7248   20.8022 C   0  0  0  0  0  0  0  0  0  0  0  0
   17.4119   18.1060   20.0864 H   0  0  0  0  0  0  0  0  0  0  0  0
   15.9872   18.1491   21.1493 H   0  0  0  0  0  0  0  0  0  0  0  0
   16.4815   19.6068   20.2661 H   0  0  0  0  0  0  0  0  0  0  0  0
   17.7518   19.1458   21.9858 C   0  0  0  0  0  0  0  0  0  0  0  0
   17.1766   19.7868   22.6684 H   0  0  0  0  0  0  0  0  0  0  0  0
   18.5836   19.7524   21.6039 H   0  0  0  0  0  0  0  0  0  0  0  0
   18.2943   17.9180   22.7548 C   0  0  0  0  0  0  0  0  0  0  0  0
   17.4489   17.2849   23.0578 H   0  0  0  0  0  0  0  0  0  0  0  0
   18.9132   17.3051   22.0850 H   0  0  0  0  0  0  0  0  0  0  0  0
   19.1076   18.2878   24.0197 C   0  0  0  0  0  0  0  0  0  0  0  0
   19.3491   17.3622   24.5602 H   0  0  0  0  0  0  0  0  0  0  0  0
   18.4820   18.8859   24.6967 H   0  0  0  0  0  0  0  0  0  0  0  0
   20.4200   19.0480   23.7117 C   0  0  0  0  0  0  0  0  0  0  0  0
   21.0108   18.4710   22.9879 H   0  0  0  0  0  0  0  0  0  0  0  0
   20.1924   20.0142   23.2426 H   0  0  0  0  0  0  0  0  0  0  0  0
   21.2521   19.2938   24.9925 C   0  0  0  0  0  0  0  0  0  0  0  0
   21.5223   18.3357   25.4562 H   0  0  0  0  0  0  0  0  0  0  0  0
   20.6393   19.8350   25.7256 H   0  0  0  0  0  0  0  0  0  0  0  0
   22.5293   20.1132   24.7247 C   0  0  0  0  0  0  0  0  0  0  0  0
   22.2644   21.0659   24.2582 H   0  0  0  0  0  0  0  0  0  0  0  0
   23.0295   20.3257   25.6735 H   0  0  0  0  0  0  0  0  0  0  0  0
   23.5279   19.4107   23.8259 N   0  3  0  0  0  0  0  0  0  0  0  0
   24.3708   19.9764   23.6780 H   0  0  0  0  0  0  0  0  0  0  0  0
   23.1332   19.2132   22.9012 H   0  0  0  0  0  0  0  0  0  0  0  0
   23.8337   18.5162   24.2227 H   0  0  0  0  0  0  0  0  0  0  0  0
  1  2  1  0  0  0  0
  1  3  1  0  0  0  0
  1  4  1  0  0  0  0
  1  5  1  0  0  0  0
  5  6  1  0  0  0  0
  5  7  1  0  0  0  0
  5  8  1  0  0  0  0
  8  9  1  0  0  0  0
  8 10  1  0  0  0  0
  8 11  1  0  0  0  0
 11 12  1  0  0  0  0
 11 13  1  0  0  0  0
 11 14  1  0  0  0  0
 14 15  1  0  0  0  0
 14 16  1  0  0  0  0
 14 17  1  0  0  0  0
 17 18  1  0  0  0  0
 17 19  1  0  0  0  0
 17 20  1  0  0  0  0
 20 21  1  0  0  0  0
 20 22  1  0  0  0  0
 20 23  1  0  0  0  0
 23 24  1  0  0  0  0
 23 25  1  0  0  0  0
 23 26  1  0  0  0  0
M  END
> <VConfSearch Rank>
411

> <Conf_Id>
105

> <Delta U+W>
0.736

> <U+W>
-4.817

> <U>
48.735

> <W>
-53.552

> <W(PB)>
-55.889

> <W(SA)>
2.337

> <Valence>
2.803

> <Coulomb>
45.123

> <VdW>
0.809

> <VdW6>
-6.953

> <VdW12>
7.761

> <Bond>
0.188

> <Angle>
0.699

> <Pdih>
1.917

> <Idih>
0.000

> <Tether>
0.000

$$$$
VeraChem MOL file


 26 25  0  0  0  0  0  0  0  0999 V2000     
   17.1579   21.2346   24.1101 C   0  0  0  0  0  0  0  0  0  0  0  0
   16.2781   21.2998   23.4567 H   0  0  0  0  0  0  0  0  0  0  0  0
   16.9226   20.5472   24.9331 H   0  0  0  0  0  0  0  0  0  0  0  0
   17.3318   22.2292   24.5409 H   0  0  0  0  0  0  0  0  0  0  0  0
   18.3980   20.7562   23.3257 C   0  0  0  0  0  0  0  0  0  0  0  0
   19.2634   20.7423   24.0016 H   0  0  0  0  0  0  0  0  0  0  0  0
   18.6266   21.4778   22.5290 H   0  0  0  0  0  0  0  0  0  0  0  0
   18.1785   19.3533   22.7120 C   0  0  0  0  0  0  0  0  0  0  0  0
   17.9909   18.6235   23.5105 H   0  0  0  0  0  0  0  0  0  0  0  0
   17.2653   19.3707   22.1013 H   0  0  0  0  0  0  0  0  0  0  0  0
   19.3521   18.8747   21.8184 C   0  0  0  0  0  0  0  0  0  0  0  0
   19.4382   19.5492   20.9553 H   0  0  0  0  0  0  0  0  0  0  0  0
   19.0999   17.8889   21.4040 H   0  0  0  0  0  0  0  0  0  0  0  0
   20.7327   18.7865   22.5193 C   0  0  0  0  0  0  0  0  0  0  0  0
   21.4688   18.4535   21.7758 H   0  0  0  0  0  0  0  0  0  0  0  0
   21.0572   19.7862   22.8372 H   0  0  0  0  0  0  0  0  0  0  0  0
   20.7521   17.8205   23.7303 C   0  0  0  0  0  0  0  0  0  0  0  0
   20.4098   16.8236   23.4225 H   0  0  0  0  0  0  0  0  0  0  0  0
   20.0496   18.1722   24.4962 H   0  0  0  0  0  0  0  0  0  0  0  0
   22.1452   17.7089   24.3794 C   0  0  0  0  0  0  0  0  0  0  0  0
   22.4968   18.7026   24.6696 H   0  0  0  0  0  0  0  0  0  0  0  0
   22.0760   17.0950   25.2815 H   0  0  0  0  0  0  0  0  0  0  0  0
   23.1919   17.0830   23.4785 N   0  3  0  0  0  0  0  0  0  0  0  0
   23.3358   17.6315   22.6251 H   0  0  0  0  0  0  0  0  0  0  0  0
   22.9277   16.1357   23.1891 H   0  0  0  0  0  0  0  0  0  0  0  0
   24.1021   17.0105   23.9458 H   0  0  0  0  0  0  0  0  0  0  0  0
  1  2  1  0  0  0  0
  1  3  1  0  0  0  0
  1  4  1  0  0  0  0
  1  5  1  0  0  0  0
  5  6  1  0  0  0  0
  5  7  1  0  0  0  0
  5  8  1  0  0  0  0
  8  9  1  0  0  0  0
  8 10  1  0  0  0  0
  8 11  1  0  0  0  0
 11 12  1  0  0  0  0
 11 13  1  0  0  0  0
 11 14  1  0  0  0  0
 14 15  1  0  0  0  0
 14 16  1  0  0  0  0
 14 17  1  0  0  0  0
 17 18  1  0  0  0  0
 17 19  1  0  0  0  0
 17 20  1  0  0  0  0
 20 21  1  0  0  0  0
 20 22  1  0  0  0  0
 20 23  1  0  0  0  0
 23 24  1  0  0  0  0
 23 25  1  0  0  0  0
 23 26  1  0  0  0  0
M  END
> <VConfSearch Rank>
412

> <Conf_Id>
144

> <Delta U+W>
1.073

> <U+W>
-4.479

> <U>
49.231

> <W>
-53.710

> <W(PB)>
-55.983

> <W(SA)>
2.273

> <Valence>
3.276

> <Coulomb>
45.175

> <VdW>
0.779

> <VdW6>
-7.944

> <VdW12>
8.723

> <Bond>
0.239

> <Angle>
1.155

> <Pdih>
1.883

> <Idih>
0.000

> <Tether>
0.000

$$$$
VeraChem MOL file


 26 25  0  0  0  0  0  0  0  0999 V2000     
   21.7506   18.7320   20.0842 C   0  0  0  0  0  0  0  0  0  0  0  0
   22.1860   19.7125   20.3118 H   0  0  0  0  0  0  0  0  0  0  0  0
   22.4329   18.2223   19.3916 H   0  0  0  0  0  0  0  0  0  0  0  0
   20.7989   18.8909   19.5607 H   0  0  0  0  0  0  0  0  0  0  0  0
   21.5477   17.8862   21.3621 C   0  0  0  0  0  0  0  0  0  0  0  0
   22.5065   17.7697   21.8864 H   0  0  0  0  0  0  0  0  0  0  0  0
   21.2343   16.8749   21.0672 H   0  0  0  0  0  0  0  0  0  0  0  0
   20.4883   18.4693   22.3287 C   0  0  0  0  0  0  0  0  0  0  0  0
   19.5378   18.6034   21.7945 H   0  0  0  0  0  0  0  0  0  0  0  0
   20.3090   17.7248   23.1144 H   0  0  0  0  0  0  0  0  0  0  0  0
   20.9191   19.8047   22.9847 C   0  0  0  0  0  0  0  0  0  0  0  0
   21.1990   20.5232   22.2040 H   0  0  0  0  0  0  0  0  0  0  0  0
   21.8237   19.6393   23.5858 H   0  0  0  0  0  0  0  0  0  0  0  0
   19.8295   20.4696   23.8658 C   0  0  0  0  0  0  0  0  0  0  0  0
   20.2392   21.4191   24.2377 H   0  0  0  0  0  0  0  0  0  0  0  0
   18.9611   20.7422   23.2501 H   0  0  0  0  0  0  0  0  0  0  0  0
   19.3726   19.6314   25.0864 C   0  0  0  0  0  0  0  0  0  0  0  0
   19.0446   20.3175   25.8787 H   0  0  0  0  0  0  0  0  0  0  0  0
   20.2207   19.0672   25.4964 H   0  0  0  0  0  0  0  0  0  0  0  0
   18.2021   18.6825   24.7620 C   0  0  0  0  0  0  0  0  0  0  0  0
   17.3477   19.2644   24.4059 H   0  0  0  0  0  0  0  0  0  0  0  0
   18.4882   17.9822   23.9751 H   0  0  0  0  0  0  0  0  0  0  0  0
   17.7476   17.8733   25.9594 N   0  3  0  0  0  0  0  0  0  0  0  0
   17.4314   18.4735   26.7281 H   0  0  0  0  0  0  0  0  0  0  0  0
   18.4991   17.2815   26.3284 H   0  0  0  0  0  0  0  0  0  0  0  0
   16.9656   17.2521   25.7251 H   0  0  0  0  0  0  0  0  0  0  0  0
  1  2  1  0  0  0  0
  1  3  1  0  0  0  0
  1  4  1  0  0  0  0
  1  5  1  0  0  0  0
  5  6  1  0  0  0  0
  5  7  1  0  0  0  0
  5  8  1  0  0  0  0
  8  9  1  0  0  0  0
  8 10  1  0  0  0  0
  8 11  1  0  0  0  0
 11 12  1  0  0  0  0
 11 13  1  0  0  0  0
 11 14  1  0  0  0  0
 14 15  1  0  0  0  0
 14 16  1  0  0  0  0
 14 17  1  0  0  0  0
 17 18  1  0  0  0  0
 17 19  1  0  0  0  0
 17 20  1  0  0  0  0
 20 21  1  0  0  0  0
 20 22  1  0  0  0  0
 20 23  1  0  0  0  0
 23 24  1  0  0  0  0
 23 25  1  0  0  0  0
 23 26  1  0  0  0  0
M  END
> <VConfSearch Rank>
413

> <Conf_Id>
93

> <Delta U+W>
3.253

> <U+W>
-2.300

> <U>
51.609

> <W>
-53.909

> <W(PB)>
-56.178

> <W(SA)>
2.270

> <Valence>
5.204

> <Coulomb>
45.645

> <VdW>
0.760

> <VdW6>
-7.997

> <VdW12>
8.758

> <Bond>
0.240

> <Angle>
1.456

> <Pdih>
3.507

> <Idih>
0.000

> <Tether>
0.000

$$$$
VeraChem MOL file


 26 25  0  0  0  0  0  0  0  0999 V2000     
   23.0227   19.6651   25.3210 C   0  0  0  0  0  0  0  0  0  0  0  0
   22.8377   18.7293   25.8622 H   0  0  0  0  0  0  0  0  0  0  0  0
   23.6546   19.4411   24.4518 H   0  0  0  0  0  0  0  0  0  0  0  0
   23.5928   20.3236   25.9890 H   0  0  0  0  0  0  0  0  0  0  0  0
   21.7037   20.3456   24.8889 C   0  0  0  0  0  0  0  0  0  0  0  0
   21.9399   21.3339   24.4702 H   0  0  0  0  0  0  0  0  0  0  0  0
   21.0739   20.5285   25.7708 H   0  0  0  0  0  0  0  0  0  0  0  0
   20.9080   19.5396   23.8336 C   0  0  0  0  0  0  0  0  0  0  0  0
   20.0831   20.1727   23.4837 H   0  0  0  0  0  0  0  0  0  0  0  0
   21.5483   19.3412   22.9632 H   0  0  0  0  0  0  0  0  0  0  0  0
   20.3301   18.2098   24.3788 C   0  0  0  0  0  0  0  0  0  0  0  0
   19.6254   18.4266   25.1933 H   0  0  0  0  0  0  0  0  0  0  0  0
   21.1371   17.6146   24.8243 H   0  0  0  0  0  0  0  0  0  0  0  0
   19.6297   17.3276   23.3126 C   0  0  0  0  0  0  0  0  0  0  0  0
   20.3546   17.0111   22.5497 H   0  0  0  0  0  0  0  0  0  0  0  0
   19.3017   16.4048   23.8110 H   0  0  0  0  0  0  0  0  0  0  0  0
   18.3950   17.9743   22.6356 C   0  0  0  0  0  0  0  0  0  0  0  0
   17.8504   18.5967   23.3580 H   0  0  0  0  0  0  0  0  0  0  0  0
   17.7047   17.1760   22.3318 H   0  0  0  0  0  0  0  0  0  0  0  0
   18.7557   18.7960   21.3825 C   0  0  0  0  0  0  0  0  0  0  0  0
   19.4438   19.6025   21.6426 H   0  0  0  0  0  0  0  0  0  0  0  0
   19.2491   18.1500   20.6514 H   0  0  0  0  0  0  0  0  0  0  0  0
   17.5462   19.4167   20.7140 N   0  3  0  0  0  0  0  0  0  0  0  0
   16.8705   18.7070   20.4123 H   0  0  0  0  0  0  0  0  0  0  0  0
   17.8058   19.9548   19.8801 H   0  0  0  0  0  0  0  0  0  0  0  0
   17.0500   20.0583   21.3411 H   0  0  0  0  0  0  0  0  0  0  0  0
  1  2  1  0  0  0  0
  1  3  1  0  0  0  0
  1  4  1  0  0  0  0
  1  5  1  0  0  0  0
  5  6  1  0  0  0  0
  5  7  1  0  0  0  0
  5  8  1  0  0  0  0
  8  9  1  0  0  0  0
  8 10  1  0  0  0  0
  8 11  1  0  0  0  0
 11 12  1  0  0  0  0
 11 13  1  0  0  0  0
 11 14  1  0  0  0  0
 14 15  1  0  0  0  0
 14 16  1  0  0  0  0
 14 17  1  0  0  0  0
 17 18  1  0  0  0  0
 17 19  1  0  0  0  0
 17 20  1  0  0  0  0
 20 21  1  0  0  0  0
 20 22  1  0  0  0  0
 20 23  1  0  0  0  0
 23 24  1  0  0  0  0
 23 25  1  0  0  0  0
 23 26  1  0  0  0  0
M  END
> <VConfSearch Rank>
414

> <Conf_Id>
94

> <Delta U+W>
3.247

> <U+W>
-2.305

> <U>
51.609

> <W>
-53.914

> <W(PB)>
-56.221

> <W(SA)>
2.307

> <Valence>
5.204

> <Coulomb>
45.645

> <VdW>
0.760

> <VdW6>
-7.997

> <VdW12>
8.757

> <Bond>
0.240

> <Angle>
1.456

> <Pdih>
3.508

> <Idih>
0.000

> <Tether>
0.000

$$$$
VeraChem MOL file


 26 25  0  0  0  0  0  0  0  0999 V2000     
   16.6252   18.2287   25.3427 C   0  0  0  0  0  0  0  0  0  0  0  0
   15.9492   19.0250   25.0048 H   0  0  0  0  0  0  0  0  0  0  0  0
   16.4134   17.3273   24.7529 H   0  0  0  0  0  0  0  0  0  0  0  0
   16.3885   18.0083   26.3917 H   0  0  0  0  0  0  0  0  0  0  0  0
   18.1014   18.6543   25.1949 C   0  0  0  0  0  0  0  0  0  0  0  0
   18.7514   17.8522   25.5719 H   0  0  0  0  0  0  0  0  0  0  0  0
   18.2908   19.5369   25.8217 H   0  0  0  0  0  0  0  0  0  0  0  0
   18.4612   18.9706   23.7263 C   0  0  0  0  0  0  0  0  0  0  0  0
   18.2683   18.0863   23.1034 H   0  0  0  0  0  0  0  0  0  0  0  0
   17.8069   19.7708   23.3535 H   0  0  0  0  0  0  0  0  0  0  0  0
   19.9386   19.3977   23.5743 C   0  0  0  0  0  0  0  0  0  0  0  0
   20.5860   18.5968   23.9558 H   0  0  0  0  0  0  0  0  0  0  0  0
   20.1292   20.2841   24.1950 H   0  0  0  0  0  0  0  0  0  0  0  0
   20.2968   19.7119   22.1020 C   0  0  0  0  0  0  0  0  0  0  0  0
   20.1315   18.8213   21.4811 H   0  0  0  0  0  0  0  0  0  0  0  0
   19.6105   20.4808   21.7209 H   0  0  0  0  0  0  0  0  0  0  0  0
   21.7504   20.2173   21.9226 C   0  0  0  0  0  0  0  0  0  0  0  0
   21.8782   21.1560   22.4780 H   0  0  0  0  0  0  0  0  0  0  0  0
   21.9220   20.4614   20.8659 H   0  0  0  0  0  0  0  0  0  0  0  0
   22.8261   19.2159   22.3901 C   0  0  0  0  0  0  0  0  0  0  0  0
   23.8169   19.6581   22.2544 H   0  0  0  0  0  0  0  0  0  0  0  0
   22.6940   19.0002   23.4534 H   0  0  0  0  0  0  0  0  0  0  0  0
   22.8009   17.9006   21.6368 N   0  3  0  0  0  0  0  0  0  0  0  0
   22.9491   18.0353   20.6314 H   0  0  0  0  0  0  0  0  0  0  0  0
   21.9039   17.4184   21.7495 H   0  0  0  0  0  0  0  0  0  0  0  0
   23.5316   17.2596   21.9645 H   0  0  0  0  0  0  0  0  0  0  0  0
  1  2  1  0  0  0  0
  1  3  1  0  0  0  0
  1  4  1  0  0  0  0
  1  5  1  0  0  0  0
  5  6  1  0  0  0  0
  5  7  1  0  0  0  0
  5  8  1  0  0  0  0
  8  9  1  0  0  0  0
  8 10  1  0  0  0  0
  8 11  1  0  0  0  0
 11 12  1  0  0  0  0
 11 13  1  0  0  0  0
 11 14  1  0  0  0  0
 14 15  1  0  0  0  0
 14 16  1  0  0  0  0
 14 17  1  0  0  0  0
 17 18  1  0  0  0  0
 17 19  1  0  0  0  0
 17 20  1  0  0  0  0
 20 21  1  0  0  0  0
 20 22  1  0  0  0  0
 20 23  1  0  0  0  0
 23 24  1  0  0  0  0
 23 25  1  0  0  0  0
 23 26  1  0  0  0  0
M  END
> <VConfSearch Rank>
415

> <Conf_Id>
83

> <Delta U+W>
0.559

> <U+W>
-4.994

> <U>
48.668

> <W>
-53.661

> <W(PB)>
-55.972

> <W(SA)>
2.311

> <Valence>
2.543

> <Coulomb>
45.478

> <VdW>
0.646

> <VdW6>
-7.096

> <VdW12>
7.742

> <Bond>
0.176

> <Angle>
0.630

> <Pdih>
1.738

> <Idih>
0.000

> <Tether>
0.000

$$$$
VeraChem MOL file


 26 25  0  0  0  0  0  0  0  0999 V2000     
   21.9727   18.2091   19.9020 C   0  0  0  0  0  0  0  0  0  0  0  0
   22.7865   18.8827   19.6035 H   0  0  0  0  0  0  0  0  0  0  0  0
   22.4164   17.2569   20.2210 H   0  0  0  0  0  0  0  0  0  0  0  0
   21.3557   18.0132   19.0154 H   0  0  0  0  0  0  0  0  0  0  0  0
   21.1230   18.8305   21.0308 C   0  0  0  0  0  0  0  0  0  0  0  0
   20.2979   18.1473   21.2719 H   0  0  0  0  0  0  0  0  0  0  0  0
   20.6693   19.7651   20.6726 H   0  0  0  0  0  0  0  0  0  0  0  0
   21.9712   19.1117   22.2937 C   0  0  0  0  0  0  0  0  0  0  0  0
   22.3802   18.1691   22.6827 H   0  0  0  0  0  0  0  0  0  0  0  0
   22.8353   19.7293   22.0123 H   0  0  0  0  0  0  0  0  0  0  0  0
   21.1918   19.8417   23.4151 C   0  0  0  0  0  0  0  0  0  0  0  0
   20.7954   20.7911   23.0293 H   0  0  0  0  0  0  0  0  0  0  0  0
   21.8990   20.1050   24.2139 H   0  0  0  0  0  0  0  0  0  0  0  0
   20.0406   19.0010   24.0178 C   0  0  0  0  0  0  0  0  0  0  0  0
   19.2910   18.7927   23.2444 H   0  0  0  0  0  0  0  0  0  0  0  0
   20.4321   18.0312   24.3551 H   0  0  0  0  0  0  0  0  0  0  0  0
   19.3658   19.7250   25.2070 C   0  0  0  0  0  0  0  0  0  0  0  0
   18.9466   20.6841   24.8748 H   0  0  0  0  0  0  0  0  0  0  0  0
   20.1228   19.9604   25.9669 H   0  0  0  0  0  0  0  0  0  0  0  0
   18.2590   18.8809   25.8682 C   0  0  0  0  0  0  0  0  0  0  0  0
   18.6717   17.9219   26.1928 H   0  0  0  0  0  0  0  0  0  0  0  0
   17.8813   19.4055   26.7501 H   0  0  0  0  0  0  0  0  0  0  0  0
   17.0781   18.6018   24.9591 N   0  3  0  0  0  0  0  0  0  0  0  0
   17.3567   18.0756   24.1252 H   0  0  0  0  0  0  0  0  0  0  0  0
   16.6324   19.4672   24.6374 H   0  0  0  0  0  0  0  0  0  0  0  0
   16.3545   18.0509   25.4338 H   0  0  0  0  0  0  0  0  0  0  0  0
  1  2  1  0  0  0  0
  1  3  1  0  0  0  0
  1  4  1  0  0  0  0
  1  5  1  0  0  0  0
  5  6  1  0  0  0  0
  5  7  1  0  0  0  0
  5  8  1  0  0  0  0
  8  9  1  0  0  0  0
  8 10  1  0  0  0  0
  8 11  1  0  0  0  0
 11 12  1  0  0  0  0
 11 13  1  0  0  0  0
 11 14  1  0  0  0  0
 14 15  1  0  0  0  0
 14 16  1  0  0  0  0
 14 17  1  0  0  0  0
 17 18  1  0  0  0  0
 17 19  1  0  0  0  0
 17 20  1  0  0  0  0
 20 21  1  0  0  0  0
 20 22  1  0  0  0  0
 20 23  1  0  0  0  0
 23 24  1  0  0  0  0
 23 25  1  0  0  0  0
 23 26  1  0  0  0  0
M  END
> <VConfSearch Rank>
416

> <Conf_Id>
18

> <Delta U+W>
0.759

> <U+W>
-4.793

> <U>
48.945

> <W>
-53.738

> <W(PB)>
-56.051

> <W(SA)>
2.313

> <Valence>
2.802

> <Coulomb>
45.335

> <VdW>
0.807

> <VdW6>
-6.962

> <VdW12>
7.769

> <Bond>
0.189

> <Angle>
0.696

> <Pdih>
1.917

> <Idih>
0.000

> <Tether>
0.000

$$$$
VeraChem MOL file


 26 25  0  0  0  0  0  0  0  0999 V2000     
   19.6026   20.0142   19.5076 C   0  0  0  0  0  0  0  0  0  0  0  0
   20.5126   20.6277   19.4799 H   0  0  0  0  0  0  0  0  0  0  0  0
   19.6852   19.2446   18.7290 H   0  0  0  0  0  0  0  0  0  0  0  0
   18.7525   20.6604   19.2532 H   0  0  0  0  0  0  0  0  0  0  0  0
   19.4055   19.3772   20.8996 C   0  0  0  0  0  0  0  0  0  0  0  0
   18.4737   18.7946   20.9048 H   0  0  0  0  0  0  0  0  0  0  0  0
   19.2861   20.1766   21.6427 H   0  0  0  0  0  0  0  0  0  0  0  0
   20.5947   18.4645   21.2822 C   0  0  0  0  0  0  0  0  0  0  0  0
   20.7464   17.7239   20.4848 H   0  0  0  0  0  0  0  0  0  0  0  0
   21.5176   19.0588   21.3298 H   0  0  0  0  0  0  0  0  0  0  0  0
   20.3932   17.7101   22.6195 C   0  0  0  0  0  0  0  0  0  0  0  0
   21.2239   17.0022   22.7467 H   0  0  0  0  0  0  0  0  0  0  0  0
   19.4779   17.1046   22.5657 H   0  0  0  0  0  0  0  0  0  0  0  0
   20.3316   18.6423   23.8534 C   0  0  0  0  0  0  0  0  0  0  0  0
   21.2243   19.2827   23.8744 H   0  0  0  0  0  0  0  0  0  0  0  0
   19.4623   19.3065   23.7717 H   0  0  0  0  0  0  0  0  0  0  0  0
   20.2435   17.8392   25.1729 C   0  0  0  0  0  0  0  0  0  0  0  0
   21.0979   17.1525   25.2388 H   0  0  0  0  0  0  0  0  0  0  0  0
   19.3396   17.2156   25.1742 H   0  0  0  0  0  0  0  0  0  0  0  0
   20.2477   18.7421   26.4215 C   0  0  0  0  0  0  0  0  0  0  0  0
   20.2716   18.1186   27.3195 H   0  0  0  0  0  0  0  0  0  0  0  0
   21.1427   19.3701   26.4188 H   0  0  0  0  0  0  0  0  0  0  0  0
   19.0369   19.6488   26.5241 N   0  3  0  0  0  0  0  0  0  0  0  0
   18.1625   19.1144   26.5532 H   0  0  0  0  0  0  0  0  0  0  0  0
   18.9741   20.2903   25.7276 H   0  0  0  0  0  0  0  0  0  0  0  0
   19.0639   20.2251   27.3723 H   0  0  0  0  0  0  0  0  0  0  0  0
  1  2  1  0  0  0  0
  1  3  1  0  0  0  0
  1  4  1  0  0  0  0
  1  5  1  0  0  0  0
  5  6  1  0  0  0  0
  5  7  1  0  0  0  0
  5  8  1  0  0  0  0
  8  9  1  0  0  0  0
  8 10  1  0  0  0  0
  8 11  1  0  0  0  0
 11 12  1  0  0  0  0
 11 13  1  0  0  0  0
 11 14  1  0  0  0  0
 14 15  1  0  0  0  0
 14 16  1  0  0  0  0
 14 17  1  0  0  0  0
 17 18  1  0  0  0  0
 17 19  1  0  0  0  0
 17 20  1  0  0  0  0
 20 21  1  0  0  0  0
 20 22  1  0  0  0  0
 20 23  1  0  0  0  0
 23 24  1  0  0  0  0
 23 25  1  0  0  0  0
 23 26  1  0  0  0  0
M  END
> <VConfSearch Rank>
417

> <Conf_Id>
17

> <Delta U+W>
0.843

> <U+W>
-4.709

> <U>
48.945

> <W>
-53.653

> <W(PB)>
-55.991

> <W(SA)>
2.338

> <Valence>
2.802

> <Coulomb>
45.335

> <VdW>
0.807

> <VdW6>
-6.962

> <VdW12>
7.769

> <Bond>
0.189

> <Angle>
0.696

> <Pdih>
1.917

> <Idih>
0.000

> <Tether>
0.000

$$$$
VeraChem MOL file


 26 25  0  0  0  0  0  0  0  0999 V2000     
   19.3525   16.3503   25.5986 C   0  0  0  0  0  0  0  0  0  0  0  0
   19.5710   16.1438   24.5436 H   0  0  0  0  0  0  0  0  0  0  0  0
   20.3034   16.5152   26.1216 H   0  0  0  0  0  0  0  0  0  0  0  0
   18.8888   15.4497   26.0214 H   0  0  0  0  0  0  0  0  0  0  0  0
   18.4128   17.5672   25.7568 C   0  0  0  0  0  0  0  0  0  0  0  0
   18.1252   17.6571   26.8137 H   0  0  0  0  0  0  0  0  0  0  0  0
   17.4824   17.3907   25.1991 H   0  0  0  0  0  0  0  0  0  0  0  0
   19.0512   18.9016   25.3011 C   0  0  0  0  0  0  0  0  0  0  0  0
   18.3626   19.7203   25.5517 H   0  0  0  0  0  0  0  0  0  0  0  0
   19.9699   19.0838   25.8757 H   0  0  0  0  0  0  0  0  0  0  0  0
   19.3648   18.9500   23.7864 C   0  0  0  0  0  0  0  0  0  0  0  0
   18.4542   18.7190   23.2167 H   0  0  0  0  0  0  0  0  0  0  0  0
   20.1021   18.1761   23.5393 H   0  0  0  0  0  0  0  0  0  0  0  0
   19.9045   20.3359   23.3580 C   0  0  0  0  0  0  0  0  0  0  0  0
   19.1808   21.1108   23.6465 H   0  0  0  0  0  0  0  0  0  0  0  0
   20.8316   20.5577   23.9046 H   0  0  0  0  0  0  0  0  0  0  0  0
   20.1642   20.4429   21.8368 C   0  0  0  0  0  0  0  0  0  0  0  0
   20.4568   21.4738   21.5972 H   0  0  0  0  0  0  0  0  0  0  0  0
   19.2335   20.2447   21.2887 H   0  0  0  0  0  0  0  0  0  0  0  0
   21.2658   19.4818   21.3517 C   0  0  0  0  0  0  0  0  0  0  0  0
   22.1927   19.6794   21.8970 H   0  0  0  0  0  0  0  0  0  0  0  0
   20.9666   18.4483   21.5437 H   0  0  0  0  0  0  0  0  0  0  0  0
   21.5572   19.6135   19.8708 N   0  3  0  0  0  0  0  0  0  0  0  0
   22.2929   18.9658   19.5681 H   0  0  0  0  0  0  0  0  0  0  0  0
   21.8720   20.5580   19.6258 H   0  0  0  0  0  0  0  0  0  0  0  0
   20.7298   19.4136   19.2993 H   0  0  0  0  0  0  0  0  0  0  0  0
  1  2  1  0  0  0  0
  1  3  1  0  0  0  0
  1  4  1  0  0  0  0
  1  5  1  0  0  0  0
  5  6  1  0  0  0  0
  5  7  1  0  0  0  0
  5  8  1  0  0  0  0
  8  9  1  0  0  0  0
  8 10  1  0  0  0  0
  8 11  1  0  0  0  0
 11 12  1  0  0  0  0
 11 13  1  0  0  0  0
 11 14  1  0  0  0  0
 14 15  1  0  0  0  0
 14 16  1  0  0  0  0
 14 17  1  0  0  0  0
 17 18  1  0  0  0  0
 17 19  1  0  0  0  0
 17 20  1  0  0  0  0
 20 21  1  0  0  0  0
 20 22  1  0  0  0  0
 20 23  1  0  0  0  0
 23 24  1  0  0  0  0
 23 25  1  0  0  0  0
 23 26  1  0  0  0  0
M  END
> <VConfSearch Rank>
418

> <Conf_Id>
96

> <Delta U+W>
0.912

> <U+W>
-4.640

> <U>
48.723

> <W>
-53.364

> <W(PB)>
-55.683

> <W(SA)>
2.320

> <Valence>
2.962

> <Coulomb>
44.993

> <VdW>
0.768

> <VdW6>
-7.008

> <VdW12>
7.776

> <Bond>
0.188

> <Angle>
0.757

> <Pdih>
2.018

> <Idih>
0.000

> <Tether>
0.000

$$$$
VeraChem MOL file


 26 25  0  0  0  0  0  0  0  0999 V2000     
   16.8422   18.6538   24.4893 C   0  0  0  0  0  0  0  0  0  0  0  0
   16.0243   18.2899   25.1245 H   0  0  0  0  0  0  0  0  0  0  0  0
   16.3976   19.0747   23.5781 H   0  0  0  0  0  0  0  0  0  0  0  0
   17.4506   17.7859   24.2065 H   0  0  0  0  0  0  0  0  0  0  0  0
   17.6792   19.7142   25.2403 C   0  0  0  0  0  0  0  0  0  0  0  0
   18.1383   19.2605   26.1298 H   0  0  0  0  0  0  0  0  0  0  0  0
   17.0056   20.5002   25.6093 H   0  0  0  0  0  0  0  0  0  0  0  0
   18.7731   20.3697   24.3631 C   0  0  0  0  0  0  0  0  0  0  0  0
   18.3072   20.8393   23.4858 H   0  0  0  0  0  0  0  0  0  0  0  0
   19.2392   21.1822   24.9375 H   0  0  0  0  0  0  0  0  0  0  0  0
   19.8709   19.3802   23.9041 C   0  0  0  0  0  0  0  0  0  0  0  0
   19.4229   18.6007   23.2753 H   0  0  0  0  0  0  0  0  0  0  0  0
   20.3001   18.8771   24.7815 H   0  0  0  0  0  0  0  0  0  0  0  0
   20.9952   20.0973   23.1185 C   0  0  0  0  0  0  0  0  0  0  0  0
   20.5742   20.5773   22.2241 H   0  0  0  0  0  0  0  0  0  0  0  0
   21.4109   20.9044   23.7376 H   0  0  0  0  0  0  0  0  0  0  0  0
   22.1452   19.1501   22.7028 C   0  0  0  0  0  0  0  0  0  0  0  0
   22.5833   18.6868   23.5969 H   0  0  0  0  0  0  0  0  0  0  0  0
   22.9420   19.7420   22.2329 H   0  0  0  0  0  0  0  0  0  0  0  0
   21.6885   18.0535   21.7222 C   0  0  0  0  0  0  0  0  0  0  0  0
   20.9265   17.4282   22.1945 H   0  0  0  0  0  0  0  0  0  0  0  0
   21.2529   18.5145   20.8317 H   0  0  0  0  0  0  0  0  0  0  0  0
   22.8193   17.1496   21.2754 N   0  3  0  0  0  0  0  0  0  0  0  0
   23.2556   16.6641   22.0660 H   0  0  0  0  0  0  0  0  0  0  0  0
   23.5599   17.6725   20.7965 H   0  0  0  0  0  0  0  0  0  0  0  0
   22.4948   16.4271   20.6234 H   0  0  0  0  0  0  0  0  0  0  0  0
  1  2  1  0  0  0  0
  1  3  1  0  0  0  0
  1  4  1  0  0  0  0
  1  5  1  0  0  0  0
  5  6  1  0  0  0  0
  5  7  1  0  0  0  0
  5  8  1  0  0  0  0
  8  9  1  0  0  0  0
  8 10  1  0  0  0  0
  8 11  1  0  0  0  0
 11 12  1  0  0  0  0
 11 13  1  0  0  0  0
 11 14  1  0  0  0  0
 14 15  1  0  0  0  0
 14 16  1  0  0  0  0
 14 17  1  0  0  0  0
 17 18  1  0  0  0  0
 17 19  1  0  0  0  0
 17 20  1  0  0  0  0
 20 21  1  0  0  0  0
 20 22  1  0  0  0  0
 20 23  1  0  0  0  0
 23 24  1  0  0  0  0
 23 25  1  0  0  0  0
 23 26  1  0  0  0  0
M  END
> <VConfSearch Rank>
419

> <Conf_Id>
133

> <Delta U+W>
0.844

> <U+W>
-4.708

> <U>
48.723

> <W>
-53.431

> <W(PB)>
-55.776

> <W(SA)>
2.344

> <Valence>
2.962

> <Coulomb>
44.993

> <VdW>
0.768

> <VdW6>
-7.008

> <VdW12>
7.776

> <Bond>
0.188

> <Angle>
0.756

> <Pdih>
2.018

> <Idih>
0.000

> <Tether>
0.000

$$$$
VeraChem MOL file


 26 25  0  0  0  0  0  0  0  0999 V2000     
   19.9126   18.9025   19.9654 C   0  0  0  0  0  0  0  0  0  0  0  0
   19.2305   19.5992   19.4612 H   0  0  0  0  0  0  0  0  0  0  0  0
   20.5620   19.4802   20.6350 H   0  0  0  0  0  0  0  0  0  0  0  0
   20.5516   18.4442   19.1996 H   0  0  0  0  0  0  0  0  0  0  0  0
   19.1278   17.8169   20.7361 C   0  0  0  0  0  0  0  0  0  0  0  0
   19.8296   17.1449   21.2477 H   0  0  0  0  0  0  0  0  0  0  0  0
   18.5868   17.1911   20.0126 H   0  0  0  0  0  0  0  0  0  0  0  0
   18.1059   18.3960   21.7476 C   0  0  0  0  0  0  0  0  0  0  0  0
   17.3434   18.9630   21.1960 H   0  0  0  0  0  0  0  0  0  0  0  0
   17.5726   17.5638   22.2272 H   0  0  0  0  0  0  0  0  0  0  0  0
   18.7062   19.3101   22.8469 C   0  0  0  0  0  0  0  0  0  0  0  0
   17.8853   19.6689   23.4830 H   0  0  0  0  0  0  0  0  0  0  0  0
   19.1468   20.2059   22.3895 H   0  0  0  0  0  0  0  0  0  0  0  0
   19.7586   18.6025   23.7337 C   0  0  0  0  0  0  0  0  0  0  0  0
   19.3274   17.6830   24.1532 H   0  0  0  0  0  0  0  0  0  0  0  0
   20.6207   18.3021   23.1236 H   0  0  0  0  0  0  0  0  0  0  0  0
   20.2470   19.5130   24.8818 C   0  0  0  0  0  0  0  0  0  0  0  0
   19.3943   19.8113   25.5063 H   0  0  0  0  0  0  0  0  0  0  0  0
   20.6795   20.4326   24.4656 H   0  0  0  0  0  0  0  0  0  0  0  0
   21.2967   18.8035   25.7551 C   0  0  0  0  0  0  0  0  0  0  0  0
   20.8652   17.8953   26.1846 H   0  0  0  0  0  0  0  0  0  0  0  0
   22.1554   18.5192   25.1408 H   0  0  0  0  0  0  0  0  0  0  0  0
   21.8016   19.6653   26.8943 N   0  3  0  0  0  0  0  0  0  0  0  0
   22.4996   19.1740   27.4634 H   0  0  0  0  0  0  0  0  0  0  0  0
   21.0444   19.9449   27.5266 H   0  0  0  0  0  0  0  0  0  0  0  0
   22.2449   20.5255   26.5554 H   0  0  0  0  0  0  0  0  0  0  0  0
  1  2  1  0  0  0  0
  1  3  1  0  0  0  0
  1  4  1  0  0  0  0
  1  5  1  0  0  0  0
  5  6  1  0  0  0  0
  5  7  1  0  0  0  0
  5  8  1  0  0  0  0
  8  9  1  0  0  0  0
  8 10  1  0  0  0  0
  8 11  1  0  0  0  0
 11 12  1  0  0  0  0
 11 13  1  0  0  0  0
 11 14  1  0  0  0  0
 14 15  1  0  0  0  0
 14 16  1  0  0  0  0
 14 17  1  0  0  0  0
 17 18  1  0  0  0  0
 17 19  1  0  0  0  0
 17 20  1  0  0  0  0
 20 21  1  0  0  0  0
 20 22  1  0  0  0  0
 20 23  1  0  0  0  0
 23 24  1  0  0  0  0
 23 25  1  0  0  0  0
 23 26  1  0  0  0  0
M  END
> <VConfSearch Rank>
420

> <Conf_Id>
106

> <Delta U+W>
0.767

> <U+W>
-4.785

> <U>
48.494

> <W>
-53.279

> <W(PB)>
-55.569

> <W(SA)>
2.290

> <Valence>
3.117

> <Coulomb>
44.693

> <VdW>
0.684

> <VdW6>
-7.347

> <VdW12>
8.030

> <Bond>
0.208

> <Angle>
1.039

> <Pdih>
1.870

> <Idih>
0.000

> <Tether>
0.000

$$$$
VeraChem MOL file


 26 25  0  0  0  0  0  0  0  0999 V2000     
   22.5299   20.2851   19.8292 C   0  0  0  0  0  0  0  0  0  0  0  0
   23.4480   19.7914   20.1734 H   0  0  0  0  0  0  0  0  0  0  0  0
   22.0467   19.6320   19.0908 H   0  0  0  0  0  0  0  0  0  0  0  0
   22.8174   21.2142   19.3201 H   0  0  0  0  0  0  0  0  0  0  0  0
   21.5829   20.5820   21.0112 C   0  0  0  0  0  0  0  0  0  0  0  0
   20.6903   21.1054   20.6406 H   0  0  0  0  0  0  0  0  0  0  0  0
   22.0808   21.2637   21.7149 H   0  0  0  0  0  0  0  0  0  0  0  0
   21.1624   19.2898   21.7459 C   0  0  0  0  0  0  0  0  0  0  0  0
   20.6674   18.6106   21.0380 H   0  0  0  0  0  0  0  0  0  0  0  0
   22.0579   18.7691   22.1124 H   0  0  0  0  0  0  0  0  0  0  0  0
   20.2139   19.5829   22.9302 C   0  0  0  0  0  0  0  0  0  0  0  0
   19.3188   20.1039   22.5628 H   0  0  0  0  0  0  0  0  0  0  0  0
   20.7095   20.2625   23.6374 H   0  0  0  0  0  0  0  0  0  0  0  0
   19.7937   18.2898   23.6650 C   0  0  0  0  0  0  0  0  0  0  0  0
   19.2980   17.6099   22.9581 H   0  0  0  0  0  0  0  0  0  0  0  0
   20.6886   17.7686   24.0327 H   0  0  0  0  0  0  0  0  0  0  0  0
   18.8456   18.5821   24.8488 C   0  0  0  0  0  0  0  0  0  0  0  0
   17.9472   19.0982   24.4846 H   0  0  0  0  0  0  0  0  0  0  0  0
   19.3394   19.2574   25.5603 H   0  0  0  0  0  0  0  0  0  0  0  0
   18.4339   17.2882   25.5731 C   0  0  0  0  0  0  0  0  0  0  0  0
   17.9269   16.6194   24.8723 H   0  0  0  0  0  0  0  0  0  0  0  0
   19.3242   16.7790   25.9518 H   0  0  0  0  0  0  0  0  0  0  0  0
   17.5024   17.5333   26.7425 N   0  3  0  0  0  0  0  0  0  0  0  0
   17.2405   16.6589   27.2108 H   0  0  0  0  0  0  0  0  0  0  0  0
   16.6310   17.9868   26.4487 H   0  0  0  0  0  0  0  0  0  0  0  0
   17.9312   18.1353   27.4532 H   0  0  0  0  0  0  0  0  0  0  0  0
  1  2  1  0  0  0  0
  1  3  1  0  0  0  0
  1  4  1  0  0  0  0
  1  5  1  0  0  0  0
  5  6  1  0  0  0  0
  5  7  1  0  0  0  0
  5  8  1  0  0  0  0
  8  9  1  0  0  0  0
  8 10  1  0  0  0  0
  8 11  1  0  0  0  0
 11 12  1  0  0  0  0
 11 13  1  0  0  0  0
 11 14  1  0  0  0  0
 14 15  1  0  0  0  0
 14 16  1  0  0  0  0
 14 17  1  0  0  0  0
 17 18  1  0  0  0  0
 17 19  1  0  0  0  0
 17 20  1  0  0  0  0
 20 21  1  0  0  0  0
 20 22  1  0  0  0  0
 20 23  1  0  0  0  0
 23 24  1  0  0  0  0
 23 25  1  0  0  0  0
 23 26  1  0  0  0  0
M  END
> <VConfSearch Rank>
421

> <Conf_Id>
25

> <Delta U+W>
0.000

> <U+W>
-5.552

> <U>
47.192

> <W>
-52.745

> <W(PB)>
-55.134

> <W(SA)>
2.389

> <Valence>
2.156

> <Coulomb>
44.449

> <VdW>
0.587

> <VdW6>
-5.761

> <VdW12>
6.348

> <Bond>
0.129

> <Angle>
0.393

> <Pdih>
1.634

> <Idih>
0.000

> <Tether>
0.000

$$$$
VeraChem MOL file


 26 25  0  0  0  0  0  0  0  0999 V2000     
   23.7777   16.8658   22.8424 C   0  0  0  0  0  0  0  0  0  0  0  0
   24.3480   17.5376   23.4971 H   0  0  0  0  0  0  0  0  0  0  0  0
   23.4101   16.0279   23.4491 H   0  0  0  0  0  0  0  0  0  0  0  0
   24.4683   16.4606   22.0915 H   0  0  0  0  0  0  0  0  0  0  0  0
   22.6105   17.6126   22.1627 C   0  0  0  0  0  0  0  0  0  0  0  0
   22.0803   16.9245   21.4893 H   0  0  0  0  0  0  0  0  0  0  0  0
   23.0111   18.4225   21.5370 H   0  0  0  0  0  0  0  0  0  0  0  0
   21.6224   18.1935   23.1983 C   0  0  0  0  0  0  0  0  0  0  0  0
   21.2267   17.3806   23.8228 H   0  0  0  0  0  0  0  0  0  0  0  0
   22.1573   18.8789   23.8703 H   0  0  0  0  0  0  0  0  0  0  0  0
   20.4521   18.9421   22.5212 C   0  0  0  0  0  0  0  0  0  0  0  0
   19.9176   18.2560   21.8495 H   0  0  0  0  0  0  0  0  0  0  0  0
   20.8492   19.7540   21.8962 H   0  0  0  0  0  0  0  0  0  0  0  0
   19.4641   19.5237   23.5576 C   0  0  0  0  0  0  0  0  0  0  0  0
   19.0744   18.7089   24.1824 H   0  0  0  0  0  0  0  0  0  0  0  0
   19.9981   20.2120   24.2274 H   0  0  0  0  0  0  0  0  0  0  0  0
   18.2930   20.2717   22.8778 C   0  0  0  0  0  0  0  0  0  0  0  0
   17.7330   19.5847   22.2294 H   0  0  0  0  0  0  0  0  0  0  0  0
   18.6940   21.0600   22.2268 H   0  0  0  0  0  0  0  0  0  0  0  0
   17.3314   20.9199   23.8925 C   0  0  0  0  0  0  0  0  0  0  0  0
   17.8871   21.6001   24.5436 H   0  0  0  0  0  0  0  0  0  0  0  0
   16.5767   21.5018   23.3563 H   0  0  0  0  0  0  0  0  0  0  0  0
   16.6034   19.9195   24.7687 N   0  3  0  0  0  0  0  0  0  0  0  0
   17.2544   19.3619   25.3301 H   0  0  0  0  0  0  0  0  0  0  0  0
   16.0431   19.2643   24.2139 H   0  0  0  0  0  0  0  0  0  0  0  0
   15.9627   20.3819   25.4230 H   0  0  0  0  0  0  0  0  0  0  0  0
  1  2  1  0  0  0  0
  1  3  1  0  0  0  0
  1  4  1  0  0  0  0
  1  5  1  0  0  0  0
  5  6  1  0  0  0  0
  5  7  1  0  0  0  0
  5  8  1  0  0  0  0
  8  9  1  0  0  0  0
  8 10  1  0  0  0  0
  8 11  1  0  0  0  0
 11 12  1  0  0  0  0
 11 13  1  0  0  0  0
 11 14  1  0  0  0  0
 14 15  1  0  0  0  0
 14 16  1  0  0  0  0
 14 17  1  0  0  0  0
 17 18  1  0  0  0  0
 17 19  1  0  0  0  0
 17 20  1  0  0  0  0
 20 21  1  0  0  0  0
 20 22  1  0  0  0  0
 20 23  1  0  0  0  0
 23 24  1  0  0  0  0
 23 25  1  0  0  0  0
 23 26  1  0  0  0  0
M  END
> <VConfSearch Rank>
422

> <Conf_Id>
20

> <Delta U+W>
0.150

> <U+W>
-5.403

> <U>
47.845

> <W>
-53.248

> <W(PB)>
-55.599

> <W(SA)>
2.351

> <Valence>
2.258

> <Coulomb>
44.893

> <VdW>
0.694

> <VdW6>
-6.285

> <VdW12>
6.979

> <Bond>
0.149

> <Angle>
0.434

> <Pdih>
1.675

> <Idih>
0.000

> <Tether>
0.000

$$$$
VeraChem MOL file


 26 25  0  0  0  0  0  0  0  0999 V2000     
   20.3834   14.6343   23.0064 C   0  0  0  0  0  0  0  0  0  0  0  0
   20.5214   14.5499   24.0922 H   0  0  0  0  0  0  0  0  0  0  0  0
   19.3269   14.4405   22.7799 H   0  0  0  0  0  0  0  0  0  0  0  0
   20.9804   13.8466   22.5286 H   0  0  0  0  0  0  0  0  0  0  0  0
   20.8131   16.0272   22.4991 C   0  0  0  0  0  0  0  0  0  0  0  0
   20.6959   16.0696   21.4071 H   0  0  0  0  0  0  0  0  0  0  0  0
   21.8812   16.1782   22.7094 H   0  0  0  0  0  0  0  0  0  0  0  0
   19.9875   17.1552   23.1565 C   0  0  0  0  0  0  0  0  0  0  0  0
   18.9205   16.9987   22.9454 H   0  0  0  0  0  0  0  0  0  0  0  0
   20.1058   17.1072   24.2478 H   0  0  0  0  0  0  0  0  0  0  0  0
   20.4149   18.5517   22.6510 C   0  0  0  0  0  0  0  0  0  0  0  0
   20.2973   18.5980   21.5594 H   0  0  0  0  0  0  0  0  0  0  0  0
   21.4819   18.7076   22.8626 H   0  0  0  0  0  0  0  0  0  0  0  0
   19.5882   19.6799   23.3082 C   0  0  0  0  0  0  0  0  0  0  0  0
   18.5215   19.5256   23.0939 H   0  0  0  0  0  0  0  0  0  0  0  0
   19.7055   19.6258   24.3988 H   0  0  0  0  0  0  0  0  0  0  0  0
   20.0183   21.0770   22.8016 C   0  0  0  0  0  0  0  0  0  0  0  0
   19.9330   21.1091   21.7072 H   0  0  0  0  0  0  0  0  0  0  0  0
   21.0758   21.2544   23.0387 H   0  0  0  0  0  0  0  0  0  0  0  0
   19.1612   22.2139   23.3907 C   0  0  0  0  0  0  0  0  0  0  0  0
   19.4547   23.1632   22.9343 H   0  0  0  0  0  0  0  0  0  0  0  0
   18.1069   22.0369   23.1614 H   0  0  0  0  0  0  0  0  0  0  0  0
   19.2970   22.3650   24.8932 N   0  3  0  0  0  0  0  0  0  0  0  0
   20.2652   22.5563   25.1707 H   0  0  0  0  0  0  0  0  0  0  0  0
   19.0013   21.5181   25.3883 H   0  0  0  0  0  0  0  0  0  0  0  0
   18.7246   23.1374   25.2514 H   0  0  0  0  0  0  0  0  0  0  0  0
  1  2  1  0  0  0  0
  1  3  1  0  0  0  0
  1  4  1  0  0  0  0
  1  5  1  0  0  0  0
  5  6  1  0  0  0  0
  5  7  1  0  0  0  0
  5  8  1  0  0  0  0
  8  9  1  0  0  0  0
  8 10  1  0  0  0  0
  8 11  1  0  0  0  0
 11 12  1  0  0  0  0
 11 13  1  0  0  0  0
 11 14  1  0  0  0  0
 14 15  1  0  0  0  0
 14 16  1  0  0  0  0
 14 17  1  0  0  0  0
 17 18  1  0  0  0  0
 17 19  1  0  0  0  0
 17 20  1  0  0  0  0
 20 21  1  0  0  0  0
 20 22  1  0  0  0  0
 20 23  1  0  0  0  0
 23 24  1  0  0  0  0
 23 25  1  0  0  0  0
 23 26  1  0  0  0  0
M  END
> <VConfSearch Rank>
423

> <Conf_Id>
19

> <Delta U+W>
0.162

> <U+W>
-5.391

> <U>
47.845

> <W>
-53.235

> <W(PB)>
-55.585

> <W(SA)>
2.349

> <Valence>
2.258

> <Coulomb>
44.893

> <VdW>
0.694

> <VdW6>
-6.285

> <VdW12>
6.979

> <Bond>
0.149

> <Angle>
0.434

> <Pdih>
1.675

> <Idih>
0.000

> <Tether>
0.000

$$$$
VeraChem MOL file


 26 25  0  0  0  0  0  0  0  0999 V2000     
   21.9968   17.7113   26.7859 C   0  0  0  0  0  0  0  0  0  0  0  0
   21.5684   16.8275   27.2764 H   0  0  0  0  0  0  0  0  0  0  0  0
   22.9317   17.4107   26.2952 H   0  0  0  0  0  0  0  0  0  0  0  0
   22.2457   18.4420   27.5665 H   0  0  0  0  0  0  0  0  0  0  0  0
   21.0065   18.3167   25.7685 C   0  0  0  0  0  0  0  0  0  0  0  0
   21.4534   19.2192   25.3309 H   0  0  0  0  0  0  0  0  0  0  0  0
   20.0945   18.6343   26.2929 H   0  0  0  0  0  0  0  0  0  0  0  0
   20.6439   17.3057   24.6552 C   0  0  0  0  0  0  0  0  0  0  0  0
   21.5490   17.0289   24.0970 H   0  0  0  0  0  0  0  0  0  0  0  0
   20.2740   16.3812   25.1198 H   0  0  0  0  0  0  0  0  0  0  0  0
   19.5663   17.8255   23.6721 C   0  0  0  0  0  0  0  0  0  0  0  0
   18.6563   18.0875   24.2294 H   0  0  0  0  0  0  0  0  0  0  0  0
   19.2882   17.0049   22.9963 H   0  0  0  0  0  0  0  0  0  0  0  0
   20.0304   19.0375   22.8288 C   0  0  0  0  0  0  0  0  0  0  0  0
   20.2396   19.8932   23.4841 H   0  0  0  0  0  0  0  0  0  0  0  0
   20.9702   18.7902   22.3158 H   0  0  0  0  0  0  0  0  0  0  0  0
   18.9685   19.4505   21.7858 C   0  0  0  0  0  0  0  0  0  0  0  0
   18.0278   19.6996   22.2948 H   0  0  0  0  0  0  0  0  0  0  0  0
   18.7589   18.6058   21.1160 H   0  0  0  0  0  0  0  0  0  0  0  0
   19.4358   20.6581   20.9544 C   0  0  0  0  0  0  0  0  0  0  0  0
   19.6298   21.5073   21.6153 H   0  0  0  0  0  0  0  0  0  0  0  0
   20.3639   20.4090   20.4328 H   0  0  0  0  0  0  0  0  0  0  0  0
   18.4198   21.0944   19.9186 N   0  3  0  0  0  0  0  0  0  0  0  0
   17.5301   21.3691   20.3478 H   0  0  0  0  0  0  0  0  0  0  0  0
   18.2131   20.3472   19.2476 H   0  0  0  0  0  0  0  0  0  0  0  0
   18.7507   21.8997   19.3760 H   0  0  0  0  0  0  0  0  0  0  0  0
  1  2  1  0  0  0  0
  1  3  1  0  0  0  0
  1  4  1  0  0  0  0
  1  5  1  0  0  0  0
  5  6  1  0  0  0  0
  5  7  1  0  0  0  0
  5  8  1  0  0  0  0
  8  9  1  0  0  0  0
  8 10  1  0  0  0  0
  8 11  1  0  0  0  0
 11 12  1  0  0  0  0
 11 13  1  0  0  0  0
 11 14  1  0  0  0  0
 14 15  1  0  0  0  0
 14 16  1  0  0  0  0
 14 17  1  0  0  0  0
 17 18  1  0  0  0  0
 17 19  1  0  0  0  0
 17 20  1  0  0  0  0
 20 21  1  0  0  0  0
 20 22  1  0  0  0  0
 20 23  1  0  0  0  0
 23 24  1  0  0  0  0
 23 25  1  0  0  0  0
 23 26  1  0  0  0  0
M  END
> <VConfSearch Rank>
424

> <Conf_Id>
37

> <Delta U+W>
0.565

> <U+W>
-4.988

> <U>
48.035

> <W>
-53.022

> <W(PB)>
-55.379

> <W(SA)>
2.357

> <Valence>
2.701

> <Coulomb>
44.622

> <VdW>
0.712

> <VdW6>
-6.418

> <VdW12>
7.129

> <Bond>
0.168

> <Angle>
0.659

> <Pdih>
1.875

> <Idih>
0.000

> <Tether>
0.000

$$$$
VeraChem MOL file


 26 25  0  0  0  0  0  0  0  0999 V2000     
   20.1162   17.4661   19.5159 C   0  0  0  0  0  0  0  0  0  0  0  0
   21.1068   17.9378   19.5528 H   0  0  0  0  0  0  0  0  0  0  0  0
   20.2255   16.4167   19.8194 H   0  0  0  0  0  0  0  0  0  0  0  0
   19.7745   17.4813   18.4728 H   0  0  0  0  0  0  0  0  0  0  0  0
   19.1149   18.2060   20.4281 C   0  0  0  0  0  0  0  0  0  0  0  0
   18.1265   17.7330   20.3428 H   0  0  0  0  0  0  0  0  0  0  0  0
   19.0015   19.2423   20.0801 H   0  0  0  0  0  0  0  0  0  0  0  0
   19.5719   18.1987   21.9038 C   0  0  0  0  0  0  0  0  0  0  0  0
   19.6817   17.1609   22.2475 H   0  0  0  0  0  0  0  0  0  0  0  0
   20.5632   18.6652   21.9733 H   0  0  0  0  0  0  0  0  0  0  0  0
   18.5704   18.9440   22.8187 C   0  0  0  0  0  0  0  0  0  0  0  0
   17.5692   18.5138   22.6776 H   0  0  0  0  0  0  0  0  0  0  0  0
   18.4997   19.9965   22.5111 H   0  0  0  0  0  0  0  0  0  0  0  0
   18.9291   18.8662   24.3231 C   0  0  0  0  0  0  0  0  0  0  0  0
   18.1098   19.3172   24.9002 H   0  0  0  0  0  0  0  0  0  0  0  0
   18.9827   17.8138   24.6350 H   0  0  0  0  0  0  0  0  0  0  0  0
   20.2508   19.5846   24.6828 C   0  0  0  0  0  0  0  0  0  0  0  0
   20.2167   20.6225   24.3257 H   0  0  0  0  0  0  0  0  0  0  0  0
   21.0956   19.0965   24.1807 H   0  0  0  0  0  0  0  0  0  0  0  0
   20.4979   19.5747   26.2016 C   0  0  0  0  0  0  0  0  0  0  0  0
   19.6710   20.0756   26.7124 H   0  0  0  0  0  0  0  0  0  0  0  0
   20.5489   18.5428   26.5595 H   0  0  0  0  0  0  0  0  0  0  0  0
   21.7833   20.2716   26.5988 N   0  3  0  0  0  0  0  0  0  0  0  0
   21.7877   21.2565   26.3141 H   0  0  0  0  0  0  0  0  0  0  0  0
   22.6048   19.8304   26.1727 H   0  0  0  0  0  0  0  0  0  0  0  0
   21.9280   20.2538   27.6143 H   0  0  0  0  0  0  0  0  0  0  0  0
  1  2  1  0  0  0  0
  1  3  1  0  0  0  0
  1  4  1  0  0  0  0
  1  5  1  0  0  0  0
  5  6  1  0  0  0  0
  5  7  1  0  0  0  0
  5  8  1  0  0  0  0
  8  9  1  0  0  0  0
  8 10  1  0  0  0  0
  8 11  1  0  0  0  0
 11 12  1  0  0  0  0
 11 13  1  0  0  0  0
 11 14  1  0  0  0  0
 14 15  1  0  0  0  0
 14 16  1  0  0  0  0
 14 17  1  0  0  0  0
 17 18  1  0  0  0  0
 17 19  1  0  0  0  0
 17 20  1  0  0  0  0
 20 21  1  0  0  0  0
 20 22  1  0  0  0  0
 20 23  1  0  0  0  0
 23 24  1  0  0  0  0
 23 25  1  0  0  0  0
 23 26  1  0  0  0  0
M  END
> <VConfSearch Rank>
425

> <Conf_Id>
35

> <Delta U+W>
0.587

> <U+W>
-4.965

> <U>
48.214

> <W>
-53.179

> <W(PB)>
-55.527

> <W(SA)>
2.348

> <Valence>
2.697

> <Coulomb>
44.819

> <VdW>
0.699

> <VdW6>
-6.437

> <VdW12>
7.136

> <Bond>
0.168

> <Angle>
0.657

> <Pdih>
1.872

> <Idih>
0.000

> <Tether>
0.000

$$$$
VeraChem MOL file


 26 25  0  0  0  0  0  0  0  0999 V2000     
   16.3579   18.4084   24.7685 C   0  0  0  0  0  0  0  0  0  0  0  0
   16.6423   17.5613   25.4064 H   0  0  0  0  0  0  0  0  0  0  0  0
   16.5980   19.3359   25.3046 H   0  0  0  0  0  0  0  0  0  0  0  0
   15.2699   18.3732   24.6268 H   0  0  0  0  0  0  0  0  0  0  0  0
   17.0867   18.3485   23.4093 C   0  0  0  0  0  0  0  0  0  0  0  0
   16.7575   19.1885   22.7816 H   0  0  0  0  0  0  0  0  0  0  0  0
   16.7996   17.4276   22.8826 H   0  0  0  0  0  0  0  0  0  0  0  0
   18.6213   18.3957   23.5802 C   0  0  0  0  0  0  0  0  0  0  0  0
   18.8933   19.3149   24.1152 H   0  0  0  0  0  0  0  0  0  0  0  0
   18.9456   17.5532   24.2064 H   0  0  0  0  0  0  0  0  0  0  0  0
   19.3528   18.3398   22.2174 C   0  0  0  0  0  0  0  0  0  0  0  0
   19.0718   19.2110   21.6097 H   0  0  0  0  0  0  0  0  0  0  0  0
   19.0101   17.4545   21.6640 H   0  0  0  0  0  0  0  0  0  0  0  0
   20.8947   18.2713   22.3441 C   0  0  0  0  0  0  0  0  0  0  0  0
   21.1768   17.3902   22.9372 H   0  0  0  0  0  0  0  0  0  0  0  0
   21.3199   18.1173   21.3425 H   0  0  0  0  0  0  0  0  0  0  0  0
   21.5222   19.5411   22.9656 C   0  0  0  0  0  0  0  0  0  0  0  0
   21.1743   19.6684   23.9984 H   0  0  0  0  0  0  0  0  0  0  0  0
   21.1991   20.4268   22.4027 H   0  0  0  0  0  0  0  0  0  0  0  0
   23.0592   19.4655   22.9611 C   0  0  0  0  0  0  0  0  0  0  0  0
   23.3865   18.5938   23.5343 H   0  0  0  0  0  0  0  0  0  0  0  0
   23.4195   19.3572   21.9345 H   0  0  0  0  0  0  0  0  0  0  0  0
   23.7159   20.6925   23.5600 N   0  3  0  0  0  0  0  0  0  0  0  0
   23.4396   20.8357   24.5369 H   0  0  0  0  0  0  0  0  0  0  0  0
   23.4695   21.5461   23.0482 H   0  0  0  0  0  0  0  0  0  0  0  0
   24.7393   20.6215   23.5467 H   0  0  0  0  0  0  0  0  0  0  0  0
  1  2  1  0  0  0  0
  1  3  1  0  0  0  0
  1  4  1  0  0  0  0
  1  5  1  0  0  0  0
  5  6  1  0  0  0  0
  5  7  1  0  0  0  0
  5  8  1  0  0  0  0
  8  9  1  0  0  0  0
  8 10  1  0  0  0  0
  8 11  1  0  0  0  0
 11 12  1  0  0  0  0
 11 13  1  0  0  0  0
 11 14  1  0  0  0  0
 14 15  1  0  0  0  0
 14 16  1  0  0  0  0
 14 17  1  0  0  0  0
 17 18  1  0  0  0  0
 17 19  1  0  0  0  0
 17 20  1  0  0  0  0
 20 21  1  0  0  0  0
 20 22  1  0  0  0  0
 20 23  1  0  0  0  0
 23 24  1  0  0  0  0
 23 25  1  0  0  0  0
 23 26  1  0  0  0  0
M  END
> <VConfSearch Rank>
426

> <Conf_Id>
36

> <Delta U+W>
0.565

> <U+W>
-4.987

> <U>
48.214

> <W>
-53.201

> <W(PB)>
-55.543

> <W(SA)>
2.342

> <Valence>
2.697

> <Coulomb>
44.819

> <VdW>
0.698

> <VdW6>
-6.437

> <VdW12>
7.136

> <Bond>
0.168

> <Angle>
0.657

> <Pdih>
1.872

> <Idih>
0.000

> <Tether>
0.000

$$$$
VeraChem MOL file


 26 25  0  0  0  0  0  0  0  0999 V2000     
   16.8382   16.2910   24.6175 C   0  0  0  0  0  0  0  0  0  0  0  0
   16.8325   16.4697   25.7007 H   0  0  0  0  0  0  0  0  0  0  0  0
   15.7987   16.1510   24.2936 H   0  0  0  0  0  0  0  0  0  0  0  0
   17.3791   15.3546   24.4283 H   0  0  0  0  0  0  0  0  0  0  0  0
   17.4896   17.4700   23.8641 C   0  0  0  0  0  0  0  0  0  0  0  0
   16.9076   18.3846   24.0452 H   0  0  0  0  0  0  0  0  0  0  0  0
   17.4499   17.2780   22.7827 H   0  0  0  0  0  0  0  0  0  0  0  0
   18.9548   17.6890   24.3017 C   0  0  0  0  0  0  0  0  0  0  0  0
   18.9892   17.8776   25.3837 H   0  0  0  0  0  0  0  0  0  0  0  0
   19.5321   16.7717   24.1205 H   0  0  0  0  0  0  0  0  0  0  0  0
   19.6106   18.8691   23.5496 C   0  0  0  0  0  0  0  0  0  0  0  0
   19.0339   19.7861   23.7338 H   0  0  0  0  0  0  0  0  0  0  0  0
   19.5670   18.6767   22.4693 H   0  0  0  0  0  0  0  0  0  0  0  0
   21.0787   19.0851   23.9892 C   0  0  0  0  0  0  0  0  0  0  0  0
   21.1124   19.2276   25.0782 H   0  0  0  0  0  0  0  0  0  0  0  0
   21.6665   18.1814   23.7759 H   0  0  0  0  0  0  0  0  0  0  0  0
   21.7432   20.3050   23.3088 C   0  0  0  0  0  0  0  0  0  0  0  0
   22.7461   20.4470   23.7329 H   0  0  0  0  0  0  0  0  0  0  0  0
   21.1720   21.2137   23.5411 H   0  0  0  0  0  0  0  0  0  0  0  0
   21.8610   20.1436   21.7816 C   0  0  0  0  0  0  0  0  0  0  0  0
   22.4306   19.2395   21.5500 H   0  0  0  0  0  0  0  0  0  0  0  0
   20.8653   20.0457   21.3415 H   0  0  0  0  0  0  0  0  0  0  0  0
   22.5510   21.3151   21.1132 N   0  3  0  0  0  0  0  0  0  0  0  0
   22.6194   21.1883   20.0975 H   0  0  0  0  0  0  0  0  0  0  0  0
   23.5061   21.4459   21.4624 H   0  0  0  0  0  0  0  0  0  0  0  0
   22.0489   22.1950   21.2709 H   0  0  0  0  0  0  0  0  0  0  0  0
  1  2  1  0  0  0  0
  1  3  1  0  0  0  0
  1  4  1  0  0  0  0
  1  5  1  0  0  0  0
  5  6  1  0  0  0  0
  5  7  1  0  0  0  0
  5  8  1  0  0  0  0
  8  9  1  0  0  0  0
  8 10  1  0  0  0  0
  8 11  1  0  0  0  0
 11 12  1  0  0  0  0
 11 13  1  0  0  0  0
 11 14  1  0  0  0  0
 14 15  1  0  0  0  0
 14 16  1  0  0  0  0
 14 17  1  0  0  0  0
 17 18  1  0  0  0  0
 17 19  1  0  0  0  0
 17 20  1  0  0  0  0
 20 21  1  0  0  0  0
 20 22  1  0  0  0  0
 20 23  1  0  0  0  0
 23 24  1  0  0  0  0
 23 25  1  0  0  0  0
 23 26  1  0  0  0  0
M  END
> <VConfSearch Rank>
427

> <Conf_Id>
44

> <Delta U+W>
0.371

> <U+W>
-5.181

> <U>
48.002

> <W>
-53.183

> <W(PB)>
-55.533

> <W(SA)>
2.350

> <Valence>
2.459

> <Coulomb>
44.901

> <VdW>
0.643

> <VdW6>
-6.362

> <VdW12>
7.005

> <Bond>
0.151

> <Angle>
0.519

> <Pdih>
1.789

> <Idih>
0.000

> <Tether>
0.000

$$$$
VeraChem MOL file


 26 25  0  0  0  0  0  0  0  0999 V2000     
   17.5395   21.4580   21.6054 C   0  0  0  0  0  0  0  0  0  0  0  0
   18.1735   22.3206   21.8484 H   0  0  0  0  0  0  0  0  0  0  0  0
   16.7835   21.7905   20.8824 H   0  0  0  0  0  0  0  0  0  0  0  0
   17.0107   21.1518   22.5163 H   0  0  0  0  0  0  0  0  0  0  0  0
   18.3776   20.3003   21.0167 C   0  0  0  0  0  0  0  0  0  0  0  0
   18.7794   20.6160   20.0437 H   0  0  0  0  0  0  0  0  0  0  0  0
   17.7272   19.4377   20.8149 H   0  0  0  0  0  0  0  0  0  0  0  0
   19.5564   19.8673   21.9219 C   0  0  0  0  0  0  0  0  0  0  0  0
   20.1649   19.1461   21.3618 H   0  0  0  0  0  0  0  0  0  0  0  0
   20.2038   20.7328   22.1192 H   0  0  0  0  0  0  0  0  0  0  0  0
   19.1042   19.2351   23.2631 C   0  0  0  0  0  0  0  0  0  0  0  0
   18.4599   18.3672   23.0662 H   0  0  0  0  0  0  0  0  0  0  0  0
   18.4894   19.9567   23.8161 H   0  0  0  0  0  0  0  0  0  0  0  0
   20.2801   18.8117   24.1779 C   0  0  0  0  0  0  0  0  0  0  0  0
   20.9322   19.6766   24.3630 H   0  0  0  0  0  0  0  0  0  0  0  0
   19.8656   18.5242   25.1531 H   0  0  0  0  0  0  0  0  0  0  0  0
   21.1174   17.6374   23.6112 C   0  0  0  0  0  0  0  0  0  0  0  0
   21.5752   17.9311   22.6587 H   0  0  0  0  0  0  0  0  0  0  0  0
   20.4664   16.7796   23.3965 H   0  0  0  0  0  0  0  0  0  0  0  0
   22.2467   17.1994   24.5638 C   0  0  0  0  0  0  0  0  0  0  0  0
   22.8609   16.4401   24.0720 H   0  0  0  0  0  0  0  0  0  0  0  0
   22.8853   18.0559   24.7963 H   0  0  0  0  0  0  0  0  0  0  0  0
   21.7519   16.6118   25.8711 N   0  3  0  0  0  0  0  0  0  0  0  0
   21.1968   17.2872   26.4054 H   0  0  0  0  0  0  0  0  0  0  0  0
   22.5280   16.3176   26.4741 H   0  0  0  0  0  0  0  0  0  0  0  0
   21.1621   15.7873   25.7189 H   0  0  0  0  0  0  0  0  0  0  0  0
  1  2  1  0  0  0  0
  1  3  1  0  0  0  0
  1  4  1  0  0  0  0
  1  5  1  0  0  0  0
  5  6  1  0  0  0  0
  5  7  1  0  0  0  0
  5  8  1  0  0  0  0
  8  9  1  0  0  0  0
  8 10  1  0  0  0  0
  8 11  1  0  0  0  0
 11 12  1  0  0  0  0
 11 13  1  0  0  0  0
 11 14  1  0  0  0  0
 14 15  1  0  0  0  0
 14 16  1  0  0  0  0
 14 17  1  0  0  0  0
 17 18  1  0  0  0  0
 17 19  1  0  0  0  0
 17 20  1  0  0  0  0
 20 21  1  0  0  0  0
 20 22  1  0  0  0  0
 20 23  1  0  0  0  0
 23 24  1  0  0  0  0
 23 25  1  0  0  0  0
 23 26  1  0  0  0  0
M  END
> <VConfSearch Rank>
428

> <Conf_Id>
112

> <Delta U+W>
1.422

> <U+W>
-4.130

> <U>
49.323

> <W>
-53.453

> <W(PB)>
-55.749

> <W(SA)>
2.296

> <Valence>
3.408

> <Coulomb>
44.893

> <VdW>
1.021

> <VdW6>
-7.481

> <VdW12>
8.503

> <Bond>
0.239

> <Angle>
1.013

> <Pdih>
2.156

> <Idih>
0.000

> <Tether>
0.000

$$$$
VeraChem MOL file


 26 25  0  0  0  0  0  0  0  0999 V2000     
   22.6305   19.4149   20.7738 C   0  0  0  0  0  0  0  0  0  0  0  0
   23.4094   19.8094   20.1085 H   0  0  0  0  0  0  0  0  0  0  0  0
   23.1313   18.9899   21.6525 H   0  0  0  0  0  0  0  0  0  0  0  0
   22.1163   18.6025   20.2441 H   0  0  0  0  0  0  0  0  0  0  0  0
   21.6407   20.5335   21.1708 C   0  0  0  0  0  0  0  0  0  0  0  0
   21.2534   21.0054   20.2570 H   0  0  0  0  0  0  0  0  0  0  0  0
   22.1744   21.3211   21.7209 H   0  0  0  0  0  0  0  0  0  0  0  0
   20.4457   20.0246   22.0125 C   0  0  0  0  0  0  0  0  0  0  0  0
   19.7454   20.8575   22.1640 H   0  0  0  0  0  0  0  0  0  0  0  0
   19.9032   19.2618   21.4388 H   0  0  0  0  0  0  0  0  0  0  0  0
   20.8650   19.4570   23.3923 C   0  0  0  0  0  0  0  0  0  0  0  0
   21.5154   20.1857   23.8953 H   0  0  0  0  0  0  0  0  0  0  0  0
   21.4646   18.5469   23.2588 H   0  0  0  0  0  0  0  0  0  0  0  0
   19.6669   19.1451   24.3225 C   0  0  0  0  0  0  0  0  0  0  0  0
   20.0629   18.8673   25.3082 H   0  0  0  0  0  0  0  0  0  0  0  0
   19.0720   20.0563   24.4745 H   0  0  0  0  0  0  0  0  0  0  0  0
   18.7553   18.0088   23.7948 C   0  0  0  0  0  0  0  0  0  0  0  0
   19.3483   17.1018   23.6173 H   0  0  0  0  0  0  0  0  0  0  0  0
   18.3243   18.2970   22.8279 H   0  0  0  0  0  0  0  0  0  0  0  0
   17.5943   17.6844   24.7546 C   0  0  0  0  0  0  0  0  0  0  0  0
   17.0127   18.5898   24.9482 H   0  0  0  0  0  0  0  0  0  0  0  0
   16.9338   16.9484   24.2881 H   0  0  0  0  0  0  0  0  0  0  0  0
   18.0421   17.1180   26.0879 N   0  3  0  0  0  0  0  0  0  0  0  0
   18.6380   17.7761   26.5995 H   0  0  0  0  0  0  0  0  0  0  0  0
   18.5769   16.2510   25.9729 H   0  0  0  0  0  0  0  0  0  0  0  0
   17.2451   16.9000   26.6958 H   0  0  0  0  0  0  0  0  0  0  0  0
  1  2  1  0  0  0  0
  1  3  1  0  0  0  0
  1  4  1  0  0  0  0
  1  5  1  0  0  0  0
  5  6  1  0  0  0  0
  5  7  1  0  0  0  0
  5  8  1  0  0  0  0
  8  9  1  0  0  0  0
  8 10  1  0  0  0  0
  8 11  1  0  0  0  0
 11 12  1  0  0  0  0
 11 13  1  0  0  0  0
 11 14  1  0  0  0  0
 14 15  1  0  0  0  0
 14 16  1  0  0  0  0
 14 17  1  0  0  0  0
 17 18  1  0  0  0  0
 17 19  1  0  0  0  0
 17 20  1  0  0  0  0
 20 21  1  0  0  0  0
 20 22  1  0  0  0  0
 20 23  1  0  0  0  0
 23 24  1  0  0  0  0
 23 25  1  0  0  0  0
 23 26  1  0  0  0  0
M  END
> <VConfSearch Rank>
429

> <Conf_Id>
130

> <Delta U+W>
1.282

> <U+W>
-4.270

> <U>
49.153

> <W>
-53.422

> <W(PB)>
-55.725

> <W(SA)>
2.303

> <Valence>
3.298

> <Coulomb>
44.907

> <VdW>
0.948

> <VdW6>
-7.574

> <VdW12>
8.522

> <Bond>
0.229

> <Angle>
0.912

> <Pdih>
2.157

> <Idih>
0.000

> <Tether>
0.000

$$$$
VeraChem MOL file


 26 25  0  0  0  0  0  0  0  0999 V2000     
   18.8583   15.6736   23.8853 C   0  0  0  0  0  0  0  0  0  0  0  0
   19.1955   15.0473   23.0493 H   0  0  0  0  0  0  0  0  0  0  0  0
   18.2136   15.0592   24.5270 H   0  0  0  0  0  0  0  0  0  0  0  0
   18.2428   16.4865   23.4804 H   0  0  0  0  0  0  0  0  0  0  0  0
   20.0595   16.2202   24.6895 C   0  0  0  0  0  0  0  0  0  0  0  0
   20.5736   15.3779   25.1730 H   0  0  0  0  0  0  0  0  0  0  0  0
   19.6989   16.8592   25.5065 H   0  0  0  0  0  0  0  0  0  0  0  0
   21.0861   16.9894   23.8192 C   0  0  0  0  0  0  0  0  0  0  0  0
   21.9154   17.3199   24.4595 H   0  0  0  0  0  0  0  0  0  0  0  0
   21.5269   16.2920   23.0935 H   0  0  0  0  0  0  0  0  0  0  0  0
   20.5236   18.2136   23.0511 C   0  0  0  0  0  0  0  0  0  0  0  0
   19.7642   17.8854   22.3292 H   0  0  0  0  0  0  0  0  0  0  0  0
   21.3403   18.6422   22.4558 H   0  0  0  0  0  0  0  0  0  0  0  0
   19.9298   19.3057   23.9766 C   0  0  0  0  0  0  0  0  0  0  0  0
   19.0934   18.8861   24.5506 H   0  0  0  0  0  0  0  0  0  0  0  0
   20.6847   19.6218   24.7098 H   0  0  0  0  0  0  0  0  0  0  0  0
   19.4124   20.5411   23.2026 C   0  0  0  0  0  0  0  0  0  0  0  0
   18.9135   21.2190   23.9080 H   0  0  0  0  0  0  0  0  0  0  0  0
   18.6512   20.2287   22.4753 H   0  0  0  0  0  0  0  0  0  0  0  0
   20.5365   21.3076   22.4806 C   0  0  0  0  0  0  0  0  0  0  0  0
   21.2946   21.6173   23.2050 H   0  0  0  0  0  0  0  0  0  0  0  0
   21.0117   20.6590   21.7404 H   0  0  0  0  0  0  0  0  0  0  0  0
   20.0422   22.5467   21.7624 N   0  3  0  0  0  0  0  0  0  0  0  0
   19.3436   22.3205   21.0469 H   0  0  0  0  0  0  0  0  0  0  0  0
   20.8052   23.0424   21.2887 H   0  0  0  0  0  0  0  0  0  0  0  0
   19.6078   23.2146   22.4078 H   0  0  0  0  0  0  0  0  0  0  0  0
  1  2  1  0  0  0  0
  1  3  1  0  0  0  0
  1  4  1  0  0  0  0
  1  5  1  0  0  0  0
  5  6  1  0  0  0  0
  5  7  1  0  0  0  0
  5  8  1  0  0  0  0
  8  9  1  0  0  0  0
  8 10  1  0  0  0  0
  8 11  1  0  0  0  0
 11 12  1  0  0  0  0
 11 13  1  0  0  0  0
 11 14  1  0  0  0  0
 14 15  1  0  0  0  0
 14 16  1  0  0  0  0
 14 17  1  0  0  0  0
 17 18  1  0  0  0  0
 17 19  1  0  0  0  0
 17 20  1  0  0  0  0
 20 21  1  0  0  0  0
 20 22  1  0  0  0  0
 20 23  1  0  0  0  0
 23 24  1  0  0  0  0
 23 25  1  0  0  0  0
 23 26  1  0  0  0  0
M  END
> <VConfSearch Rank>
430

> <Conf_Id>
111

> <Delta U+W>
1.290

> <U+W>
-4.262

> <U>
49.209

> <W>
-53.471

> <W(PB)>
-55.745

> <W(SA)>
2.274

> <Valence>
3.465

> <Coulomb>
44.958

> <VdW>
0.786

> <VdW6>
-7.903

> <VdW12>
8.689

> <Bond>
0.237

> <Angle>
1.212

> <Pdih>
2.015

> <Idih>
0.000

> <Tether>
0.000

$$$$
VeraChem MOL file


 26 25  0  0  0  0  0  0  0  0999 V2000     
   21.9836   21.7231   25.4058 C   0  0  0  0  0  0  0  0  0  0  0  0
   21.9580   21.1050   26.3127 H   0  0  0  0  0  0  0  0  0  0  0  0
   23.0345   21.8981   25.1408 H   0  0  0  0  0  0  0  0  0  0  0  0
   21.5311   22.6939   25.6466 H   0  0  0  0  0  0  0  0  0  0  0  0
   21.2250   21.0404   24.2480 C   0  0  0  0  0  0  0  0  0  0  0  0
   21.2428   21.6946   23.3651 H   0  0  0  0  0  0  0  0  0  0  0  0
   20.1719   20.9202   24.5346 H   0  0  0  0  0  0  0  0  0  0  0  0
   21.8427   19.6671   23.8932 C   0  0  0  0  0  0  0  0  0  0  0  0
   22.9140   19.8003   23.6880 H   0  0  0  0  0  0  0  0  0  0  0  0
   21.7766   18.9960   24.7607 H   0  0  0  0  0  0  0  0  0  0  0  0
   21.1884   18.9917   22.6630 C   0  0  0  0  0  0  0  0  0  0  0  0
   21.7628   18.0880   22.4164 H   0  0  0  0  0  0  0  0  0  0  0  0
   21.2707   19.6565   21.7920 H   0  0  0  0  0  0  0  0  0  0  0  0
   19.7073   18.6017   22.8854 C   0  0  0  0  0  0  0  0  0  0  0  0
   19.6274   17.9875   23.7922 H   0  0  0  0  0  0  0  0  0  0  0  0
   19.1035   19.5030   23.0540 H   0  0  0  0  0  0  0  0  0  0  0  0
   19.1317   17.8292   21.6749 C   0  0  0  0  0  0  0  0  0  0  0  0
   19.7000   16.9035   21.5135 H   0  0  0  0  0  0  0  0  0  0  0  0
   19.2537   18.4342   20.7665 H   0  0  0  0  0  0  0  0  0  0  0  0
   17.6371   17.4925   21.8394 C   0  0  0  0  0  0  0  0  0  0  0  0
   17.0687   18.4116   22.0054 H   0  0  0  0  0  0  0  0  0  0  0  0
   17.2678   17.0241   20.9230 H   0  0  0  0  0  0  0  0  0  0  0  0
   17.3476   16.5462   22.9881 N   0  3  0  0  0  0  0  0  0  0  0  0
   16.3470   16.3325   23.0624 H   0  0  0  0  0  0  0  0  0  0  0  0
   17.6376   16.9413   23.8879 H   0  0  0  0  0  0  0  0  0  0  0  0
   17.8371   15.6522   22.8774 H   0  0  0  0  0  0  0  0  0  0  0  0
  1  2  1  0  0  0  0
  1  3  1  0  0  0  0
  1  4  1  0  0  0  0
  1  5  1  0  0  0  0
  5  6  1  0  0  0  0
  5  7  1  0  0  0  0
  5  8  1  0  0  0  0
  8  9  1  0  0  0  0
  8 10  1  0  0  0  0
  8 11  1  0  0  0  0
 11 12  1  0  0  0  0
 11 13  1  0  0  0  0
 11 14  1  0  0  0  0
 14 15  1  0  0  0  0
 14 16  1  0  0  0  0
 14 17  1  0  0  0  0
 17 18  1  0  0  0  0
 17 19  1  0  0  0  0
 17 20  1  0  0  0  0
 20 21  1  0  0  0  0
 20 22  1  0  0  0  0
 20 23  1  0  0  0  0
 23 24  1  0  0  0  0
 23 25  1  0  0  0  0
 23 26  1  0  0  0  0
M  END
> <VConfSearch Rank>
431

> <Conf_Id>
105

> <Delta U+W>
0.736

> <U+W>
-4.817

> <U>
48.735

> <W>
-53.552

> <W(PB)>
-55.889

> <W(SA)>
2.337

> <Valence>
2.803

> <Coulomb>
45.123

> <VdW>
0.809

> <VdW6>
-6.953

> <VdW12>
7.761

> <Bond>
0.188

> <Angle>
0.699

> <Pdih>
1.917

> <Idih>
0.000

> <Tether>
0.000

$$$$
VeraChem MOL file


 26 25  0  0  0  0  0  0  0  0999 V2000     
   16.6329   20.5128   22.9115 C   0  0  0  0  0  0  0  0  0  0  0  0
   16.5095   21.6024   22.8602 H   0  0  0  0  0  0  0  0  0  0  0  0
   16.6360   20.1202   21.8863 H   0  0  0  0  0  0  0  0  0  0  0  0
   15.7574   20.0988   23.4284 H   0  0  0  0  0  0  0  0  0  0  0  0
   17.9326   20.1354   23.6535 C   0  0  0  0  0  0  0  0  0  0  0  0
   18.0001   19.0414   23.7194 H   0  0  0  0  0  0  0  0  0  0  0  0
   17.8880   20.5153   24.6837 H   0  0  0  0  0  0  0  0  0  0  0  0
   19.1820   20.7046   22.9409 C   0  0  0  0  0  0  0  0  0  0  0  0
   19.2502   20.2934   21.9252 H   0  0  0  0  0  0  0  0  0  0  0  0
   19.0583   21.7894   22.8174 H   0  0  0  0  0  0  0  0  0  0  0  0
   20.5055   20.4503   23.7081 C   0  0  0  0  0  0  0  0  0  0  0  0
   20.4647   20.9794   24.6702 H   0  0  0  0  0  0  0  0  0  0  0  0
   21.3312   20.9105   23.1481 H   0  0  0  0  0  0  0  0  0  0  0  0
   20.8479   18.9613   23.9745 C   0  0  0  0  0  0  0  0  0  0  0  0
   21.7924   18.9263   24.5333 H   0  0  0  0  0  0  0  0  0  0  0  0
   20.0917   18.5140   24.6331 H   0  0  0  0  0  0  0  0  0  0  0  0
   20.9829   18.1161   22.6831 C   0  0  0  0  0  0  0  0  0  0  0  0
   21.7240   18.5697   22.0117 H   0  0  0  0  0  0  0  0  0  0  0  0
   20.0286   18.1115   22.1418 H   0  0  0  0  0  0  0  0  0  0  0  0
   21.3738   16.6532   22.9685 C   0  0  0  0  0  0  0  0  0  0  0  0
   20.6479   16.2047   23.6521 H   0  0  0  0  0  0  0  0  0  0  0  0
   21.3578   16.0855   22.0341 H   0  0  0  0  0  0  0  0  0  0  0  0
   22.7537   16.4958   23.5767 N   0  3  0  0  0  0  0  0  0  0  0  0
   22.8281   16.9751   24.4792 H   0  0  0  0  0  0  0  0  0  0  0  0
   23.4839   16.8799   22.9682 H   0  0  0  0  0  0  0  0  0  0  0  0
   22.9876   15.5104   23.7399 H   0  0  0  0  0  0  0  0  0  0  0  0
  1  2  1  0  0  0  0
  1  3  1  0  0  0  0
  1  4  1  0  0  0  0
  1  5  1  0  0  0  0
  5  6  1  0  0  0  0
  5  7  1  0  0  0  0
  5  8  1  0  0  0  0
  8  9  1  0  0  0  0
  8 10  1  0  0  0  0
  8 11  1  0  0  0  0
 11 12  1  0  0  0  0
 11 13  1  0  0  0  0
 11 14  1  0  0  0  0
 14 15  1  0  0  0  0
 14 16  1  0  0  0  0
 14 17  1  0  0  0  0
 17 18  1  0  0  0  0
 17 19  1  0  0  0  0
 17 20  1  0  0  0  0
 20 21  1  0  0  0  0
 20 22  1  0  0  0  0
 20 23  1  0  0  0  0
 23 24  1  0  0  0  0
 23 25  1  0  0  0  0
 23 26  1  0  0  0  0
M  END
> <VConfSearch Rank>
432

> <Conf_Id>
144

> <Delta U+W>
1.073

> <U+W>
-4.479

> <U>
49.231

> <W>
-53.710

> <W(PB)>
-55.983

> <W(SA)>
2.273

> <Valence>
3.276

> <Coulomb>
45.175

> <VdW>
0.779

> <VdW6>
-7.944

> <VdW12>
8.723

> <Bond>
0.239

> <Angle>
1.155

> <Pdih>
1.883

> <Idih>
0.000

> <Tether>
0.000

$$$$
VeraChem MOL file


 26 25  0  0  0  0  0  0  0  0999 V2000     
   22.8449   16.6386   23.0402 C   0  0  0  0  0  0  0  0  0  0  0  0
   23.2846   17.3279   22.3092 H   0  0  0  0  0  0  0  0  0  0  0  0
   23.6695   16.0821   23.5043 H   0  0  0  0  0  0  0  0  0  0  0  0
   22.2169   15.9183   22.4999 H   0  0  0  0  0  0  0  0  0  0  0  0
   22.0285   17.3908   24.1159 C   0  0  0  0  0  0  0  0  0  0  0  0
   22.6686   18.1291   24.6190 H   0  0  0  0  0  0  0  0  0  0  0  0
   21.7220   16.6727   24.8893 H   0  0  0  0  0  0  0  0  0  0  0  0
   20.7628   18.0865   23.5585 C   0  0  0  0  0  0  0  0  0  0  0  0
   20.1367   17.3485   23.0386 H   0  0  0  0  0  0  0  0  0  0  0  0
   20.1801   18.4519   24.4133 H   0  0  0  0  0  0  0  0  0  0  0  0
   21.0757   19.2736   22.6139 C   0  0  0  0  0  0  0  0  0  0  0  0
   21.7438   18.9372   21.8111 H   0  0  0  0  0  0  0  0  0  0  0  0
   21.6290   20.0436   23.1688 H   0  0  0  0  0  0  0  0  0  0  0  0
   19.8286   19.9132   21.9496 C   0  0  0  0  0  0  0  0  0  0  0  0
   20.1826   20.7091   21.2797 H   0  0  0  0  0  0  0  0  0  0  0  0
   19.3290   19.1801   21.3011 H   0  0  0  0  0  0  0  0  0  0  0  0
   18.8065   20.5329   22.9357 C   0  0  0  0  0  0  0  0  0  0  0  0
   18.2871   21.3572   22.4289 H   0  0  0  0  0  0  0  0  0  0  0  0
   19.3297   20.9769   23.7931 H   0  0  0  0  0  0  0  0  0  0  0  0
   17.7452   19.5243   23.4172 C   0  0  0  0  0  0  0  0  0  0  0  0
   17.1972   19.1316   22.5565 H   0  0  0  0  0  0  0  0  0  0  0  0
   18.2225   18.6858   23.9277 H   0  0  0  0  0  0  0  0  0  0  0  0
   16.7387   20.1348   24.3708 N   0  3  0  0  0  0  0  0  0  0  0  0
   16.2275   20.9121   23.9401 H   0  0  0  0  0  0  0  0  0  0  0  0
   17.1871   20.5008   25.2171 H   0  0  0  0  0  0  0  0  0  0  0  0
   16.0386   19.4499   24.6759 H   0  0  0  0  0  0  0  0  0  0  0  0
  1  2  1  0  0  0  0
  1  3  1  0  0  0  0
  1  4  1  0  0  0  0
  1  5  1  0  0  0  0
  5  6  1  0  0  0  0
  5  7  1  0  0  0  0
  5  8  1  0  0  0  0
  8  9  1  0  0  0  0
  8 10  1  0  0  0  0
  8 11  1  0  0  0  0
 11 12  1  0  0  0  0
 11 13  1  0  0  0  0
 11 14  1  0  0  0  0
 14 15  1  0  0  0  0
 14 16  1  0  0  0  0
 14 17  1  0  0  0  0
 17 18  1  0  0  0  0
 17 19  1  0  0  0  0
 17 20  1  0  0  0  0
 20 21  1  0  0  0  0
 20 22  1  0  0  0  0
 20 23  1  0  0  0  0
 23 24  1  0  0  0  0
 23 25  1  0  0  0  0
 23 26  1  0  0  0  0
M  END
> <VConfSearch Rank>
433

> <Conf_Id>
93

> <Delta U+W>
3.253

> <U+W>
-2.300

> <U>
51.609

> <W>
-53.909

> <W(PB)>
-56.178

> <W(SA)>
2.270

> <Valence>
5.204

> <Coulomb>
45.645

> <VdW>
0.760

> <VdW6>
-7.997

> <VdW12>
8.758

> <Bond>
0.240

> <Angle>
1.456

> <Pdih>
3.507

> <Idih>
0.000

> <Tether>
0.000

$$$$
VeraChem MOL file


 26 25  0  0  0  0  0  0  0  0999 V2000     
   23.6946   18.5110   23.3476 C   0  0  0  0  0  0  0  0  0  0  0  0
   23.5358   17.5247   23.8002 H   0  0  0  0  0  0  0  0  0  0  0  0
   23.6845   18.3947   22.2561 H   0  0  0  0  0  0  0  0  0  0  0  0
   24.6975   18.8486   23.6393 H   0  0  0  0  0  0  0  0  0  0  0  0
   22.6269   19.5296   23.8080 C   0  0  0  0  0  0  0  0  0  0  0  0
   22.9059   20.5240   23.4322 H   0  0  0  0  0  0  0  0  0  0  0  0
   22.6326   19.6034   24.9045 H   0  0  0  0  0  0  0  0  0  0  0  0
   21.1989   19.1968   23.3116 C   0  0  0  0  0  0  0  0  0  0  0  0
   20.5543   20.0505   23.5554 H   0  0  0  0  0  0  0  0  0  0  0  0
   21.2029   19.1033   22.2170 H   0  0  0  0  0  0  0  0  0  0  0  0
   20.6061   17.9157   23.9494 C   0  0  0  0  0  0  0  0  0  0  0  0
   20.5276   18.0538   25.0365 H   0  0  0  0  0  0  0  0  0  0  0  0
   21.2972   17.0770   23.7978 H   0  0  0  0  0  0  0  0  0  0  0  0
   19.2252   17.4945   23.3825 C   0  0  0  0  0  0  0  0  0  0  0  0
   19.3156   17.2449   22.3161 H   0  0  0  0  0  0  0  0  0  0  0  0
   18.9339   16.5601   23.8821 H   0  0  0  0  0  0  0  0  0  0  0  0
   18.0887   18.5269   23.5914 C   0  0  0  0  0  0  0  0  0  0  0  0
   18.2162   19.0400   24.5538 H   0  0  0  0  0  0  0  0  0  0  0  0
   17.1336   17.9881   23.6515 H   0  0  0  0  0  0  0  0  0  0  0  0
   17.9871   19.5521   22.4450 C   0  0  0  0  0  0  0  0  0  0  0  0
   18.9204   20.1103   22.3512 H   0  0  0  0  0  0  0  0  0  0  0  0
   17.8068   19.0292   21.5019 H   0  0  0  0  0  0  0  0  0  0  0  0
   16.8671   20.5527   22.6440 N   0  3  0  0  0  0  0  0  0  0  0  0
   15.9522   20.0942   22.7066 H   0  0  0  0  0  0  0  0  0  0  0  0
   16.8124   21.2228   21.8692 H   0  0  0  0  0  0  0  0  0  0  0  0
   16.9903   21.0986   23.5030 H   0  0  0  0  0  0  0  0  0  0  0  0
  1  2  1  0  0  0  0
  1  3  1  0  0  0  0
  1  4  1  0  0  0  0
  1  5  1  0  0  0  0
  5  6  1  0  0  0  0
  5  7  1  0  0  0  0
  5  8  1  0  0  0  0
  8  9  1  0  0  0  0
  8 10  1  0  0  0  0
  8 11  1  0  0  0  0
 11 12  1  0  0  0  0
 11 13  1  0  0  0  0
 11 14  1  0  0  0  0
 14 15  1  0  0  0  0
 14 16  1  0  0  0  0
 14 17  1  0  0  0  0
 17 18  1  0  0  0  0
 17 19  1  0  0  0  0
 17 20  1  0  0  0  0
 20 21  1  0  0  0  0
 20 22  1  0  0  0  0
 20 23  1  0  0  0  0
 23 24  1  0  0  0  0
 23 25  1  0  0  0  0
 23 26  1  0  0  0  0
M  END
> <VConfSearch Rank>
434

> <Conf_Id>
94

> <Delta U+W>
3.247

> <U+W>
-2.305

> <U>
51.609

> <W>
-53.914

> <W(PB)>
-56.221

> <W(SA)>
2.307

> <Valence>
5.204

> <Coulomb>
45.645

> <VdW>
0.760

> <VdW6>
-7.997

> <VdW12>
8.757

> <Bond>
0.240

> <Angle>
1.456

> <Pdih>
3.508

> <Idih>
0.000

> <Tether>
0.000

$$$$
VeraChem MOL file


 26 25  0  0  0  0  0  0  0  0999 V2000     
   21.5098   21.5625   26.0737 C   0  0  0  0  0  0  0  0  0  0  0  0
   21.3289   21.0358   27.0198 H   0  0  0  0  0  0  0  0  0  0  0  0
   22.5488   21.3763   25.7719 H   0  0  0  0  0  0  0  0  0  0  0  0
   21.4010   22.6386   26.2610 H   0  0  0  0  0  0  0  0  0  0  0  0
   20.5231   21.0968   24.9821 C   0  0  0  0  0  0  0  0  0  0  0  0
   20.7061   21.6647   24.0591 H   0  0  0  0  0  0  0  0  0  0  0  0
   19.4956   21.3267   25.2973 H   0  0  0  0  0  0  0  0  0  0  0  0
   20.6556   19.5840   24.6988 C   0  0  0  0  0  0  0  0  0  0  0  0
   21.6846   19.3588   24.3861 H   0  0  0  0  0  0  0  0  0  0  0  0
   20.4746   19.0211   25.6250 H   0  0  0  0  0  0  0  0  0  0  0  0
   19.6687   19.1139   23.6065 C   0  0  0  0  0  0  0  0  0  0  0  0
   19.8504   19.6858   22.6868 H   0  0  0  0  0  0  0  0  0  0  0  0
   18.6400   19.3365   23.9221 H   0  0  0  0  0  0  0  0  0  0  0  0
   19.8051   17.5986   23.3233 C   0  0  0  0  0  0  0  0  0  0  0  0
   20.8251   17.3743   22.9837 H   0  0  0  0  0  0  0  0  0  0  0  0
   19.6673   17.0434   24.2614 H   0  0  0  0  0  0  0  0  0  0  0  0
   18.7778   17.0770   22.2874 C   0  0  0  0  0  0  0  0  0  0  0  0
   17.7624   17.2275   22.6775 H   0  0  0  0  0  0  0  0  0  0  0  0
   18.9019   15.9926   22.1676 H   0  0  0  0  0  0  0  0  0  0  0  0
   18.8814   17.7523   20.9047 C   0  0  0  0  0  0  0  0  0  0  0  0
   18.1088   17.3484   20.2449 H   0  0  0  0  0  0  0  0  0  0  0  0
   18.7135   18.8277   21.0045 H   0  0  0  0  0  0  0  0  0  0  0  0
   20.2212   17.5465   20.2262 N   0  3  0  0  0  0  0  0  0  0  0  0
   20.4238   16.5526   20.0781 H   0  0  0  0  0  0  0  0  0  0  0  0
   20.9896   17.9332   20.7832 H   0  0  0  0  0  0  0  0  0  0  0  0
   20.2567   18.0001   19.3069 H   0  0  0  0  0  0  0  0  0  0  0  0
  1  2  1  0  0  0  0
  1  3  1  0  0  0  0
  1  4  1  0  0  0  0
  1  5  1  0  0  0  0
  5  6  1  0  0  0  0
  5  7  1  0  0  0  0
  5  8  1  0  0  0  0
  8  9  1  0  0  0  0
  8 10  1  0  0  0  0
  8 11  1  0  0  0  0
 11 12  1  0  0  0  0
 11 13  1  0  0  0  0
 11 14  1  0  0  0  0
 14 15  1  0  0  0  0
 14 16  1  0  0  0  0
 14 17  1  0  0  0  0
 17 18  1  0  0  0  0
 17 19  1  0  0  0  0
 17 20  1  0  0  0  0
 20 21  1  0  0  0  0
 20 22  1  0  0  0  0
 20 23  1  0  0  0  0
 23 24  1  0  0  0  0
 23 25  1  0  0  0  0
 23 26  1  0  0  0  0
M  END
> <VConfSearch Rank>
435

> <Conf_Id>
83

> <Delta U+W>
0.559

> <U+W>
-4.994

> <U>
48.668

> <W>
-53.661

> <W(PB)>
-55.972

> <W(SA)>
2.311

> <Valence>
2.543

> <Coulomb>
45.478

> <VdW>
0.646

> <VdW6>
-7.096

> <VdW12>
7.742

> <Bond>
0.176

> <Angle>
0.630

> <Pdih>
1.738

> <Idih>
0.000

> <Tether>
0.000

$$$$
VeraChem MOL file


 26 25  0  0  0  0  0  0  0  0999 V2000     
   17.2081   21.5327   24.1208 C   0  0  0  0  0  0  0  0  0  0  0  0
   16.4801   21.7690   23.3338 H   0  0  0  0  0  0  0  0  0  0  0  0
   16.7071   20.9123   24.8752 H   0  0  0  0  0  0  0  0  0  0  0  0
   17.5026   22.4750   24.6008 H   0  0  0  0  0  0  0  0  0  0  0  0
   18.4409   20.8095   23.5381 C   0  0  0  0  0  0  0  0  0  0  0  0
   19.1616   20.6280   24.3464 H   0  0  0  0  0  0  0  0  0  0  0  0
   18.9371   21.4655   22.8093 H   0  0  0  0  0  0  0  0  0  0  0  0
   18.0508   19.4751   22.8595 C   0  0  0  0  0  0  0  0  0  0  0  0
   17.6040   18.7989   23.6013 H   0  0  0  0  0  0  0  0  0  0  0  0
   17.2700   19.6706   22.1115 H   0  0  0  0  0  0  0  0  0  0  0  0
   19.2351   18.7661   22.1574 C   0  0  0  0  0  0  0  0  0  0  0  0
   19.6722   19.4377   21.4056 H   0  0  0  0  0  0  0  0  0  0  0  0
   18.8432   17.9001   21.6063 H   0  0  0  0  0  0  0  0  0  0  0  0
   20.3365   18.2864   23.1333 C   0  0  0  0  0  0  0  0  0  0  0  0
   20.7855   19.1511   23.6375 H   0  0  0  0  0  0  0  0  0  0  0  0
   19.8865   17.6574   23.9138 H   0  0  0  0  0  0  0  0  0  0  0  0
   21.4404   17.4870   22.4011 C   0  0  0  0  0  0  0  0  0  0  0  0
   21.9159   18.1156   21.6365 H   0  0  0  0  0  0  0  0  0  0  0  0
   20.9855   16.6394   21.8714 H   0  0  0  0  0  0  0  0  0  0  0  0
   22.5159   16.9407   23.3599 C   0  0  0  0  0  0  0  0  0  0  0  0
   22.0444   16.3209   24.1273 H   0  0  0  0  0  0  0  0  0  0  0  0
   23.2167   16.3155   22.8000 H   0  0  0  0  0  0  0  0  0  0  0  0
   23.3198   18.0214   24.0561 N   0  3  0  0  0  0  0  0  0  0  0  0
   22.7256   18.6247   24.6329 H   0  0  0  0  0  0  0  0  0  0  0  0
   23.8061   18.6256   23.3856 H   0  0  0  0  0  0  0  0  0  0  0  0
   24.0351   17.6244   24.6750 H   0  0  0  0  0  0  0  0  0  0  0  0
  1  2  1  0  0  0  0
  1  3  1  0  0  0  0
  1  4  1  0  0  0  0
  1  5  1  0  0  0  0
  5  6  1  0  0  0  0
  5  7  1  0  0  0  0
  5  8  1  0  0  0  0
  8  9  1  0  0  0  0
  8 10  1  0  0  0  0
  8 11  1  0  0  0  0
 11 12  1  0  0  0  0
 11 13  1  0  0  0  0
 11 14  1  0  0  0  0
 14 15  1  0  0  0  0
 14 16  1  0  0  0  0
 14 17  1  0  0  0  0
 17 18  1  0  0  0  0
 17 19  1  0  0  0  0
 17 20  1  0  0  0  0
 20 21  1  0  0  0  0
 20 22  1  0  0  0  0
 20 23  1  0  0  0  0
 23 24  1  0  0  0  0
 23 25  1  0  0  0  0
 23 26  1  0  0  0  0
M  END
> <VConfSearch Rank>
436

> <Conf_Id>
18

> <Delta U+W>
0.759

> <U+W>
-4.793

> <U>
48.945

> <W>
-53.738

> <W(PB)>
-56.051

> <W(SA)>
2.313

> <Valence>
2.802

> <Coulomb>
45.335

> <VdW>
0.807

> <VdW6>
-6.962

> <VdW12>
7.769

> <Bond>
0.189

> <Angle>
0.696

> <Pdih>
1.917

> <Idih>
0.000

> <Tether>
0.000

$$$$
VeraChem MOL file


 26 25  0  0  0  0  0  0  0  0999 V2000     
   23.7712   18.7971   22.3864 C   0  0  0  0  0  0  0  0  0  0  0  0
   23.7559   19.6311   21.6727 H   0  0  0  0  0  0  0  0  0  0  0  0
   24.4864   19.0415   23.1827 H   0  0  0  0  0  0  0  0  0  0  0  0
   24.1444   17.9093   21.8596 H   0  0  0  0  0  0  0  0  0  0  0  0
   22.3640   18.5364   22.9645 C   0  0  0  0  0  0  0  0  0  0  0  0
   22.4056   17.6796   23.6514 H   0  0  0  0  0  0  0  0  0  0  0  0
   21.6894   18.2557   22.1450 H   0  0  0  0  0  0  0  0  0  0  0  0
   21.8148   19.7766   23.7086 C   0  0  0  0  0  0  0  0  0  0  0  0
   22.5443   20.0879   24.4691 H   0  0  0  0  0  0  0  0  0  0  0  0
   21.7223   20.6180   23.0082 H   0  0  0  0  0  0  0  0  0  0  0  0
   20.4547   19.5300   24.4066 C   0  0  0  0  0  0  0  0  0  0  0  0
   20.2055   20.4180   25.0039 H   0  0  0  0  0  0  0  0  0  0  0  0
   20.5518   18.6978   25.1176 H   0  0  0  0  0  0  0  0  0  0  0  0
   19.2958   19.2434   23.4216 C   0  0  0  0  0  0  0  0  0  0  0  0
   19.2356   20.0525   22.6806 H   0  0  0  0  0  0  0  0  0  0  0  0
   19.5004   18.3176   22.8697 H   0  0  0  0  0  0  0  0  0  0  0  0
   17.9398   19.1162   24.1556 C   0  0  0  0  0  0  0  0  0  0  0  0
   17.7507   20.0313   24.7325 H   0  0  0  0  0  0  0  0  0  0  0  0
   17.9799   18.2919   24.8802 H   0  0  0  0  0  0  0  0  0  0  0  0
   16.7583   18.8965   23.1911 C   0  0  0  0  0  0  0  0  0  0  0  0
   15.8228   18.9014   23.7570 H   0  0  0  0  0  0  0  0  0  0  0  0
   16.7207   19.7116   22.4634 H   0  0  0  0  0  0  0  0  0  0  0  0
   16.8271   17.5877   22.4287 N   0  3  0  0  0  0  0  0  0  0  0  0
   16.8428   16.7799   23.0599 H   0  0  0  0  0  0  0  0  0  0  0  0
   17.6665   17.5324   21.8439 H   0  0  0  0  0  0  0  0  0  0  0  0
   16.0198   17.4665   21.8074 H   0  0  0  0  0  0  0  0  0  0  0  0
  1  2  1  0  0  0  0
  1  3  1  0  0  0  0
  1  4  1  0  0  0  0
  1  5  1  0  0  0  0
  5  6  1  0  0  0  0
  5  7  1  0  0  0  0
  5  8  1  0  0  0  0
  8  9  1  0  0  0  0
  8 10  1  0  0  0  0
  8 11  1  0  0  0  0
 11 12  1  0  0  0  0
 11 13  1  0  0  0  0
 11 14  1  0  0  0  0
 14 15  1  0  0  0  0
 14 16  1  0  0  0  0
 14 17  1  0  0  0  0
 17 18  1  0  0  0  0
 17 19  1  0  0  0  0
 17 20  1  0  0  0  0
 20 21  1  0  0  0  0
 20 22  1  0  0  0  0
 20 23  1  0  0  0  0
 23 24  1  0  0  0  0
 23 25  1  0  0  0  0
 23 26  1  0  0  0  0
M  END
> <VConfSearch Rank>
437

> <Conf_Id>
17

> <Delta U+W>
0.843

> <U+W>
-4.709

> <U>
48.945

> <W>
-53.653

> <W(PB)>
-55.991

> <W(SA)>
2.338

> <Valence>
2.802

> <Coulomb>
45.335

> <VdW>
0.807

> <VdW6>
-6.962

> <VdW12>
7.769

> <Bond>
0.189

> <Angle>
0.696

> <Pdih>
1.917

> <Idih>
0.000

> <Tether>
0.000

$$$$
VeraChem MOL file


 26 25  0  0  0  0  0  0  0  0999 V2000     
   18.0858   21.8117   23.2483 C   0  0  0  0  0  0  0  0  0  0  0  0
   18.3981   21.3000   22.3296 H   0  0  0  0  0  0  0  0  0  0  0  0
   17.1743   21.3263   23.6203 H   0  0  0  0  0  0  0  0  0  0  0  0
   17.8301   22.8448   22.9794 H   0  0  0  0  0  0  0  0  0  0  0  0
   19.2020   21.7919   24.3172 C   0  0  0  0  0  0  0  0  0  0  0  0
   18.8914   22.4189   25.1647 H   0  0  0  0  0  0  0  0  0  0  0  0
   20.1120   22.2545   23.9101 H   0  0  0  0  0  0  0  0  0  0  0  0
   19.5264   20.3726   24.8428 C   0  0  0  0  0  0  0  0  0  0  0  0
   20.2426   20.4634   25.6711 H   0  0  0  0  0  0  0  0  0  0  0  0
   18.6185   19.9223   25.2673 H   0  0  0  0  0  0  0  0  0  0  0  0
   20.1180   19.4351   23.7629 C   0  0  0  0  0  0  0  0  0  0  0  0
   20.9971   19.9111   23.3070 H   0  0  0  0  0  0  0  0  0  0  0  0
   19.3826   19.2872   22.9623 H   0  0  0  0  0  0  0  0  0  0  0  0
   20.5223   18.0636   24.3553 C   0  0  0  0  0  0  0  0  0  0  0  0
   21.2260   18.2209   25.1843 H   0  0  0  0  0  0  0  0  0  0  0  0
   19.6394   17.5714   24.7864 H   0  0  0  0  0  0  0  0  0  0  0  0
   21.1814   17.1243   23.3180 C   0  0  0  0  0  0  0  0  0  0  0  0
   21.5207   16.2128   23.8278 H   0  0  0  0  0  0  0  0  0  0  0  0
   22.0776   17.6042   22.9025 H   0  0  0  0  0  0  0  0  0  0  0  0
   20.2253   16.7349   22.1749 C   0  0  0  0  0  0  0  0  0  0  0  0
   19.3333   16.2565   22.5883 H   0  0  0  0  0  0  0  0  0  0  0  0
   19.9151   17.6303   21.6301 H   0  0  0  0  0  0  0  0  0  0  0  0
   20.8501   15.7788   21.1794 N   0  3  0  0  0  0  0  0  0  0  0  0
   20.1978   15.5320   20.4271 H   0  0  0  0  0  0  0  0  0  0  0  0
   21.1398   14.9009   21.6229 H   0  0  0  0  0  0  0  0  0  0  0  0
   21.6815   16.1805   20.7338 H   0  0  0  0  0  0  0  0  0  0  0  0
  1  2  1  0  0  0  0
  1  3  1  0  0  0  0
  1  4  1  0  0  0  0
  1  5  1  0  0  0  0
  5  6  1  0  0  0  0
  5  7  1  0  0  0  0
  5  8  1  0  0  0  0
  8  9  1  0  0  0  0
  8 10  1  0  0  0  0
  8 11  1  0  0  0  0
 11 12  1  0  0  0  0
 11 13  1  0  0  0  0
 11 14  1  0  0  0  0
 14 15  1  0  0  0  0
 14 16  1  0  0  0  0
 14 17  1  0  0  0  0
 17 18  1  0  0  0  0
 17 19  1  0  0  0  0
 17 20  1  0  0  0  0
 20 21  1  0  0  0  0
 20 22  1  0  0  0  0
 20 23  1  0  0  0  0
 23 24  1  0  0  0  0
 23 25  1  0  0  0  0
 23 26  1  0  0  0  0
M  END
> <VConfSearch Rank>
438

> <Conf_Id>
96

> <Delta U+W>
0.912

> <U+W>
-4.640

> <U>
48.723

> <W>
-53.364

> <W(PB)>
-55.683

> <W(SA)>
2.320

> <Valence>
2.962

> <Coulomb>
44.993

> <VdW>
0.768

> <VdW6>
-7.008

> <VdW12>
7.776

> <Bond>
0.188

> <Angle>
0.757

> <Pdih>
2.018

> <Idih>
0.000

> <Tether>
0.000

$$$$
VeraChem MOL file


 26 25  0  0  0  0  0  0  0  0999 V2000     
   18.6779   20.6289   26.0189 C   0  0  0  0  0  0  0  0  0  0  0  0
   18.1153   21.4036   26.5558 H   0  0  0  0  0  0  0  0  0  0  0  0
   19.2987   20.0967   26.7513 H   0  0  0  0  0  0  0  0  0  0  0  0
   19.3421   21.1369   25.3088 H   0  0  0  0  0  0  0  0  0  0  0  0
   17.7121   19.6597   25.3001 C   0  0  0  0  0  0  0  0  0  0  0  0
   17.1254   20.2102   24.5514 H   0  0  0  0  0  0  0  0  0  0  0  0
   16.9899   19.2723   26.0323 H   0  0  0  0  0  0  0  0  0  0  0  0
   18.4277   18.4630   24.6280 C   0  0  0  0  0  0  0  0  0  0  0  0
   18.9964   17.9041   25.3840 H   0  0  0  0  0  0  0  0  0  0  0  0
   17.6644   17.7728   24.2428 H   0  0  0  0  0  0  0  0  0  0  0  0
   19.3663   18.8770   23.4693 C   0  0  0  0  0  0  0  0  0  0  0  0
   20.1699   19.5149   23.8580 H   0  0  0  0  0  0  0  0  0  0  0  0
   18.8049   19.4772   22.7402 H   0  0  0  0  0  0  0  0  0  0  0  0
   19.9792   17.6447   22.7614 C   0  0  0  0  0  0  0  0  0  0  0  0
   20.5660   17.0575   23.4814 H   0  0  0  0  0  0  0  0  0  0  0  0
   19.1699   16.9887   22.4120 H   0  0  0  0  0  0  0  0  0  0  0  0
   20.8697   18.0187   21.5532 C   0  0  0  0  0  0  0  0  0  0  0  0
   20.2793   18.5856   20.8210 H   0  0  0  0  0  0  0  0  0  0  0  0
   21.1933   17.0975   21.0506 H   0  0  0  0  0  0  0  0  0  0  0  0
   22.1124   18.8334   21.9588 C   0  0  0  0  0  0  0  0  0  0  0  0
   21.8037   19.7748   22.4203 H   0  0  0  0  0  0  0  0  0  0  0  0
   22.7006   18.2688   22.6873 H   0  0  0  0  0  0  0  0  0  0  0  0
   23.0128   19.1643   20.7862 N   0  3  0  0  0  0  0  0  0  0  0  0
   22.5256   19.7191   20.0749 H   0  0  0  0  0  0  0  0  0  0  0  0
   23.3624   18.3193   20.3225 H   0  0  0  0  0  0  0  0  0  0  0  0
   23.8338   19.7063   21.0772 H   0  0  0  0  0  0  0  0  0  0  0  0
  1  2  1  0  0  0  0
  1  3  1  0  0  0  0
  1  4  1  0  0  0  0
  1  5  1  0  0  0  0
  5  6  1  0  0  0  0
  5  7  1  0  0  0  0
  5  8  1  0  0  0  0
  8  9  1  0  0  0  0
  8 10  1  0  0  0  0
  8 11  1  0  0  0  0
 11 12  1  0  0  0  0
 11 13  1  0  0  0  0
 11 14  1  0  0  0  0
 14 15  1  0  0  0  0
 14 16  1  0  0  0  0
 14 17  1  0  0  0  0
 17 18  1  0  0  0  0
 17 19  1  0  0  0  0
 17 20  1  0  0  0  0
 20 21  1  0  0  0  0
 20 22  1  0  0  0  0
 20 23  1  0  0  0  0
 23 24  1  0  0  0  0
 23 25  1  0  0  0  0
 23 26  1  0  0  0  0
M  END
> <VConfSearch Rank>
439

> <Conf_Id>
133

> <Delta U+W>
0.844

> <U+W>
-4.708

> <U>
48.723

> <W>
-53.431

> <W(PB)>
-55.776

> <W(SA)>
2.344

> <Valence>
2.962

> <Coulomb>
44.993

> <VdW>
0.768

> <VdW6>
-7.008

> <VdW12>
7.776

> <Bond>
0.188

> <Angle>
0.756

> <Pdih>
2.018

> <Idih>
0.000

> <Tether>
0.000

$$$$
VeraChem MOL file


 26 25  0  0  0  0  0  0  0  0999 V2000     
   17.3738   18.8976   21.1574 C   0  0  0  0  0  0  0  0  0  0  0  0
   16.9688   19.8684   20.8435 H   0  0  0  0  0  0  0  0  0  0  0  0
   18.4478   18.8839   20.9337 H   0  0  0  0  0  0  0  0  0  0  0  0
   16.8986   18.1210   20.5443 H   0  0  0  0  0  0  0  0  0  0  0  0
   17.1049   18.6427   22.6578 C   0  0  0  0  0  0  0  0  0  0  0  0
   17.5358   17.6766   22.9528 H   0  0  0  0  0  0  0  0  0  0  0  0
   16.0210   18.5470   22.8115 H   0  0  0  0  0  0  0  0  0  0  0  0
   17.6356   19.7703   23.5795 C   0  0  0  0  0  0  0  0  0  0  0  0
   17.0992   20.7005   23.3467 H   0  0  0  0  0  0  0  0  0  0  0  0
   17.3780   19.5276   24.6196 H   0  0  0  0  0  0  0  0  0  0  0  0
   19.1599   20.0397   23.4876 C   0  0  0  0  0  0  0  0  0  0  0  0
   19.4056   20.8663   24.1686 H   0  0  0  0  0  0  0  0  0  0  0  0
   19.4177   20.3924   22.4802 H   0  0  0  0  0  0  0  0  0  0  0  0
   20.0285   18.8118   23.8516 C   0  0  0  0  0  0  0  0  0  0  0  0
   19.7361   18.4351   24.8416 H   0  0  0  0  0  0  0  0  0  0  0  0
   19.8480   18.0001   23.1344 H   0  0  0  0  0  0  0  0  0  0  0  0
   21.5344   19.1551   23.8552 C   0  0  0  0  0  0  0  0  0  0  0  0
   21.7294   19.9589   24.5776 H   0  0  0  0  0  0  0  0  0  0  0  0
   21.8300   19.5311   22.8666 H   0  0  0  0  0  0  0  0  0  0  0  0
   22.3907   17.9275   24.2129 C   0  0  0  0  0  0  0  0  0  0  0  0
   22.1107   17.5594   25.2036 H   0  0  0  0  0  0  0  0  0  0  0  0
   22.2125   17.1300   23.4864 H   0  0  0  0  0  0  0  0  0  0  0  0
   23.8764   18.2239   24.2268 N   0  3  0  0  0  0  0  0  0  0  0  0
   24.4283   17.3933   24.4673 H   0  0  0  0  0  0  0  0  0  0  0  0
   24.1150   18.9490   24.9113 H   0  0  0  0  0  0  0  0  0  0  0  0
   24.2098   18.5495   23.3136 H   0  0  0  0  0  0  0  0  0  0  0  0
  1  2  1  0  0  0  0
  1  3  1  0  0  0  0
  1  4  1  0  0  0  0
  1  5  1  0  0  0  0
  5  6  1  0  0  0  0
  5  7  1  0  0  0  0
  5  8  1  0  0  0  0
  8  9  1  0  0  0  0
  8 10  1  0  0  0  0
  8 11  1  0  0  0  0
 11 12  1  0  0  0  0
 11 13  1  0  0  0  0
 11 14  1  0  0  0  0
 14 15  1  0  0  0  0
 14 16  1  0  0  0  0
 14 17  1  0  0  0  0
 17 18  1  0  0  0  0
 17 19  1  0  0  0  0
 17 20  1  0  0  0  0
 20 21  1  0  0  0  0
 20 22  1  0  0  0  0
 20 23  1  0  0  0  0
 23 24  1  0  0  0  0
 23 25  1  0  0  0  0
 23 26  1  0  0  0  0
M  END
> <VConfSearch Rank>
440

> <Conf_Id>
106

> <Delta U+W>
0.767

> <U+W>
-4.785

> <U>
48.494

> <W>
-53.279

> <W(PB)>
-55.569

> <W(SA)>
2.290

> <Valence>
3.117

> <Coulomb>
44.693

> <VdW>
0.684

> <VdW6>
-7.347

> <VdW12>
8.030

> <Bond>
0.208

> <Angle>
1.039

> <Pdih>
1.870

> <Idih>
0.000

> <Tether>
0.000

$$$$
VeraChem MOL file


 26 25  0  0  0  0  0  0  0  0999 V2000     
   17.2264   21.7961   25.3476 C   0  0  0  0  0  0  0  0  0  0  0  0
   17.7884   21.8234   26.2902 H   0  0  0  0  0  0  0  0  0  0  0  0
   17.5207   22.6679   24.7487 H   0  0  0  0  0  0  0  0  0  0  0  0
   16.1601   21.8969   25.5879 H   0  0  0  0  0  0  0  0  0  0  0  0
   17.4907   20.4823   24.5819 C   0  0  0  0  0  0  0  0  0  0  0  0
   16.8899   20.4695   23.6617 H   0  0  0  0  0  0  0  0  0  0  0  0
   17.1554   19.6314   25.1914 H   0  0  0  0  0  0  0  0  0  0  0  0
   18.9858   20.3155   24.2310 C   0  0  0  0  0  0  0  0  0  0  0  0
   19.3170   21.1695   23.6239 H   0  0  0  0  0  0  0  0  0  0  0  0
   19.5825   20.3312   25.1536 H   0  0  0  0  0  0  0  0  0  0  0  0
   19.2545   19.0010   23.4640 C   0  0  0  0  0  0  0  0  0  0  0  0
   18.6573   18.9860   22.5417 H   0  0  0  0  0  0  0  0  0  0  0  0
   18.9226   18.1476   24.0716 H   0  0  0  0  0  0  0  0  0  0  0  0
   20.7504   18.8345   23.1133 C   0  0  0  0  0  0  0  0  0  0  0  0
   21.0828   19.6878   22.5057 H   0  0  0  0  0  0  0  0  0  0  0  0
   21.3481   18.8493   24.0355 H   0  0  0  0  0  0  0  0  0  0  0  0
   21.0197   17.5209   22.3467 C   0  0  0  0  0  0  0  0  0  0  0  0
   20.4283   17.5047   21.4214 H   0  0  0  0  0  0  0  0  0  0  0  0
   20.6936   16.6652   22.9529 H   0  0  0  0  0  0  0  0  0  0  0  0
   22.5116   17.3654   22.0029 C   0  0  0  0  0  0  0  0  0  0  0  0
   22.8368   18.2069   21.3853 H   0  0  0  0  0  0  0  0  0  0  0  0
   23.1031   17.3646   22.9224 H   0  0  0  0  0  0  0  0  0  0  0  0
   22.8168   16.0869   21.2494 N   0  3  0  0  0  0  0  0  0  0  0  0
   23.8156   16.0030   21.0304 H   0  0  0  0  0  0  0  0  0  0  0  0
   22.3111   16.0380   20.3589 H   0  0  0  0  0  0  0  0  0  0  0  0
   22.5589   15.2542   21.7891 H   0  0  0  0  0  0  0  0  0  0  0  0
  1  2  1  0  0  0  0
  1  3  1  0  0  0  0
  1  4  1  0  0  0  0
  1  5  1  0  0  0  0
  5  6  1  0  0  0  0
  5  7  1  0  0  0  0
  5  8  1  0  0  0  0
  8  9  1  0  0  0  0
  8 10  1  0  0  0  0
  8 11  1  0  0  0  0
 11 12  1  0  0  0  0
 11 13  1  0  0  0  0
 11 14  1  0  0  0  0
 14 15  1  0  0  0  0
 14 16  1  0  0  0  0
 14 17  1  0  0  0  0
 17 18  1  0  0  0  0
 17 19  1  0  0  0  0
 17 20  1  0  0  0  0
 20 21  1  0  0  0  0
 20 22  1  0  0  0  0
 20 23  1  0  0  0  0
 23 24  1  0  0  0  0
 23 25  1  0  0  0  0
 23 26  1  0  0  0  0
M  END
> <VConfSearch Rank>
441

> <Conf_Id>
25

> <Delta U+W>
0.000

> <U+W>
-5.552

> <U>
47.192

> <W>
-52.745

> <W(PB)>
-55.134

> <W(SA)>
2.389

> <Valence>
2.156

> <Coulomb>
44.449

> <VdW>
0.587

> <VdW6>
-5.761

> <VdW12>
6.348

> <Bond>
0.129

> <Angle>
0.393

> <Pdih>
1.634

> <Idih>
0.000

> <Tether>
0.000

$$$$
VeraChem MOL file


 26 25  0  0  0  0  0  0  0  0999 V2000     
   16.6968   19.1965   26.0139 C   0  0  0  0  0  0  0  0  0  0  0  0
   17.3015   19.4812   26.8849 H   0  0  0  0  0  0  0  0  0  0  0  0
   16.3253   20.1148   25.5407 H   0  0  0  0  0  0  0  0  0  0  0  0
   15.8296   18.6296   26.3766 H   0  0  0  0  0  0  0  0  0  0  0  0
   17.5212   18.3535   25.0180 C   0  0  0  0  0  0  0  0  0  0  0  0
   16.8813   18.0557   24.1755 H   0  0  0  0  0  0  0  0  0  0  0  0
   17.8499   17.4270   25.5093 H   0  0  0  0  0  0  0  0  0  0  0  0
   18.7493   19.1288   24.4916 C   0  0  0  0  0  0  0  0  0  0  0  0
   18.4158   20.0551   24.0035 H   0  0  0  0  0  0  0  0  0  0  0  0
   19.3846   19.4262   25.3374 H   0  0  0  0  0  0  0  0  0  0  0  0
   19.5773   18.2878   23.4938 C   0  0  0  0  0  0  0  0  0  0  0  0
   18.9413   17.9909   22.6483 H   0  0  0  0  0  0  0  0  0  0  0  0
   19.9092   17.3614   23.9827 H   0  0  0  0  0  0  0  0  0  0  0  0
   20.8061   19.0635   22.9679 C   0  0  0  0  0  0  0  0  0  0  0  0
   20.4690   19.9904   22.4849 H   0  0  0  0  0  0  0  0  0  0  0  0
   21.4436   19.3578   23.8133 H   0  0  0  0  0  0  0  0  0  0  0  0
   21.6330   18.2203   21.9686 C   0  0  0  0  0  0  0  0  0  0  0  0
   21.0138   17.9468   21.1039 H   0  0  0  0  0  0  0  0  0  0  0  0
   21.9340   17.2795   22.4485 H   0  0  0  0  0  0  0  0  0  0  0  0
   22.9019   18.9473   21.4832 C   0  0  0  0  0  0  0  0  0  0  0  0
   23.5178   19.2264   22.3424 H   0  0  0  0  0  0  0  0  0  0  0  0
   23.4857   18.2740   20.8496 H   0  0  0  0  0  0  0  0  0  0  0  0
   22.6174   20.2019   20.6808 N   0  3  0  0  0  0  0  0  0  0  0  0
   22.1011   20.8955   21.2307 H   0  0  0  0  0  0  0  0  0  0  0  0
   22.0590   20.0008   19.8448 H   0  0  0  0  0  0  0  0  0  0  0  0
   23.4813   20.6541   20.3622 H   0  0  0  0  0  0  0  0  0  0  0  0
  1  2  1  0  0  0  0
  1  3  1  0  0  0  0
  1  4  1  0  0  0  0
  1  5  1  0  0  0  0
  5  6  1  0  0  0  0
  5  7  1  0  0  0  0
  5  8  1  0  0  0  0
  8  9  1  0  0  0  0
  8 10  1  0  0  0  0
  8 11  1  0  0  0  0
 11 12  1  0  0  0  0
 11 13  1  0  0  0  0
 11 14  1  0  0  0  0
 14 15  1  0  0  0  0
 14 16  1  0  0  0  0
 14 17  1  0  0  0  0
 17 18  1  0  0  0  0
 17 19  1  0  0  0  0
 17 20  1  0  0  0  0
 20 21  1  0  0  0  0
 20 22  1  0  0  0  0
 20 23  1  0  0  0  0
 23 24  1  0  0  0  0
 23 25  1  0  0  0  0
 23 26  1  0  0  0  0
M  END
> <VConfSearch Rank>
442

> <Conf_Id>
20

> <Delta U+W>
0.150

> <U+W>
-5.403

> <U>
47.845

> <W>
-53.248

> <W(PB)>
-55.599

> <W(SA)>
2.351

> <Valence>
2.258

> <Coulomb>
44.893

> <VdW>
0.694

> <VdW6>
-6.285

> <VdW12>
6.979

> <Bond>
0.149

> <Angle>
0.434

> <Pdih>
1.675

> <Idih>
0.000

> <Tether>
0.000

$$$$
VeraChem MOL file


 26 25  0  0  0  0  0  0  0  0999 V2000     
   23.8354   20.8129   23.0871 C   0  0  0  0  0  0  0  0  0  0  0  0
   24.0454   20.5536   24.1330 H   0  0  0  0  0  0  0  0  0  0  0  0
   24.2890   20.0452   22.4468 H   0  0  0  0  0  0  0  0  0  0  0  0
   24.3312   21.7682   22.8707 H   0  0  0  0  0  0  0  0  0  0  0  0
   22.3162   20.9182   22.8359 C   0  0  0  0  0  0  0  0  0  0  0  0
   22.1389   21.2116   21.7917 H   0  0  0  0  0  0  0  0  0  0  0  0
   21.8971   21.7161   23.4649 H   0  0  0  0  0  0  0  0  0  0  0  0
   21.5935   19.5857   23.1332 C   0  0  0  0  0  0  0  0  0  0  0  0
   22.0173   18.7909   22.5037 H   0  0  0  0  0  0  0  0  0  0  0  0
   21.7757   19.2954   24.1772 H   0  0  0  0  0  0  0  0  0  0  0  0
   20.0719   19.6872   22.8827 C   0  0  0  0  0  0  0  0  0  0  0  0
   19.8910   19.9788   21.8388 H   0  0  0  0  0  0  0  0  0  0  0  0
   19.6487   20.4820   23.5127 H   0  0  0  0  0  0  0  0  0  0  0  0
   19.3492   18.3537   23.1795 C   0  0  0  0  0  0  0  0  0  0  0  0
   19.7705   17.5596   22.5473 H   0  0  0  0  0  0  0  0  0  0  0  0
   19.5374   18.0648   24.2221 H   0  0  0  0  0  0  0  0  0  0  0  0
   17.8261   18.4578   22.9291 C   0  0  0  0  0  0  0  0  0  0  0  0
   17.6489   18.7831   21.8953 H   0  0  0  0  0  0  0  0  0  0  0  0
   17.3894   19.2277   23.5791 H   0  0  0  0  0  0  0  0  0  0  0  0
   17.0934   17.1206   23.1515 C   0  0  0  0  0  0  0  0  0  0  0  0
   16.0405   17.2344   22.8794 H   0  0  0  0  0  0  0  0  0  0  0  0
   17.5300   16.3504   22.5100 H   0  0  0  0  0  0  0  0  0  0  0  0
   17.1470   16.6260   24.5838 N   0  3  0  0  0  0  0  0  0  0  0  0
   16.7294   17.2989   25.2348 H   0  0  0  0  0  0  0  0  0  0  0  0
   18.1100   16.4623   24.8932 H   0  0  0  0  0  0  0  0  0  0  0  0
   16.6398   15.7420   24.7004 H   0  0  0  0  0  0  0  0  0  0  0  0
  1  2  1  0  0  0  0
  1  3  1  0  0  0  0
  1  4  1  0  0  0  0
  1  5  1  0  0  0  0
  5  6  1  0  0  0  0
  5  7  1  0  0  0  0
  5  8  1  0  0  0  0
  8  9  1  0  0  0  0
  8 10  1  0  0  0  0
  8 11  1  0  0  0  0
 11 12  1  0  0  0  0
 11 13  1  0  0  0  0
 11 14  1  0  0  0  0
 14 15  1  0  0  0  0
 14 16  1  0  0  0  0
 14 17  1  0  0  0  0
 17 18  1  0  0  0  0
 17 19  1  0  0  0  0
 17 20  1  0  0  0  0
 20 21  1  0  0  0  0
 20 22  1  0  0  0  0
 20 23  1  0  0  0  0
 23 24  1  0  0  0  0
 23 25  1  0  0  0  0
 23 26  1  0  0  0  0
M  END
> <VConfSearch Rank>
443

> <Conf_Id>
19

> <Delta U+W>
0.162

> <U+W>
-5.391

> <U>
47.845

> <W>
-53.235

> <W(PB)>
-55.585

> <W(SA)>
2.349

> <Valence>
2.258

> <Coulomb>
44.893

> <VdW>
0.694

> <VdW6>
-6.285

> <VdW12>
6.979

> <Bond>
0.149

> <Angle>
0.434

> <Pdih>
1.675

> <Idih>
0.000

> <Tether>
0.000

$$$$
VeraChem MOL file


 26 25  0  0  0  0  0  0  0  0999 V2000     
   23.1179   20.0304   20.6767 C   0  0  0  0  0  0  0  0  0  0  0  0
   23.9509   20.5804   21.1336 H   0  0  0  0  0  0  0  0  0  0  0  0
   23.4578   19.0079   20.4661 H   0  0  0  0  0  0  0  0  0  0  0  0
   22.8823   20.5113   19.7184 H   0  0  0  0  0  0  0  0  0  0  0  0
   21.8824   20.0244   21.6018 C   0  0  0  0  0  0  0  0  0  0  0  0
   21.0605   19.5024   21.0942 H   0  0  0  0  0  0  0  0  0  0  0  0
   21.5485   21.0578   21.7700 H   0  0  0  0  0  0  0  0  0  0  0  0
   22.1893   19.3469   22.9583 C   0  0  0  0  0  0  0  0  0  0  0  0
   22.4722   18.2981   22.7931 H   0  0  0  0  0  0  0  0  0  0  0  0
   23.0644   19.8342   23.4102 H   0  0  0  0  0  0  0  0  0  0  0  0
   21.0154   19.4156   23.9658 C   0  0  0  0  0  0  0  0  0  0  0  0
   20.7434   20.4655   24.1421 H   0  0  0  0  0  0  0  0  0  0  0  0
   21.3625   19.0209   24.9307 H   0  0  0  0  0  0  0  0  0  0  0  0
   19.7661   18.6202   23.5160 C   0  0  0  0  0  0  0  0  0  0  0  0
   19.3597   19.0503   22.5912 H   0  0  0  0  0  0  0  0  0  0  0  0
   20.0524   17.5841   23.2880 H   0  0  0  0  0  0  0  0  0  0  0  0
   18.6644   18.6228   24.5987 C   0  0  0  0  0  0  0  0  0  0  0  0
   18.3747   19.6569   24.8286 H   0  0  0  0  0  0  0  0  0  0  0  0
   19.0554   18.1836   25.5262 H   0  0  0  0  0  0  0  0  0  0  0  0
   17.4248   17.8335   24.1424 C   0  0  0  0  0  0  0  0  0  0  0  0
   17.0216   18.2772   23.2281 H   0  0  0  0  0  0  0  0  0  0  0  0
   17.7056   16.7988   23.9279 H   0  0  0  0  0  0  0  0  0  0  0  0
   16.3198   17.8129   25.1788 N   0  3  0  0  0  0  0  0  0  0  0  0
   15.9907   18.7571   25.4055 H   0  0  0  0  0  0  0  0  0  0  0  0
   16.6271   17.3814   26.0566 H   0  0  0  0  0  0  0  0  0  0  0  0
   15.5037   17.2821   24.8550 H   0  0  0  0  0  0  0  0  0  0  0  0
  1  2  1  0  0  0  0
  1  3  1  0  0  0  0
  1  4  1  0  0  0  0
  1  5  1  0  0  0  0
  5  6  1  0  0  0  0
  5  7  1  0  0  0  0
  5  8  1  0  0  0  0
  8  9  1  0  0  0  0
  8 10  1  0  0  0  0
  8 11  1  0  0  0  0
 11 12  1  0  0  0  0
 11 13  1  0  0  0  0
 11 14  1  0  0  0  0
 14 15  1  0  0  0  0
 14 16  1  0  0  0  0
 14 17  1  0  0  0  0
 17 18  1  0  0  0  0
 17 19  1  0  0  0  0
 17 20  1  0  0  0  0
 20 21  1  0  0  0  0
 20 22  1  0  0  0  0
 20 23  1  0  0  0  0
 23 24  1  0  0  0  0
 23 25  1  0  0  0  0
 23 26  1  0  0  0  0
M  END
> <VConfSearch Rank>
444

> <Conf_Id>
37

> <Delta U+W>
0.565

> <U+W>
-4.988

> <U>
48.035

> <W>
-53.022

> <W(PB)>
-55.379

> <W(SA)>
2.357

> <Valence>
2.701

> <Coulomb>
44.622

> <VdW>
0.712

> <VdW6>
-6.418

> <VdW12>
7.129

> <Bond>
0.168

> <Angle>
0.659

> <Pdih>
1.875

> <Idih>
0.000

> <Tether>
0.000

$$$$
VeraChem MOL file


 26 25  0  0  0  0  0  0  0  0999 V2000     
   17.2323   21.8627   23.6677 C   0  0  0  0  0  0  0  0  0  0  0  0
   16.6280   21.1788   23.0574 H   0  0  0  0  0  0  0  0  0  0  0  0
   17.0184   21.6573   24.7247 H   0  0  0  0  0  0  0  0  0  0  0  0
   16.9041   22.8874   23.4505 H   0  0  0  0  0  0  0  0  0  0  0  0
   18.7363   21.6961   23.3635 C   0  0  0  0  0  0  0  0  0  0  0  0
   19.3108   22.4165   23.9626 H   0  0  0  0  0  0  0  0  0  0  0  0
   18.9241   21.9400   22.3085 H   0  0  0  0  0  0  0  0  0  0  0  0
   19.2250   20.2613   23.6618 C   0  0  0  0  0  0  0  0  0  0  0  0
   19.0369   20.0230   24.7177 H   0  0  0  0  0  0  0  0  0  0  0  0
   18.6373   19.5521   23.0645 H   0  0  0  0  0  0  0  0  0  0  0  0
   20.7321   20.0923   23.3531 C   0  0  0  0  0  0  0  0  0  0  0  0
   21.2971   20.8602   23.8996 H   0  0  0  0  0  0  0  0  0  0  0  0
   20.9150   20.2768   22.2855 H   0  0  0  0  0  0  0  0  0  0  0  0
   21.2924   18.7022   23.7427 C   0  0  0  0  0  0  0  0  0  0  0  0
   22.3818   18.7129   23.5984 H   0  0  0  0  0  0  0  0  0  0  0  0
   21.1254   18.5248   24.8143 H   0  0  0  0  0  0  0  0  0  0  0  0
   20.6891   17.5387   22.9213 C   0  0  0  0  0  0  0  0  0  0  0  0
   20.8113   17.7408   21.8488 H   0  0  0  0  0  0  0  0  0  0  0  0
   19.6122   17.4571   23.1153 H   0  0  0  0  0  0  0  0  0  0  0  0
   21.3630   16.1997   23.2689 C   0  0  0  0  0  0  0  0  0  0  0  0
   22.4348   16.2623   23.0619 H   0  0  0  0  0  0  0  0  0  0  0  0
   21.2301   15.9861   24.3330 H   0  0  0  0  0  0  0  0  0  0  0  0
   20.8028   15.0313   22.4837 N   0  3  0  0  0  0  0  0  0  0  0  0
   20.9214   15.1580   21.4732 H   0  0  0  0  0  0  0  0  0  0  0  0
   19.8007   14.9002   22.6561 H   0  0  0  0  0  0  0  0  0  0  0  0
   21.2659   14.1498   22.7303 H   0  0  0  0  0  0  0  0  0  0  0  0
  1  2  1  0  0  0  0
  1  3  1  0  0  0  0
  1  4  1  0  0  0  0
  1  5  1  0  0  0  0
  5  6  1  0  0  0  0
  5  7  1  0  0  0  0
  5  8  1  0  0  0  0
  8  9  1  0  0  0  0
  8 10  1  0  0  0  0
  8 11  1  0  0  0  0
 11 12  1  0  0  0  0
 11 13  1  0  0  0  0
 11 14  1  0  0  0  0
 14 15  1  0  0  0  0
 14 16  1  0  0  0  0
 14 17  1  0  0  0  0
 17 18  1  0  0  0  0
 17 19  1  0  0  0  0
 17 20  1  0  0  0  0
 20 21  1  0  0  0  0
 20 22  1  0  0  0  0
 20 23  1  0  0  0  0
 23 24  1  0  0  0  0
 23 25  1  0  0  0  0
 23 26  1  0  0  0  0
M  END
> <VConfSearch Rank>
445

> <Conf_Id>
35

> <Delta U+W>
0.587

> <U+W>
-4.965

> <U>
48.214

> <W>
-53.179

> <W(PB)>
-55.527

> <W(SA)>
2.348

> <Valence>
2.697

> <Coulomb>
44.819

> <VdW>
0.699

> <VdW6>
-6.437

> <VdW12>
7.136

> <Bond>
0.168

> <Angle>
0.657

> <Pdih>
1.872

> <Idih>
0.000

> <Tether>
0.000

$$$$
VeraChem MOL file


 26 25  0  0  0  0  0  0  0  0999 V2000     
   19.0940   22.6927   24.5395 C   0  0  0  0  0  0  0  0  0  0  0  0
   18.4309   22.3470   25.3433 H   0  0  0  0  0  0  0  0  0  0  0  0
   20.1258   22.6697   24.9137 H   0  0  0  0  0  0  0  0  0  0  0  0
   18.8391   23.7373   24.3182 H   0  0  0  0  0  0  0  0  0  0  0  0
   18.9412   21.8157   23.2786 C   0  0  0  0  0  0  0  0  0  0  0  0
   19.5910   22.2054   22.4824 H   0  0  0  0  0  0  0  0  0  0  0  0
   17.9088   21.8869   22.9085 H   0  0  0  0  0  0  0  0  0  0  0  0
   19.2935   20.3387   23.5628 C   0  0  0  0  0  0  0  0  0  0  0  0
   20.3229   20.2830   23.9401 H   0  0  0  0  0  0  0  0  0  0  0  0
   18.6401   19.9533   24.3576 H   0  0  0  0  0  0  0  0  0  0  0  0
   19.1445   19.4593   22.2980 C   0  0  0  0  0  0  0  0  0  0  0  0
   19.8366   19.8090   21.5195 H   0  0  0  0  0  0  0  0  0  0  0  0
   18.1321   19.5879   21.8906 H   0  0  0  0  0  0  0  0  0  0  0  0
   19.3785   17.9512   22.5607 C   0  0  0  0  0  0  0  0  0  0  0  0
   18.6747   17.5971   23.3267 H   0  0  0  0  0  0  0  0  0  0  0  0
   19.1393   17.3966   21.6426 H   0  0  0  0  0  0  0  0  0  0  0  0
   20.8266   17.6141   22.9873 C   0  0  0  0  0  0  0  0  0  0  0  0
   21.0593   18.0922   23.9471 H   0  0  0  0  0  0  0  0  0  0  0  0
   21.5327   18.0126   22.2466 H   0  0  0  0  0  0  0  0  0  0  0  0
   21.0310   16.0949   23.1225 C   0  0  0  0  0  0  0  0  0  0  0  0
   20.3411   15.6958   23.8709 H   0  0  0  0  0  0  0  0  0  0  0  0
   20.8202   15.6085   22.1662 H   0  0  0  0  0  0  0  0  0  0  0  0
   22.4392   15.7197   23.5371 N   0  3  0  0  0  0  0  0  0  0  0  0
   22.6909   16.1239   24.4451 H   0  0  0  0  0  0  0  0  0  0  0  0
   23.1364   16.0435   22.8587 H   0  0  0  0  0  0  0  0  0  0  0  0
   22.5536   14.7037   23.6207 H   0  0  0  0  0  0  0  0  0  0  0  0
  1  2  1  0  0  0  0
  1  3  1  0  0  0  0
  1  4  1  0  0  0  0
  1  5  1  0  0  0  0
  5  6  1  0  0  0  0
  5  7  1  0  0  0  0
  5  8  1  0  0  0  0
  8  9  1  0  0  0  0
  8 10  1  0  0  0  0
  8 11  1  0  0  0  0
 11 12  1  0  0  0  0
 11 13  1  0  0  0  0
 11 14  1  0  0  0  0
 14 15  1  0  0  0  0
 14 16  1  0  0  0  0
 14 17  1  0  0  0  0
 17 18  1  0  0  0  0
 17 19  1  0  0  0  0
 17 20  1  0  0  0  0
 20 21  1  0  0  0  0
 20 22  1  0  0  0  0
 20 23  1  0  0  0  0
 23 24  1  0  0  0  0
 23 25  1  0  0  0  0
 23 26  1  0  0  0  0
M  END
> <VConfSearch Rank>
446

> <Conf_Id>
36

> <Delta U+W>
0.565

> <U+W>
-4.987

> <U>
48.214

> <W>
-53.201

> <W(PB)>
-55.543

> <W(SA)>
2.342

> <Valence>
2.697

> <Coulomb>
44.819

> <VdW>
0.698

> <VdW6>
-6.437

> <VdW12>
7.136

> <Bond>
0.168

> <Angle>
0.657

> <Pdih>
1.872

> <Idih>
0.000

> <Tether>
0.000

$$$$
VeraChem MOL file


 26 25  0  0  0  0  0  0  0  0999 V2000     
   22.8253   17.8795   20.2115 C   0  0  0  0  0  0  0  0  0  0  0  0
   23.7805   17.9317   20.7502 H   0  0  0  0  0  0  0  0  0  0  0  0
   22.8868   17.0493   19.4960 H   0  0  0  0  0  0  0  0  0  0  0  0
   22.7039   18.8088   19.6398 H   0  0  0  0  0  0  0  0  0  0  0  0
   21.6484   17.6711   21.1881 C   0  0  0  0  0  0  0  0  0  0  0  0
   21.7805   16.7185   21.7201 H   0  0  0  0  0  0  0  0  0  0  0  0
   20.7122   17.5889   20.6183 H   0  0  0  0  0  0  0  0  0  0  0  0
   21.5391   18.8269   22.2072 C   0  0  0  0  0  0  0  0  0  0  0  0
   22.4783   18.9068   22.7720 H   0  0  0  0  0  0  0  0  0  0  0  0
   21.4092   19.7771   21.6707 H   0  0  0  0  0  0  0  0  0  0  0  0
   20.3618   18.6218   23.1871 C   0  0  0  0  0  0  0  0  0  0  0  0
   20.4944   17.6726   23.7247 H   0  0  0  0  0  0  0  0  0  0  0  0
   19.4280   18.5366   22.6156 H   0  0  0  0  0  0  0  0  0  0  0  0
   20.2542   19.7818   24.2058 C   0  0  0  0  0  0  0  0  0  0  0  0
   21.2110   19.8871   24.7358 H   0  0  0  0  0  0  0  0  0  0  0  0
   20.0882   20.7287   23.6735 H   0  0  0  0  0  0  0  0  0  0  0  0
   19.1306   19.5724   25.2481 C   0  0  0  0  0  0  0  0  0  0  0  0
   19.1722   20.3855   25.9851 H   0  0  0  0  0  0  0  0  0  0  0  0
   19.3077   18.6392   25.7993 H   0  0  0  0  0  0  0  0  0  0  0  0
   17.7279   19.5405   24.6129 C   0  0  0  0  0  0  0  0  0  0  0  0
   17.5509   20.4700   24.0650 H   0  0  0  0  0  0  0  0  0  0  0  0
   17.6589   18.7071   23.9090 H   0  0  0  0  0  0  0  0  0  0  0  0
   16.6189   19.3802   25.6326 N   0  3  0  0  0  0  0  0  0  0  0  0
   15.6937   19.3613   25.1897 H   0  0  0  0  0  0  0  0  0  0  0  0
   16.6093   20.1492   26.3107 H   0  0  0  0  0  0  0  0  0  0  0  0
   16.7125   18.5092   26.1653 H   0  0  0  0  0  0  0  0  0  0  0  0
  1  2  1  0  0  0  0
  1  3  1  0  0  0  0
  1  4  1  0  0  0  0
  1  5  1  0  0  0  0
  5  6  1  0  0  0  0
  5  7  1  0  0  0  0
  5  8  1  0  0  0  0
  8  9  1  0  0  0  0
  8 10  1  0  0  0  0
  8 11  1  0  0  0  0
 11 12  1  0  0  0  0
 11 13  1  0  0  0  0
 11 14  1  0  0  0  0
 14 15  1  0  0  0  0
 14 16  1  0  0  0  0
 14 17  1  0  0  0  0
 17 18  1  0  0  0  0
 17 19  1  0  0  0  0
 17 20  1  0  0  0  0
 20 21  1  0  0  0  0
 20 22  1  0  0  0  0
 20 23  1  0  0  0  0
 23 24  1  0  0  0  0
 23 25  1  0  0  0  0
 23 26  1  0  0  0  0
M  END
> <VConfSearch Rank>
447

> <Conf_Id>
44

> <Delta U+W>
0.371

> <U+W>
-5.181

> <U>
48.002

> <W>
-53.183

> <W(PB)>
-55.533

> <W(SA)>
2.350

> <Valence>
2.459

> <Coulomb>
44.901

> <VdW>
0.643

> <VdW6>
-6.362

> <VdW12>
7.005

> <Bond>
0.151

> <Angle>
0.519

> <Pdih>
1.789

> <Idih>
0.000

> <Tether>
0.000

$$$$
VeraChem MOL file


 26 25  0  0  0  0  0  0  0  0999 V2000     
   18.6125   16.6259   26.1640 C   0  0  0  0  0  0  0  0  0  0  0  0
   19.3104   17.0348   26.9062 H   0  0  0  0  0  0  0  0  0  0  0  0
   17.8554   16.0410   26.7022 H   0  0  0  0  0  0  0  0  0  0  0  0
   19.1646   15.9329   25.5173 H   0  0  0  0  0  0  0  0  0  0  0  0
   17.9431   17.7555   25.3485 C   0  0  0  0  0  0  0  0  0  0  0  0
   17.3012   18.3420   26.0207 H   0  0  0  0  0  0  0  0  0  0  0  0
   17.2772   17.3203   24.5904 H   0  0  0  0  0  0  0  0  0  0  0  0
   18.9543   18.7120   24.6708 C   0  0  0  0  0  0  0  0  0  0  0  0
   18.3905   19.5482   24.2385 H   0  0  0  0  0  0  0  0  0  0  0  0
   19.6163   19.1451   25.4332 H   0  0  0  0  0  0  0  0  0  0  0  0
   19.8025   18.0309   23.5665 C   0  0  0  0  0  0  0  0  0  0  0  0
   19.1410   17.6010   22.8019 H   0  0  0  0  0  0  0  0  0  0  0  0
   20.3584   17.1904   24.0016 H   0  0  0  0  0  0  0  0  0  0  0  0
   20.8247   18.9806   22.8940 C   0  0  0  0  0  0  0  0  0  0  0  0
   21.4770   19.4214   23.6606 H   0  0  0  0  0  0  0  0  0  0  0  0
   21.4745   18.3771   22.2465 H   0  0  0  0  0  0  0  0  0  0  0  0
   20.1691   20.1063   22.0549 C   0  0  0  0  0  0  0  0  0  0  0  0
   19.5546   20.7442   22.7018 H   0  0  0  0  0  0  0  0  0  0  0  0
   19.4930   19.6731   21.3059 H   0  0  0  0  0  0  0  0  0  0  0  0
   21.2062   21.0041   21.3525 C   0  0  0  0  0  0  0  0  0  0  0  0
   20.6920   21.8338   20.8599 H   0  0  0  0  0  0  0  0  0  0  0  0
   21.8939   21.4211   22.0931 H   0  0  0  0  0  0  0  0  0  0  0  0
   22.0267   20.2842   20.3001 N   0  3  0  0  0  0  0  0  0  0  0  0
   22.5679   19.5126   20.7021 H   0  0  0  0  0  0  0  0  0  0  0  0
   22.6955   20.9135   19.8428 H   0  0  0  0  0  0  0  0  0  0  0  0
   21.4358   19.8880   19.5619 H   0  0  0  0  0  0  0  0  0  0  0  0
  1  2  1  0  0  0  0
  1  3  1  0  0  0  0
  1  4  1  0  0  0  0
  1  5  1  0  0  0  0
  5  6  1  0  0  0  0
  5  7  1  0  0  0  0
  5  8  1  0  0  0  0
  8  9  1  0  0  0  0
  8 10  1  0  0  0  0
  8 11  1  0  0  0  0
 11 12  1  0  0  0  0
 11 13  1  0  0  0  0
 11 14  1  0  0  0  0
 14 15  1  0  0  0  0
 14 16  1  0  0  0  0
 14 17  1  0  0  0  0
 17 18  1  0  0  0  0
 17 19  1  0  0  0  0
 17 20  1  0  0  0  0
 20 21  1  0  0  0  0
 20 22  1  0  0  0  0
 20 23  1  0  0  0  0
 23 24  1  0  0  0  0
 23 25  1  0  0  0  0
 23 26  1  0  0  0  0
M  END
> <VConfSearch Rank>
448

> <Conf_Id>
112

> <Delta U+W>
1.422

> <U+W>
-4.130

> <U>
49.323

> <W>
-53.453

> <W(PB)>
-55.749

> <W(SA)>
2.296

> <Valence>
3.408

> <Coulomb>
44.893

> <VdW>
1.021

> <VdW6>
-7.481

> <VdW12>
8.503

> <Bond>
0.239

> <Angle>
1.013

> <Pdih>
2.156

> <Idih>
0.000

> <Tether>
0.000

$$$$
VeraChem MOL file


 26 25  0  0  0  0  0  0  0  0999 V2000     
   19.8828   21.8810   25.4513 C   0  0  0  0  0  0  0  0  0  0  0  0
   19.7497   22.8786   25.8895 H   0  0  0  0  0  0  0  0  0  0  0  0
   19.0088   21.2791   25.7295 H   0  0  0  0  0  0  0  0  0  0  0  0
   20.7721   21.4290   25.9095 H   0  0  0  0  0  0  0  0  0  0  0  0
   20.0380   21.9804   23.9168 C   0  0  0  0  0  0  0  0  0  0  0  0
   20.8508   22.6835   23.6872 H   0  0  0  0  0  0  0  0  0  0  0  0
   19.1262   22.4117   23.4804 H   0  0  0  0  0  0  0  0  0  0  0  0
   20.3497   20.6225   23.2427 C   0  0  0  0  0  0  0  0  0  0  0  0
   20.5428   20.7986   22.1756 H   0  0  0  0  0  0  0  0  0  0  0  0
   21.2791   20.2186   23.6650 H   0  0  0  0  0  0  0  0  0  0  0  0
   19.2041   19.5889   23.3872 C   0  0  0  0  0  0  0  0  0  0  0  0
   18.2592   20.0581   23.0803 H   0  0  0  0  0  0  0  0  0  0  0  0
   19.0818   19.3068   24.4413 H   0  0  0  0  0  0  0  0  0  0  0  0
   19.4146   18.3101   22.5396 C   0  0  0  0  0  0  0  0  0  0  0  0
   18.5050   17.6993   22.6110 H   0  0  0  0  0  0  0  0  0  0  0  0
   19.5203   18.5838   21.4806 H   0  0  0  0  0  0  0  0  0  0  0  0
   20.6366   17.4684   22.9854 C   0  0  0  0  0  0  0  0  0  0  0  0
   20.5494   17.2120   24.0495 H   0  0  0  0  0  0  0  0  0  0  0  0
   21.5542   18.0601   22.8785 H   0  0  0  0  0  0  0  0  0  0  0  0
   20.8037   16.1792   22.1579 C   0  0  0  0  0  0  0  0  0  0  0  0
   20.8721   16.4296   21.0959 H   0  0  0  0  0  0  0  0  0  0  0  0
   21.7309   15.6790   22.4505 H   0  0  0  0  0  0  0  0  0  0  0  0
   19.6716   15.1864   22.3360 N   0  3  0  0  0  0  0  0  0  0  0  0
   18.7719   15.5793   22.0427 H   0  0  0  0  0  0  0  0  0  0  0  0
   19.5711   14.8949   23.3137 H   0  0  0  0  0  0  0  0  0  0  0  0
   19.8215   14.3351   21.7836 H   0  0  0  0  0  0  0  0  0  0  0  0
  1  2  1  0  0  0  0
  1  3  1  0  0  0  0
  1  4  1  0  0  0  0
  1  5  1  0  0  0  0
  5  6  1  0  0  0  0
  5  7  1  0  0  0  0
  5  8  1  0  0  0  0
  8  9  1  0  0  0  0
  8 10  1  0  0  0  0
  8 11  1  0  0  0  0
 11 12  1  0  0  0  0
 11 13  1  0  0  0  0
 11 14  1  0  0  0  0
 14 15  1  0  0  0  0
 14 16  1  0  0  0  0
 14 17  1  0  0  0  0
 17 18  1  0  0  0  0
 17 19  1  0  0  0  0
 17 20  1  0  0  0  0
 20 21  1  0  0  0  0
 20 22  1  0  0  0  0
 20 23  1  0  0  0  0
 23 24  1  0  0  0  0
 23 25  1  0  0  0  0
 23 26  1  0  0  0  0
M  END
> <VConfSearch Rank>
449

> <Conf_Id>
130

> <Delta U+W>
1.282

> <U+W>
-4.270

> <U>
49.153

> <W>
-53.422

> <W(PB)>
-55.725

> <W(SA)>
2.303

> <Valence>
3.298

> <Coulomb>
44.907

> <VdW>
0.948

> <VdW6>
-7.574

> <VdW12>
8.522

> <Bond>
0.229

> <Angle>
0.912

> <Pdih>
2.157

> <Idih>
0.000

> <Tether>
0.000

$$$$
VeraChem MOL file


 26 25  0  0  0  0  0  0  0  0999 V2000     
   23.2249   19.4534   24.4129 C   0  0  0  0  0  0  0  0  0  0  0  0
   23.1581   19.8624   25.4294 H   0  0  0  0  0  0  0  0  0  0  0  0
   24.2801   19.4735   24.1111 H   0  0  0  0  0  0  0  0  0  0  0  0
   22.6753   20.1198   23.7366 H   0  0  0  0  0  0  0  0  0  0  0  0
   22.6733   18.0108   24.3575 C   0  0  0  0  0  0  0  0  0  0  0  0
   23.3269   17.3595   24.9544 H   0  0  0  0  0  0  0  0  0  0  0  0
   22.7313   17.6308   23.3289 H   0  0  0  0  0  0  0  0  0  0  0  0
   21.2255   17.8826   24.8965 C   0  0  0  0  0  0  0  0  0  0  0  0
   20.9212   16.8281   24.8456 H   0  0  0  0  0  0  0  0  0  0  0  0
   21.2212   18.1449   25.9634 H   0  0  0  0  0  0  0  0  0  0  0  0
   20.1647   18.7489   24.1690 C   0  0  0  0  0  0  0  0  0  0  0  0
   20.3980   19.8138   24.2999 H   0  0  0  0  0  0  0  0  0  0  0  0
   19.1995   18.5882   24.6668 H   0  0  0  0  0  0  0  0  0  0  0  0
   20.0289   18.4235   22.6598 C   0  0  0  0  0  0  0  0  0  0  0  0
   20.9854   18.6126   22.1555 H   0  0  0  0  0  0  0  0  0  0  0  0
   19.8121   17.3544   22.5285 H   0  0  0  0  0  0  0  0  0  0  0  0
   18.9372   19.2623   21.9543 C   0  0  0  0  0  0  0  0  0  0  0  0
   18.9717   19.0559   20.8763 H   0  0  0  0  0  0  0  0  0  0  0  0
   19.1565   20.3314   22.0768 H   0  0  0  0  0  0  0  0  0  0  0  0
   17.5203   18.9600   22.4774 C   0  0  0  0  0  0  0  0  0  0  0  0
   17.3030   17.8953   22.3565 H   0  0  0  0  0  0  0  0  0  0  0  0
   17.4570   19.2061   23.5404 H   0  0  0  0  0  0  0  0  0  0  0  0
   16.4426   19.7423   21.7551 N   0  3  0  0  0  0  0  0  0  0  0  0
   16.5747   20.7544   21.8526 H   0  0  0  0  0  0  0  0  0  0  0  0
   15.5075   19.5269   22.1177 H   0  0  0  0  0  0  0  0  0  0  0  0
   16.4282   19.5353   20.7510 H   0  0  0  0  0  0  0  0  0  0  0  0
  1  2  1  0  0  0  0
  1  3  1  0  0  0  0
  1  4  1  0  0  0  0
  1  5  1  0  0  0  0
  5  6  1  0  0  0  0
  5  7  1  0  0  0  0
  5  8  1  0  0  0  0
  8  9  1  0  0  0  0
  8 10  1  0  0  0  0
  8 11  1  0  0  0  0
 11 12  1  0  0  0  0
 11 13  1  0  0  0  0
 11 14  1  0  0  0  0
 14 15  1  0  0  0  0
 14 16  1  0  0  0  0
 14 17  1  0  0  0  0
 17 18  1  0  0  0  0
 17 19  1  0  0  0  0
 17 20  1  0  0  0  0
 20 21  1  0  0  0  0
 20 22  1  0  0  0  0
 20 23  1  0  0  0  0
 23 24  1  0  0  0  0
 23 25  1  0  0  0  0
 23 26  1  0  0  0  0
M  END
> <VConfSearch Rank>
450

> <Conf_Id>
111

> <Delta U+W>
1.290

> <U+W>
-4.262

> <U>
49.209

> <W>
-53.471

> <W(PB)>
-55.745

> <W(SA)>
2.274

> <Valence>
3.465

> <Coulomb>
44.958

> <VdW>
0.786

> <VdW6>
-7.903

> <VdW12>
8.689

> <Bond>
0.237

> <Angle>
1.212

> <Pdih>
2.015

> <Idih>
0.000

> <Tether>
0.000

$$$$
VeraChem MOL file


 26 25  0  0  0  0  0  0  0  0999 V2000     
   19.3939   18.8387   19.3248 C   0  0  0  0  0  0  0  0  0  0  0  0
   19.4207   19.9319   19.2271 H   0  0  0  0  0  0  0  0  0  0  0  0
   20.2023   18.4205   18.7111 H   0  0  0  0  0  0  0  0  0  0  0  0
   18.4402   18.4866   18.9107 H   0  0  0  0  0  0  0  0  0  0  0  0
   19.5385   18.4105   20.8006 C   0  0  0  0  0  0  0  0  0  0  0  0
   19.4784   17.3153   20.8695 H   0  0  0  0  0  0  0  0  0  0  0  0
   18.6918   18.8128   21.3724 H   0  0  0  0  0  0  0  0  0  0  0  0
   20.8746   18.8997   21.4078 C   0  0  0  0  0  0  0  0  0  0  0  0
   21.7025   18.5521   20.7745 H   0  0  0  0  0  0  0  0  0  0  0  0
   20.9110   19.9977   21.3868 H   0  0  0  0  0  0  0  0  0  0  0  0
   21.1194   18.3995   22.8527 C   0  0  0  0  0  0  0  0  0  0  0  0
   22.1337   18.6947   23.1552 H   0  0  0  0  0  0  0  0  0  0  0  0
   21.1002   17.3010   22.8693 H   0  0  0  0  0  0  0  0  0  0  0  0
   20.1054   18.9562   23.8809 C   0  0  0  0  0  0  0  0  0  0  0  0
   20.0878   20.0522   23.8145 H   0  0  0  0  0  0  0  0  0  0  0  0
   19.0942   18.6037   23.6388 H   0  0  0  0  0  0  0  0  0  0  0  0
   20.4579   18.5226   25.3235 C   0  0  0  0  0  0  0  0  0  0  0  0
   21.4523   18.8990   25.5980 H   0  0  0  0  0  0  0  0  0  0  0  0
   20.5137   17.4268   25.3701 H   0  0  0  0  0  0  0  0  0  0  0  0
   19.4228   19.0026   26.3592 C   0  0  0  0  0  0  0  0  0  0  0  0
   18.4304   18.6338   26.0861 H   0  0  0  0  0  0  0  0  0  0  0  0
   19.6785   18.5974   27.3421 H   0  0  0  0  0  0  0  0  0  0  0  0
   19.3448   20.5111   26.4900 N   0  3  0  0  0  0  0  0  0  0  0  0
   18.6569   20.7969   27.1953 H   0  0  0  0  0  0  0  0  0  0  0  0
   19.0721   20.9551   25.6078 H   0  0  0  0  0  0  0  0  0  0  0  0
   20.2446   20.9161   26.7682 H   0  0  0  0  0  0  0  0  0  0  0  0
  1  2  1  0  0  0  0
  1  3  1  0  0  0  0
  1  4  1  0  0  0  0
  1  5  1  0  0  0  0
  5  6  1  0  0  0  0
  5  7  1  0  0  0  0
  5  8  1  0  0  0  0
  8  9  1  0  0  0  0
  8 10  1  0  0  0  0
  8 11  1  0  0  0  0
 11 12  1  0  0  0  0
 11 13  1  0  0  0  0
 11 14  1  0  0  0  0
 14 15  1  0  0  0  0
 14 16  1  0  0  0  0
 14 17  1  0  0  0  0
 17 18  1  0  0  0  0
 17 19  1  0  0  0  0
 17 20  1  0  0  0  0
 20 21  1  0  0  0  0
 20 22  1  0  0  0  0
 20 23  1  0  0  0  0
 23 24  1  0  0  0  0
 23 25  1  0  0  0  0
 23 26  1  0  0  0  0
M  END
> <VConfSearch Rank>
451

> <Conf_Id>
105

> <Delta U+W>
0.736

> <U+W>
-4.817

> <U>
48.735

> <W>
-53.552

> <W(PB)>
-55.889

> <W(SA)>
2.337

> <Valence>
2.803

> <Coulomb>
45.123

> <VdW>
0.809

> <VdW6>
-6.953

> <VdW12>
7.761

> <Bond>
0.188

> <Angle>
0.699

> <Pdih>
1.917

> <Idih>
0.000

> <Tether>
0.000

$$$$
VeraChem MOL file


 26 25  0  0  0  0  0  0  0  0999 V2000     
   21.0704   15.7221   21.8107 C   0  0  0  0  0  0  0  0  0  0  0  0
   20.7187   15.4076   20.8194 H   0  0  0  0  0  0  0  0  0  0  0  0
   22.0653   16.1711   21.6940 H   0  0  0  0  0  0  0  0  0  0  0  0
   21.1770   14.8228   22.4310 H   0  0  0  0  0  0  0  0  0  0  0  0
   20.0854   16.7178   22.4592 C   0  0  0  0  0  0  0  0  0  0  0  0
   20.4499   16.9770   23.4621 H   0  0  0  0  0  0  0  0  0  0  0  0
   19.1086   16.2317   22.5903 H   0  0  0  0  0  0  0  0  0  0  0  0
   19.9217   17.9966   21.6046 C   0  0  0  0  0  0  0  0  0  0  0  0
   20.8898   18.5054   21.5076 H   0  0  0  0  0  0  0  0  0  0  0  0
   19.6309   17.7087   20.5849 H   0  0  0  0  0  0  0  0  0  0  0  0
   18.8562   18.9801   22.1546 C   0  0  0  0  0  0  0  0  0  0  0  0
   17.8726   18.4917   22.1217 H   0  0  0  0  0  0  0  0  0  0  0  0
   18.7863   19.8402   21.4744 H   0  0  0  0  0  0  0  0  0  0  0  0
   19.1054   19.4981   23.5950 C   0  0  0  0  0  0  0  0  0  0  0  0
   18.2762   20.1663   23.8623 H   0  0  0  0  0  0  0  0  0  0  0  0
   19.0610   18.6636   24.3073 H   0  0  0  0  0  0  0  0  0  0  0  0
   20.4478   20.2542   23.7579 C   0  0  0  0  0  0  0  0  0  0  0  0
   20.5062   21.0783   23.0346 H   0  0  0  0  0  0  0  0  0  0  0  0
   21.2830   19.5788   23.5341 H   0  0  0  0  0  0  0  0  0  0  0  0
   20.6510   20.8042   25.1829 C   0  0  0  0  0  0  0  0  0  0  0  0
   20.5742   19.9886   25.9069 H   0  0  0  0  0  0  0  0  0  0  0  0
   21.6510   21.2388   25.2639 H   0  0  0  0  0  0  0  0  0  0  0  0
   19.6525   21.8764   25.5732 N   0  3  0  0  0  0  0  0  0  0  0  0
   18.6904   21.5244   25.5554 H   0  0  0  0  0  0  0  0  0  0  0  0
   19.6924   22.6821   24.9406 H   0  0  0  0  0  0  0  0  0  0  0  0
   19.8250   22.2305   26.5204 H   0  0  0  0  0  0  0  0  0  0  0  0
  1  2  1  0  0  0  0
  1  3  1  0  0  0  0
  1  4  1  0  0  0  0
  1  5  1  0  0  0  0
  5  6  1  0  0  0  0
  5  7  1  0  0  0  0
  5  8  1  0  0  0  0
  8  9  1  0  0  0  0
  8 10  1  0  0  0  0
  8 11  1  0  0  0  0
 11 12  1  0  0  0  0
 11 13  1  0  0  0  0
 11 14  1  0  0  0  0
 14 15  1  0  0  0  0
 14 16  1  0  0  0  0
 14 17  1  0  0  0  0
 17 18  1  0  0  0  0
 17 19  1  0  0  0  0
 17 20  1  0  0  0  0
 20 21  1  0  0  0  0
 20 22  1  0  0  0  0
 20 23  1  0  0  0  0
 23 24  1  0  0  0  0
 23 25  1  0  0  0  0
 23 26  1  0  0  0  0
M  END
> <VConfSearch Rank>
452

> <Conf_Id>
144

> <Delta U+W>
1.073

> <U+W>
-4.479

> <U>
49.231

> <W>
-53.710

> <W(PB)>
-55.983

> <W(SA)>
2.273

> <Valence>
3.276

> <Coulomb>
45.175

> <VdW>
0.779

> <VdW6>
-7.944

> <VdW12>
8.723

> <Bond>
0.239

> <Angle>
1.155

> <Pdih>
1.883

> <Idih>
0.000

> <Tether>
0.000

$$$$
VeraChem MOL file


 26 25  0  0  0  0  0  0  0  0999 V2000     
   19.3639   15.2841   23.4889 C   0  0  0  0  0  0  0  0  0  0  0  0
   20.3846   15.1244   23.1207 H   0  0  0  0  0  0  0  0  0  0  0  0
   19.0762   14.3903   24.0575 H   0  0  0  0  0  0  0  0  0  0  0  0
   18.6934   15.3605   22.6231 H   0  0  0  0  0  0  0  0  0  0  0  0
   19.2681   16.5442   24.3792 C   0  0  0  0  0  0  0  0  0  0  0  0
   19.9719   16.4599   25.2190 H   0  0  0  0  0  0  0  0  0  0  0  0
   18.2636   16.5842   24.8233 H   0  0  0  0  0  0  0  0  0  0  0  0
   19.5218   17.8648   23.6122 C   0  0  0  0  0  0  0  0  0  0  0  0
   18.8300   17.9344   22.7615 H   0  0  0  0  0  0  0  0  0  0  0  0
   19.2789   18.6942   24.2881 H   0  0  0  0  0  0  0  0  0  0  0  0
   20.9821   18.0228   23.1203 C   0  0  0  0  0  0  0  0  0  0  0  0
   21.2661   17.1448   22.5268 H   0  0  0  0  0  0  0  0  0  0  0  0
   21.6578   18.0372   23.9865 H   0  0  0  0  0  0  0  0  0  0  0  0
   21.2349   19.2806   22.2487 C   0  0  0  0  0  0  0  0  0  0  0  0
   22.2871   19.2577   21.9327 H   0  0  0  0  0  0  0  0  0  0  0  0
   20.6458   19.2223   21.3228 H   0  0  0  0  0  0  0  0  0  0  0  0
   20.9747   20.6329   22.9590 C   0  0  0  0  0  0  0  0  0  0  0  0
   21.6285   21.3939   22.5125 H   0  0  0  0  0  0  0  0  0  0  0  0
   21.2571   20.5643   24.0179 H   0  0  0  0  0  0  0  0  0  0  0  0
   19.5174   21.1156   22.8216 C   0  0  0  0  0  0  0  0  0  0  0  0
   19.2686   21.2304   21.7632 H   0  0  0  0  0  0  0  0  0  0  0  0
   18.8328   20.3839   23.2543 H   0  0  0  0  0  0  0  0  0  0  0  0
   19.2676   22.4444   23.5052 N   0  3  0  0  0  0  0  0  0  0  0  0
   19.8584   23.1887   23.1204 H   0  0  0  0  0  0  0  0  0  0  0  0
   19.4577   22.3983   24.5116 H   0  0  0  0  0  0  0  0  0  0  0  0
   18.2944   22.7509   23.3986 H   0  0  0  0  0  0  0  0  0  0  0  0
  1  2  1  0  0  0  0
  1  3  1  0  0  0  0
  1  4  1  0  0  0  0
  1  5  1  0  0  0  0
  5  6  1  0  0  0  0
  5  7  1  0  0  0  0
  5  8  1  0  0  0  0
  8  9  1  0  0  0  0
  8 10  1  0  0  0  0
  8 11  1  0  0  0  0
 11 12  1  0  0  0  0
 11 13  1  0  0  0  0
 11 14  1  0  0  0  0
 14 15  1  0  0  0  0
 14 16  1  0  0  0  0
 14 17  1  0  0  0  0
 17 18  1  0  0  0  0
 17 19  1  0  0  0  0
 17 20  1  0  0  0  0
 20 21  1  0  0  0  0
 20 22  1  0  0  0  0
 20 23  1  0  0  0  0
 23 24  1  0  0  0  0
 23 25  1  0  0  0  0
 23 26  1  0  0  0  0
M  END
> <VConfSearch Rank>
453

> <Conf_Id>
93

> <Delta U+W>
3.253

> <U+W>
-2.300

> <U>
51.609

> <W>
-53.909

> <W(PB)>
-56.178

> <W(SA)>
2.270

> <Valence>
5.204

> <Coulomb>
45.645

> <VdW>
0.760

> <VdW6>
-7.997

> <VdW12>
8.758

> <Bond>
0.240

> <Angle>
1.456

> <Pdih>
3.507

> <Idih>
0.000

> <Tether>
0.000

$$$$
VeraChem MOL file


 26 25  0  0  0  0  0  0  0  0999 V2000     
   17.1413   19.8802   21.2590 C   0  0  0  0  0  0  0  0  0  0  0  0
   16.7780   18.8510   21.3668 H   0  0  0  0  0  0  0  0  0  0  0  0
   16.7594   20.4704   22.1021 H   0  0  0  0  0  0  0  0  0  0  0  0
   16.7035   20.2883   20.3388 H   0  0  0  0  0  0  0  0  0  0  0  0
   18.6847   19.9376   21.1941 C   0  0  0  0  0  0  0  0  0  0  0  0
   18.9876   20.9671   20.9569 H   0  0  0  0  0  0  0  0  0  0  0  0
   19.0450   19.3129   20.3648 H   0  0  0  0  0  0  0  0  0  0  0  0
   19.3760   19.5106   22.5118 C   0  0  0  0  0  0  0  0  0  0  0  0
   20.4457   19.7343   22.4141 H   0  0  0  0  0  0  0  0  0  0  0  0
   18.9971   20.1237   23.3409 H   0  0  0  0  0  0  0  0  0  0  0  0
   19.2007   18.0075   22.8425 C   0  0  0  0  0  0  0  0  0  0  0  0
   19.6595   17.4044   22.0470 H   0  0  0  0  0  0  0  0  0  0  0  0
   18.1332   17.7537   22.8403 H   0  0  0  0  0  0  0  0  0  0  0  0
   19.7824   17.5785   24.2148 C   0  0  0  0  0  0  0  0  0  0  0  0
   19.2520   18.0946   25.0271 H   0  0  0  0  0  0  0  0  0  0  0  0
   19.5617   16.5104   24.3480 H   0  0  0  0  0  0  0  0  0  0  0  0
   21.3114   17.7772   24.3691 C   0  0  0  0  0  0  0  0  0  0  0  0
   21.8159   17.5870   23.4124 H   0  0  0  0  0  0  0  0  0  0  0  0
   21.6921   17.0267   25.0747 H   0  0  0  0  0  0  0  0  0  0  0  0
   21.6871   19.1719   24.9070 C   0  0  0  0  0  0  0  0  0  0  0  0
   21.3246   19.9493   24.2320 H   0  0  0  0  0  0  0  0  0  0  0  0
   21.2207   19.3246   25.8840 H   0  0  0  0  0  0  0  0  0  0  0  0
   23.1815   19.3600   25.0700 N   0  3  0  0  0  0  0  0  0  0  0  0
   23.5832   18.6784   25.7221 H   0  0  0  0  0  0  0  0  0  0  0  0
   23.4110   20.2915   25.4333 H   0  0  0  0  0  0  0  0  0  0  0  0
   23.6793   19.2555   24.1799 H   0  0  0  0  0  0  0  0  0  0  0  0
  1  2  1  0  0  0  0
  1  3  1  0  0  0  0
  1  4  1  0  0  0  0
  1  5  1  0  0  0  0
  5  6  1  0  0  0  0
  5  7  1  0  0  0  0
  5  8  1  0  0  0  0
  8  9  1  0  0  0  0
  8 10  1  0  0  0  0
  8 11  1  0  0  0  0
 11 12  1  0  0  0  0
 11 13  1  0  0  0  0
 11 14  1  0  0  0  0
 14 15  1  0  0  0  0
 14 16  1  0  0  0  0
 14 17  1  0  0  0  0
 17 18  1  0  0  0  0
 17 19  1  0  0  0  0
 17 20  1  0  0  0  0
 20 21  1  0  0  0  0
 20 22  1  0  0  0  0
 20 23  1  0  0  0  0
 23 24  1  0  0  0  0
 23 25  1  0  0  0  0
 23 26  1  0  0  0  0
M  END
> <VConfSearch Rank>
454

> <Conf_Id>
94

> <Delta U+W>
3.247

> <U+W>
-2.305

> <U>
51.609

> <W>
-53.914

> <W(PB)>
-56.221

> <W(SA)>
2.307

> <Valence>
5.204

> <Coulomb>
45.645

> <VdW>
0.760

> <VdW6>
-7.997

> <VdW12>
8.757

> <Bond>
0.240

> <Angle>
1.456

> <Pdih>
3.508

> <Idih>
0.000

> <Tether>
0.000

$$$$
VeraChem MOL file


 26 25  0  0  0  0  0  0  0  0999 V2000     
   20.3745   22.7128   24.8750 C   0  0  0  0  0  0  0  0  0  0  0  0
   19.3717   22.8947   25.2831 H   0  0  0  0  0  0  0  0  0  0  0  0
   21.0151   22.3516   25.6902 H   0  0  0  0  0  0  0  0  0  0  0  0
   20.7775   23.6739   24.5303 H   0  0  0  0  0  0  0  0  0  0  0  0
   20.3254   21.6951   23.7156 C   0  0  0  0  0  0  0  0  0  0  0  0
   21.3364   21.5598   23.3064 H   0  0  0  0  0  0  0  0  0  0  0  0
   19.7057   22.0985   22.9025 H   0  0  0  0  0  0  0  0  0  0  0  0
   19.7614   20.3321   24.1742 C   0  0  0  0  0  0  0  0  0  0  0  0
   20.3827   19.9339   24.9883 H   0  0  0  0  0  0  0  0  0  0  0  0
   18.7520   20.4734   24.5849 H   0  0  0  0  0  0  0  0  0  0  0  0
   19.7102   19.3106   23.0158 C   0  0  0  0  0  0  0  0  0  0  0  0
   20.7206   19.1804   22.6057 H   0  0  0  0  0  0  0  0  0  0  0  0
   19.0857   19.7086   22.2040 H   0  0  0  0  0  0  0  0  0  0  0  0
   19.1468   17.9456   23.4786 C   0  0  0  0  0  0  0  0  0  0  0  0
   19.7817   17.5316   24.2733 H   0  0  0  0  0  0  0  0  0  0  0  0
   18.1563   18.0991   23.9288 H   0  0  0  0  0  0  0  0  0  0  0  0
   19.0096   16.9200   22.3254 C   0  0  0  0  0  0  0  0  0  0  0  0
   18.3038   17.3076   21.5786 H   0  0  0  0  0  0  0  0  0  0  0  0
   18.5655   15.9940   22.7142 H   0  0  0  0  0  0  0  0  0  0  0  0
   20.3399   16.5845   21.6211 C   0  0  0  0  0  0  0  0  0  0  0  0
   20.1518   15.8783   20.8078 H   0  0  0  0  0  0  0  0  0  0  0  0
   20.7693   17.4922   21.1892 H   0  0  0  0  0  0  0  0  0  0  0  0
   21.3750   15.9655   22.5394 N   0  3  0  0  0  0  0  0  0  0  0  0
   21.0397   15.0906   22.9553 H   0  0  0  0  0  0  0  0  0  0  0  0
   21.6192   16.5943   23.3108 H   0  0  0  0  0  0  0  0  0  0  0  0
   22.2446   15.7469   22.0412 H   0  0  0  0  0  0  0  0  0  0  0  0
  1  2  1  0  0  0  0
  1  3  1  0  0  0  0
  1  4  1  0  0  0  0
  1  5  1  0  0  0  0
  5  6  1  0  0  0  0
  5  7  1  0  0  0  0
  5  8  1  0  0  0  0
  8  9  1  0  0  0  0
  8 10  1  0  0  0  0
  8 11  1  0  0  0  0
 11 12  1  0  0  0  0
 11 13  1  0  0  0  0
 11 14  1  0  0  0  0
 14 15  1  0  0  0  0
 14 16  1  0  0  0  0
 14 17  1  0  0  0  0
 17 18  1  0  0  0  0
 17 19  1  0  0  0  0
 17 20  1  0  0  0  0
 20 21  1  0  0  0  0
 20 22  1  0  0  0  0
 20 23  1  0  0  0  0
 23 24  1  0  0  0  0
 23 25  1  0  0  0  0
 23 26  1  0  0  0  0
M  END
> <VConfSearch Rank>
455

> <Conf_Id>
83

> <Delta U+W>
0.559

> <U+W>
-4.994

> <U>
48.668

> <W>
-53.661

> <W(PB)>
-55.972

> <W(SA)>
2.311

> <Valence>
2.543

> <Coulomb>
45.478

> <VdW>
0.646

> <VdW6>
-7.096

> <VdW12>
7.742

> <Bond>
0.176

> <Angle>
0.630

> <Pdih>
1.738

> <Idih>
0.000

> <Tether>
0.000

$$$$
VeraChem MOL file


 26 25  0  0  0  0  0  0  0  0999 V2000     
   20.9879   21.7055   25.9617 C   0  0  0  0  0  0  0  0  0  0  0  0
   20.1904   22.3806   26.2985 H   0  0  0  0  0  0  0  0  0  0  0  0
   21.2123   21.0070   26.7784 H   0  0  0  0  0  0  0  0  0  0  0  0
   21.8858   22.3100   25.7788 H   0  0  0  0  0  0  0  0  0  0  0  0
   20.5712   20.9479   24.6831 C   0  0  0  0  0  0  0  0  0  0  0  0
   21.4075   20.3164   24.3555 H   0  0  0  0  0  0  0  0  0  0  0  0
   20.3820   21.6706   23.8771 H   0  0  0  0  0  0  0  0  0  0  0  0
   19.3090   20.0847   24.9180 C   0  0  0  0  0  0  0  0  0  0  0  0
   19.5161   19.3268   25.6860 H   0  0  0  0  0  0  0  0  0  0  0  0
   18.5111   20.7228   25.3225 H   0  0  0  0  0  0  0  0  0  0  0  0
   18.7816   19.3944   23.6361 C   0  0  0  0  0  0  0  0  0  0  0  0
   18.5610   20.1542   22.8736 H   0  0  0  0  0  0  0  0  0  0  0  0
   17.8249   18.9085   23.8726 H   0  0  0  0  0  0  0  0  0  0  0  0
   19.7536   18.3388   23.0562 C   0  0  0  0  0  0  0  0  0  0  0  0
   20.6875   18.8256   22.7493 H   0  0  0  0  0  0  0  0  0  0  0  0
   20.0125   17.6104   23.8371 H   0  0  0  0  0  0  0  0  0  0  0  0
   19.1373   17.5980   21.8457 C   0  0  0  0  0  0  0  0  0  0  0  0
   18.8996   18.3139   21.0476 H   0  0  0  0  0  0  0  0  0  0  0  0
   18.1870   17.1371   22.1463 H   0  0  0  0  0  0  0  0  0  0  0  0
   20.0586   16.4949   21.2900 C   0  0  0  0  0  0  0  0  0  0  0  0
   20.3036   15.7850   22.0846 H   0  0  0  0  0  0  0  0  0  0  0  0
   19.5367   15.9523   20.4971 H   0  0  0  0  0  0  0  0  0  0  0  0
   21.3577   17.0187   20.7097 N   0  3  0  0  0  0  0  0  0  0  0  0
   21.9180   17.5087   21.4139 H   0  0  0  0  0  0  0  0  0  0  0  0
   21.1933   17.6766   19.9408 H   0  0  0  0  0  0  0  0  0  0  0  0
   21.9403   16.2614   20.3364 H   0  0  0  0  0  0  0  0  0  0  0  0
  1  2  1  0  0  0  0
  1  3  1  0  0  0  0
  1  4  1  0  0  0  0
  1  5  1  0  0  0  0
  5  6  1  0  0  0  0
  5  7  1  0  0  0  0
  5  8  1  0  0  0  0
  8  9  1  0  0  0  0
  8 10  1  0  0  0  0
  8 11  1  0  0  0  0
 11 12  1  0  0  0  0
 11 13  1  0  0  0  0
 11 14  1  0  0  0  0
 14 15  1  0  0  0  0
 14 16  1  0  0  0  0
 14 17  1  0  0  0  0
 17 18  1  0  0  0  0
 17 19  1  0  0  0  0
 17 20  1  0  0  0  0
 20 21  1  0  0  0  0
 20 22  1  0  0  0  0
 20 23  1  0  0  0  0
 23 24  1  0  0  0  0
 23 25  1  0  0  0  0
 23 26  1  0  0  0  0
M  END
> <VConfSearch Rank>
456

> <Conf_Id>
18

> <Delta U+W>
0.759

> <U+W>
-4.793

> <U>
48.945

> <W>
-53.738

> <W(PB)>
-56.051

> <W(SA)>
2.313

> <Valence>
2.802

> <Coulomb>
45.335

> <VdW>
0.807

> <VdW6>
-6.962

> <VdW12>
7.769

> <Bond>
0.189

> <Angle>
0.696

> <Pdih>
1.917

> <Idih>
0.000

> <Tether>
0.000

$$$$
VeraChem MOL file


 26 25  0  0  0  0  0  0  0  0999 V2000     
   23.6139   18.9766   21.8674 C   0  0  0  0  0  0  0  0  0  0  0  0
   24.0741   19.4305   22.7547 H   0  0  0  0  0  0  0  0  0  0  0  0
   24.1155   18.0194   21.6738 H   0  0  0  0  0  0  0  0  0  0  0  0
   23.8072   19.6370   21.0121 H   0  0  0  0  0  0  0  0  0  0  0  0
   22.0968   18.7775   22.0703 C   0  0  0  0  0  0  0  0  0  0  0  0
   21.6604   18.3497   21.1569 H   0  0  0  0  0  0  0  0  0  0  0  0
   21.6264   19.7583   22.2195 H   0  0  0  0  0  0  0  0  0  0  0  0
   21.7993   17.8527   23.2743 C   0  0  0  0  0  0  0  0  0  0  0  0
   22.3459   16.9087   23.1421 H   0  0  0  0  0  0  0  0  0  0  0  0
   22.1886   18.3074   24.1957 H   0  0  0  0  0  0  0  0  0  0  0  0
   20.2956   17.5275   23.4508 C   0  0  0  0  0  0  0  0  0  0  0  0
   20.1945   16.7762   24.2462 H   0  0  0  0  0  0  0  0  0  0  0  0
   19.9106   17.0596   22.5342 H   0  0  0  0  0  0  0  0  0  0  0  0
   19.4329   18.7613   23.8099 C   0  0  0  0  0  0  0  0  0  0  0  0
   19.8521   19.2565   24.6967 H   0  0  0  0  0  0  0  0  0  0  0  0
   19.4688   19.4887   22.9895 H   0  0  0  0  0  0  0  0  0  0  0  0
   17.9620   18.3695   24.0866 C   0  0  0  0  0  0  0  0  0  0  0  0
   17.9297   17.6184   24.8871 H   0  0  0  0  0  0  0  0  0  0  0  0
   17.5244   17.8979   23.1966 H   0  0  0  0  0  0  0  0  0  0  0  0
   17.0952   19.5706   24.5115 C   0  0  0  0  0  0  0  0  0  0  0  0
   16.0940   19.2194   24.7759 H   0  0  0  0  0  0  0  0  0  0  0  0
   17.5329   20.0471   25.3927 H   0  0  0  0  0  0  0  0  0  0  0  0
   16.9419   20.6254   23.4332 N   0  3  0  0  0  0  0  0  0  0  0  0
   16.5139   20.2423   22.5840 H   0  0  0  0  0  0  0  0  0  0  0  0
   17.8452   21.0267   23.1633 H   0  0  0  0  0  0  0  0  0  0  0  0
   16.3486   21.4027   23.7430 H   0  0  0  0  0  0  0  0  0  0  0  0
  1  2  1  0  0  0  0
  1  3  1  0  0  0  0
  1  4  1  0  0  0  0
  1  5  1  0  0  0  0
  5  6  1  0  0  0  0
  5  7  1  0  0  0  0
  5  8  1  0  0  0  0
  8  9  1  0  0  0  0
  8 10  1  0  0  0  0
  8 11  1  0  0  0  0
 11 12  1  0  0  0  0
 11 13  1  0  0  0  0
 11 14  1  0  0  0  0
 14 15  1  0  0  0  0
 14 16  1  0  0  0  0
 14 17  1  0  0  0  0
 17 18  1  0  0  0  0
 17 19  1  0  0  0  0
 17 20  1  0  0  0  0
 20 21  1  0  0  0  0
 20 22  1  0  0  0  0
 20 23  1  0  0  0  0
 23 24  1  0  0  0  0
 23 25  1  0  0  0  0
 23 26  1  0  0  0  0
M  END
> <VConfSearch Rank>
457

> <Conf_Id>
17

> <Delta U+W>
0.843

> <U+W>
-4.709

> <U>
48.945

> <W>
-53.653

> <W(PB)>
-55.991

> <W(SA)>
2.338

> <Valence>
2.802

> <Coulomb>
45.335

> <VdW>
0.807

> <VdW6>
-6.962

> <VdW12>
7.769

> <Bond>
0.189

> <Angle>
0.696

> <Pdih>
1.917

> <Idih>
0.000

> <Tether>
0.000

$$$$
VeraChem MOL file


 26 25  0  0  0  0  0  0  0  0999 V2000     
   18.4584   17.6141   26.1767 C   0  0  0  0  0  0  0  0  0  0  0  0
   17.8680   18.0727   25.3738 H   0  0  0  0  0  0  0  0  0  0  0  0
   18.6635   16.5715   25.9012 H   0  0  0  0  0  0  0  0  0  0  0  0
   17.8353   17.6061   27.0804 H   0  0  0  0  0  0  0  0  0  0  0  0
   19.7704   18.3902   26.4316 C   0  0  0  0  0  0  0  0  0  0  0  0
   20.2629   17.9704   27.3199 H   0  0  0  0  0  0  0  0  0  0  0  0
   19.5396   19.4369   26.6742 H   0  0  0  0  0  0  0  0  0  0  0  0
   20.7600   18.3343   25.2427 C   0  0  0  0  0  0  0  0  0  0  0  0
   21.7009   18.8110   25.5503 H   0  0  0  0  0  0  0  0  0  0  0  0
   21.0036   17.2869   25.0172 H   0  0  0  0  0  0  0  0  0  0  0  0
   20.2320   19.0335   23.9671 C   0  0  0  0  0  0  0  0  0  0  0  0
   19.9436   20.0659   24.2084 H   0  0  0  0  0  0  0  0  0  0  0  0
   19.3270   18.5221   23.6160 H   0  0  0  0  0  0  0  0  0  0  0  0
   21.2922   19.0435   22.8397 C   0  0  0  0  0  0  0  0  0  0  0  0
   22.2106   19.5188   23.2111 H   0  0  0  0  0  0  0  0  0  0  0  0
   21.5616   18.0115   22.5752 H   0  0  0  0  0  0  0  0  0  0  0  0
   20.8236   19.7955   21.5717 C   0  0  0  0  0  0  0  0  0  0  0  0
   21.6550   19.8386   20.8555 H   0  0  0  0  0  0  0  0  0  0  0  0
   20.5760   20.8340   21.8288 H   0  0  0  0  0  0  0  0  0  0  0  0
   19.6120   19.1262   20.8960 C   0  0  0  0  0  0  0  0  0  0  0  0
   19.8586   18.0924   20.6393 H   0  0  0  0  0  0  0  0  0  0  0  0
   18.7625   19.1174   21.5836 H   0  0  0  0  0  0  0  0  0  0  0  0
   19.1760   19.8317   19.6281 N   0  3  0  0  0  0  0  0  0  0  0  0
   18.3689   19.3709   19.1938 H   0  0  0  0  0  0  0  0  0  0  0  0
   19.9223   19.8505   18.9254 H   0  0  0  0  0  0  0  0  0  0  0  0
   18.9044   20.8042   19.8060 H   0  0  0  0  0  0  0  0  0  0  0  0
  1  2  1  0  0  0  0
  1  3  1  0  0  0  0
  1  4  1  0  0  0  0
  1  5  1  0  0  0  0
  5  6  1  0  0  0  0
  5  7  1  0  0  0  0
  5  8  1  0  0  0  0
  8  9  1  0  0  0  0
  8 10  1  0  0  0  0
  8 11  1  0  0  0  0
 11 12  1  0  0  0  0
 11 13  1  0  0  0  0
 11 14  1  0  0  0  0
 14 15  1  0  0  0  0
 14 16  1  0  0  0  0
 14 17  1  0  0  0  0
 17 18  1  0  0  0  0
 17 19  1  0  0  0  0
 17 20  1  0  0  0  0
 20 21  1  0  0  0  0
 20 22  1  0  0  0  0
 20 23  1  0  0  0  0
 23 24  1  0  0  0  0
 23 25  1  0  0  0  0
 23 26  1  0  0  0  0
M  END
> <VConfSearch Rank>
458

> <Conf_Id>
96

> <Delta U+W>
0.912

> <U+W>
-4.640

> <U>
48.723

> <W>
-53.364

> <W(PB)>
-55.683

> <W(SA)>
2.320

> <Valence>
2.962

> <Coulomb>
44.993

> <VdW>
0.768

> <VdW6>
-7.008

> <VdW12>
7.776

> <Bond>
0.188

> <Angle>
0.757

> <Pdih>
2.018

> <Idih>
0.000

> <Tether>
0.000

$$$$
VeraChem MOL file


 26 25  0  0  0  0  0  0  0  0999 V2000     
   20.5957   16.0371   21.5796 C   0  0  0  0  0  0  0  0  0  0  0  0
   20.3988   15.2402   20.8509 H   0  0  0  0  0  0  0  0  0  0  0  0
   21.3116   15.6493   22.3158 H   0  0  0  0  0  0  0  0  0  0  0  0
   19.6521   16.2512   22.0965 H   0  0  0  0  0  0  0  0  0  0  0  0
   21.1527   17.2925   20.8705 C   0  0  0  0  0  0  0  0  0  0  0  0
   20.4060   17.6791   20.1629 H   0  0  0  0  0  0  0  0  0  0  0  0
   22.0246   17.0010   20.2684 H   0  0  0  0  0  0  0  0  0  0  0  0
   21.5776   18.4146   21.8483 C   0  0  0  0  0  0  0  0  0  0  0  0
   22.3387   18.0290   22.5406 H   0  0  0  0  0  0  0  0  0  0  0  0
   22.0617   19.2144   21.2711 H   0  0  0  0  0  0  0  0  0  0  0  0
   20.3974   19.0131   22.6509 C   0  0  0  0  0  0  0  0  0  0  0  0
   19.9488   18.2342   23.2800 H   0  0  0  0  0  0  0  0  0  0  0  0
   19.6172   19.3528   21.9559 H   0  0  0  0  0  0  0  0  0  0  0  0
   20.8510   20.1979   23.5374 C   0  0  0  0  0  0  0  0  0  0  0  0
   21.6105   19.8552   24.2538 H   0  0  0  0  0  0  0  0  0  0  0  0
   21.3376   20.9554   22.9074 H   0  0  0  0  0  0  0  0  0  0  0  0
   19.6842   20.8657   24.3025 C   0  0  0  0  0  0  0  0  0  0  0  0
   18.9346   21.2301   23.5875 H   0  0  0  0  0  0  0  0  0  0  0  0
   20.0657   21.7472   24.8348 H   0  0  0  0  0  0  0  0  0  0  0  0
   19.0158   19.9170   25.3152 C   0  0  0  0  0  0  0  0  0  0  0  0
   18.5918   19.0560   24.7922 H   0  0  0  0  0  0  0  0  0  0  0  0
   19.7619   19.5545   26.0275 H   0  0  0  0  0  0  0  0  0  0  0  0
   17.9016   20.5781   26.1006 N   0  3  0  0  0  0  0  0  0  0  0  0
   17.1527   20.9185   25.4887 H   0  0  0  0  0  0  0  0  0  0  0  0
   18.2393   21.3819   26.6400 H   0  0  0  0  0  0  0  0  0  0  0  0
   17.4701   19.9303   26.7689 H   0  0  0  0  0  0  0  0  0  0  0  0
  1  2  1  0  0  0  0
  1  3  1  0  0  0  0
  1  4  1  0  0  0  0
  1  5  1  0  0  0  0
  5  6  1  0  0  0  0
  5  7  1  0  0  0  0
  5  8  1  0  0  0  0
  8  9  1  0  0  0  0
  8 10  1  0  0  0  0
  8 11  1  0  0  0  0
 11 12  1  0  0  0  0
 11 13  1  0  0  0  0
 11 14  1  0  0  0  0
 14 15  1  0  0  0  0
 14 16  1  0  0  0  0
 14 17  1  0  0  0  0
 17 18  1  0  0  0  0
 17 19  1  0  0  0  0
 17 20  1  0  0  0  0
 20 21  1  0  0  0  0
 20 22  1  0  0  0  0
 20 23  1  0  0  0  0
 23 24  1  0  0  0  0
 23 25  1  0  0  0  0
 23 26  1  0  0  0  0
M  END
> <VConfSearch Rank>
459

> <Conf_Id>
133

> <Delta U+W>
0.844

> <U+W>
-4.708

> <U>
48.723

> <W>
-53.431

> <W(PB)>
-55.776

> <W(SA)>
2.344

> <Valence>
2.962

> <Coulomb>
44.993

> <VdW>
0.768

> <VdW6>
-7.008

> <VdW12>
7.776

> <Bond>
0.188

> <Angle>
0.756

> <Pdih>
2.018

> <Idih>
0.000

> <Tether>
0.000

$$$$
VeraChem MOL file


 26 25  0  0  0  0  0  0  0  0999 V2000     
   20.5838   15.7047   24.1331 C   0  0  0  0  0  0  0  0  0  0  0  0
   21.0235   15.0630   23.3586 H   0  0  0  0  0  0  0  0  0  0  0  0
   21.2338   16.5784   24.2664 H   0  0  0  0  0  0  0  0  0  0  0  0
   20.5870   15.1434   25.0764 H   0  0  0  0  0  0  0  0  0  0  0  0
   19.1444   16.1225   23.7566 C   0  0  0  0  0  0  0  0  0  0  0  0
   18.7332   16.7789   24.5350 H   0  0  0  0  0  0  0  0  0  0  0  0
   18.5064   15.2276   23.7513 H   0  0  0  0  0  0  0  0  0  0  0  0
   19.0440   16.8074   22.3696 C   0  0  0  0  0  0  0  0  0  0  0  0
   19.3445   16.0873   21.5961 H   0  0  0  0  0  0  0  0  0  0  0  0
   17.9902   17.0432   22.1671 H   0  0  0  0  0  0  0  0  0  0  0  0
   19.8896   18.0964   22.2038 C   0  0  0  0  0  0  0  0  0  0  0  0
   19.7487   18.4720   21.1809 H   0  0  0  0  0  0  0  0  0  0  0  0
   20.9577   17.8575   22.2927 H   0  0  0  0  0  0  0  0  0  0  0  0
   19.5172   19.2144   23.2069 C   0  0  0  0  0  0  0  0  0  0  0  0
   18.4392   19.4187   23.1461 H   0  0  0  0  0  0  0  0  0  0  0  0
   19.7220   18.8801   24.2326 H   0  0  0  0  0  0  0  0  0  0  0  0
   20.3043   20.5151   22.9346 C   0  0  0  0  0  0  0  0  0  0  0  0
   20.0987   20.8659   21.9144 H   0  0  0  0  0  0  0  0  0  0  0  0
   21.3823   20.3144   22.9956 H   0  0  0  0  0  0  0  0  0  0  0  0
   19.9317   21.6193   23.9396 C   0  0  0  0  0  0  0  0  0  0  0  0
   18.8617   21.8338   23.8709 H   0  0  0  0  0  0  0  0  0  0  0  0
   20.1503   21.2811   24.9561 H   0  0  0  0  0  0  0  0  0  0  0  0
   20.6839   22.9134   23.7054 N   0  3  0  0  0  0  0  0  0  0  0  0
   20.4210   23.6353   24.3853 H   0  0  0  0  0  0  0  0  0  0  0  0
   20.4992   23.2996   22.7738 H   0  0  0  0  0  0  0  0  0  0  0  0
   21.6982   22.7854   23.7834 H   0  0  0  0  0  0  0  0  0  0  0  0
  1  2  1  0  0  0  0
  1  3  1  0  0  0  0
  1  4  1  0  0  0  0
  1  5  1  0  0  0  0
  5  6  1  0  0  0  0
  5  7  1  0  0  0  0
  5  8  1  0  0  0  0
  8  9  1  0  0  0  0
  8 10  1  0  0  0  0
  8 11  1  0  0  0  0
 11 12  1  0  0  0  0
 11 13  1  0  0  0  0
 11 14  1  0  0  0  0
 14 15  1  0  0  0  0
 14 16  1  0  0  0  0
 14 17  1  0  0  0  0
 17 18  1  0  0  0  0
 17 19  1  0  0  0  0
 17 20  1  0  0  0  0
 20 21  1  0  0  0  0
 20 22  1  0  0  0  0
 20 23  1  0  0  0  0
 23 24  1  0  0  0  0
 23 25  1  0  0  0  0
 23 26  1  0  0  0  0
M  END
> <VConfSearch Rank>
460

> <Conf_Id>
106

> <Delta U+W>
0.767

> <U+W>
-4.785

> <U>
48.494

> <W>
-53.279

> <W(PB)>
-55.569

> <W(SA)>
2.290

> <Valence>
3.117

> <Coulomb>
44.693

> <VdW>
0.684

> <VdW6>
-7.347

> <VdW12>
8.030

> <Bond>
0.208

> <Angle>
1.039

> <Pdih>
1.870

> <Idih>
0.000

> <Tether>
0.000

$$$$
VeraChem MOL file


 26 25  0  0  0  0  0  0  0  0999 V2000     
   16.5841   20.6345   25.6489 C   0  0  0  0  0  0  0  0  0  0  0  0
   16.5337   21.5754   25.0855 H   0  0  0  0  0  0  0  0  0  0  0  0
   15.8294   19.9502   25.2398 H   0  0  0  0  0  0  0  0  0  0  0  0
   16.3136   20.8506   26.6906 H   0  0  0  0  0  0  0  0  0  0  0  0
   17.9956   20.0153   25.5696 C   0  0  0  0  0  0  0  0  0  0  0  0
   18.0241   19.0948   26.1695 H   0  0  0  0  0  0  0  0  0  0  0  0
   18.7230   20.7075   26.0165 H   0  0  0  0  0  0  0  0  0  0  0  0
   18.4016   19.7012   24.1126 C   0  0  0  0  0  0  0  0  0  0  0  0
   17.6703   19.0110   23.6695 H   0  0  0  0  0  0  0  0  0  0  0  0
   18.3694   20.6238   23.5166 H   0  0  0  0  0  0  0  0  0  0  0  0
   19.8145   19.0808   24.0291 C   0  0  0  0  0  0  0  0  0  0  0  0
   19.8458   18.1584   24.6256 H   0  0  0  0  0  0  0  0  0  0  0  0
   20.5450   19.7714   24.4729 H   0  0  0  0  0  0  0  0  0  0  0  0
   20.2202   18.7669   22.5712 C   0  0  0  0  0  0  0  0  0  0  0  0
   19.4899   18.0762   22.1270 H   0  0  0  0  0  0  0  0  0  0  0  0
   20.1892   19.6891   21.9743 H   0  0  0  0  0  0  0  0  0  0  0  0
   21.6323   18.1467   22.4870 C   0  0  0  0  0  0  0  0  0  0  0  0
   21.6659   17.2216   23.0780 H   0  0  0  0  0  0  0  0  0  0  0  0
   22.3660   18.8363   22.9254 H   0  0  0  0  0  0  0  0  0  0  0  0
   22.0260   17.8385   21.0316 C   0  0  0  0  0  0  0  0  0  0  0  0
   21.3072   17.1390   20.5961 H   0  0  0  0  0  0  0  0  0  0  0  0
   22.0097   18.7597   20.4429 H   0  0  0  0  0  0  0  0  0  0  0  0
   23.4070   17.2281   20.9069 N   0  3  0  0  0  0  0  0  0  0  0  0
   23.6494   17.0306   19.9298 H   0  0  0  0  0  0  0  0  0  0  0  0
   23.4808   16.3419   21.4174 H   0  0  0  0  0  0  0  0  0  0  0  0
   24.1345   17.8499   21.2748 H   0  0  0  0  0  0  0  0  0  0  0  0
  1  2  1  0  0  0  0
  1  3  1  0  0  0  0
  1  4  1  0  0  0  0
  1  5  1  0  0  0  0
  5  6  1  0  0  0  0
  5  7  1  0  0  0  0
  5  8  1  0  0  0  0
  8  9  1  0  0  0  0
  8 10  1  0  0  0  0
  8 11  1  0  0  0  0
 11 12  1  0  0  0  0
 11 13  1  0  0  0  0
 11 14  1  0  0  0  0
 14 15  1  0  0  0  0
 14 16  1  0  0  0  0
 14 17  1  0  0  0  0
 17 18  1  0  0  0  0
 17 19  1  0  0  0  0
 17 20  1  0  0  0  0
 20 21  1  0  0  0  0
 20 22  1  0  0  0  0
 20 23  1  0  0  0  0
 23 24  1  0  0  0  0
 23 25  1  0  0  0  0
 23 26  1  0  0  0  0
M  END
> <VConfSearch Rank>
461

> <Conf_Id>
25

> <Delta U+W>
0.000

> <U+W>
-5.552

> <U>
47.192

> <W>
-52.745

> <W(PB)>
-55.134

> <W(SA)>
2.389

> <Valence>
2.156

> <Coulomb>
44.449

> <VdW>
0.587

> <VdW6>
-5.761

> <VdW12>
6.348

> <Bond>
0.129

> <Angle>
0.393

> <Pdih>
1.634

> <Idih>
0.000

> <Tether>
0.000

$$$$
VeraChem MOL file


 26 25  0  0  0  0  0  0  0  0999 V2000     
   17.3114   15.8684   22.0120 C   0  0  0  0  0  0  0  0  0  0  0  0
   16.4364   16.5266   21.9314 H   0  0  0  0  0  0  0  0  0  0  0  0
   17.7865   15.8087   21.0241 H   0  0  0  0  0  0  0  0  0  0  0  0
   16.9546   14.8643   22.2755 H   0  0  0  0  0  0  0  0  0  0  0  0
   18.3025   16.3907   23.0736 C   0  0  0  0  0  0  0  0  0  0  0  0
   19.1492   15.6948   23.1554 H   0  0  0  0  0  0  0  0  0  0  0  0
   17.8095   16.4071   24.0557 H   0  0  0  0  0  0  0  0  0  0  0  0
   18.8206   17.8040   22.7264 C   0  0  0  0  0  0  0  0  0  0  0  0
   19.3103   17.7830   21.7430 H   0  0  0  0  0  0  0  0  0  0  0  0
   17.9706   18.4955   22.6435 H   0  0  0  0  0  0  0  0  0  0  0  0
   19.8135   18.3304   23.7873 C   0  0  0  0  0  0  0  0  0  0  0  0
   20.6632   17.6385   23.8695 H   0  0  0  0  0  0  0  0  0  0  0  0
   19.3230   18.3498   24.7704 H   0  0  0  0  0  0  0  0  0  0  0  0
   20.3311   19.7445   23.4400 C   0  0  0  0  0  0  0  0  0  0  0  0
   20.8158   19.7203   22.4548 H   0  0  0  0  0  0  0  0  0  0  0  0
   19.4815   20.4370   23.3607 H   0  0  0  0  0  0  0  0  0  0  0  0
   21.3255   20.2692   24.5027 C   0  0  0  0  0  0  0  0  0  0  0  0
   22.1943   19.6006   24.5680 H   0  0  0  0  0  0  0  0  0  0  0  0
   20.8442   20.2547   25.4897 H   0  0  0  0  0  0  0  0  0  0  0  0
   21.8024   21.7057   24.2141 C   0  0  0  0  0  0  0  0  0  0  0  0
   20.9392   22.3728   24.1424 H   0  0  0  0  0  0  0  0  0  0  0  0
   22.4326   22.0510   25.0382 H   0  0  0  0  0  0  0  0  0  0  0  0
   22.6060   21.8368   22.9351 N   0  3  0  0  0  0  0  0  0  0  0  0
   22.0590   21.5624   22.1132 H   0  0  0  0  0  0  0  0  0  0  0  0
   23.4456   21.2487   22.9509 H   0  0  0  0  0  0  0  0  0  0  0  0
   22.9187   22.8013   22.7792 H   0  0  0  0  0  0  0  0  0  0  0  0
  1  2  1  0  0  0  0
  1  3  1  0  0  0  0
  1  4  1  0  0  0  0
  1  5  1  0  0  0  0
  5  6  1  0  0  0  0
  5  7  1  0  0  0  0
  5  8  1  0  0  0  0
  8  9  1  0  0  0  0
  8 10  1  0  0  0  0
  8 11  1  0  0  0  0
 11 12  1  0  0  0  0
 11 13  1  0  0  0  0
 11 14  1  0  0  0  0
 14 15  1  0  0  0  0
 14 16  1  0  0  0  0
 14 17  1  0  0  0  0
 17 18  1  0  0  0  0
 17 19  1  0  0  0  0
 17 20  1  0  0  0  0
 20 21  1  0  0  0  0
 20 22  1  0  0  0  0
 20 23  1  0  0  0  0
 23 24  1  0  0  0  0
 23 25  1  0  0  0  0
 23 26  1  0  0  0  0
M  END
> <VConfSearch Rank>
462

> <Conf_Id>
20

> <Delta U+W>
0.150

> <U+W>
-5.403

> <U>
47.845

> <W>
-53.248

> <W(PB)>
-55.599

> <W(SA)>
2.351

> <Valence>
2.258

> <Coulomb>
44.893

> <VdW>
0.694

> <VdW6>
-6.285

> <VdW12>
6.979

> <Bond>
0.149

> <Angle>
0.434

> <Pdih>
1.675

> <Idih>
0.000

> <Tether>
0.000

$$$$
VeraChem MOL file


 26 25  0  0  0  0  0  0  0  0999 V2000     
   20.7070   23.1536   22.7564 C   0  0  0  0  0  0  0  0  0  0  0  0
   21.5927   22.9524   22.1397 H   0  0  0  0  0  0  0  0  0  0  0  0
   19.8555   23.3274   22.0856 H   0  0  0  0  0  0  0  0  0  0  0  0
   20.8895   24.0801   23.3161 H   0  0  0  0  0  0  0  0  0  0  0  0
   20.4240   21.9816   23.7199 C   0  0  0  0  0  0  0  0  0  0  0  0
   19.5545   22.2262   24.3460 H   0  0  0  0  0  0  0  0  0  0  0  0
   21.2782   21.8540   24.3996 H   0  0  0  0  0  0  0  0  0  0  0  0
   20.1633   20.6639   22.9569 C   0  0  0  0  0  0  0  0  0  0  0  0
   19.3101   20.7970   22.2773 H   0  0  0  0  0  0  0  0  0  0  0  0
   21.0341   20.4250   22.3308 H   0  0  0  0  0  0  0  0  0  0  0  0
   19.8795   19.4878   23.9185 C   0  0  0  0  0  0  0  0  0  0  0  0
   19.0093   19.7284   24.5449 H   0  0  0  0  0  0  0  0  0  0  0  0
   20.7332   19.3552   24.5976 H   0  0  0  0  0  0  0  0  0  0  0  0
   19.6180   18.1699   23.1549 C   0  0  0  0  0  0  0  0  0  0  0  0
   18.7624   18.3018   22.4780 H   0  0  0  0  0  0  0  0  0  0  0  0
   20.4884   17.9370   22.5270 H   0  0  0  0  0  0  0  0  0  0  0  0
   19.3351   16.9937   24.1193 C   0  0  0  0  0  0  0  0  0  0  0  0
   18.4871   17.2511   24.7677 H   0  0  0  0  0  0  0  0  0  0  0  0
   20.1973   16.8329   24.7801 H   0  0  0  0  0  0  0  0  0  0  0  0
   19.0027   15.6837   23.3792 C   0  0  0  0  0  0  0  0  0  0  0  0
   18.7309   14.9147   24.1075 H   0  0  0  0  0  0  0  0  0  0  0  0
   18.1482   15.8422   22.7159 H   0  0  0  0  0  0  0  0  0  0  0  0
   20.1501   15.1441   22.5479 N   0  3  0  0  0  0  0  0  0  0  0  0
   20.9785   14.9530   23.1208 H   0  0  0  0  0  0  0  0  0  0  0  0
   20.4327   15.8043   21.8169 H   0  0  0  0  0  0  0  0  0  0  0  0
   19.9009   14.2662   22.0795 H   0  0  0  0  0  0  0  0  0  0  0  0
  1  2  1  0  0  0  0
  1  3  1  0  0  0  0
  1  4  1  0  0  0  0
  1  5  1  0  0  0  0
  5  6  1  0  0  0  0
  5  7  1  0  0  0  0
  5  8  1  0  0  0  0
  8  9  1  0  0  0  0
  8 10  1  0  0  0  0
  8 11  1  0  0  0  0
 11 12  1  0  0  0  0
 11 13  1  0  0  0  0
 11 14  1  0  0  0  0
 14 15  1  0  0  0  0
 14 16  1  0  0  0  0
 14 17  1  0  0  0  0
 17 18  1  0  0  0  0
 17 19  1  0  0  0  0
 17 20  1  0  0  0  0
 20 21  1  0  0  0  0
 20 22  1  0  0  0  0
 20 23  1  0  0  0  0
 23 24  1  0  0  0  0
 23 25  1  0  0  0  0
 23 26  1  0  0  0  0
M  END
> <VConfSearch Rank>
463

> <Conf_Id>
19

> <Delta U+W>
0.162

> <U+W>
-5.391

> <U>
47.845

> <W>
-53.235

> <W(PB)>
-55.585

> <W(SA)>
2.349

> <Valence>
2.258

> <Coulomb>
44.893

> <VdW>
0.694

> <VdW6>
-6.285

> <VdW12>
6.979

> <Bond>
0.149

> <Angle>
0.434

> <Pdih>
1.675

> <Idih>
0.000

> <Tether>
0.000

$$$$
VeraChem MOL file


 26 25  0  0  0  0  0  0  0  0999 V2000     
   21.6718   19.6480   19.5037 C   0  0  0  0  0  0  0  0  0  0  0  0
   20.9588   19.9726   18.7346 H   0  0  0  0  0  0  0  0  0  0  0  0
   22.2822   20.5139   19.7914 H   0  0  0  0  0  0  0  0  0  0  0  0
   22.3377   18.9014   19.0517 H   0  0  0  0  0  0  0  0  0  0  0  0
   20.9390   19.0556   20.7261 C   0  0  0  0  0  0  0  0  0  0  0  0
   21.6843   18.7059   21.4527 H   0  0  0  0  0  0  0  0  0  0  0  0
   20.3612   18.1749   20.4127 H   0  0  0  0  0  0  0  0  0  0  0  0
   19.9968   20.0919   21.3831 C   0  0  0  0  0  0  0  0  0  0  0  0
   20.5825   20.9488   21.7438 H   0  0  0  0  0  0  0  0  0  0  0  0
   19.3125   20.4864   20.6192 H   0  0  0  0  0  0  0  0  0  0  0  0
   19.1528   19.5138   22.5456 C   0  0  0  0  0  0  0  0  0  0  0  0
   18.5559   18.6666   22.1804 H   0  0  0  0  0  0  0  0  0  0  0  0
   18.4348   20.2805   22.8680 H   0  0  0  0  0  0  0  0  0  0  0  0
   19.9983   19.0711   23.7641 C   0  0  0  0  0  0  0  0  0  0  0  0
   20.6694   18.2506   23.4777 H   0  0  0  0  0  0  0  0  0  0  0  0
   20.6344   19.9047   24.0926 H   0  0  0  0  0  0  0  0  0  0  0  0
   19.1104   18.6075   24.9399 C   0  0  0  0  0  0  0  0  0  0  0  0
   18.4737   17.7734   24.6159 H   0  0  0  0  0  0  0  0  0  0  0  0
   18.4420   19.4242   25.2440 H   0  0  0  0  0  0  0  0  0  0  0  0
   19.9583   18.1655   26.1457 C   0  0  0  0  0  0  0  0  0  0  0  0
   20.6138   17.3410   25.8524 H   0  0  0  0  0  0  0  0  0  0  0  0
   20.5821   18.9981   26.4820 H   0  0  0  0  0  0  0  0  0  0  0  0
   19.1223   17.7028   27.3214 N   0  3  0  0  0  0  0  0  0  0  0  0
   18.5308   16.9014   27.0780 H   0  0  0  0  0  0  0  0  0  0  0  0
   18.5013   18.4433   27.6638 H   0  0  0  0  0  0  0  0  0  0  0  0
   19.7063   17.4130   28.1135 H   0  0  0  0  0  0  0  0  0  0  0  0
  1  2  1  0  0  0  0
  1  3  1  0  0  0  0
  1  4  1  0  0  0  0
  1  5  1  0  0  0  0
  5  6  1  0  0  0  0
  5  7  1  0  0  0  0
  5  8  1  0  0  0  0
  8  9  1  0  0  0  0
  8 10  1  0  0  0  0
  8 11  1  0  0  0  0
 11 12  1  0  0  0  0
 11 13  1  0  0  0  0
 11 14  1  0  0  0  0
 14 15  1  0  0  0  0
 14 16  1  0  0  0  0
 14 17  1  0  0  0  0
 17 18  1  0  0  0  0
 17 19  1  0  0  0  0
 17 20  1  0  0  0  0
 20 21  1  0  0  0  0
 20 22  1  0  0  0  0
 20 23  1  0  0  0  0
 23 24  1  0  0  0  0
 23 25  1  0  0  0  0
 23 26  1  0  0  0  0
M  END
> <VConfSearch Rank>
464

> <Conf_Id>
37

> <Delta U+W>
0.565

> <U+W>
-4.988

> <U>
48.035

> <W>
-53.022

> <W(PB)>
-55.379

> <W(SA)>
2.357

> <Valence>
2.701

> <Coulomb>
44.622

> <VdW>
0.712

> <VdW6>
-6.418

> <VdW12>
7.129

> <Bond>
0.168

> <Angle>
0.659

> <Pdih>
1.875

> <Idih>
0.000

> <Tether>
0.000

$$$$
VeraChem MOL file


 26 25  0  0  0  0  0  0  0  0999 V2000     
   19.3366   17.2257   26.9219 C   0  0  0  0  0  0  0  0  0  0  0  0
   19.2650   16.3117   26.3180 H   0  0  0  0  0  0  0  0  0  0  0  0
   20.3790   17.3401   27.2468 H   0  0  0  0  0  0  0  0  0  0  0  0
   18.7177   17.0869   27.8178 H   0  0  0  0  0  0  0  0  0  0  0  0
   18.8669   18.4584   26.1207 C   0  0  0  0  0  0  0  0  0  0  0  0
   18.9170   19.3499   26.7616 H   0  0  0  0  0  0  0  0  0  0  0  0
   17.8125   18.3297   25.8384 H   0  0  0  0  0  0  0  0  0  0  0  0
   19.7228   18.6774   24.8534 C   0  0  0  0  0  0  0  0  0  0  0  0
   20.7752   18.8075   25.1409 H   0  0  0  0  0  0  0  0  0  0  0  0
   19.6714   17.7771   24.2274 H   0  0  0  0  0  0  0  0  0  0  0  0
   19.2498   19.9110   24.0472 C   0  0  0  0  0  0  0  0  0  0  0  0
   19.2338   20.7867   24.7107 H   0  0  0  0  0  0  0  0  0  0  0  0
   18.2145   19.7598   23.7115 H   0  0  0  0  0  0  0  0  0  0  0  0
   20.1480   20.2363   22.8285 C   0  0  0  0  0  0  0  0  0  0  0  0
   19.8089   21.1849   22.3893 H   0  0  0  0  0  0  0  0  0  0  0  0
   21.1801   20.4048   23.1660 H   0  0  0  0  0  0  0  0  0  0  0  0
   20.1289   19.1423   21.7352 C   0  0  0  0  0  0  0  0  0  0  0  0
   19.0928   18.9382   21.4342 H   0  0  0  0  0  0  0  0  0  0  0  0
   20.5425   18.2057   22.1299 H   0  0  0  0  0  0  0  0  0  0  0  0
   20.9446   19.5690   20.5020 C   0  0  0  0  0  0  0  0  0  0  0  0
   20.5302   20.4922   20.0880 H   0  0  0  0  0  0  0  0  0  0  0  0
   21.9813   19.7578   20.7938 H   0  0  0  0  0  0  0  0  0  0  0  0
   20.9504   18.5254   19.4037 N   0  3  0  0  0  0  0  0  0  0  0  0
   20.0044   18.3217   19.0650 H   0  0  0  0  0  0  0  0  0  0  0  0
   21.3551   17.6385   19.7211 H   0  0  0  0  0  0  0  0  0  0  0  0
   21.4988   18.8301   18.5919 H   0  0  0  0  0  0  0  0  0  0  0  0
  1  2  1  0  0  0  0
  1  3  1  0  0  0  0
  1  4  1  0  0  0  0
  1  5  1  0  0  0  0
  5  6  1  0  0  0  0
  5  7  1  0  0  0  0
  5  8  1  0  0  0  0
  8  9  1  0  0  0  0
  8 10  1  0  0  0  0
  8 11  1  0  0  0  0
 11 12  1  0  0  0  0
 11 13  1  0  0  0  0
 11 14  1  0  0  0  0
 14 15  1  0  0  0  0
 14 16  1  0  0  0  0
 14 17  1  0  0  0  0
 17 18  1  0  0  0  0
 17 19  1  0  0  0  0
 17 20  1  0  0  0  0
 20 21  1  0  0  0  0
 20 22  1  0  0  0  0
 20 23  1  0  0  0  0
 23 24  1  0  0  0  0
 23 25  1  0  0  0  0
 23 26  1  0  0  0  0
M  END
> <VConfSearch Rank>
465

> <Conf_Id>
35

> <Delta U+W>
0.587

> <U+W>
-4.965

> <U>
48.214

> <W>
-53.179

> <W(PB)>
-55.527

> <W(SA)>
2.348

> <Valence>
2.697

> <Coulomb>
44.819

> <VdW>
0.699

> <VdW6>
-6.437

> <VdW12>
7.136

> <Bond>
0.168

> <Angle>
0.657

> <Pdih>
1.872

> <Idih>
0.000

> <Tether>
0.000

$$$$
VeraChem MOL file


 26 25  0  0  0  0  0  0  0  0999 V2000     
   18.0333   20.8752   26.2181 C   0  0  0  0  0  0  0  0  0  0  0  0
   17.0823   20.8897   25.6699 H   0  0  0  0  0  0  0  0  0  0  0  0
   18.1319   19.8967   26.7061 H   0  0  0  0  0  0  0  0  0  0  0  0
   17.9808   21.6398   27.0041 H   0  0  0  0  0  0  0  0  0  0  0  0
   19.2228   21.1464   25.2728 C   0  0  0  0  0  0  0  0  0  0  0  0
   20.1554   21.1588   25.8543 H   0  0  0  0  0  0  0  0  0  0  0  0
   19.1136   22.1452   24.8275 H   0  0  0  0  0  0  0  0  0  0  0  0
   19.3195   20.0840   24.1554 C   0  0  0  0  0  0  0  0  0  0  0  0
   19.4188   19.0914   24.6136 H   0  0  0  0  0  0  0  0  0  0  0  0
   18.3860   20.0769   23.5758 H   0  0  0  0  0  0  0  0  0  0  0  0
   20.5145   20.3528   23.2093 C   0  0  0  0  0  0  0  0  0  0  0  0
   21.4543   20.3066   23.7767 H   0  0  0  0  0  0  0  0  0  0  0  0
   20.4391   21.3780   22.8210 H   0  0  0  0  0  0  0  0  0  0  0  0
   20.5852   19.3782   22.0080 C   0  0  0  0  0  0  0  0  0  0  0  0
   19.6523   19.4371   21.4304 H   0  0  0  0  0  0  0  0  0  0  0  0
   21.3862   19.7134   21.3344 H   0  0  0  0  0  0  0  0  0  0  0  0
   20.8543   17.9106   22.4160 C   0  0  0  0  0  0  0  0  0  0  0  0
   20.0237   17.5281   23.0223 H   0  0  0  0  0  0  0  0  0  0  0  0
   21.7593   17.8590   23.0358 H   0  0  0  0  0  0  0  0  0  0  0  0
   21.0287   17.0094   21.1809 C   0  0  0  0  0  0  0  0  0  0  0  0
   20.1236   17.0448   20.5686 H   0  0  0  0  0  0  0  0  0  0  0  0
   21.8664   17.3696   20.5776 H   0  0  0  0  0  0  0  0  0  0  0  0
   21.2971   15.5610   21.5357 N   0  3  0  0  0  0  0  0  0  0  0  0
   20.5311   15.1529   22.0816 H   0  0  0  0  0  0  0  0  0  0  0  0
   22.1528   15.4557   22.0905 H   0  0  0  0  0  0  0  0  0  0  0  0
   21.4105   14.9787   20.6988 H   0  0  0  0  0  0  0  0  0  0  0  0
  1  2  1  0  0  0  0
  1  3  1  0  0  0  0
  1  4  1  0  0  0  0
  1  5  1  0  0  0  0
  5  6  1  0  0  0  0
  5  7  1  0  0  0  0
  5  8  1  0  0  0  0
  8  9  1  0  0  0  0
  8 10  1  0  0  0  0
  8 11  1  0  0  0  0
 11 12  1  0  0  0  0
 11 13  1  0  0  0  0
 11 14  1  0  0  0  0
 14 15  1  0  0  0  0
 14 16  1  0  0  0  0
 14 17  1  0  0  0  0
 17 18  1  0  0  0  0
 17 19  1  0  0  0  0
 17 20  1  0  0  0  0
 20 21  1  0  0  0  0
 20 22  1  0  0  0  0
 20 23  1  0  0  0  0
 23 24  1  0  0  0  0
 23 25  1  0  0  0  0
 23 26  1  0  0  0  0
M  END
> <VConfSearch Rank>
466

> <Conf_Id>
36

> <Delta U+W>
0.565

> <U+W>
-4.987

> <U>
48.214

> <W>
-53.201

> <W(PB)>
-55.543

> <W(SA)>
2.342

> <Valence>
2.697

> <Coulomb>
44.819

> <VdW>
0.698

> <VdW6>
-6.437

> <VdW12>
7.136

> <Bond>
0.168

> <Angle>
0.657

> <Pdih>
1.872

> <Idih>
0.000

> <Tether>
0.000

$$$$
VeraChem MOL file


 26 25  0  0  0  0  0  0  0  0999 V2000     
   19.8754   14.5981   23.0494 C   0  0  0  0  0  0  0  0  0  0  0  0
   19.1119   14.4275   22.2792 H   0  0  0  0  0  0  0  0  0  0  0  0
   20.6554   13.8357   22.9254 H   0  0  0  0  0  0  0  0  0  0  0  0
   19.4096   14.4470   24.0320 H   0  0  0  0  0  0  0  0  0  0  0  0
   20.4751   16.0154   22.9317 C   0  0  0  0  0  0  0  0  0  0  0  0
   20.9627   16.1248   21.9528 H   0  0  0  0  0  0  0  0  0  0  0  0
   21.2581   16.1441   23.6921 H   0  0  0  0  0  0  0  0  0  0  0  0
   19.3972   17.1087   23.1025 C   0  0  0  0  0  0  0  0  0  0  0  0
   18.6155   16.9738   22.3421 H   0  0  0  0  0  0  0  0  0  0  0  0
   18.9113   16.9941   24.0814 H   0  0  0  0  0  0  0  0  0  0  0  0
   19.9937   18.5295   22.9850 C   0  0  0  0  0  0  0  0  0  0  0  0
   20.4770   18.6435   22.0048 H   0  0  0  0  0  0  0  0  0  0  0  0
   20.7781   18.6547   23.7435 H   0  0  0  0  0  0  0  0  0  0  0  0
   18.9118   19.6224   23.1579 C   0  0  0  0  0  0  0  0  0  0  0  0
   18.1100   19.4560   22.4252 H   0  0  0  0  0  0  0  0  0  0  0  0
   18.4490   19.5325   24.1506 H   0  0  0  0  0  0  0  0  0  0  0  0
   19.4620   21.0562   22.9735 C   0  0  0  0  0  0  0  0  0  0  0  0
   18.6267   21.7674   23.0220 H   0  0  0  0  0  0  0  0  0  0  0  0
   19.9027   21.1566   21.9727 H   0  0  0  0  0  0  0  0  0  0  0  0
   20.5072   21.4343   24.0399 C   0  0  0  0  0  0  0  0  0  0  0  0
   20.0683   21.3355   25.0364 H   0  0  0  0  0  0  0  0  0  0  0  0
   21.3652   20.7605   23.9729 H   0  0  0  0  0  0  0  0  0  0  0  0
   21.0180   22.8530   23.8923 N   0  3  0  0  0  0  0  0  0  0  0  0
   21.7122   23.0848   24.6112 H   0  0  0  0  0  0  0  0  0  0  0  0
   20.2628   23.5415   23.9741 H   0  0  0  0  0  0  0  0  0  0  0  0
   21.4676   23.0047   22.9834 H   0  0  0  0  0  0  0  0  0  0  0  0
  1  2  1  0  0  0  0
  1  3  1  0  0  0  0
  1  4  1  0  0  0  0
  1  5  1  0  0  0  0
  5  6  1  0  0  0  0
  5  7  1  0  0  0  0
  5  8  1  0  0  0  0
  8  9  1  0  0  0  0
  8 10  1  0  0  0  0
  8 11  1  0  0  0  0
 11 12  1  0  0  0  0
 11 13  1  0  0  0  0
 11 14  1  0  0  0  0
 14 15  1  0  0  0  0
 14 16  1  0  0  0  0
 14 17  1  0  0  0  0
 17 18  1  0  0  0  0
 17 19  1  0  0  0  0
 17 20  1  0  0  0  0
 20 21  1  0  0  0  0
 20 22  1  0  0  0  0
 20 23  1  0  0  0  0
 23 24  1  0  0  0  0
 23 25  1  0  0  0  0
 23 26  1  0  0  0  0
M  END
> <VConfSearch Rank>
467

> <Conf_Id>
44

> <Delta U+W>
0.371

> <U+W>
-5.181

> <U>
48.002

> <W>
-53.183

> <W(PB)>
-55.533

> <W(SA)>
2.350

> <Valence>
2.459

> <Coulomb>
44.901

> <VdW>
0.643

> <VdW6>
-6.362

> <VdW12>
7.005

> <Bond>
0.151

> <Angle>
0.519

> <Pdih>
1.789

> <Idih>
0.000

> <Tether>
0.000

$$$$
VeraChem MOL file


 26 25  0  0  0  0  0  0  0  0999 V2000     
   18.1832   16.2400   25.5271 C   0  0  0  0  0  0  0  0  0  0  0  0
   17.3904   16.0573   24.7901 H   0  0  0  0  0  0  0  0  0  0  0  0
   18.1258   15.4478   26.2847 H   0  0  0  0  0  0  0  0  0  0  0  0
   17.9731   17.1917   26.0303 H   0  0  0  0  0  0  0  0  0  0  0  0
   19.5756   16.2457   24.8560 C   0  0  0  0  0  0  0  0  0  0  0  0
   19.7900   15.2349   24.4815 H   0  0  0  0  0  0  0  0  0  0  0  0
   20.3477   16.4650   25.6067 H   0  0  0  0  0  0  0  0  0  0  0  0
   19.6909   17.2443   23.6787 C   0  0  0  0  0  0  0  0  0  0  0  0
   20.6570   17.0758   23.1865 H   0  0  0  0  0  0  0  0  0  0  0  0
   18.9181   17.0197   22.9309 H   0  0  0  0  0  0  0  0  0  0  0  0
   19.5817   18.7277   24.1153 C   0  0  0  0  0  0  0  0  0  0  0  0
   20.3569   18.9537   24.8603 H   0  0  0  0  0  0  0  0  0  0  0  0
   18.6176   18.8897   24.6142 H   0  0  0  0  0  0  0  0  0  0  0  0
   19.6838   19.7304   22.9393 C   0  0  0  0  0  0  0  0  0  0  0  0
   18.9176   19.4952   22.1876 H   0  0  0  0  0  0  0  0  0  0  0  0
   19.4420   20.7303   23.3232 H   0  0  0  0  0  0  0  0  0  0  0  0
   21.0808   19.7633   22.2695 C   0  0  0  0  0  0  0  0  0  0  0  0
   21.3121   18.7807   21.8406 H   0  0  0  0  0  0  0  0  0  0  0  0
   21.8544   19.9689   23.0211 H   0  0  0  0  0  0  0  0  0  0  0  0
   21.1728   20.8066   21.1390 C   0  0  0  0  0  0  0  0  0  0  0  0
   22.1421   20.7161   20.6412 H   0  0  0  0  0  0  0  0  0  0  0  0
   20.3907   20.6173   20.3987 H   0  0  0  0  0  0  0  0  0  0  0  0
   21.0344   22.2395   21.6151 N   0  3  0  0  0  0  0  0  0  0  0  0
   20.1269   22.4059   22.0609 H   0  0  0  0  0  0  0  0  0  0  0  0
   21.1151   22.9073   20.8406 H   0  0  0  0  0  0  0  0  0  0  0  0
   21.7578   22.4851   22.2987 H   0  0  0  0  0  0  0  0  0  0  0  0
  1  2  1  0  0  0  0
  1  3  1  0  0  0  0
  1  4  1  0  0  0  0
  1  5  1  0  0  0  0
  5  6  1  0  0  0  0
  5  7  1  0  0  0  0
  5  8  1  0  0  0  0
  8  9  1  0  0  0  0
  8 10  1  0  0  0  0
  8 11  1  0  0  0  0
 11 12  1  0  0  0  0
 11 13  1  0  0  0  0
 11 14  1  0  0  0  0
 14 15  1  0  0  0  0
 14 16  1  0  0  0  0
 14 17  1  0  0  0  0
 17 18  1  0  0  0  0
 17 19  1  0  0  0  0
 17 20  1  0  0  0  0
 20 21  1  0  0  0  0
 20 22  1  0  0  0  0
 20 23  1  0  0  0  0
 23 24  1  0  0  0  0
 23 25  1  0  0  0  0
 23 26  1  0  0  0  0
M  END
> <VConfSearch Rank>
468

> <Conf_Id>
112

> <Delta U+W>
1.422

> <U+W>
-4.130

> <U>
49.323

> <W>
-53.453

> <W(PB)>
-55.749

> <W(SA)>
2.296

> <Valence>
3.408

> <Coulomb>
44.893

> <VdW>
1.021

> <VdW6>
-7.481

> <VdW12>
8.503

> <Bond>
0.239

> <Angle>
1.013

> <Pdih>
2.156

> <Idih>
0.000

> <Tether>
0.000

$$$$
VeraChem MOL file


 26 25  0  0  0  0  0  0  0  0999 V2000     
   17.5011   20.9413   21.4976 C   0  0  0  0  0  0  0  0  0  0  0  0
   16.9613   21.6996   20.9157 H   0  0  0  0  0  0  0  0  0  0  0  0
   17.7827   20.1354   20.8086 H   0  0  0  0  0  0  0  0  0  0  0  0
   16.8059   20.5311   22.2415 H   0  0  0  0  0  0  0  0  0  0  0  0
   18.7408   21.5637   22.1792 C   0  0  0  0  0  0  0  0  0  0  0  0
   18.4222   22.4367   22.7658 H   0  0  0  0  0  0  0  0  0  0  0  0
   19.4317   21.9435   21.4136 H   0  0  0  0  0  0  0  0  0  0  0  0
   19.4846   20.5804   23.1148 C   0  0  0  0  0  0  0  0  0  0  0  0
   20.2851   21.1277   23.6312 H   0  0  0  0  0  0  0  0  0  0  0  0
   18.7920   20.2338   23.8928 H   0  0  0  0  0  0  0  0  0  0  0  0
   20.0983   19.3691   22.3680 C   0  0  0  0  0  0  0  0  0  0  0  0
   20.6835   19.7357   21.5134 H   0  0  0  0  0  0  0  0  0  0  0  0
   19.3008   18.7403   21.9505 H   0  0  0  0  0  0  0  0  0  0  0  0
   21.0206   18.4979   23.2560 C   0  0  0  0  0  0  0  0  0  0  0  0
   21.4993   17.7449   22.6161 H   0  0  0  0  0  0  0  0  0  0  0  0
   21.8315   19.1174   23.6634 H   0  0  0  0  0  0  0  0  0  0  0  0
   20.2731   17.7897   24.4138 C   0  0  0  0  0  0  0  0  0  0  0  0
   19.4455   17.1878   24.0155 H   0  0  0  0  0  0  0  0  0  0  0  0
   19.8257   18.5379   25.0798 H   0  0  0  0  0  0  0  0  0  0  0  0
   21.1995   16.8944   25.2593 C   0  0  0  0  0  0  0  0  0  0  0  0
   22.0349   17.4868   25.6422 H   0  0  0  0  0  0  0  0  0  0  0  0
   20.6415   16.5006   26.1132 H   0  0  0  0  0  0  0  0  0  0  0  0
   21.7690   15.7124   24.4995 N   0  3  0  0  0  0  0  0  0  0  0  0
   22.3389   16.0119   23.7024 H   0  0  0  0  0  0  0  0  0  0  0  0
   21.0301   15.1038   24.1326 H   0  0  0  0  0  0  0  0  0  0  0  0
   22.3683   15.1303   25.0949 H   0  0  0  0  0  0  0  0  0  0  0  0
  1  2  1  0  0  0  0
  1  3  1  0  0  0  0
  1  4  1  0  0  0  0
  1  5  1  0  0  0  0
  5  6  1  0  0  0  0
  5  7  1  0  0  0  0
  5  8  1  0  0  0  0
  8  9  1  0  0  0  0
  8 10  1  0  0  0  0
  8 11  1  0  0  0  0
 11 12  1  0  0  0  0
 11 13  1  0  0  0  0
 11 14  1  0  0  0  0
 14 15  1  0  0  0  0
 14 16  1  0  0  0  0
 14 17  1  0  0  0  0
 17 18  1  0  0  0  0
 17 19  1  0  0  0  0
 17 20  1  0  0  0  0
 20 21  1  0  0  0  0
 20 22  1  0  0  0  0
 20 23  1  0  0  0  0
 23 24  1  0  0  0  0
 23 25  1  0  0  0  0
 23 26  1  0  0  0  0
M  END
> <VConfSearch Rank>
469

> <Conf_Id>
130

> <Delta U+W>
1.282

> <U+W>
-4.270

> <U>
49.153

> <W>
-53.422

> <W(PB)>
-55.725

> <W(SA)>
2.303

> <Valence>
3.298

> <Coulomb>
44.907

> <VdW>
0.948

> <VdW6>
-7.574

> <VdW12>
8.522

> <Bond>
0.229

> <Angle>
0.912

> <Pdih>
2.157

> <Idih>
0.000

> <Tether>
0.000

$$$$
VeraChem MOL file


 26 25  0  0  0  0  0  0  0  0999 V2000     
   22.8379   20.1548   21.8275 C   0  0  0  0  0  0  0  0  0  0  0  0
   23.4413   19.3074   21.4768 H   0  0  0  0  0  0  0  0  0  0  0  0
   23.4105   21.0734   21.6454 H   0  0  0  0  0  0  0  0  0  0  0  0
   22.7055   20.0577   22.9122 H   0  0  0  0  0  0  0  0  0  0  0  0
   21.4787   20.2097   21.0942 C   0  0  0  0  0  0  0  0  0  0  0  0
   21.6587   20.4273   20.0321 H   0  0  0  0  0  0  0  0  0  0  0  0
   20.8853   21.0515   21.4754 H   0  0  0  0  0  0  0  0  0  0  0  0
   20.6687   18.8920   21.1962 C   0  0  0  0  0  0  0  0  0  0  0  0
   19.7339   19.0065   20.6304 H   0  0  0  0  0  0  0  0  0  0  0  0
   21.2289   18.0929   20.6914 H   0  0  0  0  0  0  0  0  0  0  0  0
   20.3319   18.4269   22.6368 C   0  0  0  0  0  0  0  0  0  0  0  0
   21.2577   18.2066   23.1847 H   0  0  0  0  0  0  0  0  0  0  0  0
   19.7900   17.4748   22.5655 H   0  0  0  0  0  0  0  0  0  0  0  0
   19.4812   19.4479   23.4341 C   0  0  0  0  0  0  0  0  0  0  0  0
   20.0348   20.3907   23.5319 H   0  0  0  0  0  0  0  0  0  0  0  0
   18.5628   19.6809   22.8776 H   0  0  0  0  0  0  0  0  0  0  0  0
   19.1139   18.9544   24.8534 C   0  0  0  0  0  0  0  0  0  0  0  0
   18.6072   19.7663   25.3919 H   0  0  0  0  0  0  0  0  0  0  0  0
   20.0306   18.7292   25.4146 H   0  0  0  0  0  0  0  0  0  0  0  0
   18.1982   17.7159   24.8369 C   0  0  0  0  0  0  0  0  0  0  0  0
   17.2863   17.9402   24.2771 H   0  0  0  0  0  0  0  0  0  0  0  0
   18.7085   16.8837   24.3454 H   0  0  0  0  0  0  0  0  0  0  0  0
   17.7950   17.2587   26.2239 N   0  3  0  0  0  0  0  0  0  0  0  0
   18.6085   17.0066   26.7947 H   0  0  0  0  0  0  0  0  0  0  0  0
   17.1859   16.4339   26.1912 H   0  0  0  0  0  0  0  0  0  0  0  0
   17.2834   17.9872   26.7327 H   0  0  0  0  0  0  0  0  0  0  0  0
  1  2  1  0  0  0  0
  1  3  1  0  0  0  0
  1  4  1  0  0  0  0
  1  5  1  0  0  0  0
  5  6  1  0  0  0  0
  5  7  1  0  0  0  0
  5  8  1  0  0  0  0
  8  9  1  0  0  0  0
  8 10  1  0  0  0  0
  8 11  1  0  0  0  0
 11 12  1  0  0  0  0
 11 13  1  0  0  0  0
 11 14  1  0  0  0  0
 14 15  1  0  0  0  0
 14 16  1  0  0  0  0
 14 17  1  0  0  0  0
 17 18  1  0  0  0  0
 17 19  1  0  0  0  0
 17 20  1  0  0  0  0
 20 21  1  0  0  0  0
 20 22  1  0  0  0  0
 20 23  1  0  0  0  0
 23 24  1  0  0  0  0
 23 25  1  0  0  0  0
 23 26  1  0  0  0  0
M  END
> <VConfSearch Rank>
470

> <Conf_Id>
111

> <Delta U+W>
1.290

> <U+W>
-4.262

> <U>
49.209

> <W>
-53.471

> <W(PB)>
-55.745

> <W(SA)>
2.274

> <Valence>
3.465

> <Coulomb>
44.958

> <VdW>
0.786

> <VdW6>
-7.903

> <VdW12>
8.689

> <Bond>
0.237

> <Angle>
1.212

> <Pdih>
2.015

> <Idih>
0.000

> <Tether>
0.000

$$$$
VeraChem MOL file


 26 25  0  0  0  0  0  0  0  0999 V2000     
   21.1460   22.7026   22.3296 C   0  0  0  0  0  0  0  0  0  0  0  0
   21.2077   22.4636   21.2599 H   0  0  0  0  0  0  0  0  0  0  0  0
   20.4123   23.5091   22.4580 H   0  0  0  0  0  0  0  0  0  0  0  0
   22.1250   23.0846   22.6467 H   0  0  0  0  0  0  0  0  0  0  0  0
   20.7534   21.4582   23.1539 C   0  0  0  0  0  0  0  0  0  0  0  0
   20.7286   21.7211   24.2207 H   0  0  0  0  0  0  0  0  0  0  0  0
   21.5300   20.6915   23.0325 H   0  0  0  0  0  0  0  0  0  0  0  0
   19.3774   20.8989   22.7215 C   0  0  0  0  0  0  0  0  0  0  0  0
   18.6322   21.7046   22.7750 H   0  0  0  0  0  0  0  0  0  0  0  0
   19.4185   20.5871   21.6687 H   0  0  0  0  0  0  0  0  0  0  0  0
   18.8858   19.7179   23.5941 C   0  0  0  0  0  0  0  0  0  0  0  0
   17.8598   19.4662   23.2917 H   0  0  0  0  0  0  0  0  0  0  0  0
   18.8283   20.0361   24.6442 H   0  0  0  0  0  0  0  0  0  0  0  0
   19.7695   18.4526   23.4785 C   0  0  0  0  0  0  0  0  0  0  0  0
   19.8705   18.1776   22.4201 H   0  0  0  0  0  0  0  0  0  0  0  0
   20.7795   18.6652   23.8528 H   0  0  0  0  0  0  0  0  0  0  0  0
   19.1765   17.2666   24.2755 C   0  0  0  0  0  0  0  0  0  0  0  0
   18.1797   17.0140   23.8899 H   0  0  0  0  0  0  0  0  0  0  0  0
   19.0407   17.5649   25.3236 H   0  0  0  0  0  0  0  0  0  0  0  0
   20.0746   16.0151   24.2371 C   0  0  0  0  0  0  0  0  0  0  0  0
   21.0696   16.2642   24.6156 H   0  0  0  0  0  0  0  0  0  0  0  0
   19.6478   15.2425   24.8826 H   0  0  0  0  0  0  0  0  0  0  0  0
   20.2335   15.4202   22.8516 N   0  3  0  0  0  0  0  0  0  0  0  0
   20.8256   14.5826   22.8626 H   0  0  0  0  0  0  0  0  0  0  0  0
   20.6645   16.0837   22.2006 H   0  0  0  0  0  0  0  0  0  0  0  0
   19.3315   15.1438   22.4503 H   0  0  0  0  0  0  0  0  0  0  0  0
  1  2  1  0  0  0  0
  1  3  1  0  0  0  0
  1  4  1  0  0  0  0
  1  5  1  0  0  0  0
  5  6  1  0  0  0  0
  5  7  1  0  0  0  0
  5  8  1  0  0  0  0
  8  9  1  0  0  0  0
  8 10  1  0  0  0  0
  8 11  1  0  0  0  0
 11 12  1  0  0  0  0
 11 13  1  0  0  0  0
 11 14  1  0  0  0  0
 14 15  1  0  0  0  0
 14 16  1  0  0  0  0
 14 17  1  0  0  0  0
 17 18  1  0  0  0  0
 17 19  1  0  0  0  0
 17 20  1  0  0  0  0
 20 21  1  0  0  0  0
 20 22  1  0  0  0  0
 20 23  1  0  0  0  0
 23 24  1  0  0  0  0
 23 25  1  0  0  0  0
 23 26  1  0  0  0  0
M  END
> <VConfSearch Rank>
471

> <Conf_Id>
105

> <Delta U+W>
0.736

> <U+W>
-4.817

> <U>
48.735

> <W>
-53.552

> <W(PB)>
-55.889

> <W(SA)>
2.337

> <Valence>
2.803

> <Coulomb>
45.123

> <VdW>
0.809

> <VdW6>
-6.953

> <VdW12>
7.761

> <Bond>
0.188

> <Angle>
0.699

> <Pdih>
1.917

> <Idih>
0.000

> <Tether>
0.000

$$$$
VeraChem MOL file


 26 25  0  0  0  0  0  0  0  0999 V2000     
   20.1946   15.5622   21.7970 C   0  0  0  0  0  0  0  0  0  0  0  0
   20.9910   14.8610   22.0783 H   0  0  0  0  0  0  0  0  0  0  0  0
   19.3001   15.3174   22.3846 H   0  0  0  0  0  0  0  0  0  0  0  0
   19.9581   15.3960   20.7380 H   0  0  0  0  0  0  0  0  0  0  0  0
   20.6314   17.0232   22.0350 C   0  0  0  0  0  0  0  0  0  0  0  0
   19.8266   17.6937   21.7054 H   0  0  0  0  0  0  0  0  0  0  0  0
   21.5089   17.2476   21.4127 H   0  0  0  0  0  0  0  0  0  0  0  0
   20.9662   17.2833   23.5226 C   0  0  0  0  0  0  0  0  0  0  0  0
   20.0780   17.0992   24.1412 H   0  0  0  0  0  0  0  0  0  0  0  0
   21.7175   16.5522   23.8517 H   0  0  0  0  0  0  0  0  0  0  0  0
   21.5197   18.7059   23.7961 C   0  0  0  0  0  0  0  0  0  0  0  0
   22.4762   18.8216   23.2679 H   0  0  0  0  0  0  0  0  0  0  0  0
   21.7559   18.7924   24.8656 H   0  0  0  0  0  0  0  0  0  0  0  0
   20.5849   19.8757   23.3922 C   0  0  0  0  0  0  0  0  0  0  0  0
   21.1012   20.8166   23.6236 H   0  0  0  0  0  0  0  0  0  0  0  0
   20.4317   19.8759   22.3049 H   0  0  0  0  0  0  0  0  0  0  0  0
   19.2141   19.8506   24.1137 C   0  0  0  0  0  0  0  0  0  0  0  0
   19.3613   19.8306   25.2016 H   0  0  0  0  0  0  0  0  0  0  0  0
   18.6742   18.9320   23.8517 H   0  0  0  0  0  0  0  0  0  0  0  0
   18.3221   21.0492   23.7367 C   0  0  0  0  0  0  0  0  0  0  0  0
   18.1895   21.0827   22.6519 H   0  0  0  0  0  0  0  0  0  0  0  0
   17.3377   20.9265   24.1966 H   0  0  0  0  0  0  0  0  0  0  0  0
   18.8739   22.3881   24.1857 N   0  3  0  0  0  0  0  0  0  0  0  0
   19.7846   22.5860   23.7598 H   0  0  0  0  0  0  0  0  0  0  0  0
   19.0001   22.4261   25.2024 H   0  0  0  0  0  0  0  0  0  0  0  0
   18.2496   23.1615   23.9322 H   0  0  0  0  0  0  0  0  0  0  0  0
  1  2  1  0  0  0  0
  1  3  1  0  0  0  0
  1  4  1  0  0  0  0
  1  5  1  0  0  0  0
  5  6  1  0  0  0  0
  5  7  1  0  0  0  0
  5  8  1  0  0  0  0
  8  9  1  0  0  0  0
  8 10  1  0  0  0  0
  8 11  1  0  0  0  0
 11 12  1  0  0  0  0
 11 13  1  0  0  0  0
 11 14  1  0  0  0  0
 14 15  1  0  0  0  0
 14 16  1  0  0  0  0
 14 17  1  0  0  0  0
 17 18  1  0  0  0  0
 17 19  1  0  0  0  0
 17 20  1  0  0  0  0
 20 21  1  0  0  0  0
 20 22  1  0  0  0  0
 20 23  1  0  0  0  0
 23 24  1  0  0  0  0
 23 25  1  0  0  0  0
 23 26  1  0  0  0  0
M  END
> <VConfSearch Rank>
472

> <Conf_Id>
144

> <Delta U+W>
1.073

> <U+W>
-4.479

> <U>
49.231

> <W>
-53.710

> <W(PB)>
-55.983

> <W(SA)>
2.273

> <Valence>
3.276

> <Coulomb>
45.175

> <VdW>
0.779

> <VdW6>
-7.944

> <VdW12>
8.723

> <Bond>
0.239

> <Angle>
1.155

> <Pdih>
1.883

> <Idih>
0.000

> <Tether>
0.000

$$$$
VeraChem MOL file


 26 25  0  0  0  0  0  0  0  0999 V2000     
   17.4498   16.3030   23.9174 C   0  0  0  0  0  0  0  0  0  0  0  0
   18.2484   15.6713   24.3249 H   0  0  0  0  0  0  0  0  0  0  0  0
   16.5061   15.9722   24.3701 H   0  0  0  0  0  0  0  0  0  0  0  0
   17.3847   16.1217   22.8367 H   0  0  0  0  0  0  0  0  0  0  0  0
   17.6963   17.7996   24.2161 C   0  0  0  0  0  0  0  0  0  0  0  0
   17.7919   17.9510   25.3004 H   0  0  0  0  0  0  0  0  0  0  0  0
   16.8104   18.3700   23.9036 H   0  0  0  0  0  0  0  0  0  0  0  0
   18.9368   18.3789   23.4937 C   0  0  0  0  0  0  0  0  0  0  0  0
   18.8463   18.2065   22.4125 H   0  0  0  0  0  0  0  0  0  0  0  0
   18.9320   19.4657   23.6438 H   0  0  0  0  0  0  0  0  0  0  0  0
   20.2782   17.8018   24.0106 C   0  0  0  0  0  0  0  0  0  0  0  0
   20.2502   16.7061   23.9589 H   0  0  0  0  0  0  0  0  0  0  0  0
   20.3971   18.0543   25.0732 H   0  0  0  0  0  0  0  0  0  0  0  0
   21.5283   18.2771   23.2251 C   0  0  0  0  0  0  0  0  0  0  0  0
   22.4027   17.7720   23.6585 H   0  0  0  0  0  0  0  0  0  0  0  0
   21.4727   17.9321   22.1833 H   0  0  0  0  0  0  0  0  0  0  0  0
   21.7856   19.8046   23.2653 C   0  0  0  0  0  0  0  0  0  0  0  0
   22.8650   19.9801   23.1650 H   0  0  0  0  0  0  0  0  0  0  0  0
   21.4950   20.2114   24.2431 H   0  0  0  0  0  0  0  0  0  0  0  0
   21.0708   20.5665   22.1322 C   0  0  0  0  0  0  0  0  0  0  0  0
   21.4107   20.1865   21.1650 H   0  0  0  0  0  0  0  0  0  0  0  0
   19.9915   20.4166   22.1960 H   0  0  0  0  0  0  0  0  0  0  0  0
   21.3339   22.0581   22.1647 N   0  3  0  0  0  0  0  0  0  0  0  0
   22.3326   22.2717   22.0744 H   0  0  0  0  0  0  0  0  0  0  0  0
   21.0124   22.4840   23.0401 H   0  0  0  0  0  0  0  0  0  0  0  0
   20.8542   22.5466   21.4008 H   0  0  0  0  0  0  0  0  0  0  0  0
  1  2  1  0  0  0  0
  1  3  1  0  0  0  0
  1  4  1  0  0  0  0
  1  5  1  0  0  0  0
  5  6  1  0  0  0  0
  5  7  1  0  0  0  0
  5  8  1  0  0  0  0
  8  9  1  0  0  0  0
  8 10  1  0  0  0  0
  8 11  1  0  0  0  0
 11 12  1  0  0  0  0
 11 13  1  0  0  0  0
 11 14  1  0  0  0  0
 14 15  1  0  0  0  0
 14 16  1  0  0  0  0
 14 17  1  0  0  0  0
 17 18  1  0  0  0  0
 17 19  1  0  0  0  0
 17 20  1  0  0  0  0
 20 21  1  0  0  0  0
 20 22  1  0  0  0  0
 20 23  1  0  0  0  0
 23 24  1  0  0  0  0
 23 25  1  0  0  0  0
 23 26  1  0  0  0  0
M  END
> <VConfSearch Rank>
473

> <Conf_Id>
93

> <Delta U+W>
3.253

> <U+W>
-2.300

> <U>
51.609

> <W>
-53.909

> <W(PB)>
-56.178

> <W(SA)>
2.270

> <Valence>
5.204

> <Coulomb>
45.645

> <VdW>
0.760

> <VdW6>
-7.997

> <VdW12>
8.758

> <Bond>
0.240

> <Angle>
1.456

> <Pdih>
3.507

> <Idih>
0.000

> <Tether>
0.000

$$$$
VeraChem MOL file


 26 25  0  0  0  0  0  0  0  0999 V2000     
   22.4720   21.1296   24.9841 C   0  0  0  0  0  0  0  0  0  0  0  0
   22.5712   21.6968   24.0507 H   0  0  0  0  0  0  0  0  0  0  0  0
   21.6499   21.5656   25.5664 H   0  0  0  0  0  0  0  0  0  0  0  0
   23.3989   21.2717   25.5548 H   0  0  0  0  0  0  0  0  0  0  0  0
   22.2279   19.6268   24.7166 C   0  0  0  0  0  0  0  0  0  0  0  0
   22.2663   19.0894   25.6745 H   0  0  0  0  0  0  0  0  0  0  0  0
   23.0453   19.2211   24.1042 H   0  0  0  0  0  0  0  0  0  0  0  0
   20.8677   19.3316   24.0389 C   0  0  0  0  0  0  0  0  0  0  0  0
   20.7259   18.2437   24.0370 H   0  0  0  0  0  0  0  0  0  0  0  0
   20.0556   19.7574   24.6440 H   0  0  0  0  0  0  0  0  0  0  0  0
   20.7750   19.8574   22.5848 C   0  0  0  0  0  0  0  0  0  0  0  0
   21.5376   19.3606   21.9694 H   0  0  0  0  0  0  0  0  0  0  0  0
   21.0175   20.9273   22.5655 H   0  0  0  0  0  0  0  0  0  0  0  0
   19.3833   19.6794   21.9237 C   0  0  0  0  0  0  0  0  0  0  0  0
   18.6296   20.2650   22.4682 H   0  0  0  0  0  0  0  0  0  0  0  0
   19.4351   20.1230   20.9197 H   0  0  0  0  0  0  0  0  0  0  0  0
   18.9105   18.2110   21.7775 C   0  0  0  0  0  0  0  0  0  0  0  0
   19.7674   17.5569   21.5683 H   0  0  0  0  0  0  0  0  0  0  0  0
   18.2477   18.1423   20.9046 H   0  0  0  0  0  0  0  0  0  0  0  0
   18.1337   17.7023   23.0078 C   0  0  0  0  0  0  0  0  0  0  0  0
   18.7597   17.7551   23.9004 H   0  0  0  0  0  0  0  0  0  0  0  0
   17.2545   18.3315   23.1707 H   0  0  0  0  0  0  0  0  0  0  0  0
   17.6605   16.2709   22.8580 N   0  3  0  0  0  0  0  0  0  0  0  0
   17.0367   16.1573   22.0523 H   0  0  0  0  0  0  0  0  0  0  0  0
   17.1419   15.9525   23.6839 H   0  0  0  0  0  0  0  0  0  0  0  0
   18.4428   15.6213   22.7277 H   0  0  0  0  0  0  0  0  0  0  0  0
  1  2  1  0  0  0  0
  1  3  1  0  0  0  0
  1  4  1  0  0  0  0
  1  5  1  0  0  0  0
  5  6  1  0  0  0  0
  5  7  1  0  0  0  0
  5  8  1  0  0  0  0
  8  9  1  0  0  0  0
  8 10  1  0  0  0  0
  8 11  1  0  0  0  0
 11 12  1  0  0  0  0
 11 13  1  0  0  0  0
 11 14  1  0  0  0  0
 14 15  1  0  0  0  0
 14 16  1  0  0  0  0
 14 17  1  0  0  0  0
 17 18  1  0  0  0  0
 17 19  1  0  0  0  0
 17 20  1  0  0  0  0
 20 21  1  0  0  0  0
 20 22  1  0  0  0  0
 20 23  1  0  0  0  0
 23 24  1  0  0  0  0
 23 25  1  0  0  0  0
 23 26  1  0  0  0  0
M  END
> <VConfSearch Rank>
474

> <Conf_Id>
94

> <Delta U+W>
3.247

> <U+W>
-2.305

> <U>
51.609

> <W>
-53.914

> <W(PB)>
-56.221

> <W(SA)>
2.307

> <Valence>
5.204

> <Coulomb>
45.645

> <VdW>
0.760

> <VdW6>
-7.997

> <VdW12>
8.757

> <Bond>
0.240

> <Angle>
1.456

> <Pdih>
3.508

> <Idih>
0.000

> <Tether>
0.000

$$$$
VeraChem MOL file


 26 25  0  0  0  0  0  0  0  0999 V2000     
   22.5840   22.1958   23.3217 C   0  0  0  0  0  0  0  0  0  0  0  0
   22.1241   22.8594   24.0655 H   0  0  0  0  0  0  0  0  0  0  0  0
   23.3751   21.6201   23.8198 H   0  0  0  0  0  0  0  0  0  0  0  0
   23.0562   22.8243   22.5555 H   0  0  0  0  0  0  0  0  0  0  0  0
   21.5329   21.2604   22.6874 C   0  0  0  0  0  0  0  0  0  0  0  0
   22.0157   20.6335   21.9247 H   0  0  0  0  0  0  0  0  0  0  0  0
   20.7743   21.8632   22.1686 H   0  0  0  0  0  0  0  0  0  0  0  0
   20.8524   20.3638   23.7454 C   0  0  0  0  0  0  0  0  0  0  0  0
   21.6146   19.7648   24.2627 H   0  0  0  0  0  0  0  0  0  0  0  0
   20.3737   20.9951   24.5068 H   0  0  0  0  0  0  0  0  0  0  0  0
   19.7987   19.4260   23.1140 C   0  0  0  0  0  0  0  0  0  0  0  0
   20.2825   18.8040   22.3493 H   0  0  0  0  0  0  0  0  0  0  0  0
   19.0353   20.0265   22.6002 H   0  0  0  0  0  0  0  0  0  0  0  0
   19.1201   18.5276   24.1758 C   0  0  0  0  0  0  0  0  0  0  0  0
   19.8761   17.9072   24.6756 H   0  0  0  0  0  0  0  0  0  0  0  0
   18.6818   19.1630   24.9578 H   0  0  0  0  0  0  0  0  0  0  0  0
   18.0034   17.6279   23.5895 C   0  0  0  0  0  0  0  0  0  0  0  0
   17.2108   18.2619   23.1702 H   0  0  0  0  0  0  0  0  0  0  0  0
   17.5377   17.0524   24.4005 H   0  0  0  0  0  0  0  0  0  0  0  0
   18.4892   16.6555   22.4955 C   0  0  0  0  0  0  0  0  0  0  0  0
   17.6396   16.0797   22.1185 H   0  0  0  0  0  0  0  0  0  0  0  0
   18.9135   17.2194   21.6608 H   0  0  0  0  0  0  0  0  0  0  0  0
   19.5360   15.6710   22.9781 N   0  3  0  0  0  0  0  0  0  0  0  0
   19.1857   15.0897   23.7464 H   0  0  0  0  0  0  0  0  0  0  0  0
   20.3758   16.1496   23.3181 H   0  0  0  0  0  0  0  0  0  0  0  0
   19.8331   15.0338   22.2312 H   0  0  0  0  0  0  0  0  0  0  0  0
  1  2  1  0  0  0  0
  1  3  1  0  0  0  0
  1  4  1  0  0  0  0
  1  5  1  0  0  0  0
  5  6  1  0  0  0  0
  5  7  1  0  0  0  0
  5  8  1  0  0  0  0
  8  9  1  0  0  0  0
  8 10  1  0  0  0  0
  8 11  1  0  0  0  0
 11 12  1  0  0  0  0
 11 13  1  0  0  0  0
 11 14  1  0  0  0  0
 14 15  1  0  0  0  0
 14 16  1  0  0  0  0
 14 17  1  0  0  0  0
 17 18  1  0  0  0  0
 17 19  1  0  0  0  0
 17 20  1  0  0  0  0
 20 21  1  0  0  0  0
 20 22  1  0  0  0  0
 20 23  1  0  0  0  0
 23 24  1  0  0  0  0
 23 25  1  0  0  0  0
 23 26  1  0  0  0  0
M  END
> <VConfSearch Rank>
475

> <Conf_Id>
83

> <Delta U+W>
0.559

> <U+W>
-4.994

> <U>
48.668

> <W>
-53.661

> <W(PB)>
-55.972

> <W(SA)>
2.311

> <Valence>
2.543

> <Coulomb>
45.478

> <VdW>
0.646

> <VdW6>
-7.096

> <VdW12>
7.742

> <Bond>
0.176

> <Angle>
0.630

> <Pdih>
1.738

> <Idih>
0.000

> <Tether>
0.000

$$$$
VeraChem MOL file


 26 25  0  0  0  0  0  0  0  0999 V2000     
   21.5863   16.5011   20.6041 C   0  0  0  0  0  0  0  0  0  0  0  0
   22.0689   16.9312   19.7167 H   0  0  0  0  0  0  0  0  0  0  0  0
   22.3690   16.0813   21.2494 H   0  0  0  0  0  0  0  0  0  0  0  0
   20.9449   15.6748   20.2712 H   0  0  0  0  0  0  0  0  0  0  0  0
   20.7586   17.5645   21.3566 C   0  0  0  0  0  0  0  0  0  0  0  0
   20.2602   17.0880   22.2110 H   0  0  0  0  0  0  0  0  0  0  0  0
   19.9667   17.9440   20.6960 H   0  0  0  0  0  0  0  0  0  0  0  0
   21.6432   18.7382   21.8398 C   0  0  0  0  0  0  0  0  0  0  0  0
   22.4011   18.3660   22.5428 H   0  0  0  0  0  0  0  0  0  0  0  0
   22.1940   19.1463   20.9810 H   0  0  0  0  0  0  0  0  0  0  0  0
   20.8429   19.8881   22.4997 C   0  0  0  0  0  0  0  0  0  0  0  0
   20.0949   20.2694   21.7909 H   0  0  0  0  0  0  0  0  0  0  0  0
   21.5320   20.7206   22.6981 H   0  0  0  0  0  0  0  0  0  0  0  0
   20.1499   19.4810   23.8223 C   0  0  0  0  0  0  0  0  0  0  0  0
   19.4066   18.6987   23.6245 H   0  0  0  0  0  0  0  0  0  0  0  0
   20.8928   19.0519   24.5089 H   0  0  0  0  0  0  0  0  0  0  0  0
   19.4590   20.6877   24.5007 C   0  0  0  0  0  0  0  0  0  0  0  0
   18.6947   21.1078   23.8334 H   0  0  0  0  0  0  0  0  0  0  0  0
   20.1979   21.4822   24.6702 H   0  0  0  0  0  0  0  0  0  0  0  0
   18.8172   20.3238   25.8536 C   0  0  0  0  0  0  0  0  0  0  0  0
   19.5743   19.8977   26.5174 H   0  0  0  0  0  0  0  0  0  0  0  0
   18.4231   21.2293   26.3229 H   0  0  0  0  0  0  0  0  0  0  0  0
   17.6768   19.3310   25.7415 N   0  3  0  0  0  0  0  0  0  0  0  0
   17.9868   18.4400   25.3417 H   0  0  0  0  0  0  0  0  0  0  0  0
   16.9212   19.6848   25.1457 H   0  0  0  0  0  0  0  0  0  0  0  0
   17.2634   19.1216   26.6567 H   0  0  0  0  0  0  0  0  0  0  0  0
  1  2  1  0  0  0  0
  1  3  1  0  0  0  0
  1  4  1  0  0  0  0
  1  5  1  0  0  0  0
  5  6  1  0  0  0  0
  5  7  1  0  0  0  0
  5  8  1  0  0  0  0
  8  9  1  0  0  0  0
  8 10  1  0  0  0  0
  8 11  1  0  0  0  0
 11 12  1  0  0  0  0
 11 13  1  0  0  0  0
 11 14  1  0  0  0  0
 14 15  1  0  0  0  0
 14 16  1  0  0  0  0
 14 17  1  0  0  0  0
 17 18  1  0  0  0  0
 17 19  1  0  0  0  0
 17 20  1  0  0  0  0
 20 21  1  0  0  0  0
 20 22  1  0  0  0  0
 20 23  1  0  0  0  0
 23 24  1  0  0  0  0
 23 25  1  0  0  0  0
 23 26  1  0  0  0  0
M  END
> <VConfSearch Rank>
476

> <Conf_Id>
18

> <Delta U+W>
0.759

> <U+W>
-4.793

> <U>
48.945

> <W>
-53.738

> <W(PB)>
-56.051

> <W(SA)>
2.313

> <Valence>
2.802

> <Coulomb>
45.335

> <VdW>
0.807

> <VdW6>
-6.962

> <VdW12>
7.769

> <Bond>
0.189

> <Angle>
0.696

> <Pdih>
1.917

> <Idih>
0.000

> <Tether>
0.000

$$$$
VeraChem MOL file


 26 25  0  0  0  0  0  0  0  0999 V2000     
   18.9131   21.6485   20.6555 C   0  0  0  0  0  0  0  0  0  0  0  0
   18.1984   22.1744   21.3020 H   0  0  0  0  0  0  0  0  0  0  0  0
   19.6815   22.3665   20.3402 H   0  0  0  0  0  0  0  0  0  0  0  0
   18.3748   21.3160   19.7584 H   0  0  0  0  0  0  0  0  0  0  0  0
   19.5440   20.4462   21.3894 C   0  0  0  0  0  0  0  0  0  0  0  0
   20.2309   19.9239   20.7089 H   0  0  0  0  0  0  0  0  0  0  0  0
   18.7509   19.7334   21.6511 H   0  0  0  0  0  0  0  0  0  0  0  0
   20.3052   20.8903   22.6609 C   0  0  0  0  0  0  0  0  0  0  0  0
   21.0371   21.6625   22.3867 H   0  0  0  0  0  0  0  0  0  0  0  0
   19.6067   21.3641   23.3644 H   0  0  0  0  0  0  0  0  0  0  0  0
   21.0542   19.7359   23.3712 C   0  0  0  0  0  0  0  0  0  0  0  0
   21.6582   20.1627   24.1838 H   0  0  0  0  0  0  0  0  0  0  0  0
   21.7629   19.2719   22.6713 H   0  0  0  0  0  0  0  0  0  0  0  0
   20.1138   18.6547   23.9562 C   0  0  0  0  0  0  0  0  0  0  0  0
   19.3737   19.1297   24.6150 H   0  0  0  0  0  0  0  0  0  0  0  0
   19.5568   18.1708   23.1443 H   0  0  0  0  0  0  0  0  0  0  0  0
   20.8983   17.5843   24.7515 C   0  0  0  0  0  0  0  0  0  0  0  0
   21.4797   18.0733   25.5445 H   0  0  0  0  0  0  0  0  0  0  0  0
   21.6228   17.0837   24.0953 H   0  0  0  0  0  0  0  0  0  0  0  0
   19.9791   16.5317   25.4009 C   0  0  0  0  0  0  0  0  0  0  0  0
   20.5796   15.8569   26.0171 H   0  0  0  0  0  0  0  0  0  0  0  0
   19.2514   17.0279   26.0487 H   0  0  0  0  0  0  0  0  0  0  0  0
   19.2178   15.6845   24.4001 N   0  3  0  0  0  0  0  0  0  0  0  0
   19.8498   15.1742   23.7747 H   0  0  0  0  0  0  0  0  0  0  0  0
   18.6022   16.2536   23.8112 H   0  0  0  0  0  0  0  0  0  0  0  0
   18.6274   14.9858   24.8644 H   0  0  0  0  0  0  0  0  0  0  0  0
  1  2  1  0  0  0  0
  1  3  1  0  0  0  0
  1  4  1  0  0  0  0
  1  5  1  0  0  0  0
  5  6  1  0  0  0  0
  5  7  1  0  0  0  0
  5  8  1  0  0  0  0
  8  9  1  0  0  0  0
  8 10  1  0  0  0  0
  8 11  1  0  0  0  0
 11 12  1  0  0  0  0
 11 13  1  0  0  0  0
 11 14  1  0  0  0  0
 14 15  1  0  0  0  0
 14 16  1  0  0  0  0
 14 17  1  0  0  0  0
 17 18  1  0  0  0  0
 17 19  1  0  0  0  0
 17 20  1  0  0  0  0
 20 21  1  0  0  0  0
 20 22  1  0  0  0  0
 20 23  1  0  0  0  0
 23 24  1  0  0  0  0
 23 25  1  0  0  0  0
 23 26  1  0  0  0  0
M  END
> <VConfSearch Rank>
477

> <Conf_Id>
17

> <Delta U+W>
0.843

> <U+W>
-4.709

> <U>
48.945

> <W>
-53.653

> <W(PB)>
-55.991

> <W(SA)>
2.338

> <Valence>
2.802

> <Coulomb>
45.335

> <VdW>
0.807

> <VdW6>
-6.962

> <VdW12>
7.769

> <Bond>
0.189

> <Angle>
0.696

> <Pdih>
1.917

> <Idih>
0.000

> <Tether>
0.000

$$$$
VeraChem MOL file


 26 25  0  0  0  0  0  0  0  0999 V2000     
   22.3203   17.9672   20.9877 C   0  0  0  0  0  0  0  0  0  0  0  0
   21.7078   18.8694   20.8684 H   0  0  0  0  0  0  0  0  0  0  0  0
   23.1577   18.2052   21.6564 H   0  0  0  0  0  0  0  0  0  0  0  0
   22.7372   17.7194   20.0030 H   0  0  0  0  0  0  0  0  0  0  0  0
   21.4897   16.7848   21.5362 C   0  0  0  0  0  0  0  0  0  0  0  0
   22.1111   15.8785   21.5204 H   0  0  0  0  0  0  0  0  0  0  0  0
   20.6410   16.5872   20.8665 H   0  0  0  0  0  0  0  0  0  0  0  0
   20.9767   17.0095   22.9792 C   0  0  0  0  0  0  0  0  0  0  0  0
   20.4983   16.0833   23.3266 H   0  0  0  0  0  0  0  0  0  0  0  0
   21.8300   17.1863   23.6485 H   0  0  0  0  0  0  0  0  0  0  0  0
   19.9677   18.1766   23.1006 C   0  0  0  0  0  0  0  0  0  0  0  0
   19.1407   18.0203   22.3943 H   0  0  0  0  0  0  0  0  0  0  0  0
   20.4576   19.1164   22.8170 H   0  0  0  0  0  0  0  0  0  0  0  0
   19.4042   18.2986   24.5369 C   0  0  0  0  0  0  0  0  0  0  0  0
   18.9527   17.3409   24.8308 H   0  0  0  0  0  0  0  0  0  0  0  0
   20.2258   18.4843   25.2427 H   0  0  0  0  0  0  0  0  0  0  0  0
   18.3400   19.4121   24.6794 C   0  0  0  0  0  0  0  0  0  0  0  0
   17.9239   19.3791   25.6952 H   0  0  0  0  0  0  0  0  0  0  0  0
   17.5065   19.2162   23.9917 H   0  0  0  0  0  0  0  0  0  0  0  0
   18.9102   20.8183   24.4150 C   0  0  0  0  0  0  0  0  0  0  0  0
   19.7396   21.0137   25.1000 H   0  0  0  0  0  0  0  0  0  0  0  0
   19.2875   20.8785   23.3910 H   0  0  0  0  0  0  0  0  0  0  0  0
   17.8840   21.9178   24.5973 N   0  3  0  0  0  0  0  0  0  0  0  0
   18.2832   22.8454   24.4170 H   0  0  0  0  0  0  0  0  0  0  0  0
   17.5080   21.9353   25.5510 H   0  0  0  0  0  0  0  0  0  0  0  0
   17.0877   21.8067   23.9611 H   0  0  0  0  0  0  0  0  0  0  0  0
  1  2  1  0  0  0  0
  1  3  1  0  0  0  0
  1  4  1  0  0  0  0
  1  5  1  0  0  0  0
  5  6  1  0  0  0  0
  5  7  1  0  0  0  0
  5  8  1  0  0  0  0
  8  9  1  0  0  0  0
  8 10  1  0  0  0  0
  8 11  1  0  0  0  0
 11 12  1  0  0  0  0
 11 13  1  0  0  0  0
 11 14  1  0  0  0  0
 14 15  1  0  0  0  0
 14 16  1  0  0  0  0
 14 17  1  0  0  0  0
 17 18  1  0  0  0  0
 17 19  1  0  0  0  0
 17 20  1  0  0  0  0
 20 21  1  0  0  0  0
 20 22  1  0  0  0  0
 20 23  1  0  0  0  0
 23 24  1  0  0  0  0
 23 25  1  0  0  0  0
 23 26  1  0  0  0  0
M  END
> <VConfSearch Rank>
478

> <Conf_Id>
96

> <Delta U+W>
0.912

> <U+W>
-4.640

> <U>
48.723

> <W>
-53.364

> <W(PB)>
-55.683

> <W(SA)>
2.320

> <Valence>
2.962

> <Coulomb>
44.993

> <VdW>
0.768

> <VdW6>
-7.008

> <VdW12>
7.776

> <Bond>
0.188

> <Angle>
0.757

> <Pdih>
2.018

> <Idih>
0.000

> <Tether>
0.000

$$$$
VeraChem MOL file


 26 25  0  0  0  0  0  0  0  0999 V2000     
   20.5143   16.0523   25.1021 C   0  0  0  0  0  0  0  0  0  0  0  0
   20.9834   15.3504   25.8037 H   0  0  0  0  0  0  0  0  0  0  0  0
   19.8415   15.4779   24.4522 H   0  0  0  0  0  0  0  0  0  0  0  0
   21.3115   16.4794   24.4812 H   0  0  0  0  0  0  0  0  0  0  0  0
   19.7426   17.1495   25.8700 C   0  0  0  0  0  0  0  0  0  0  0  0
   20.4421   17.7296   26.4881 H   0  0  0  0  0  0  0  0  0  0  0  0
   19.0431   16.6677   26.5674 H   0  0  0  0  0  0  0  0  0  0  0  0
   18.9454   18.1024   24.9469 C   0  0  0  0  0  0  0  0  0  0  0  0
   18.2334   17.5202   24.3457 H   0  0  0  0  0  0  0  0  0  0  0  0
   18.3432   18.7729   25.5755 H   0  0  0  0  0  0  0  0  0  0  0  0
   19.8424   18.9524   24.0153 C   0  0  0  0  0  0  0  0  0  0  0  0
   20.3995   18.2919   23.3392 H   0  0  0  0  0  0  0  0  0  0  0  0
   20.5845   19.4950   24.6170 H   0  0  0  0  0  0  0  0  0  0  0  0
   19.0120   19.9616   23.1862 C   0  0  0  0  0  0  0  0  0  0  0  0
   18.2882   19.4206   22.5609 H   0  0  0  0  0  0  0  0  0  0  0  0
   18.4238   20.5920   23.8674 H   0  0  0  0  0  0  0  0  0  0  0  0
   19.8830   20.8764   22.2932 C   0  0  0  0  0  0  0  0  0  0  0  0
   20.5916   21.4359   22.9183 H   0  0  0  0  0  0  0  0  0  0  0  0
   19.2368   21.6199   21.8078 H   0  0  0  0  0  0  0  0  0  0  0  0
   20.6517   20.0952   21.2110 C   0  0  0  0  0  0  0  0  0  0  0  0
   21.3326   19.3818   21.6824 H   0  0  0  0  0  0  0  0  0  0  0  0
   19.9463   19.5385   20.5882 H   0  0  0  0  0  0  0  0  0  0  0  0
   21.4715   20.9899   20.3040 N   0  3  0  0  0  0  0  0  0  0  0  0
   22.1742   21.5230   20.8266 H   0  0  0  0  0  0  0  0  0  0  0  0
   20.8861   21.6689   19.8065 H   0  0  0  0  0  0  0  0  0  0  0  0
   21.9750   20.4510   19.5909 H   0  0  0  0  0  0  0  0  0  0  0  0
  1  2  1  0  0  0  0
  1  3  1  0  0  0  0
  1  4  1  0  0  0  0
  1  5  1  0  0  0  0
  5  6  1  0  0  0  0
  5  7  1  0  0  0  0
  5  8  1  0  0  0  0
  8  9  1  0  0  0  0
  8 10  1  0  0  0  0
  8 11  1  0  0  0  0
 11 12  1  0  0  0  0
 11 13  1  0  0  0  0
 11 14  1  0  0  0  0
 14 15  1  0  0  0  0
 14 16  1  0  0  0  0
 14 17  1  0  0  0  0
 17 18  1  0  0  0  0
 17 19  1  0  0  0  0
 17 20  1  0  0  0  0
 20 21  1  0  0  0  0
 20 22  1  0  0  0  0
 20 23  1  0  0  0  0
 23 24  1  0  0  0  0
 23 25  1  0  0  0  0
 23 26  1  0  0  0  0
M  END
> <VConfSearch Rank>
479

> <Conf_Id>
133

> <Delta U+W>
0.844

> <U+W>
-4.708

> <U>
48.723

> <W>
-53.431

> <W(PB)>
-55.776

> <W(SA)>
2.344

> <Valence>
2.962

> <Coulomb>
44.993

> <VdW>
0.768

> <VdW6>
-7.008

> <VdW12>
7.776

> <Bond>
0.188

> <Angle>
0.756

> <Pdih>
2.018

> <Idih>
0.000

> <Tether>
0.000

$$$$
VeraChem MOL file


 26 25  0  0  0  0  0  0  0  0999 V2000     
   20.6524   21.4201   21.2106 C   0  0  0  0  0  0  0  0  0  0  0  0
   21.4339   21.2479   20.4592 H   0  0  0  0  0  0  0  0  0  0  0  0
   19.8904   20.6386   21.1004 H   0  0  0  0  0  0  0  0  0  0  0  0
   20.1744   22.3820   20.9842 H   0  0  0  0  0  0  0  0  0  0  0  0
   21.2470   21.4336   22.6370 C   0  0  0  0  0  0  0  0  0  0  0  0
   20.4452   21.5872   23.3715 H   0  0  0  0  0  0  0  0  0  0  0  0
   21.9131   22.3023   22.7342 H   0  0  0  0  0  0  0  0  0  0  0  0
   22.0520   20.1546   22.9815 C   0  0  0  0  0  0  0  0  0  0  0  0
   22.9196   20.0902   22.3105 H   0  0  0  0  0  0  0  0  0  0  0  0
   22.4635   20.2579   23.9950 H   0  0  0  0  0  0  0  0  0  0  0  0
   21.2565   18.8265   22.8937 C   0  0  0  0  0  0  0  0  0  0  0  0
   21.9371   17.9999   23.1400 H   0  0  0  0  0  0  0  0  0  0  0  0
   20.9324   18.6520   21.8591 H   0  0  0  0  0  0  0  0  0  0  0  0
   20.0348   18.7729   23.8420 C   0  0  0  0  0  0  0  0  0  0  0  0
   20.3570   18.9925   24.8693 H   0  0  0  0  0  0  0  0  0  0  0  0
   19.3094   19.5481   23.5617 H   0  0  0  0  0  0  0  0  0  0  0  0
   19.3388   17.3946   23.8038 C   0  0  0  0  0  0  0  0  0  0  0  0
   20.0520   16.6113   24.0934 H   0  0  0  0  0  0  0  0  0  0  0  0
   19.0147   17.1726   22.7782 H   0  0  0  0  0  0  0  0  0  0  0  0
   18.1224   17.3519   24.7454 C   0  0  0  0  0  0  0  0  0  0  0  0
   18.4431   17.5566   25.7704 H   0  0  0  0  0  0  0  0  0  0  0  0
   17.4016   18.1193   24.4506 H   0  0  0  0  0  0  0  0  0  0  0  0
   17.4114   16.0141   24.7362 N   0  3  0  0  0  0  0  0  0  0  0  0
   16.6047   16.0071   25.3699 H   0  0  0  0  0  0  0  0  0  0  0  0
   18.0292   15.2509   25.0313 H   0  0  0  0  0  0  0  0  0  0  0  0
   17.0600   15.7744   23.8032 H   0  0  0  0  0  0  0  0  0  0  0  0
  1  2  1  0  0  0  0
  1  3  1  0  0  0  0
  1  4  1  0  0  0  0
  1  5  1  0  0  0  0
  5  6  1  0  0  0  0
  5  7  1  0  0  0  0
  5  8  1  0  0  0  0
  8  9  1  0  0  0  0
  8 10  1  0  0  0  0
  8 11  1  0  0  0  0
 11 12  1  0  0  0  0
 11 13  1  0  0  0  0
 11 14  1  0  0  0  0
 14 15  1  0  0  0  0
 14 16  1  0  0  0  0
 14 17  1  0  0  0  0
 17 18  1  0  0  0  0
 17 19  1  0  0  0  0
 17 20  1  0  0  0  0
 20 21  1  0  0  0  0
 20 22  1  0  0  0  0
 20 23  1  0  0  0  0
 23 24  1  0  0  0  0
 23 25  1  0  0  0  0
 23 26  1  0  0  0  0
M  END
> <VConfSearch Rank>
480

> <Conf_Id>
106

> <Delta U+W>
0.767

> <U+W>
-4.785

> <U>
48.494

> <W>
-53.279

> <W(PB)>
-55.569

> <W(SA)>
2.290

> <Valence>
3.117

> <Coulomb>
44.693

> <VdW>
0.684

> <VdW6>
-7.347

> <VdW12>
8.030

> <Bond>
0.208

> <Angle>
1.039

> <Pdih>
1.870

> <Idih>
0.000

> <Tether>
0.000

$$$$
VeraChem MOL file


 26 25  0  0  0  0  0  0  0  0999 V2000     
   24.3744   19.0441   22.2325 C   0  0  0  0  0  0  0  0  0  0  0  0
   24.4047   18.0277   21.8189 H   0  0  0  0  0  0  0  0  0  0  0  0
   24.2566   19.7490   21.3991 H   0  0  0  0  0  0  0  0  0  0  0  0
   25.3435   19.2435   22.7080 H   0  0  0  0  0  0  0  0  0  0  0  0
   23.2258   19.1940   23.2524 C   0  0  0  0  0  0  0  0  0  0  0  0
   23.2421   20.2092   23.6732 H   0  0  0  0  0  0  0  0  0  0  0  0
   23.3891   18.5011   24.0898 H   0  0  0  0  0  0  0  0  0  0  0  0
   21.8490   18.9184   22.6083 C   0  0  0  0  0  0  0  0  0  0  0  0
   21.6914   19.6117   21.7704 H   0  0  0  0  0  0  0  0  0  0  0  0
   21.8384   17.9035   22.1872 H   0  0  0  0  0  0  0  0  0  0  0  0
   20.6961   19.0677   23.6266 C   0  0  0  0  0  0  0  0  0  0  0  0
   20.7077   20.0827   24.0473 H   0  0  0  0  0  0  0  0  0  0  0  0
   20.8548   18.3744   24.4643 H   0  0  0  0  0  0  0  0  0  0  0  0
   19.3190   18.7916   22.9816 C   0  0  0  0  0  0  0  0  0  0  0  0
   19.1600   19.4848   22.1437 H   0  0  0  0  0  0  0  0  0  0  0  0
   19.3070   17.7765   22.5608 H   0  0  0  0  0  0  0  0  0  0  0  0
   18.1663   18.9407   23.9988 C   0  0  0  0  0  0  0  0  0  0  0  0
   18.1715   19.9559   24.4177 H   0  0  0  0  0  0  0  0  0  0  0  0
   18.3189   18.2458   24.8354 H   0  0  0  0  0  0  0  0  0  0  0  0
   16.8004   18.6636   23.3463 C   0  0  0  0  0  0  0  0  0  0  0  0
   16.6368   19.3642   22.5230 H   0  0  0  0  0  0  0  0  0  0  0  0
   16.7848   17.6479   22.9420 H   0  0  0  0  0  0  0  0  0  0  0  0
   15.6421   18.7999   24.3134 N   0  3  0  0  0  0  0  0  0  0  0  0
   14.7420   18.6112   23.8587 H   0  0  0  0  0  0  0  0  0  0  0  0
   15.5840   19.7437   24.7098 H   0  0  0  0  0  0  0  0  0  0  0  0
   15.7218   18.1467   25.0997 H   0  0  0  0  0  0  0  0  0  0  0  0
  1  2  1  0  0  0  0
  1  3  1  0  0  0  0
  1  4  1  0  0  0  0
  1  5  1  0  0  0  0
  5  6  1  0  0  0  0
  5  7  1  0  0  0  0
  5  8  1  0  0  0  0
  8  9  1  0  0  0  0
  8 10  1  0  0  0  0
  8 11  1  0  0  0  0
 11 12  1  0  0  0  0
 11 13  1  0  0  0  0
 11 14  1  0  0  0  0
 14 15  1  0  0  0  0
 14 16  1  0  0  0  0
 14 17  1  0  0  0  0
 17 18  1  0  0  0  0
 17 19  1  0  0  0  0
 17 20  1  0  0  0  0
 20 21  1  0  0  0  0
 20 22  1  0  0  0  0
 20 23  1  0  0  0  0
 23 24  1  0  0  0  0
 23 25  1  0  0  0  0
 23 26  1  0  0  0  0
M  END
> <VConfSearch Rank>
481

> <Conf_Id>
25

> <Delta U+W>
0.000

> <U+W>
-5.552

> <U>
47.192

> <W>
-52.745

> <W(PB)>
-55.134

> <W(SA)>
2.389

> <Valence>
2.156

> <Coulomb>
44.449

> <VdW>
0.587

> <VdW6>
-5.761

> <VdW12>
6.348

> <Bond>
0.129

> <Angle>
0.393

> <Pdih>
1.634

> <Idih>
0.000

> <Tether>
0.000

$$$$
VeraChem MOL file


 26 25  0  0  0  0  0  0  0  0999 V2000     
   23.8658   17.0615   22.7172 C   0  0  0  0  0  0  0  0  0  0  0  0
   24.1677   17.6844   21.8651 H   0  0  0  0  0  0  0  0  0  0  0  0
   24.2632   17.5187   23.6328 H   0  0  0  0  0  0  0  0  0  0  0  0
   24.3381   16.0776   22.5994 H   0  0  0  0  0  0  0  0  0  0  0  0
   22.3301   16.9240   22.7872 C   0  0  0  0  0  0  0  0  0  0  0  0
   22.0607   16.2689   23.6276 H   0  0  0  0  0  0  0  0  0  0  0  0
   21.9660   16.4334   21.8736 H   0  0  0  0  0  0  0  0  0  0  0  0
   21.6397   18.2959   22.9531 C   0  0  0  0  0  0  0  0  0  0  0  0
   22.0086   18.7833   23.8662 H   0  0  0  0  0  0  0  0  0  0  0  0
   21.9137   18.9478   22.1120 H   0  0  0  0  0  0  0  0  0  0  0  0
   20.1017   18.1622   23.0237 C   0  0  0  0  0  0  0  0  0  0  0  0
   19.8285   17.5103   23.8651 H   0  0  0  0  0  0  0  0  0  0  0  0
   19.7341   17.6736   22.1106 H   0  0  0  0  0  0  0  0  0  0  0  0
   19.4113   19.5349   23.1891 C   0  0  0  0  0  0  0  0  0  0  0  0
   19.7859   20.0205   24.1001 H   0  0  0  0  0  0  0  0  0  0  0  0
   19.6822   20.1857   22.3460 H   0  0  0  0  0  0  0  0  0  0  0  0
   17.8719   19.3987   23.2604 C   0  0  0  0  0  0  0  0  0  0  0  0
   17.5884   18.7751   24.1188 H   0  0  0  0  0  0  0  0  0  0  0  0
   17.5108   18.8791   22.3628 H   0  0  0  0  0  0  0  0  0  0  0  0
   17.1574   20.7606   23.3557 C   0  0  0  0  0  0  0  0  0  0  0  0
   17.4424   21.3862   22.5055 H   0  0  0  0  0  0  0  0  0  0  0  0
   16.0756   20.6060   23.3177 H   0  0  0  0  0  0  0  0  0  0  0  0
   17.4679   21.5252   24.6276 N   0  3  0  0  0  0  0  0  0  0  0  0
   18.4672   21.7369   24.7090 H   0  0  0  0  0  0  0  0  0  0  0  0
   17.2006   20.9967   25.4645 H   0  0  0  0  0  0  0  0  0  0  0  0
   16.9674   22.4198   24.6658 H   0  0  0  0  0  0  0  0  0  0  0  0
  1  2  1  0  0  0  0
  1  3  1  0  0  0  0
  1  4  1  0  0  0  0
  1  5  1  0  0  0  0
  5  6  1  0  0  0  0
  5  7  1  0  0  0  0
  5  8  1  0  0  0  0
  8  9  1  0  0  0  0
  8 10  1  0  0  0  0
  8 11  1  0  0  0  0
 11 12  1  0  0  0  0
 11 13  1  0  0  0  0
 11 14  1  0  0  0  0
 14 15  1  0  0  0  0
 14 16  1  0  0  0  0
 14 17  1  0  0  0  0
 17 18  1  0  0  0  0
 17 19  1  0  0  0  0
 17 20  1  0  0  0  0
 20 21  1  0  0  0  0
 20 22  1  0  0  0  0
 20 23  1  0  0  0  0
 23 24  1  0  0  0  0
 23 25  1  0  0  0  0
 23 26  1  0  0  0  0
M  END
> <VConfSearch Rank>
482

> <Conf_Id>
20

> <Delta U+W>
0.150

> <U+W>
-5.403

> <U>
47.845

> <W>
-53.248

> <W(PB)>
-55.599

> <W(SA)>
2.351

> <Valence>
2.258

> <Coulomb>
44.893

> <VdW>
0.694

> <VdW6>
-6.285

> <VdW12>
6.979

> <Bond>
0.149

> <Angle>
0.434

> <Pdih>
1.675

> <Idih>
0.000

> <Tether>
0.000

$$$$
VeraChem MOL file


 26 25  0  0  0  0  0  0  0  0999 V2000     
   21.9186   20.4778   19.7457 C   0  0  0  0  0  0  0  0  0  0  0  0
   21.3358   21.4071   19.7896 H   0  0  0  0  0  0  0  0  0  0  0  0
   22.8826   20.6551   20.2401 H   0  0  0  0  0  0  0  0  0  0  0  0
   22.1176   20.2545   18.6895 H   0  0  0  0  0  0  0  0  0  0  0  0
   21.1577   19.3136   20.4150 C   0  0  0  0  0  0  0  0  0  0  0  0
   21.7496   18.3920   20.3253 H   0  0  0  0  0  0  0  0  0  0  0  0
   20.2147   19.1382   19.8784 H   0  0  0  0  0  0  0  0  0  0  0  0
   20.8646   19.6026   21.9039 C   0  0  0  0  0  0  0  0  0  0  0  0
   21.8099   19.7794   22.4355 H   0  0  0  0  0  0  0  0  0  0  0  0
   20.2749   20.5259   21.9884 H   0  0  0  0  0  0  0  0  0  0  0  0
   20.1027   18.4389   22.5775 C   0  0  0  0  0  0  0  0  0  0  0  0
   20.6928   17.5160   22.4912 H   0  0  0  0  0  0  0  0  0  0  0  0
   19.1574   18.2629   22.0455 H   0  0  0  0  0  0  0  0  0  0  0  0
   19.8103   18.7280   24.0672 C   0  0  0  0  0  0  0  0  0  0  0  0
   20.7559   18.9011   24.5998 H   0  0  0  0  0  0  0  0  0  0  0  0
   19.2248   19.6537   24.1478 H   0  0  0  0  0  0  0  0  0  0  0  0
   19.0467   17.5624   24.7394 C   0  0  0  0  0  0  0  0  0  0  0  0
   19.6222   16.6346   24.6212 H   0  0  0  0  0  0  0  0  0  0  0  0
   18.0851   17.4012   24.2341 H   0  0  0  0  0  0  0  0  0  0  0  0
   18.8048   17.7976   26.2429 C   0  0  0  0  0  0  0  0  0  0  0  0
   18.3394   16.9092   26.6785 H   0  0  0  0  0  0  0  0  0  0  0  0
   19.7601   17.9644   26.7478 H   0  0  0  0  0  0  0  0  0  0  0  0
   17.9034   18.9804   26.5385 N   0  3  0  0  0  0  0  0  0  0  0  0
   16.9792   18.8717   26.1082 H   0  0  0  0  0  0  0  0  0  0  0  0
   18.3003   19.8573   26.1873 H   0  0  0  0  0  0  0  0  0  0  0  0
   17.7524   19.1014   27.5459 H   0  0  0  0  0  0  0  0  0  0  0  0
  1  2  1  0  0  0  0
  1  3  1  0  0  0  0
  1  4  1  0  0  0  0
  1  5  1  0  0  0  0
  5  6  1  0  0  0  0
  5  7  1  0  0  0  0
  5  8  1  0  0  0  0
  8  9  1  0  0  0  0
  8 10  1  0  0  0  0
  8 11  1  0  0  0  0
 11 12  1  0  0  0  0
 11 13  1  0  0  0  0
 11 14  1  0  0  0  0
 14 15  1  0  0  0  0
 14 16  1  0  0  0  0
 14 17  1  0  0  0  0
 17 18  1  0  0  0  0
 17 19  1  0  0  0  0
 17 20  1  0  0  0  0
 20 21  1  0  0  0  0
 20 22  1  0  0  0  0
 20 23  1  0  0  0  0
 23 24  1  0  0  0  0
 23 25  1  0  0  0  0
 23 26  1  0  0  0  0
M  END
> <VConfSearch Rank>
483

> <Conf_Id>
19

> <Delta U+W>
0.162

> <U+W>
-5.391

> <U>
47.845

> <W>
-53.235

> <W(PB)>
-55.585

> <W(SA)>
2.349

> <Valence>
2.258

> <Coulomb>
44.893

> <VdW>
0.694

> <VdW6>
-6.285

> <VdW12>
6.979

> <Bond>
0.149

> <Angle>
0.434

> <Pdih>
1.675

> <Idih>
0.000

> <Tether>
0.000

$$$$
VeraChem MOL file


 26 25  0  0  0  0  0  0  0  0999 V2000     
   22.9077   17.1304   20.8634 C   0  0  0  0  0  0  0  0  0  0  0  0
   22.5276   16.7048   19.9255 H   0  0  0  0  0  0  0  0  0  0  0  0
   23.4626   18.0467   20.6230 H   0  0  0  0  0  0  0  0  0  0  0  0
   23.6153   16.4117   21.2967 H   0  0  0  0  0  0  0  0  0  0  0  0
   21.7556   17.4222   21.8481 C   0  0  0  0  0  0  0  0  0  0  0  0
   22.1779   17.8066   22.7859 H   0  0  0  0  0  0  0  0  0  0  0  0
   21.2386   16.4836   22.0920 H   0  0  0  0  0  0  0  0  0  0  0  0
   20.7467   18.4370   21.2603 C   0  0  0  0  0  0  0  0  0  0  0  0
   21.2530   19.3926   21.0659 H   0  0  0  0  0  0  0  0  0  0  0  0
   20.3982   18.0693   20.2853 H   0  0  0  0  0  0  0  0  0  0  0  0
   19.5118   18.6779   22.1631 C   0  0  0  0  0  0  0  0  0  0  0  0
   18.9973   17.7241   22.3443 H   0  0  0  0  0  0  0  0  0  0  0  0
   18.8007   19.3127   21.6164 H   0  0  0  0  0  0  0  0  0  0  0  0
   19.8541   19.3523   23.5134 C   0  0  0  0  0  0  0  0  0  0  0  0
   20.5042   18.6962   24.1070 H   0  0  0  0  0  0  0  0  0  0  0  0
   20.4164   20.2784   23.3299 H   0  0  0  0  0  0  0  0  0  0  0  0
   18.5841   19.6755   24.3311 C   0  0  0  0  0  0  0  0  0  0  0  0
   18.0198   18.7520   24.5177 H   0  0  0  0  0  0  0  0  0  0  0  0
   17.9304   20.3416   23.7523 H   0  0  0  0  0  0  0  0  0  0  0  0
   18.9331   20.3420   25.6735 C   0  0  0  0  0  0  0  0  0  0  0  0
   19.5705   19.6755   26.2608 H   0  0  0  0  0  0  0  0  0  0  0  0
   19.4811   21.2706   25.4919 H   0  0  0  0  0  0  0  0  0  0  0  0
   17.7119   20.6749   26.5060 N   0  3  0  0  0  0  0  0  0  0  0  0
   17.1658   19.8379   26.7352 H   0  0  0  0  0  0  0  0  0  0  0  0
   17.0826   21.3221   26.0198 H   0  0  0  0  0  0  0  0  0  0  0  0
   17.9664   21.1180   27.3956 H   0  0  0  0  0  0  0  0  0  0  0  0
  1  2  1  0  0  0  0
  1  3  1  0  0  0  0
  1  4  1  0  0  0  0
  1  5  1  0  0  0  0
  5  6  1  0  0  0  0
  5  7  1  0  0  0  0
  5  8  1  0  0  0  0
  8  9  1  0  0  0  0
  8 10  1  0  0  0  0
  8 11  1  0  0  0  0
 11 12  1  0  0  0  0
 11 13  1  0  0  0  0
 11 14  1  0  0  0  0
 14 15  1  0  0  0  0
 14 16  1  0  0  0  0
 14 17  1  0  0  0  0
 17 18  1  0  0  0  0
 17 19  1  0  0  0  0
 17 20  1  0  0  0  0
 20 21  1  0  0  0  0
 20 22  1  0  0  0  0
 20 23  1  0  0  0  0
 23 24  1  0  0  0  0
 23 25  1  0  0  0  0
 23 26  1  0  0  0  0
M  END
> <VConfSearch Rank>
484

> <Conf_Id>
37

> <Delta U+W>
0.565

> <U+W>
-4.988

> <U>
48.035

> <W>
-53.022

> <W(PB)>
-55.379

> <W(SA)>
2.357

> <Valence>
2.701

> <Coulomb>
44.622

> <VdW>
0.712

> <VdW6>
-6.418

> <VdW12>
7.129

> <Bond>
0.168

> <Angle>
0.659

> <Pdih>
1.875

> <Idih>
0.000

> <Tether>
0.000

$$$$
VeraChem MOL file


 26 25  0  0  0  0  0  0  0  0999 V2000     
   17.8005   17.9177   20.0040 C   0  0  0  0  0  0  0  0  0  0  0  0
   18.0800   16.9023   20.3139 H   0  0  0  0  0  0  0  0  0  0  0  0
   16.8281   18.1571   20.4538 H   0  0  0  0  0  0  0  0  0  0  0  0
   17.6756   17.9146   18.9133 H   0  0  0  0  0  0  0  0  0  0  0  0
   18.8746   18.9423   20.4266 C   0  0  0  0  0  0  0  0  0  0  0  0
   18.5840   19.9414   20.0724 H   0  0  0  0  0  0  0  0  0  0  0  0
   19.8266   18.6963   19.9354 H   0  0  0  0  0  0  0  0  0  0  0  0
   19.0700   18.9676   21.9588 C   0  0  0  0  0  0  0  0  0  0  0  0
   18.1164   19.2159   22.4449 H   0  0  0  0  0  0  0  0  0  0  0  0
   19.3506   17.9626   22.3000 H   0  0  0  0  0  0  0  0  0  0  0  0
   20.1498   19.9919   22.3831 C   0  0  0  0  0  0  0  0  0  0  0  0
   19.8920   20.9758   21.9673 H   0  0  0  0  0  0  0  0  0  0  0  0
   21.1173   19.7149   21.9421 H   0  0  0  0  0  0  0  0  0  0  0  0
   20.3008   20.1334   23.9178 C   0  0  0  0  0  0  0  0  0  0  0  0
   20.9980   20.9572   24.1247 H   0  0  0  0  0  0  0  0  0  0  0  0
   19.3374   20.4275   24.3571 H   0  0  0  0  0  0  0  0  0  0  0  0
   20.8198   18.8512   24.6100 C   0  0  0  0  0  0  0  0  0  0  0  0
   21.7569   18.5289   24.1368 H   0  0  0  0  0  0  0  0  0  0  0  0
   20.0967   18.0353   24.4864 H   0  0  0  0  0  0  0  0  0  0  0  0
   21.0596   19.0840   26.1121 C   0  0  0  0  0  0  0  0  0  0  0  0
   21.7934   19.8830   26.2483 H   0  0  0  0  0  0  0  0  0  0  0  0
   20.1253   19.3895   26.5909 H   0  0  0  0  0  0  0  0  0  0  0  0
   21.5718   17.8518   26.8297 N   0  3  0  0  0  0  0  0  0  0  0  0
   22.4649   17.5283   26.4437 H   0  0  0  0  0  0  0  0  0  0  0  0
   20.9129   17.0691   26.7634 H   0  0  0  0  0  0  0  0  0  0  0  0
   21.7251   18.0290   27.8285 H   0  0  0  0  0  0  0  0  0  0  0  0
  1  2  1  0  0  0  0
  1  3  1  0  0  0  0
  1  4  1  0  0  0  0
  1  5  1  0  0  0  0
  5  6  1  0  0  0  0
  5  7  1  0  0  0  0
  5  8  1  0  0  0  0
  8  9  1  0  0  0  0
  8 10  1  0  0  0  0
  8 11  1  0  0  0  0
 11 12  1  0  0  0  0
 11 13  1  0  0  0  0
 11 14  1  0  0  0  0
 14 15  1  0  0  0  0
 14 16  1  0  0  0  0
 14 17  1  0  0  0  0
 17 18  1  0  0  0  0
 17 19  1  0  0  0  0
 17 20  1  0  0  0  0
 20 21  1  0  0  0  0
 20 22  1  0  0  0  0
 20 23  1  0  0  0  0
 23 24  1  0  0  0  0
 23 25  1  0  0  0  0
 23 26  1  0  0  0  0
M  END
> <VConfSearch Rank>
485

> <Conf_Id>
35

> <Delta U+W>
0.587

> <U+W>
-4.965

> <U>
48.214

> <W>
-53.179

> <W(PB)>
-55.527

> <W(SA)>
2.348

> <Valence>
2.697

> <Coulomb>
44.819

> <VdW>
0.699

> <VdW6>
-6.437

> <VdW12>
7.136

> <Bond>
0.168

> <Angle>
0.657

> <Pdih>
1.872

> <Idih>
0.000

> <Tether>
0.000

$$$$
VeraChem MOL file


 26 25  0  0  0  0  0  0  0  0999 V2000     
   19.2681   21.6392   26.2238 C   0  0  0  0  0  0  0  0  0  0  0  0
   18.4686   22.1462   25.6680 H   0  0  0  0  0  0  0  0  0  0  0  0
   18.8407   20.7476   26.7008 H   0  0  0  0  0  0  0  0  0  0  0  0
   19.6077   22.3163   27.0183 H   0  0  0  0  0  0  0  0  0  0  0  0
   20.4391   21.2625   25.2915 C   0  0  0  0  0  0  0  0  0  0  0  0
   21.2362   20.7878   25.8807 H   0  0  0  0  0  0  0  0  0  0  0  0
   20.8674   22.1768   24.8572 H   0  0  0  0  0  0  0  0  0  0  0  0
   19.9877   20.3097   24.1623 C   0  0  0  0  0  0  0  0  0  0  0  0
   19.5540   19.4057   24.6094 H   0  0  0  0  0  0  0  0  0  0  0  0
   19.1925   20.7893   23.5751 H   0  0  0  0  0  0  0  0  0  0  0  0
   21.1622   19.9281   23.2293 C   0  0  0  0  0  0  0  0  0  0  0  0
   21.9355   19.3996   23.8037 H   0  0  0  0  0  0  0  0  0  0  0  0
   21.6323   20.8471   22.8526 H   0  0  0  0  0  0  0  0  0  0  0  0
   20.7351   19.0643   22.0171 C   0  0  0  0  0  0  0  0  0  0  0  0
   19.9744   19.6002   21.4326 H   0  0  0  0  0  0  0  0  0  0  0  0
   21.6029   18.9415   21.3541 H   0  0  0  0  0  0  0  0  0  0  0  0
   20.2020   17.6663   22.4097 C   0  0  0  0  0  0  0  0  0  0  0  0
   19.2853   17.7643   23.0046 H   0  0  0  0  0  0  0  0  0  0  0  0
   20.9421   17.1508   23.0362 H   0  0  0  0  0  0  0  0  0  0  0  0
   19.9021   16.8120   21.1654 C   0  0  0  0  0  0  0  0  0  0  0  0
   19.1535   17.3136   20.5463 H   0  0  0  0  0  0  0  0  0  0  0  0
   20.8133   16.6912   20.5734 H   0  0  0  0  0  0  0  0  0  0  0  0
   19.3791   15.4312   21.5052 N   0  3  0  0  0  0  0  0  0  0  0  0
   18.5053   15.4742   22.0398 H   0  0  0  0  0  0  0  0  0  0  0  0
   20.0500   14.8956   22.0656 H   0  0  0  0  0  0  0  0  0  0  0  0
   19.1864   14.8790   20.6623 H   0  0  0  0  0  0  0  0  0  0  0  0
  1  2  1  0  0  0  0
  1  3  1  0  0  0  0
  1  4  1  0  0  0  0
  1  5  1  0  0  0  0
  5  6  1  0  0  0  0
  5  7  1  0  0  0  0
  5  8  1  0  0  0  0
  8  9  1  0  0  0  0
  8 10  1  0  0  0  0
  8 11  1  0  0  0  0
 11 12  1  0  0  0  0
 11 13  1  0  0  0  0
 11 14  1  0  0  0  0
 14 15  1  0  0  0  0
 14 16  1  0  0  0  0
 14 17  1  0  0  0  0
 17 18  1  0  0  0  0
 17 19  1  0  0  0  0
 17 20  1  0  0  0  0
 20 21  1  0  0  0  0
 20 22  1  0  0  0  0
 20 23  1  0  0  0  0
 23 24  1  0  0  0  0
 23 25  1  0  0  0  0
 23 26  1  0  0  0  0
M  END
> <VConfSearch Rank>
486

> <Conf_Id>
36

> <Delta U+W>
0.565

> <U+W>
-4.987

> <U>
48.214

> <W>
-53.201

> <W(PB)>
-55.543

> <W(SA)>
2.342

> <Valence>
2.697

> <Coulomb>
44.819

> <VdW>
0.698

> <VdW6>
-6.437

> <VdW12>
7.136

> <Bond>
0.168

> <Angle>
0.657

> <Pdih>
1.872

> <Idih>
0.000

> <Tether>
0.000

$$$$
VeraChem MOL file


 26 25  0  0  0  0  0  0  0  0999 V2000     
   22.4285   15.3657   22.9256 C   0  0  0  0  0  0  0  0  0  0  0  0
   23.4333   15.7557   23.1343 H   0  0  0  0  0  0  0  0  0  0  0  0
   22.3588   14.3620   23.3648 H   0  0  0  0  0  0  0  0  0  0  0  0
   22.3195   15.2659   21.8378 H   0  0  0  0  0  0  0  0  0  0  0  0
   21.3413   16.2927   23.5094 C   0  0  0  0  0  0  0  0  0  0  0  0
   21.4553   16.3457   24.6013 H   0  0  0  0  0  0  0  0  0  0  0  0
   20.3501   15.8596   23.3148 H   0  0  0  0  0  0  0  0  0  0  0  0
   21.4173   17.7134   22.9075 C   0  0  0  0  0  0  0  0  0  0  0  0
   22.4108   18.1406   23.1022 H   0  0  0  0  0  0  0  0  0  0  0  0
   21.3048   17.6551   21.8159 H   0  0  0  0  0  0  0  0  0  0  0  0
   20.3303   18.6448   23.4898 C   0  0  0  0  0  0  0  0  0  0  0  0
   20.4455   18.7043   24.5810 H   0  0  0  0  0  0  0  0  0  0  0  0
   19.3410   18.2086   23.2971 H   0  0  0  0  0  0  0  0  0  0  0  0
   20.4081   20.0668   22.8839 C   0  0  0  0  0  0  0  0  0  0  0  0
   21.4175   20.4716   23.0410 H   0  0  0  0  0  0  0  0  0  0  0  0
   20.2600   20.0151   21.7963 H   0  0  0  0  0  0  0  0  0  0  0  0
   19.3803   21.0458   23.4984 C   0  0  0  0  0  0  0  0  0  0  0  0
   19.5532   22.0489   23.0863 H   0  0  0  0  0  0  0  0  0  0  0  0
   19.5422   21.1189   24.5821 H   0  0  0  0  0  0  0  0  0  0  0  0
   17.9233   20.6317   23.2192 C   0  0  0  0  0  0  0  0  0  0  0  0
   17.7615   20.5599   22.1403 H   0  0  0  0  0  0  0  0  0  0  0  0
   17.7249   19.6528   23.6632 H   0  0  0  0  0  0  0  0  0  0  0  0
   16.9112   21.6097   23.7799 N   0  3  0  0  0  0  0  0  0  0  0  0
   15.9481   21.3161   23.5835 H   0  0  0  0  0  0  0  0  0  0  0  0
   17.0243   22.5474   23.3810 H   0  0  0  0  0  0  0  0  0  0  0  0
   16.9931   21.7030   24.7977 H   0  0  0  0  0  0  0  0  0  0  0  0
  1  2  1  0  0  0  0
  1  3  1  0  0  0  0
  1  4  1  0  0  0  0
  1  5  1  0  0  0  0
  5  6  1  0  0  0  0
  5  7  1  0  0  0  0
  5  8  1  0  0  0  0
  8  9  1  0  0  0  0
  8 10  1  0  0  0  0
  8 11  1  0  0  0  0
 11 12  1  0  0  0  0
 11 13  1  0  0  0  0
 11 14  1  0  0  0  0
 14 15  1  0  0  0  0
 14 16  1  0  0  0  0
 14 17  1  0  0  0  0
 17 18  1  0  0  0  0
 17 19  1  0  0  0  0
 17 20  1  0  0  0  0
 20 21  1  0  0  0  0
 20 22  1  0  0  0  0
 20 23  1  0  0  0  0
 23 24  1  0  0  0  0
 23 25  1  0  0  0  0
 23 26  1  0  0  0  0
M  END
> <VConfSearch Rank>
487

> <Conf_Id>
44

> <Delta U+W>
0.371

> <U+W>
-5.181

> <U>
48.002

> <W>
-53.183

> <W(PB)>
-55.533

> <W(SA)>
2.350

> <Valence>
2.459

> <Coulomb>
44.901

> <VdW>
0.643

> <VdW6>
-6.362

> <VdW12>
7.005

> <Bond>
0.151

> <Angle>
0.519

> <Pdih>
1.789

> <Idih>
0.000

> <Tether>
0.000

$$$$
VeraChem MOL file


 26 25  0  0  0  0  0  0  0  0999 V2000     
   16.3687   17.5513   22.5924 C   0  0  0  0  0  0  0  0  0  0  0  0
   16.7339   16.6648   22.0579 H   0  0  0  0  0  0  0  0  0  0  0  0
   15.3002   17.4038   22.7958 H   0  0  0  0  0  0  0  0  0  0  0  0
   16.4597   18.4174   21.9253 H   0  0  0  0  0  0  0  0  0  0  0  0
   17.1454   17.7643   23.9117 C   0  0  0  0  0  0  0  0  0  0  0  0
   16.9176   16.9322   24.5925 H   0  0  0  0  0  0  0  0  0  0  0  0
   16.7862   18.6757   24.4099 H   0  0  0  0  0  0  0  0  0  0  0  0
   18.6797   17.8416   23.7208 C   0  0  0  0  0  0  0  0  0  0  0  0
   19.1435   17.8532   24.7153 H   0  0  0  0  0  0  0  0  0  0  0  0
   19.0335   16.9278   23.2239 H   0  0  0  0  0  0  0  0  0  0  0  0
   19.1395   19.0856   22.9184 C   0  0  0  0  0  0  0  0  0  0  0  0
   18.7893   19.9997   23.4171 H   0  0  0  0  0  0  0  0  0  0  0  0
   18.6671   19.0742   21.9278 H   0  0  0  0  0  0  0  0  0  0  0  0
   20.6729   19.1608   22.7138 C   0  0  0  0  0  0  0  0  0  0  0  0
   21.0249   18.2403   22.2279 H   0  0  0  0  0  0  0  0  0  0  0  0
   20.8825   19.9790   22.0122 H   0  0  0  0  0  0  0  0  0  0  0  0
   21.4646   19.3956   24.0251 C   0  0  0  0  0  0  0  0  0  0  0  0
   21.2995   18.5594   24.7153 H   0  0  0  0  0  0  0  0  0  0  0  0
   21.0972   20.2985   24.5305 H   0  0  0  0  0  0  0  0  0  0  0  0
   22.9821   19.5210   23.7881 C   0  0  0  0  0  0  0  0  0  0  0  0
   23.4947   19.5856   24.7518 H   0  0  0  0  0  0  0  0  0  0  0  0
   23.3480   18.6325   23.2665 H   0  0  0  0  0  0  0  0  0  0  0  0
   23.3768   20.7397   22.9770 N   0  3  0  0  0  0  0  0  0  0  0  0
   22.9592   20.7252   22.0414 H   0  0  0  0  0  0  0  0  0  0  0  0
   24.3930   20.8003   22.8510 H   0  0  0  0  0  0  0  0  0  0  0  0
   23.0788   21.6105   23.4286 H   0  0  0  0  0  0  0  0  0  0  0  0
  1  2  1  0  0  0  0
  1  3  1  0  0  0  0
  1  4  1  0  0  0  0
  1  5  1  0  0  0  0
  5  6  1  0  0  0  0
  5  7  1  0  0  0  0
  5  8  1  0  0  0  0
  8  9  1  0  0  0  0
  8 10  1  0  0  0  0
  8 11  1  0  0  0  0
 11 12  1  0  0  0  0
 11 13  1  0  0  0  0
 11 14  1  0  0  0  0
 14 15  1  0  0  0  0
 14 16  1  0  0  0  0
 14 17  1  0  0  0  0
 17 18  1  0  0  0  0
 17 19  1  0  0  0  0
 17 20  1  0  0  0  0
 20 21  1  0  0  0  0
 20 22  1  0  0  0  0
 20 23  1  0  0  0  0
 23 24  1  0  0  0  0
 23 25  1  0  0  0  0
 23 26  1  0  0  0  0
M  END
> <VConfSearch Rank>
488

> <Conf_Id>
112

> <Delta U+W>
1.422

> <U+W>
-4.130

> <U>
49.323

> <W>
-53.453

> <W(PB)>
-55.749

> <W(SA)>
2.296

> <Valence>
3.408

> <Coulomb>
44.893

> <VdW>
1.021

> <VdW6>
-7.481

> <VdW12>
8.503

> <Bond>
0.239

> <Angle>
1.013

> <Pdih>
2.156

> <Idih>
0.000

> <Tether>
0.000

$$$$
VeraChem MOL file


 26 25  0  0  0  0  0  0  0  0999 V2000     
   20.5121   21.9939   25.2151 C   0  0  0  0  0  0  0  0  0  0  0  0
   20.8973   22.9081   25.6849 H   0  0  0  0  0  0  0  0  0  0  0  0
   20.0000   22.2886   24.2907 H   0  0  0  0  0  0  0  0  0  0  0  0
   19.7703   21.5542   25.8944 H   0  0  0  0  0  0  0  0  0  0  0  0
   21.6644   21.0031   24.9341 C   0  0  0  0  0  0  0  0  0  0  0  0
   22.2181   20.8290   25.8673 H   0  0  0  0  0  0  0  0  0  0  0  0
   22.3790   21.4566   24.2330 H   0  0  0  0  0  0  0  0  0  0  0  0
   21.1808   19.6408   24.3812 C   0  0  0  0  0  0  0  0  0  0  0  0
   22.0458   18.9676   24.3059 H   0  0  0  0  0  0  0  0  0  0  0  0
   20.4932   19.1847   25.1053 H   0  0  0  0  0  0  0  0  0  0  0  0
   20.4999   19.7493   22.9933 C   0  0  0  0  0  0  0  0  0  0  0  0
   21.1512   20.3233   22.3200 H   0  0  0  0  0  0  0  0  0  0  0  0
   19.5633   20.3164   23.0764 H   0  0  0  0  0  0  0  0  0  0  0  0
   20.2069   18.3764   22.3395 C   0  0  0  0  0  0  0  0  0  0  0  0
   19.8413   18.5548   21.3196 H   0  0  0  0  0  0  0  0  0  0  0  0
   21.1430   17.8102   22.2372 H   0  0  0  0  0  0  0  0  0  0  0  0
   19.1682   17.5310   23.1184 C   0  0  0  0  0  0  0  0  0  0  0  0
   18.2380   18.1005   23.2456 H   0  0  0  0  0  0  0  0  0  0  0  0
   19.5451   17.3152   24.1259 H   0  0  0  0  0  0  0  0  0  0  0  0
   18.8585   16.1878   22.4294 C   0  0  0  0  0  0  0  0  0  0  0  0
   19.7852   15.6261   22.2844 H   0  0  0  0  0  0  0  0  0  0  0  0
   18.1982   15.5964   23.0695 H   0  0  0  0  0  0  0  0  0  0  0  0
   18.1799   16.3334   21.0813 N   0  3  0  0  0  0  0  0  0  0  0  0
   18.7638   16.8488   20.4156 H   0  0  0  0  0  0  0  0  0  0  0  0
   17.2892   16.8357   21.1557 H   0  0  0  0  0  0  0  0  0  0  0  0
   17.9751   15.4218   20.6578 H   0  0  0  0  0  0  0  0  0  0  0  0
  1  2  1  0  0  0  0
  1  3  1  0  0  0  0
  1  4  1  0  0  0  0
  1  5  1  0  0  0  0
  5  6  1  0  0  0  0
  5  7  1  0  0  0  0
  5  8  1  0  0  0  0
  8  9  1  0  0  0  0
  8 10  1  0  0  0  0
  8 11  1  0  0  0  0
 11 12  1  0  0  0  0
 11 13  1  0  0  0  0
 11 14  1  0  0  0  0
 14 15  1  0  0  0  0
 14 16  1  0  0  0  0
 14 17  1  0  0  0  0
 17 18  1  0  0  0  0
 17 19  1  0  0  0  0
 17 20  1  0  0  0  0
 20 21  1  0  0  0  0
 20 22  1  0  0  0  0
 20 23  1  0  0  0  0
 23 24  1  0  0  0  0
 23 25  1  0  0  0  0
 23 26  1  0  0  0  0
M  END
> <VConfSearch Rank>
489

> <Conf_Id>
130

> <Delta U+W>
1.282

> <U+W>
-4.270

> <U>
49.153

> <W>
-53.422

> <W(PB)>
-55.725

> <W(SA)>
2.303

> <Valence>
3.298

> <Coulomb>
44.907

> <VdW>
0.948

> <VdW6>
-7.574

> <VdW12>
8.522

> <Bond>
0.229

> <Angle>
0.912

> <Pdih>
2.157

> <Idih>
0.000

> <Tether>
0.000

$$$$
VeraChem MOL file


 26 25  0  0  0  0  0  0  0  0999 V2000     
   18.4633   20.1387   26.1194 C   0  0  0  0  0  0  0  0  0  0  0  0
   17.9753   19.3016   26.6351 H   0  0  0  0  0  0  0  0  0  0  0  0
   18.1938   21.0623   26.6477 H   0  0  0  0  0  0  0  0  0  0  0  0
   18.0506   20.2061   25.1051 H   0  0  0  0  0  0  0  0  0  0  0  0
   19.9978   19.9571   26.0949 C   0  0  0  0  0  0  0  0  0  0  0  0
   20.3771   20.0161   27.1246 H   0  0  0  0  0  0  0  0  0  0  0  0
   20.4619   20.7945   25.5569 H   0  0  0  0  0  0  0  0  0  0  0  0
   20.4498   18.6076   25.4804 C   0  0  0  0  0  0  0  0  0  0  0  0
   21.5460   18.5483   25.5244 H   0  0  0  0  0  0  0  0  0  0  0  0
   20.0795   17.7895   26.1134 H   0  0  0  0  0  0  0  0  0  0  0  0
   19.9895   18.3526   24.0215 C   0  0  0  0  0  0  0  0  0  0  0  0
   18.8935   18.3043   23.9783 H   0  0  0  0  0  0  0  0  0  0  0  0
   20.3471   17.3580   23.7244 H   0  0  0  0  0  0  0  0  0  0  0  0
   20.5079   19.4107   23.0148 C   0  0  0  0  0  0  0  0  0  0  0  0
   20.1262   20.4014   23.2938 H   0  0  0  0  0  0  0  0  0  0  0  0
   21.6036   19.4707   23.0704 H   0  0  0  0  0  0  0  0  0  0  0  0
   20.0798   19.1216   21.5567 C   0  0  0  0  0  0  0  0  0  0  0  0
   20.3898   19.9624   20.9220 H   0  0  0  0  0  0  0  0  0  0  0  0
   18.9845   19.0698   21.4970 H   0  0  0  0  0  0  0  0  0  0  0  0
   20.6917   17.8219   21.0009 C   0  0  0  0  0  0  0  0  0  0  0  0
   21.7821   17.8734   21.0618 H   0  0  0  0  0  0  0  0  0  0  0  0
   20.3533   16.9690   21.5947 H   0  0  0  0  0  0  0  0  0  0  0  0
   20.3157   17.5602   19.5568 N   0  3  0  0  0  0  0  0  0  0  0  0
   19.3012   17.4745   19.4356 H   0  0  0  0  0  0  0  0  0  0  0  0
   20.7329   16.6911   19.2059 H   0  0  0  0  0  0  0  0  0  0  0  0
   20.6311   18.3138   18.9373 H   0  0  0  0  0  0  0  0  0  0  0  0
  1  2  1  0  0  0  0
  1  3  1  0  0  0  0
  1  4  1  0  0  0  0
  1  5  1  0  0  0  0
  5  6  1  0  0  0  0
  5  7  1  0  0  0  0
  5  8  1  0  0  0  0
  8  9  1  0  0  0  0
  8 10  1  0  0  0  0
  8 11  1  0  0  0  0
 11 12  1  0  0  0  0
 11 13  1  0  0  0  0
 11 14  1  0  0  0  0
 14 15  1  0  0  0  0
 14 16  1  0  0  0  0
 14 17  1  0  0  0  0
 17 18  1  0  0  0  0
 17 19  1  0  0  0  0
 17 20  1  0  0  0  0
 20 21  1  0  0  0  0
 20 22  1  0  0  0  0
 20 23  1  0  0  0  0
 23 24  1  0  0  0  0
 23 25  1  0  0  0  0
 23 26  1  0  0  0  0
M  END
> <VConfSearch Rank>
490

> <Conf_Id>
111

> <Delta U+W>
1.290

> <U+W>
-4.262

> <U>
49.209

> <W>
-53.471

> <W(PB)>
-55.745

> <W(SA)>
2.274

> <Valence>
3.465

> <Coulomb>
44.958

> <VdW>
0.786

> <VdW6>
-7.903

> <VdW12>
8.689

> <Bond>
0.237

> <Angle>
1.212

> <Pdih>
2.015

> <Idih>
0.000

> <Tether>
0.000

$$$$
VeraChem MOL file


 26 25  0  0  0  0  0  0  0  0999 V2000     
   19.3863   22.9486   23.3427 C   0  0  0  0  0  0  0  0  0  0  0  0
   20.3133   23.1289   23.9025 H   0  0  0  0  0  0  0  0  0  0  0  0
   19.4540   23.4851   22.3873 H   0  0  0  0  0  0  0  0  0  0  0  0
   18.5568   23.3838   23.9151 H   0  0  0  0  0  0  0  0  0  0  0  0
   19.1597   21.4386   23.1171 C   0  0  0  0  0  0  0  0  0  0  0  0
   18.2118   21.2887   22.5815 H   0  0  0  0  0  0  0  0  0  0  0  0
   19.0564   20.9448   24.0923 H   0  0  0  0  0  0  0  0  0  0  0  0
   20.3193   20.8018   22.3153 C   0  0  0  0  0  0  0  0  0  0  0  0
   20.4560   21.3620   21.3800 H   0  0  0  0  0  0  0  0  0  0  0  0
   21.2583   20.9054   22.8762 H   0  0  0  0  0  0  0  0  0  0  0  0
   20.0858   19.3117   21.9643 C   0  0  0  0  0  0  0  0  0  0  0  0
   20.8965   18.9801   21.3007 H   0  0  0  0  0  0  0  0  0  0  0  0
   19.1555   19.2115   21.3882 H   0  0  0  0  0  0  0  0  0  0  0  0
   20.0372   18.3842   23.2022 C   0  0  0  0  0  0  0  0  0  0  0  0
   20.9435   18.5357   23.8034 H   0  0  0  0  0  0  0  0  0  0  0  0
   19.1823   18.6510   23.8373 H   0  0  0  0  0  0  0  0  0  0  0  0
   19.9181   16.8959   22.7969 C   0  0  0  0  0  0  0  0  0  0  0  0
   20.7850   16.5994   22.1915 H   0  0  0  0  0  0  0  0  0  0  0  0
   19.0320   16.7621   22.1621 H   0  0  0  0  0  0  0  0  0  0  0  0
   19.7941   15.9560   24.0116 C   0  0  0  0  0  0  0  0  0  0  0  0
   18.9347   16.2515   24.6196 H   0  0  0  0  0  0  0  0  0  0  0  0
   19.6294   14.9328   23.6631 H   0  0  0  0  0  0  0  0  0  0  0  0
   21.0203   15.9462   24.9033 N   0  3  0  0  0  0  0  0  0  0  0  0
   20.9106   15.3021   25.6942 H   0  0  0  0  0  0  0  0  0  0  0  0
   21.2119   16.8731   25.2957 H   0  0  0  0  0  0  0  0  0  0  0  0
   21.8597   15.6533   24.3929 H   0  0  0  0  0  0  0  0  0  0  0  0
  1  2  1  0  0  0  0
  1  3  1  0  0  0  0
  1  4  1  0  0  0  0
  1  5  1  0  0  0  0
  5  6  1  0  0  0  0
  5  7  1  0  0  0  0
  5  8  1  0  0  0  0
  8  9  1  0  0  0  0
  8 10  1  0  0  0  0
  8 11  1  0  0  0  0
 11 12  1  0  0  0  0
 11 13  1  0  0  0  0
 11 14  1  0  0  0  0
 14 15  1  0  0  0  0
 14 16  1  0  0  0  0
 14 17  1  0  0  0  0
 17 18  1  0  0  0  0
 17 19  1  0  0  0  0
 17 20  1  0  0  0  0
 20 21  1  0  0  0  0
 20 22  1  0  0  0  0
 20 23  1  0  0  0  0
 23 24  1  0  0  0  0
 23 25  1  0  0  0  0
 23 26  1  0  0  0  0
M  END
> <VConfSearch Rank>
491

> <Conf_Id>
105

> <Delta U+W>
0.736

> <U+W>
-4.817

> <U>
48.735

> <W>
-53.552

> <W(PB)>
-55.889

> <W(SA)>
2.337

> <Valence>
2.803

> <Coulomb>
45.123

> <VdW>
0.809

> <VdW6>
-6.953

> <VdW12>
7.761

> <Bond>
0.188

> <Angle>
0.699

> <Pdih>
1.917

> <Idih>
0.000

> <Tether>
0.000

$$$$
VeraChem MOL file


 26 25  0  0  0  0  0  0  0  0999 V2000     
   23.3344   20.3830   24.1799 C   0  0  0  0  0  0  0  0  0  0  0  0
   24.1059   20.5406   23.4149 H   0  0  0  0  0  0  0  0  0  0  0  0
   22.8185   21.3375   24.3472 H   0  0  0  0  0  0  0  0  0  0  0  0
   23.8388   20.1041   25.1142 H   0  0  0  0  0  0  0  0  0  0  0  0
   22.3406   19.2839   23.7482 C   0  0  0  0  0  0  0  0  0  0  0  0
   21.6106   19.1277   24.5536 H   0  0  0  0  0  0  0  0  0  0  0  0
   22.8798   18.3354   23.6174 H   0  0  0  0  0  0  0  0  0  0  0  0
   21.6135   19.6565   22.4347 C   0  0  0  0  0  0  0  0  0  0  0  0
   21.0408   20.5824   22.5766 H   0  0  0  0  0  0  0  0  0  0  0  0
   22.3634   19.8829   21.6643 H   0  0  0  0  0  0  0  0  0  0  0  0
   20.6872   18.5349   21.8969 C   0  0  0  0  0  0  0  0  0  0  0  0
   21.3014   17.6607   21.6405 H   0  0  0  0  0  0  0  0  0  0  0  0
   20.2374   18.8721   20.9528 H   0  0  0  0  0  0  0  0  0  0  0  0
   19.5573   18.0831   22.8583 C   0  0  0  0  0  0  0  0  0  0  0  0
   18.9927   17.2819   22.3636 H   0  0  0  0  0  0  0  0  0  0  0  0
   19.9901   17.6329   23.7614 H   0  0  0  0  0  0  0  0  0  0  0  0
   18.5886   19.2250   23.2556 C   0  0  0  0  0  0  0  0  0  0  0  0
   18.1673   19.6920   22.3555 H   0  0  0  0  0  0  0  0  0  0  0  0
   19.1395   20.0095   23.7892 H   0  0  0  0  0  0  0  0  0  0  0  0
   17.4449   18.7432   24.1690 C   0  0  0  0  0  0  0  0  0  0  0  0
   17.8615   18.2606   25.0572 H   0  0  0  0  0  0  0  0  0  0  0  0
   16.8544   19.6041   24.4943 H   0  0  0  0  0  0  0  0  0  0  0  0
   16.4987   17.7648   23.5009 N   0  3  0  0  0  0  0  0  0  0  0  0
   16.9821   16.9121   23.2026 H   0  0  0  0  0  0  0  0  0  0  0  0
   16.0573   18.1699   22.6691 H   0  0  0  0  0  0  0  0  0  0  0  0
   15.7423   17.4763   24.1309 H   0  0  0  0  0  0  0  0  0  0  0  0
  1  2  1  0  0  0  0
  1  3  1  0  0  0  0
  1  4  1  0  0  0  0
  1  5  1  0  0  0  0
  5  6  1  0  0  0  0
  5  7  1  0  0  0  0
  5  8  1  0  0  0  0
  8  9  1  0  0  0  0
  8 10  1  0  0  0  0
  8 11  1  0  0  0  0
 11 12  1  0  0  0  0
 11 13  1  0  0  0  0
 11 14  1  0  0  0  0
 14 15  1  0  0  0  0
 14 16  1  0  0  0  0
 14 17  1  0  0  0  0
 17 18  1  0  0  0  0
 17 19  1  0  0  0  0
 17 20  1  0  0  0  0
 20 21  1  0  0  0  0
 20 22  1  0  0  0  0
 20 23  1  0  0  0  0
 23 24  1  0  0  0  0
 23 25  1  0  0  0  0
 23 26  1  0  0  0  0
M  END
> <VConfSearch Rank>
492

> <Conf_Id>
144

> <Delta U+W>
1.073

> <U+W>
-4.479

> <U>
49.231

> <W>
-53.710

> <W(PB)>
-55.983

> <W(SA)>
2.273

> <Valence>
3.276

> <Coulomb>
45.175

> <VdW>
0.779

> <VdW6>
-7.944

> <VdW12>
8.723

> <Bond>
0.239

> <Angle>
1.155

> <Pdih>
1.883

> <Idih>
0.000

> <Tether>
0.000

$$$$
VeraChem MOL file


 26 25  0  0  0  0  0  0  0  0999 V2000     
   21.6463   20.3352   26.2086 C   0  0  0  0  0  0  0  0  0  0  0  0
   21.2047   19.5366   26.8170 H   0  0  0  0  0  0  0  0  0  0  0  0
   22.5552   20.6748   26.7219 H   0  0  0  0  0  0  0  0  0  0  0  0
   20.9423   21.1771   26.1819 H   0  0  0  0  0  0  0  0  0  0  0  0
   21.9830   19.8465   24.7813 C   0  0  0  0  0  0  0  0  0  0  0  0
   22.6610   18.9832   24.8347 H   0  0  0  0  0  0  0  0  0  0  0  0
   22.5371   20.6401   24.2606 H   0  0  0  0  0  0  0  0  0  0  0  0
   20.7349   19.4827   23.9409 C   0  0  0  0  0  0  0  0  0  0  0  0
   20.0508   20.3417   23.9081 H   0  0  0  0  0  0  0  0  0  0  0  0
   21.0679   19.3020   22.9113 H   0  0  0  0  0  0  0  0  0  0  0  0
   19.9855   18.2297   24.4584 C   0  0  0  0  0  0  0  0  0  0  0  0
   19.7391   18.3619   25.5194 H   0  0  0  0  0  0  0  0  0  0  0  0
   20.6538   17.3592   24.4065 H   0  0  0  0  0  0  0  0  0  0  0  0
   18.6668   17.9123   23.7061 C   0  0  0  0  0  0  0  0  0  0  0  0
   18.2145   17.0343   24.1879 H   0  0  0  0  0  0  0  0  0  0  0  0
   17.9468   18.7308   23.8454 H   0  0  0  0  0  0  0  0  0  0  0  0
   18.8319   17.6018   22.1970 C   0  0  0  0  0  0  0  0  0  0  0  0
   18.0243   16.9243   21.8890 H   0  0  0  0  0  0  0  0  0  0  0  0
   19.7724   17.0625   22.0227 H   0  0  0  0  0  0  0  0  0  0  0  0
   18.7623   18.8612   21.3111 C   0  0  0  0  0  0  0  0  0  0  0  0
   17.7988   19.3573   21.4561 H   0  0  0  0  0  0  0  0  0  0  0  0
   19.5511   19.5634   21.5870 H   0  0  0  0  0  0  0  0  0  0  0  0
   18.9105   18.5547   19.8349 N   0  3  0  0  0  0  0  0  0  0  0  0
   18.1759   17.9225   19.5005 H   0  0  0  0  0  0  0  0  0  0  0  0
   19.8099   18.1095   19.6253 H   0  0  0  0  0  0  0  0  0  0  0  0
   18.8566   19.4039   19.2620 H   0  0  0  0  0  0  0  0  0  0  0  0
  1  2  1  0  0  0  0
  1  3  1  0  0  0  0
  1  4  1  0  0  0  0
  1  5  1  0  0  0  0
  5  6  1  0  0  0  0
  5  7  1  0  0  0  0
  5  8  1  0  0  0  0
  8  9  1  0  0  0  0
  8 10  1  0  0  0  0
  8 11  1  0  0  0  0
 11 12  1  0  0  0  0
 11 13  1  0  0  0  0
 11 14  1  0  0  0  0
 14 15  1  0  0  0  0
 14 16  1  0  0  0  0
 14 17  1  0  0  0  0
 17 18  1  0  0  0  0
 17 19  1  0  0  0  0
 17 20  1  0  0  0  0
 20 21  1  0  0  0  0
 20 22  1  0  0  0  0
 20 23  1  0  0  0  0
 23 24  1  0  0  0  0
 23 25  1  0  0  0  0
 23 26  1  0  0  0  0
M  END
> <VConfSearch Rank>
493

> <Conf_Id>
93

> <Delta U+W>
3.253

> <U+W>
-2.300

> <U>
51.609

> <W>
-53.909

> <W(PB)>
-56.178

> <W(SA)>
2.270

> <Valence>
5.204

> <Coulomb>
45.645

> <VdW>
0.760

> <VdW6>
-7.997

> <VdW12>
8.758

> <Bond>
0.240

> <Angle>
1.456

> <Pdih>
3.507

> <Idih>
0.000

> <Tether>
0.000

$$$$
VeraChem MOL file


 26 25  0  0  0  0  0  0  0  0999 V2000     
   22.2927   16.0546   23.4481 C   0  0  0  0  0  0  0  0  0  0  0  0
   22.6817   16.4460   24.3959 H   0  0  0  0  0  0  0  0  0  0  0  0
   21.4270   15.4166   23.6684 H   0  0  0  0  0  0  0  0  0  0  0  0
   23.0736   15.4199   23.0096 H   0  0  0  0  0  0  0  0  0  0  0  0
   21.9113   17.1922   22.4735 C   0  0  0  0  0  0  0  0  0  0  0  0
   21.6532   16.7492   21.5014 H   0  0  0  0  0  0  0  0  0  0  0  0
   22.7836   17.8365   22.2952 H   0  0  0  0  0  0  0  0  0  0  0  0
   20.7165   18.0486   22.9588 C   0  0  0  0  0  0  0  0  0  0  0  0
   20.4298   18.7162   22.1367 H   0  0  0  0  0  0  0  0  0  0  0  0
   19.8537   17.3976   23.1557 H   0  0  0  0  0  0  0  0  0  0  0  0
   21.0350   18.8983   24.2141 C   0  0  0  0  0  0  0  0  0  0  0  0
   21.8426   19.6052   23.9792 H   0  0  0  0  0  0  0  0  0  0  0  0
   21.4210   18.2477   25.0090 H   0  0  0  0  0  0  0  0  0  0  0  0
   19.8222   19.6746   24.7903 C   0  0  0  0  0  0  0  0  0  0  0  0
   19.0517   18.9700   25.1330 H   0  0  0  0  0  0  0  0  0  0  0  0
   20.1648   20.2010   25.6920 H   0  0  0  0  0  0  0  0  0  0  0  0
   19.1973   20.7190   23.8312 C   0  0  0  0  0  0  0  0  0  0  0  0
   19.9804   21.1877   23.2205 H   0  0  0  0  0  0  0  0  0  0  0  0
   18.7506   21.5224   24.4322 H   0  0  0  0  0  0  0  0  0  0  0  0
   18.0953   20.1273   22.9307 C   0  0  0  0  0  0  0  0  0  0  0  0
   18.4999   19.3217   22.3153 H   0  0  0  0  0  0  0  0  0  0  0  0
   17.2979   19.7127   23.5533 H   0  0  0  0  0  0  0  0  0  0  0  0
   17.4759   21.1524   22.0029 N   0  3  0  0  0  0  0  0  0  0  0  0
   17.0451   21.9252   22.5209 H   0  0  0  0  0  0  0  0  0  0  0  0
   16.7421   20.7412   21.4158 H   0  0  0  0  0  0  0  0  0  0  0  0
   18.1697   21.5635   21.3698 H   0  0  0  0  0  0  0  0  0  0  0  0
  1  2  1  0  0  0  0
  1  3  1  0  0  0  0
  1  4  1  0  0  0  0
  1  5  1  0  0  0  0
  5  6  1  0  0  0  0
  5  7  1  0  0  0  0
  5  8  1  0  0  0  0
  8  9  1  0  0  0  0
  8 10  1  0  0  0  0
  8 11  1  0  0  0  0
 11 12  1  0  0  0  0
 11 13  1  0  0  0  0
 11 14  1  0  0  0  0
 14 15  1  0  0  0  0
 14 16  1  0  0  0  0
 14 17  1  0  0  0  0
 17 18  1  0  0  0  0
 17 19  1  0  0  0  0
 17 20  1  0  0  0  0
 20 21  1  0  0  0  0
 20 22  1  0  0  0  0
 20 23  1  0  0  0  0
 23 24  1  0  0  0  0
 23 25  1  0  0  0  0
 23 26  1  0  0  0  0
M  END
> <VConfSearch Rank>
494

> <Conf_Id>
94

> <Delta U+W>
3.247

> <U+W>
-2.305

> <U>
51.609

> <W>
-53.914

> <W(PB)>
-56.221

> <W(SA)>
2.307

> <Valence>
5.204

> <Coulomb>
45.645

> <VdW>
0.760

> <VdW6>
-7.997

> <VdW12>
8.757

> <Bond>
0.240

> <Angle>
1.456

> <Pdih>
3.508

> <Idih>
0.000

> <Tether>
0.000

$$$$
VeraChem MOL file


 26 25  0  0  0  0  0  0  0  0999 V2000     
   18.2397   19.6388   26.8554 C   0  0  0  0  0  0  0  0  0  0  0  0
   18.4417   20.7007   27.0474 H   0  0  0  0  0  0  0  0  0  0  0  0
   17.2406   19.5563   26.4079 H   0  0  0  0  0  0  0  0  0  0  0  0
   18.2197   19.1194   27.8223 H   0  0  0  0  0  0  0  0  0  0  0  0
   19.3140   19.0281   25.9308 C   0  0  0  0  0  0  0  0  0  0  0  0
   19.1043   17.9591   25.7849 H   0  0  0  0  0  0  0  0  0  0  0  0
   20.2962   19.0947   26.4195 H   0  0  0  0  0  0  0  0  0  0  0  0
   19.3632   19.7417   24.5617 C   0  0  0  0  0  0  0  0  0  0  0  0
   18.3789   19.6743   24.0780 H   0  0  0  0  0  0  0  0  0  0  0  0
   19.5702   20.8102   24.7132 H   0  0  0  0  0  0  0  0  0  0  0  0
   20.4382   19.1332   23.6331 C   0  0  0  0  0  0  0  0  0  0  0  0
   20.2293   18.0643   23.4925 H   0  0  0  0  0  0  0  0  0  0  0  0
   21.4224   19.2045   24.1165 H   0  0  0  0  0  0  0  0  0  0  0  0
   20.4839   19.8486   22.2617 C   0  0  0  0  0  0  0  0  0  0  0  0
   19.5094   19.7590   21.7632 H   0  0  0  0  0  0  0  0  0  0  0  0
   20.6466   20.9234   22.4217 H   0  0  0  0  0  0  0  0  0  0  0  0
   21.6025   19.3145   21.3323 C   0  0  0  0  0  0  0  0  0  0  0  0
   22.5788   19.4894   21.8037 H   0  0  0  0  0  0  0  0  0  0  0  0
   21.6058   19.8928   20.3988 H   0  0  0  0  0  0  0  0  0  0  0  0
   21.4775   17.8146   20.9960 C   0  0  0  0  0  0  0  0  0  0  0  0
   22.3156   17.5140   20.3614 H   0  0  0  0  0  0  0  0  0  0  0  0
   21.5196   17.2244   21.9150 H   0  0  0  0  0  0  0  0  0  0  0  0
   20.1965   17.4594   20.2674 N   0  3  0  0  0  0  0  0  0  0  0  0
   20.1127   17.9627   19.3783 H   0  0  0  0  0  0  0  0  0  0  0  0
   19.3687   17.6895   20.8257 H   0  0  0  0  0  0  0  0  0  0  0  0
   20.1460   16.4580   20.0511 H   0  0  0  0  0  0  0  0  0  0  0  0
  1  2  1  0  0  0  0
  1  3  1  0  0  0  0
  1  4  1  0  0  0  0
  1  5  1  0  0  0  0
  5  6  1  0  0  0  0
  5  7  1  0  0  0  0
  5  8  1  0  0  0  0
  8  9  1  0  0  0  0
  8 10  1  0  0  0  0
  8 11  1  0  0  0  0
 11 12  1  0  0  0  0
 11 13  1  0  0  0  0
 11 14  1  0  0  0  0
 14 15  1  0  0  0  0
 14 16  1  0  0  0  0
 14 17  1  0  0  0  0
 17 18  1  0  0  0  0
 17 19  1  0  0  0  0
 17 20  1  0  0  0  0
 20 21  1  0  0  0  0
 20 22  1  0  0  0  0
 20 23  1  0  0  0  0
 23 24  1  0  0  0  0
 23 25  1  0  0  0  0
 23 26  1  0  0  0  0
M  END
> <VConfSearch Rank>
495

> <Conf_Id>
83

> <Delta U+W>
0.559

> <U+W>
-4.994

> <U>
48.668

> <W>
-53.661

> <W(PB)>
-55.972

> <W(SA)>
2.311

> <Valence>
2.543

> <Coulomb>
45.478

> <VdW>
0.646

> <VdW6>
-7.096

> <VdW12>
7.742

> <Bond>
0.176

> <Angle>
0.630

> <Pdih>
1.738

> <Idih>
0.000

> <Tether>
0.000

$$$$
VeraChem MOL file


 26 25  0  0  0  0  0  0  0  0999 V2000     
   21.7014   15.6088   22.0341 C   0  0  0  0  0  0  0  0  0  0  0  0
   22.3120   15.0400   22.7474 H   0  0  0  0  0  0  0  0  0  0  0  0
   20.7602   15.0652   21.8800 H   0  0  0  0  0  0  0  0  0  0  0  0
   22.2375   15.6330   21.0765 H   0  0  0  0  0  0  0  0  0  0  0  0
   21.4372   17.0404   22.5471 C   0  0  0  0  0  0  0  0  0  0  0  0
   20.8608   17.5885   21.7902 H   0  0  0  0  0  0  0  0  0  0  0  0
   22.3942   17.5679   22.6635 H   0  0  0  0  0  0  0  0  0  0  0  0
   20.6780   17.0317   23.8951 C   0  0  0  0  0  0  0  0  0  0  0  0
   19.6980   16.5522   23.7653 H   0  0  0  0  0  0  0  0  0  0  0  0
   21.2322   16.4103   24.6121 H   0  0  0  0  0  0  0  0  0  0  0  0
   20.4896   18.4401   24.5106 C   0  0  0  0  0  0  0  0  0  0  0  0
   21.4710   18.9132   24.6535 H   0  0  0  0  0  0  0  0  0  0  0  0
   20.0542   18.3249   25.5129 H   0  0  0  0  0  0  0  0  0  0  0  0
   19.5799   19.3674   23.6691 C   0  0  0  0  0  0  0  0  0  0  0  0
   20.0409   19.5478   22.6901 H   0  0  0  0  0  0  0  0  0  0  0  0
   18.6183   18.8687   23.4843 H   0  0  0  0  0  0  0  0  0  0  0  0
   19.3303   20.7198   24.3778 C   0  0  0  0  0  0  0  0  0  0  0  0
   20.2834   21.2397   24.5430 H   0  0  0  0  0  0  0  0  0  0  0  0
   18.8973   20.5364   25.3702 H   0  0  0  0  0  0  0  0  0  0  0  0
   18.3734   21.6368   23.5916 C   0  0  0  0  0  0  0  0  0  0  0  0
   17.4262   21.1187   23.4186 H   0  0  0  0  0  0  0  0  0  0  0  0
   18.1678   22.5354   24.1797 H   0  0  0  0  0  0  0  0  0  0  0  0
   18.9188   22.0816   22.2487 N   0  3  0  0  0  0  0  0  0  0  0  0
   19.0991   21.2856   21.6294 H   0  0  0  0  0  0  0  0  0  0  0  0
   19.8004   22.5955   22.3473 H   0  0  0  0  0  0  0  0  0  0  0  0
   18.2644   22.7011   21.7586 H   0  0  0  0  0  0  0  0  0  0  0  0
  1  2  1  0  0  0  0
  1  3  1  0  0  0  0
  1  4  1  0  0  0  0
  1  5  1  0  0  0  0
  5  6  1  0  0  0  0
  5  7  1  0  0  0  0
  5  8  1  0  0  0  0
  8  9  1  0  0  0  0
  8 10  1  0  0  0  0
  8 11  1  0  0  0  0
 11 12  1  0  0  0  0
 11 13  1  0  0  0  0
 11 14  1  0  0  0  0
 14 15  1  0  0  0  0
 14 16  1  0  0  0  0
 14 17  1  0  0  0  0
 17 18  1  0  0  0  0
 17 19  1  0  0  0  0
 17 20  1  0  0  0  0
 20 21  1  0  0  0  0
 20 22  1  0  0  0  0
 20 23  1  0  0  0  0
 23 24  1  0  0  0  0
 23 25  1  0  0  0  0
 23 26  1  0  0  0  0
M  END
> <VConfSearch Rank>
496

> <Conf_Id>
18

> <Delta U+W>
0.759

> <U+W>
-4.793

> <U>
48.945

> <W>
-53.738

> <W(PB)>
-56.051

> <W(SA)>
2.313

> <Valence>
2.802

> <Coulomb>
45.335

> <VdW>
0.807

> <VdW6>
-6.962

> <VdW12>
7.769

> <Bond>
0.189

> <Angle>
0.696

> <Pdih>
1.917

> <Idih>
0.000

> <Tether>
0.000

$$$$
VeraChem MOL file


 26 25  0  0  0  0  0  0  0  0999 V2000     
   19.1874   15.9288   25.7607 C   0  0  0  0  0  0  0  0  0  0  0  0
   19.9078   16.2305   26.5322 H   0  0  0  0  0  0  0  0  0  0  0  0
   18.1919   15.8838   26.2212 H   0  0  0  0  0  0  0  0  0  0  0  0
   19.4517   14.9158   25.4305 H   0  0  0  0  0  0  0  0  0  0  0  0
   19.2052   16.9118   24.5709 C   0  0  0  0  0  0  0  0  0  0  0  0
   18.4970   16.5680   23.8040 H   0  0  0  0  0  0  0  0  0  0  0  0
   20.2030   16.8977   24.1129 H   0  0  0  0  0  0  0  0  0  0  0  0
   18.8398   18.3485   25.0132 C   0  0  0  0  0  0  0  0  0  0  0  0
   17.8762   18.3248   25.5407 H   0  0  0  0  0  0  0  0  0  0  0  0
   19.5796   18.7120   25.7398 H   0  0  0  0  0  0  0  0  0  0  0  0
   18.7302   19.3510   23.8380 C   0  0  0  0  0  0  0  0  0  0  0  0
   18.3519   20.3051   24.2304 H   0  0  0  0  0  0  0  0  0  0  0  0
   17.9797   18.9942   23.1192 H   0  0  0  0  0  0  0  0  0  0  0  0
   20.0730   19.6020   23.1105 C   0  0  0  0  0  0  0  0  0  0  0  0
   20.8345   19.9083   23.8411 H   0  0  0  0  0  0  0  0  0  0  0  0
   20.4250   18.6693   22.6524 H   0  0  0  0  0  0  0  0  0  0  0  0
   19.9379   20.6917   22.0207 C   0  0  0  0  0  0  0  0  0  0  0  0
   19.5562   21.6157   22.4750 H   0  0  0  0  0  0  0  0  0  0  0  0
   19.1985   20.3833   21.2696 H   0  0  0  0  0  0  0  0  0  0  0  0
   21.2762   21.0085   21.3255 C   0  0  0  0  0  0  0  0  0  0  0  0
   21.1356   21.8414   20.6312 H   0  0  0  0  0  0  0  0  0  0  0  0
   22.0168   21.3082   22.0718 H   0  0  0  0  0  0  0  0  0  0  0  0
   21.8459   19.8451   20.5377 N   0  3  0  0  0  0  0  0  0  0  0  0
   21.2028   19.5311   19.8036 H   0  0  0  0  0  0  0  0  0  0  0  0
   22.0385   19.0376   21.1383 H   0  0  0  0  0  0  0  0  0  0  0  0
   22.7281   20.0935   20.0767 H   0  0  0  0  0  0  0  0  0  0  0  0
  1  2  1  0  0  0  0
  1  3  1  0  0  0  0
  1  4  1  0  0  0  0
  1  5  1  0  0  0  0
  5  6  1  0  0  0  0
  5  7  1  0  0  0  0
  5  8  1  0  0  0  0
  8  9  1  0  0  0  0
  8 10  1  0  0  0  0
  8 11  1  0  0  0  0
 11 12  1  0  0  0  0
 11 13  1  0  0  0  0
 11 14  1  0  0  0  0
 14 15  1  0  0  0  0
 14 16  1  0  0  0  0
 14 17  1  0  0  0  0
 17 18  1  0  0  0  0
 17 19  1  0  0  0  0
 17 20  1  0  0  0  0
 20 21  1  0  0  0  0
 20 22  1  0  0  0  0
 20 23  1  0  0  0  0
 23 24  1  0  0  0  0
 23 25  1  0  0  0  0
 23 26  1  0  0  0  0
M  END
> <VConfSearch Rank>
497

> <Conf_Id>
17

> <Delta U+W>
0.843

> <U+W>
-4.709

> <U>
48.945

> <W>
-53.653

> <W(PB)>
-55.991

> <W(SA)>
2.338

> <Valence>
2.802

> <Coulomb>
45.335

> <VdW>
0.807

> <VdW6>
-6.962

> <VdW12>
7.769

> <Bond>
0.189

> <Angle>
0.696

> <Pdih>
1.917

> <Idih>
0.000

> <Tether>
0.000

$$$$
VeraChem MOL file


 26 25  0  0  0  0  0  0  0  0999 V2000     
   18.1713   17.3738   25.8837 C   0  0  0  0  0  0  0  0  0  0  0  0
   18.0637   18.4408   25.6528 H   0  0  0  0  0  0  0  0  0  0  0  0
   17.5258   16.8065   25.2007 H   0  0  0  0  0  0  0  0  0  0  0  0
   17.7986   17.2183   26.9044 H   0  0  0  0  0  0  0  0  0  0  0  0
   19.6423   16.9132   25.7694 C   0  0  0  0  0  0  0  0  0  0  0  0
   19.7175   15.8771   26.1283 H   0  0  0  0  0  0  0  0  0  0  0  0
   20.2716   17.5165   26.4386 H   0  0  0  0  0  0  0  0  0  0  0  0
   20.1982   16.9801   24.3264 C   0  0  0  0  0  0  0  0  0  0  0  0
   21.2017   16.5325   24.3190 H   0  0  0  0  0  0  0  0  0  0  0  0
   19.5781   16.3592   23.6653 H   0  0  0  0  0  0  0  0  0  0  0  0
   20.2820   18.4192   23.7636 C   0  0  0  0  0  0  0  0  0  0  0  0
   20.8618   19.0485   24.4528 H   0  0  0  0  0  0  0  0  0  0  0  0
   19.2747   18.8504   23.7070 H   0  0  0  0  0  0  0  0  0  0  0  0
   20.9378   18.4481   22.3620 C   0  0  0  0  0  0  0  0  0  0  0  0
   21.9288   17.9765   22.4166 H   0  0  0  0  0  0  0  0  0  0  0  0
   20.3441   17.8433   21.6626 H   0  0  0  0  0  0  0  0  0  0  0  0
   21.1009   19.8788   21.7970 C   0  0  0  0  0  0  0  0  0  0  0  0
   21.6510   19.8263   20.8479 H   0  0  0  0  0  0  0  0  0  0  0  0
   21.7137   20.4788   22.4828 H   0  0  0  0  0  0  0  0  0  0  0  0
   19.7516   20.5821   21.5579 C   0  0  0  0  0  0  0  0  0  0  0  0
   19.1416   19.9851   20.8746 H   0  0  0  0  0  0  0  0  0  0  0  0
   19.2128   20.6813   22.5037 H   0  0  0  0  0  0  0  0  0  0  0  0
   19.9024   21.9668   20.9619 N   0  3  0  0  0  0  0  0  0  0  0  0
   18.9935   22.4176   20.8104 H   0  0  0  0  0  0  0  0  0  0  0  0
   20.3781   21.9422   20.0539 H   0  0  0  0  0  0  0  0  0  0  0  0
   20.4458   22.5877   21.5705 H   0  0  0  0  0  0  0  0  0  0  0  0
  1  2  1  0  0  0  0
  1  3  1  0  0  0  0
  1  4  1  0  0  0  0
  1  5  1  0  0  0  0
  5  6  1  0  0  0  0
  5  7  1  0  0  0  0
  5  8  1  0  0  0  0
  8  9  1  0  0  0  0
  8 10  1  0  0  0  0
  8 11  1  0  0  0  0
 11 12  1  0  0  0  0
 11 13  1  0  0  0  0
 11 14  1  0  0  0  0
 14 15  1  0  0  0  0
 14 16  1  0  0  0  0
 14 17  1  0  0  0  0
 17 18  1  0  0  0  0
 17 19  1  0  0  0  0
 17 20  1  0  0  0  0
 20 21  1  0  0  0  0
 20 22  1  0  0  0  0
 20 23  1  0  0  0  0
 23 24  1  0  0  0  0
 23 25  1  0  0  0  0
 23 26  1  0  0  0  0
M  END
> <VConfSearch Rank>
498

> <Conf_Id>
96

> <Delta U+W>
0.912

> <U+W>
-4.640

> <U>
48.723

> <W>
-53.364

> <W(PB)>
-55.683

> <W(SA)>
2.320

> <Valence>
2.962

> <Coulomb>
44.993

> <VdW>
0.768

> <VdW6>
-7.008

> <VdW12>
7.776

> <Bond>
0.188

> <Angle>
0.757

> <Pdih>
2.018

> <Idih>
0.000

> <Tether>
0.000

$$$$
VeraChem MOL file


 26 25  0  0  0  0  0  0  0  0999 V2000     
   19.5224   15.7769   22.1463 C   0  0  0  0  0  0  0  0  0  0  0  0
   19.6868   14.8711   21.5484 H   0  0  0  0  0  0  0  0  0  0  0  0
   18.4958   15.7418   22.5334 H   0  0  0  0  0  0  0  0  0  0  0  0
   19.6065   16.6371   21.4707 H   0  0  0  0  0  0  0  0  0  0  0  0
   20.5487   15.8573   23.2992 C   0  0  0  0  0  0  0  0  0  0  0  0
   21.5648   15.9232   22.8856 H   0  0  0  0  0  0  0  0  0  0  0  0
   20.5106   14.9206   23.8727 H   0  0  0  0  0  0  0  0  0  0  0  0
   20.2987   17.0409   24.2648 C   0  0  0  0  0  0  0  0  0  0  0  0
   19.2893   16.9595   24.6911 H   0  0  0  0  0  0  0  0  0  0  0  0
   20.9981   16.9559   25.1080 H   0  0  0  0  0  0  0  0  0  0  0  0
   20.4742   18.4273   23.5999 C   0  0  0  0  0  0  0  0  0  0  0  0
   19.7351   18.5459   22.7977 H   0  0  0  0  0  0  0  0  0  0  0  0
   21.4668   18.4860   23.1325 H   0  0  0  0  0  0  0  0  0  0  0  0
   20.3166   19.5770   24.6239 C   0  0  0  0  0  0  0  0  0  0  0  0
   19.3140   19.5391   25.0722 H   0  0  0  0  0  0  0  0  0  0  0  0
   21.0303   19.4292   25.4462 H   0  0  0  0  0  0  0  0  0  0  0  0
   20.5538   20.9760   24.0080 C   0  0  0  0  0  0  0  0  0  0  0  0
   21.5639   21.0243   23.5799 H   0  0  0  0  0  0  0  0  0  0  0  0
   20.5147   21.7282   24.8071 H   0  0  0  0  0  0  0  0  0  0  0  0
   19.5158   21.3350   22.9281 C   0  0  0  0  0  0  0  0  0  0  0  0
   19.5753   20.6189   22.1045 H   0  0  0  0  0  0  0  0  0  0  0  0
   18.5101   21.2875   23.3544 H   0  0  0  0  0  0  0  0  0  0  0  0
   19.7150   22.7223   22.3526 N   0  3  0  0  0  0  0  0  0  0  0  0
   20.6349   22.8247   21.9117 H   0  0  0  0  0  0  0  0  0  0  0  0
   19.6430   23.4486   23.0727 H   0  0  0  0  0  0  0  0  0  0  0  0
   19.0143   22.9419   21.6362 H   0  0  0  0  0  0  0  0  0  0  0  0
  1  2  1  0  0  0  0
  1  3  1  0  0  0  0
  1  4  1  0  0  0  0
  1  5  1  0  0  0  0
  5  6  1  0  0  0  0
  5  7  1  0  0  0  0
  5  8  1  0  0  0  0
  8  9  1  0  0  0  0
  8 10  1  0  0  0  0
  8 11  1  0  0  0  0
 11 12  1  0  0  0  0
 11 13  1  0  0  0  0
 11 14  1  0  0  0  0
 14 15  1  0  0  0  0
 14 16  1  0  0  0  0
 14 17  1  0  0  0  0
 17 18  1  0  0  0  0
 17 19  1  0  0  0  0
 17 20  1  0  0  0  0
 20 21  1  0  0  0  0
 20 22  1  0  0  0  0
 20 23  1  0  0  0  0
 23 24  1  0  0  0  0
 23 25  1  0  0  0  0
 23 26  1  0  0  0  0
M  END
> <VConfSearch Rank>
499

> <Conf_Id>
133

> <Delta U+W>
0.844

> <U+W>
-4.708

> <U>
48.723

> <W>
-53.431

> <W(PB)>
-55.776

> <W(SA)>
2.344

> <Valence>
2.962

> <Coulomb>
44.993

> <VdW>
0.768

> <VdW6>
-7.008

> <VdW12>
7.776

> <Bond>
0.188

> <Angle>
0.756

> <Pdih>
2.018

> <Idih>
0.000

> <Tether>
0.000

$$$$
VeraChem MOL file


 26 25  0  0  0  0  0  0  0  0999 V2000     
   16.8473   20.0968   22.7688 C   0  0  0  0  0  0  0  0  0  0  0  0
   16.0179   19.6408   23.3248 H   0  0  0  0  0  0  0  0  0  0  0  0
   17.5896   20.4571   23.4919 H   0  0  0  0  0  0  0  0  0  0  0  0
   16.4538   20.9717   22.2355 H   0  0  0  0  0  0  0  0  0  0  0  0
   17.4685   19.0905   21.7740 C   0  0  0  0  0  0  0  0  0  0  0  0
   18.3074   19.5621   21.2449 H   0  0  0  0  0  0  0  0  0  0  0  0
   16.7238   18.8510   21.0021 H   0  0  0  0  0  0  0  0  0  0  0  0
   17.9297   17.7693   22.4405 C   0  0  0  0  0  0  0  0  0  0  0  0
   17.0513   17.2561   22.8555 H   0  0  0  0  0  0  0  0  0  0  0  0
   18.3283   17.1018   21.6641 H   0  0  0  0  0  0  0  0  0  0  0  0
   18.9889   17.9268   23.5620 C   0  0  0  0  0  0  0  0  0  0  0  0
   19.2165   16.9298   23.9637 H   0  0  0  0  0  0  0  0  0  0  0  0
   18.5664   18.4995   24.3982 H   0  0  0  0  0  0  0  0  0  0  0  0
   20.3030   18.5893   23.0837 C   0  0  0  0  0  0  0  0  0  0  0  0
   20.6984   18.0392   22.2185 H   0  0  0  0  0  0  0  0  0  0  0  0
   20.1036   19.6152   22.7465 H   0  0  0  0  0  0  0  0  0  0  0  0
   21.3678   18.6249   24.2019 C   0  0  0  0  0  0  0  0  0  0  0  0
   21.5842   17.6027   24.5401 H   0  0  0  0  0  0  0  0  0  0  0  0
   20.9759   19.1750   25.0679 H   0  0  0  0  0  0  0  0  0  0  0  0
   22.6689   19.2898   23.7193 C   0  0  0  0  0  0  0  0  0  0  0  0
   23.0713   18.7358   22.8670 H   0  0  0  0  0  0  0  0  0  0  0  0
   22.4615   20.3139   23.3972 H   0  0  0  0  0  0  0  0  0  0  0  0
   23.7400   19.3442   24.7895 N   0  3  0  0  0  0  0  0  0  0  0  0
   24.5980   19.7906   24.4474 H   0  0  0  0  0  0  0  0  0  0  0  0
   24.0009   18.4083   25.1170 H   0  0  0  0  0  0  0  0  0  0  0  0
   23.4336   19.8766   25.6103 H   0  0  0  0  0  0  0  0  0  0  0  0
  1  2  1  0  0  0  0
  1  3  1  0  0  0  0
  1  4  1  0  0  0  0
  1  5  1  0  0  0  0
  5  6  1  0  0  0  0
  5  7  1  0  0  0  0
  5  8  1  0  0  0  0
  8  9  1  0  0  0  0
  8 10  1  0  0  0  0
  8 11  1  0  0  0  0
 11 12  1  0  0  0  0
 11 13  1  0  0  0  0
 11 14  1  0  0  0  0
 14 15  1  0  0  0  0
 14 16  1  0  0  0  0
 14 17  1  0  0  0  0
 17 18  1  0  0  0  0
 17 19  1  0  0  0  0
 17 20  1  0  0  0  0
 20 21  1  0  0  0  0
 20 22  1  0  0  0  0
 20 23  1  0  0  0  0
 23 24  1  0  0  0  0
 23 25  1  0  0  0  0
 23 26  1  0  0  0  0
M  END
> <VConfSearch Rank>
500

> <Conf_Id>
106

> <Delta U+W>
0.767

> <U+W>
-4.785

> <U>
48.494

> <W>
-53.279

> <W(PB)>
-55.569

> <W(SA)>
2.290

> <Valence>
3.117

> <Coulomb>
44.693

> <VdW>
0.684

> <VdW6>
-7.347

> <VdW12>
8.030

> <Bond>
0.208

> <Angle>
1.039

> <Pdih>
1.870

> <Idih>
0.000

> <Tether>
0.000

$$$$
VeraChem MOL file


 26 25  0  0  0  0  0  0  0  0999 V2000     
   23.7356   16.4161   23.2410 C   0  0  0  0  0  0  0  0  0  0  0  0
   24.3489   17.1573   22.7122 H   0  0  0  0  0  0  0  0  0  0  0  0
   23.9358   16.5111   24.3163 H   0  0  0  0  0  0  0  0  0  0  0  0
   24.0651   15.4181   22.9239 H   0  0  0  0  0  0  0  0  0  0  0  0
   22.2361   16.6174   22.9360 C   0  0  0  0  0  0  0  0  0  0  0  0
   21.6520   15.8418   23.4510 H   0  0  0  0  0  0  0  0  0  0  0  0
   22.0619   16.4829   21.8592 H   0  0  0  0  0  0  0  0  0  0  0  0
   21.7461   18.0157   23.3730 C   0  0  0  0  0  0  0  0  0  0  0  0
   21.9246   18.1464   24.4493 H   0  0  0  0  0  0  0  0  0  0  0  0
   22.3343   18.7875   22.8574 H   0  0  0  0  0  0  0  0  0  0  0  0
   20.2448   18.2211   23.0693 C   0  0  0  0  0  0  0  0  0  0  0  0
   19.6574   17.4487   23.5851 H   0  0  0  0  0  0  0  0  0  0  0  0
   20.0671   18.0897   21.9929 H   0  0  0  0  0  0  0  0  0  0  0  0
   19.7551   19.6202   23.5065 C   0  0  0  0  0  0  0  0  0  0  0  0
   19.9326   19.7520   24.5831 H   0  0  0  0  0  0  0  0  0  0  0  0
   20.3423   20.3929   22.9908 H   0  0  0  0  0  0  0  0  0  0  0  0
   18.2546   19.8262   23.2034 C   0  0  0  0  0  0  0  0  0  0  0  0
   17.6638   19.0590   23.7215 H   0  0  0  0  0  0  0  0  0  0  0  0
   18.0739   19.7004   22.1275 H   0  0  0  0  0  0  0  0  0  0  0  0
   17.7780   21.2219   23.6424 C   0  0  0  0  0  0  0  0  0  0  0  0
   17.9408   21.3456   24.7165 H   0  0  0  0  0  0  0  0  0  0  0  0
   18.3525   21.9894   23.1167 H   0  0  0  0  0  0  0  0  0  0  0  0
   16.3089   21.4630   23.3613 N   0  3  0  0  0  0  0  0  0  0  0  0
   16.0120   22.3981   23.6612 H   0  0  0  0  0  0  0  0  0  0  0  0
   15.7105   20.7891   23.8502 H   0  0  0  0  0  0  0  0  0  0  0  0
   16.0936   21.3881   22.3616 H   0  0  0  0  0  0  0  0  0  0  0  0
  1  2  1  0  0  0  0
  1  3  1  0  0  0  0
  1  4  1  0  0  0  0
  1  5  1  0  0  0  0
  5  6  1  0  0  0  0
  5  7  1  0  0  0  0
  5  8  1  0  0  0  0
  8  9  1  0  0  0  0
  8 10  1  0  0  0  0
  8 11  1  0  0  0  0
 11 12  1  0  0  0  0
 11 13  1  0  0  0  0
 11 14  1  0  0  0  0
 14 15  1  0  0  0  0
 14 16  1  0  0  0  0
 14 17  1  0  0  0  0
 17 18  1  0  0  0  0
 17 19  1  0  0  0  0
 17 20  1  0  0  0  0
 20 21  1  0  0  0  0
 20 22  1  0  0  0  0
 20 23  1  0  0  0  0
 23 24  1  0  0  0  0
 23 25  1  0  0  0  0
 23 26  1  0  0  0  0
M  END
> <VConfSearch Rank>
501

> <Conf_Id>
25

> <Delta U+W>
0.000

> <U+W>
-5.552

> <U>
47.192

> <W>
-52.745

> <W(PB)>
-55.134

> <W(SA)>
2.389

> <Valence>
2.156

> <Coulomb>
44.449

> <VdW>
0.587

> <VdW6>
-5.761

> <VdW12>
6.348

> <Bond>
0.129

> <Angle>
0.393

> <Pdih>
1.634

> <Idih>
0.000

> <Tether>
0.000

$$$$
VeraChem MOL file


 26 25  0  0  0  0  0  0  0  0999 V2000     
   17.8792   22.5025   21.9782 C   0  0  0  0  0  0  0  0  0  0  0  0
   18.7764   23.0769   21.7129 H   0  0  0  0  0  0  0  0  0  0  0  0
   17.5215   21.9908   21.0752 H   0  0  0  0  0  0  0  0  0  0  0  0
   17.1042   23.2139   22.2918 H   0  0  0  0  0  0  0  0  0  0  0  0
   18.1804   21.4925   23.1057 C   0  0  0  0  0  0  0  0  0  0  0  0
   17.2578   20.9579   23.3722 H   0  0  0  0  0  0  0  0  0  0  0  0
   18.5031   22.0357   24.0051 H   0  0  0  0  0  0  0  0  0  0  0  0
   19.2692   20.4787   22.6899 C   0  0  0  0  0  0  0  0  0  0  0  0
   18.9432   19.9401   21.7894 H   0  0  0  0  0  0  0  0  0  0  0  0
   20.1885   21.0178   22.4224 H   0  0  0  0  0  0  0  0  0  0  0  0
   19.5734   19.4655   23.8166 C   0  0  0  0  0  0  0  0  0  0  0  0
   18.6537   18.9267   24.0835 H   0  0  0  0  0  0  0  0  0  0  0  0
   19.8983   20.0053   24.7169 H   0  0  0  0  0  0  0  0  0  0  0  0
   20.6632   18.4517   23.4005 C   0  0  0  0  0  0  0  0  0  0  0  0
   20.3355   17.9188   22.4979 H   0  0  0  0  0  0  0  0  0  0  0  0
   21.5839   18.9905   23.1365 H   0  0  0  0  0  0  0  0  0  0  0  0
   20.9655   17.4379   24.5293 C   0  0  0  0  0  0  0  0  0  0  0  0
   20.0586   16.8716   24.7798 H   0  0  0  0  0  0  0  0  0  0  0  0
   21.2563   17.9816   25.4381 H   0  0  0  0  0  0  0  0  0  0  0  0
   22.0983   16.4595   24.1633 C   0  0  0  0  0  0  0  0  0  0  0  0
   23.0011   17.0207   23.9076 H   0  0  0  0  0  0  0  0  0  0  0  0
   22.3234   15.8264   25.0259 H   0  0  0  0  0  0  0  0  0  0  0  0
   21.7650   15.5480   22.9986 N   0  3  0  0  0  0  0  0  0  0  0  0
   21.5780   16.0788   22.1423 H   0  0  0  0  0  0  0  0  0  0  0  0
   20.9357   14.9758   23.1881 H   0  0  0  0  0  0  0  0  0  0  0  0
   22.5334   14.9014   22.7892 H   0  0  0  0  0  0  0  0  0  0  0  0
  1  2  1  0  0  0  0
  1  3  1  0  0  0  0
  1  4  1  0  0  0  0
  1  5  1  0  0  0  0
  5  6  1  0  0  0  0
  5  7  1  0  0  0  0
  5  8  1  0  0  0  0
  8  9  1  0  0  0  0
  8 10  1  0  0  0  0
  8 11  1  0  0  0  0
 11 12  1  0  0  0  0
 11 13  1  0  0  0  0
 11 14  1  0  0  0  0
 14 15  1  0  0  0  0
 14 16  1  0  0  0  0
 14 17  1  0  0  0  0
 17 18  1  0  0  0  0
 17 19  1  0  0  0  0
 17 20  1  0  0  0  0
 20 21  1  0  0  0  0
 20 22  1  0  0  0  0
 20 23  1  0  0  0  0
 23 24  1  0  0  0  0
 23 25  1  0  0  0  0
 23 26  1  0  0  0  0
M  END
> <VConfSearch Rank>
502

> <Conf_Id>
20

> <Delta U+W>
0.150

> <U+W>
-5.403

> <U>
47.845

> <W>
-53.248

> <W(PB)>
-55.599

> <W(SA)>
2.351

> <Valence>
2.258

> <Coulomb>
44.893

> <VdW>
0.694

> <VdW6>
-6.285

> <VdW12>
6.979

> <Bond>
0.149

> <Angle>
0.434

> <Pdih>
1.675

> <Idih>
0.000

> <Tether>
0.000

$$$$
VeraChem MOL file


 26 25  0  0  0  0  0  0  0  0999 V2000     
   23.5992   21.1715   23.8455 C   0  0  0  0  0  0  0  0  0  0  0  0
   23.2704   21.9485   23.1431 H   0  0  0  0  0  0  0  0  0  0  0  0
   23.3529   21.5036   24.8625 H   0  0  0  0  0  0  0  0  0  0  0  0
   24.6916   21.0917   23.7725 H   0  0  0  0  0  0  0  0  0  0  0  0
   22.9313   19.8171   23.5270 C   0  0  0  0  0  0  0  0  0  0  0  0
   23.3051   19.0536   24.2237 H   0  0  0  0  0  0  0  0  0  0  0  0
   23.2232   19.4951   22.5175 H   0  0  0  0  0  0  0  0  0  0  0  0
   21.3919   19.9017   23.6228 C   0  0  0  0  0  0  0  0  0  0  0  0
   21.1052   20.2260   24.6328 H   0  0  0  0  0  0  0  0  0  0  0  0
   21.0233   20.6677   22.9265 H   0  0  0  0  0  0  0  0  0  0  0  0
   20.7194   18.5471   23.3045 C   0  0  0  0  0  0  0  0  0  0  0  0
   21.0897   17.7817   24.0006 H   0  0  0  0  0  0  0  0  0  0  0  0
   21.0064   18.2237   22.2943 H   0  0  0  0  0  0  0  0  0  0  0  0
   19.1794   18.6320   23.4012 C   0  0  0  0  0  0  0  0  0  0  0  0
   18.8924   18.9526   24.4124 H   0  0  0  0  0  0  0  0  0  0  0  0
   18.8154   19.4015   22.7073 H   0  0  0  0  0  0  0  0  0  0  0  0
   18.5082   17.2753   23.0813 C   0  0  0  0  0  0  0  0  0  0  0  0
   18.9058   16.5049   23.7554 H   0  0  0  0  0  0  0  0  0  0  0  0
   18.7632   16.9604   22.0606 H   0  0  0  0  0  0  0  0  0  0  0  0
   16.9760   17.3171   23.2390 C   0  0  0  0  0  0  0  0  0  0  0  0
   16.5679   16.3147   23.0832 H   0  0  0  0  0  0  0  0  0  0  0  0
   16.7188   17.6361   24.2526 H   0  0  0  0  0  0  0  0  0  0  0  0
   16.2871   18.2505   22.2628 N   0  3  0  0  0  0  0  0  0  0  0  0
   16.4726   17.9880   21.2894 H   0  0  0  0  0  0  0  0  0  0  0  0
   16.5983   19.2197   22.3801 H   0  0  0  0  0  0  0  0  0  0  0  0
   15.2686   18.2454   22.3854 H   0  0  0  0  0  0  0  0  0  0  0  0
  1  2  1  0  0  0  0
  1  3  1  0  0  0  0
  1  4  1  0  0  0  0
  1  5  1  0  0  0  0
  5  6  1  0  0  0  0
  5  7  1  0  0  0  0
  5  8  1  0  0  0  0
  8  9  1  0  0  0  0
  8 10  1  0  0  0  0
  8 11  1  0  0  0  0
 11 12  1  0  0  0  0
 11 13  1  0  0  0  0
 11 14  1  0  0  0  0
 14 15  1  0  0  0  0
 14 16  1  0  0  0  0
 14 17  1  0  0  0  0
 17 18  1  0  0  0  0
 17 19  1  0  0  0  0
 17 20  1  0  0  0  0
 20 21  1  0  0  0  0
 20 22  1  0  0  0  0
 20 23  1  0  0  0  0
 23 24  1  0  0  0  0
 23 25  1  0  0  0  0
 23 26  1  0  0  0  0
M  END
> <VConfSearch Rank>
503

> <Conf_Id>
19

> <Delta U+W>
0.162

> <U+W>
-5.391

> <U>
47.845

> <W>
-53.235

> <W(PB)>
-55.585

> <W(SA)>
2.349

> <Valence>
2.258

> <Coulomb>
44.893

> <VdW>
0.694

> <VdW6>
-6.285

> <VdW12>
6.979

> <Bond>
0.149

> <Angle>
0.434

> <Pdih>
1.675

> <Idih>
0.000

> <Tether>
0.000

$$$$
VeraChem MOL file


 26 25  0  0  0  0  0  0  0  0999 V2000     
   24.0942   19.6416   24.0540 C   0  0  0  0  0  0  0  0  0  0  0  0
   24.7863   18.9564   23.5473 H   0  0  0  0  0  0  0  0  0  0  0  0
   24.1492   20.6163   23.5518 H   0  0  0  0  0  0  0  0  0  0  0  0
   24.4461   19.7736   25.0854 H   0  0  0  0  0  0  0  0  0  0  0  0
   22.6531   19.0894   24.0362 C   0  0  0  0  0  0  0  0  0  0  0  0
   22.0006   19.7802   24.5864 H   0  0  0  0  0  0  0  0  0  0  0  0
   22.6244   18.1295   24.5706 H   0  0  0  0  0  0  0  0  0  0  0  0
   22.1334   18.8989   22.5916 C   0  0  0  0  0  0  0  0  0  0  0  0
   22.1125   19.8682   22.0746 H   0  0  0  0  0  0  0  0  0  0  0  0
   22.8435   18.2697   22.0373 H   0  0  0  0  0  0  0  0  0  0  0  0
   20.7338   18.2406   22.5175 C   0  0  0  0  0  0  0  0  0  0  0  0
   20.7597   17.2644   23.0213 H   0  0  0  0  0  0  0  0  0  0  0  0
   20.5013   18.0371   21.4630 H   0  0  0  0  0  0  0  0  0  0  0  0
   19.6068   19.1118   23.1228 C   0  0  0  0  0  0  0  0  0  0  0  0
   19.7831   19.2618   24.1960 H   0  0  0  0  0  0  0  0  0  0  0  0
   19.6191   20.1060   22.6548 H   0  0  0  0  0  0  0  0  0  0  0  0
   18.2165   18.4683   22.9264 C   0  0  0  0  0  0  0  0  0  0  0  0
   18.1998   17.4746   23.3939 H   0  0  0  0  0  0  0  0  0  0  0  0
   18.0230   18.3239   21.8551 H   0  0  0  0  0  0  0  0  0  0  0  0
   17.1023   19.3385   23.5342 C   0  0  0  0  0  0  0  0  0  0  0  0
   17.2814   19.4714   24.6046 H   0  0  0  0  0  0  0  0  0  0  0  0
   17.1047   20.3237   23.0600 H   0  0  0  0  0  0  0  0  0  0  0  0
   15.7212   18.7400   23.3619 N   0  3  0  0  0  0  0  0  0  0  0  0
   15.6440   17.8213   23.8105 H   0  0  0  0  0  0  0  0  0  0  0  0
   15.4796   18.6144   22.3734 H   0  0  0  0  0  0  0  0  0  0  0  0
   14.9940   19.3352   23.7735 H   0  0  0  0  0  0  0  0  0  0  0  0
  1  2  1  0  0  0  0
  1  3  1  0  0  0  0
  1  4  1  0  0  0  0
  1  5  1  0  0  0  0
  5  6  1  0  0  0  0
  5  7  1  0  0  0  0
  5  8  1  0  0  0  0
  8  9  1  0  0  0  0
  8 10  1  0  0  0  0
  8 11  1  0  0  0  0
 11 12  1  0  0  0  0
 11 13  1  0  0  0  0
 11 14  1  0  0  0  0
 14 15  1  0  0  0  0
 14 16  1  0  0  0  0
 14 17  1  0  0  0  0
 17 18  1  0  0  0  0
 17 19  1  0  0  0  0
 17 20  1  0  0  0  0
 20 21  1  0  0  0  0
 20 22  1  0  0  0  0
 20 23  1  0  0  0  0
 23 24  1  0  0  0  0
 23 25  1  0  0  0  0
 23 26  1  0  0  0  0
M  END
> <VConfSearch Rank>
504

> <Conf_Id>
37

> <Delta U+W>
0.565

> <U+W>
-4.988

> <U>
48.035

> <W>
-53.022

> <W(PB)>
-55.379

> <W(SA)>
2.357

> <Valence>
2.701

> <Coulomb>
44.622

> <VdW>
0.712

> <VdW6>
-6.418

> <VdW12>
7.129

> <Bond>
0.168

> <Angle>
0.659

> <Pdih>
1.875

> <Idih>
0.000

> <Tether>
0.000

$$$$
VeraChem MOL file


 26 25  0  0  0  0  0  0  0  0999 V2000     
   16.7519   17.8040   25.5257 C   0  0  0  0  0  0  0  0  0  0  0  0
   16.2331   17.9335   24.5669 H   0  0  0  0  0  0  0  0  0  0  0  0
   17.0550   16.7524   25.6112 H   0  0  0  0  0  0  0  0  0  0  0  0
   16.0334   18.0140   26.3286 H   0  0  0  0  0  0  0  0  0  0  0  0
   17.9726   18.7432   25.6274 C   0  0  0  0  0  0  0  0  0  0  0  0
   18.4491   18.6157   26.6096 H   0  0  0  0  0  0  0  0  0  0  0  0
   17.6348   19.7876   25.5720 H   0  0  0  0  0  0  0  0  0  0  0  0
   19.0012   18.4680   24.5082 C   0  0  0  0  0  0  0  0  0  0  0  0
   19.3372   17.4237   24.5690 H   0  0  0  0  0  0  0  0  0  0  0  0
   18.5103   18.5896   23.5338 H   0  0  0  0  0  0  0  0  0  0  0  0
   20.2236   19.4121   24.6070 C   0  0  0  0  0  0  0  0  0  0  0  0
   20.6549   19.3339   25.6146 H   0  0  0  0  0  0  0  0  0  0  0  0
   19.8971   20.4549   24.4917 H   0  0  0  0  0  0  0  0  0  0  0  0
   21.3336   19.0989   23.5737 C   0  0  0  0  0  0  0  0  0  0  0  0
   22.2023   19.7356   23.7920 H   0  0  0  0  0  0  0  0  0  0  0  0
   21.6727   18.0613   23.7004 H   0  0  0  0  0  0  0  0  0  0  0  0
   20.8982   19.3298   22.1075 C   0  0  0  0  0  0  0  0  0  0  0  0
   20.5120   20.3514   21.9930 H   0  0  0  0  0  0  0  0  0  0  0  0
   20.0842   18.6437   21.8420 H   0  0  0  0  0  0  0  0  0  0  0  0
   22.0711   19.1149   21.1349 C   0  0  0  0  0  0  0  0  0  0  0  0
   22.8823   19.8067   21.3777 H   0  0  0  0  0  0  0  0  0  0  0  0
   22.4488   18.0936   21.2337 H   0  0  0  0  0  0  0  0  0  0  0  0
   21.6884   19.3339   19.6853 N   0  3  0  0  0  0  0  0  0  0  0  0
   21.3494   20.2872   19.5194 H   0  0  0  0  0  0  0  0  0  0  0  0
   20.9467   18.6930   19.3848 H   0  0  0  0  0  0  0  0  0  0  0  0
   22.4841   19.1861   19.0549 H   0  0  0  0  0  0  0  0  0  0  0  0
  1  2  1  0  0  0  0
  1  3  1  0  0  0  0
  1  4  1  0  0  0  0
  1  5  1  0  0  0  0
  5  6  1  0  0  0  0
  5  7  1  0  0  0  0
  5  8  1  0  0  0  0
  8  9  1  0  0  0  0
  8 10  1  0  0  0  0
  8 11  1  0  0  0  0
 11 12  1  0  0  0  0
 11 13  1  0  0  0  0
 11 14  1  0  0  0  0
 14 15  1  0  0  0  0
 14 16  1  0  0  0  0
 14 17  1  0  0  0  0
 17 18  1  0  0  0  0
 17 19  1  0  0  0  0
 17 20  1  0  0  0  0
 20 21  1  0  0  0  0
 20 22  1  0  0  0  0
 20 23  1  0  0  0  0
 23 24  1  0  0  0  0
 23 25  1  0  0  0  0
 23 26  1  0  0  0  0
M  END
> <VConfSearch Rank>
505

> <Conf_Id>
35

> <Delta U+W>
0.587

> <U+W>
-4.965

> <U>
48.214

> <W>
-53.179

> <W(PB)>
-55.527

> <W(SA)>
2.348

> <Valence>
2.697

> <Coulomb>
44.819

> <VdW>
0.699

> <VdW6>
-6.437

> <VdW12>
7.136

> <Bond>
0.168

> <Angle>
0.657

> <Pdih>
1.872

> <Idih>
0.000

> <Tether>
0.000

$$$$
VeraChem MOL file


 26 25  0  0  0  0  0  0  0  0999 V2000     
   20.6060   21.0478   26.7217 C   0  0  0  0  0  0  0  0  0  0  0  0
   20.5145   22.0336   26.2472 H   0  0  0  0  0  0  0  0  0  0  0  0
   19.5951   20.6698   26.9227 H   0  0  0  0  0  0  0  0  0  0  0  0
   21.1128   21.1837   27.6859 H   0  0  0  0  0  0  0  0  0  0  0  0
   21.3953   20.0713   25.8241 C   0  0  0  0  0  0  0  0  0  0  0  0
   21.4990   19.1057   26.3387 H   0  0  0  0  0  0  0  0  0  0  0  0
   22.4120   20.4593   25.6700 H   0  0  0  0  0  0  0  0  0  0  0  0
   20.7034   19.8626   24.4587 C   0  0  0  0  0  0  0  0  0  0  0  0
   19.6868   19.4841   24.6273 H   0  0  0  0  0  0  0  0  0  0  0  0
   20.6039   20.8301   23.9475 H   0  0  0  0  0  0  0  0  0  0  0  0
   21.4921   18.8804   23.5595 C   0  0  0  0  0  0  0  0  0  0  0  0
   21.5464   17.8958   24.0443 H   0  0  0  0  0  0  0  0  0  0  0  0
   22.5279   19.2350   23.4656 H   0  0  0  0  0  0  0  0  0  0  0  0
   20.8965   18.7267   22.1384 C   0  0  0  0  0  0  0  0  0  0  0  0
   20.8583   19.7087   21.6467 H   0  0  0  0  0  0  0  0  0  0  0  0
   21.5799   18.1087   21.5394 H   0  0  0  0  0  0  0  0  0  0  0  0
   19.4913   18.0804   22.1222 C   0  0  0  0  0  0  0  0  0  0  0  0
   18.7728   18.7239   22.6453 H   0  0  0  0  0  0  0  0  0  0  0  0
   19.5187   17.1221   22.6578 H   0  0  0  0  0  0  0  0  0  0  0  0
   18.9989   17.8474   20.6830 C   0  0  0  0  0  0  0  0  0  0  0  0
   18.9544   18.8012   20.1503 H   0  0  0  0  0  0  0  0  0  0  0  0
   19.6975   17.1915   20.1565 H   0  0  0  0  0  0  0  0  0  0  0  0
   17.6246   17.2125   20.6209 N   0  3  0  0  0  0  0  0  0  0  0  0
   16.9136   17.7946   21.0756 H   0  0  0  0  0  0  0  0  0  0  0  0
   17.6055   16.2969   21.0821 H   0  0  0  0  0  0  0  0  0  0  0  0
   17.3163   17.0658   19.6536 H   0  0  0  0  0  0  0  0  0  0  0  0
  1  2  1  0  0  0  0
  1  3  1  0  0  0  0
  1  4  1  0  0  0  0
  1  5  1  0  0  0  0
  5  6  1  0  0  0  0
  5  7  1  0  0  0  0
  5  8  1  0  0  0  0
  8  9  1  0  0  0  0
  8 10  1  0  0  0  0
  8 11  1  0  0  0  0
 11 12  1  0  0  0  0
 11 13  1  0  0  0  0
 11 14  1  0  0  0  0
 14 15  1  0  0  0  0
 14 16  1  0  0  0  0
 14 17  1  0  0  0  0
 17 18  1  0  0  0  0
 17 19  1  0  0  0  0
 17 20  1  0  0  0  0
 20 21  1  0  0  0  0
 20 22  1  0  0  0  0
 20 23  1  0  0  0  0
 23 24  1  0  0  0  0
 23 25  1  0  0  0  0
 23 26  1  0  0  0  0
M  END
> <VConfSearch Rank>
506

> <Conf_Id>
36

> <Delta U+W>
0.565

> <U+W>
-4.987

> <U>
48.214

> <W>
-53.201

> <W(PB)>
-55.543

> <W(SA)>
2.342

> <Valence>
2.697

> <Coulomb>
44.819

> <VdW>
0.698

> <VdW6>
-6.437

> <VdW12>
7.136

> <Bond>
0.168

> <Angle>
0.657

> <Pdih>
1.872

> <Idih>
0.000

> <Tether>
0.000

$$$$
VeraChem MOL file


 26 25  0  0  0  0  0  0  0  0999 V2000     
   16.0818   19.0541   21.5042 C   0  0  0  0  0  0  0  0  0  0  0  0
   16.2975   19.4527   20.5043 H   0  0  0  0  0  0  0  0  0  0  0  0
   15.2744   18.3168   21.4061 H   0  0  0  0  0  0  0  0  0  0  0  0
   15.7118   19.8780   22.1283 H   0  0  0  0  0  0  0  0  0  0  0  0
   17.3375   18.4075   22.1265 C   0  0  0  0  0  0  0  0  0  0  0  0
   17.6637   17.5665   21.4986 H   0  0  0  0  0  0  0  0  0  0  0  0
   17.0824   17.9885   23.1100 H   0  0  0  0  0  0  0  0  0  0  0  0
   18.4904   19.4247   22.2759 C   0  0  0  0  0  0  0  0  0  0  0  0
   18.7396   19.8427   21.2907 H   0  0  0  0  0  0  0  0  0  0  0  0
   18.1591   20.2643   22.9027 H   0  0  0  0  0  0  0  0  0  0  0  0
   19.7499   18.7809   22.8985 C   0  0  0  0  0  0  0  0  0  0  0  0
   20.0817   17.9433   22.2694 H   0  0  0  0  0  0  0  0  0  0  0  0
   19.4920   18.3601   23.8795 H   0  0  0  0  0  0  0  0  0  0  0  0
   20.9026   19.8027   23.0481 C   0  0  0  0  0  0  0  0  0  0  0  0
   21.1170   20.2514   22.0682 H   0  0  0  0  0  0  0  0  0  0  0  0
   20.5859   20.6258   23.7038 H   0  0  0  0  0  0  0  0  0  0  0  0
   22.2033   19.1743   23.6010 C   0  0  0  0  0  0  0  0  0  0  0  0
   22.9962   19.9340   23.5958 H   0  0  0  0  0  0  0  0  0  0  0  0
   22.5361   18.3679   22.9340 H   0  0  0  0  0  0  0  0  0  0  0  0
   22.0390   18.6283   25.0318 C   0  0  0  0  0  0  0  0  0  0  0  0
   21.7087   19.4312   25.6963 H   0  0  0  0  0  0  0  0  0  0  0  0
   21.2829   17.8391   25.0425 H   0  0  0  0  0  0  0  0  0  0  0  0
   23.3209   18.0511   25.5968 N   0  3  0  0  0  0  0  0  0  0  0  0
   23.1904   17.6933   26.5493 H   0  0  0  0  0  0  0  0  0  0  0  0
   24.0683   18.7515   25.6411 H   0  0  0  0  0  0  0  0  0  0  0  0
   23.6711   17.2714   25.0305 H   0  0  0  0  0  0  0  0  0  0  0  0
  1  2  1  0  0  0  0
  1  3  1  0  0  0  0
  1  4  1  0  0  0  0
  1  5  1  0  0  0  0
  5  6  1  0  0  0  0
  5  7  1  0  0  0  0
  5  8  1  0  0  0  0
  8  9  1  0  0  0  0
  8 10  1  0  0  0  0
  8 11  1  0  0  0  0
 11 12  1  0  0  0  0
 11 13  1  0  0  0  0
 11 14  1  0  0  0  0
 14 15  1  0  0  0  0
 14 16  1  0  0  0  0
 14 17  1  0  0  0  0
 17 18  1  0  0  0  0
 17 19  1  0  0  0  0
 17 20  1  0  0  0  0
 20 21  1  0  0  0  0
 20 22  1  0  0  0  0
 20 23  1  0  0  0  0
 23 24  1  0  0  0  0
 23 25  1  0  0  0  0
 23 26  1  0  0  0  0
M  END
> <VConfSearch Rank>
507

> <Conf_Id>
44

> <Delta U+W>
0.371

> <U+W>
-5.181

> <U>
48.002

> <W>
-53.183

> <W(PB)>
-55.533

> <W(SA)>
2.350

> <Valence>
2.459

> <Coulomb>
44.901

> <VdW>
0.643

> <VdW6>
-6.362

> <VdW12>
7.005

> <Bond>
0.151

> <Angle>
0.519

> <Pdih>
1.789

> <Idih>
0.000

> <Tether>
0.000

$$$$
VeraChem MOL file


 26 25  0  0  0  0  0  0  0  0999 V2000     
   23.6686   20.1060   22.8920 C   0  0  0  0  0  0  0  0  0  0  0  0
   23.5671   20.2724   21.8117 H   0  0  0  0  0  0  0  0  0  0  0  0
   24.6079   20.5724   23.2163 H   0  0  0  0  0  0  0  0  0  0  0  0
   23.7600   19.0270   23.0672 H   0  0  0  0  0  0  0  0  0  0  0  0
   22.4720   20.7090   23.6625 C   0  0  0  0  0  0  0  0  0  0  0  0
   22.5019   21.8027   23.5591 H   0  0  0  0  0  0  0  0  0  0  0  0
   22.5790   20.4991   24.7359 H   0  0  0  0  0  0  0  0  0  0  0  0
   21.0967   20.2024   23.1641 C   0  0  0  0  0  0  0  0  0  0  0  0
   20.3179   20.7853   23.6719 H   0  0  0  0  0  0  0  0  0  0  0  0
   20.9945   20.4159   22.0912 H   0  0  0  0  0  0  0  0  0  0  0  0
   20.8659   18.6913   23.4216 C   0  0  0  0  0  0  0  0  0  0  0  0
   20.9641   18.4780   24.4948 H   0  0  0  0  0  0  0  0  0  0  0  0
   21.6514   18.1127   22.9187 H   0  0  0  0  0  0  0  0  0  0  0  0
   19.4963   18.1767   22.9133 C   0  0  0  0  0  0  0  0  0  0  0  0
   19.3923   18.4030   21.8430 H   0  0  0  0  0  0  0  0  0  0  0  0
   19.4914   17.0821   22.9986 H   0  0  0  0  0  0  0  0  0  0  0  0
   18.2870   18.7560   23.6901 C   0  0  0  0  0  0  0  0  0  0  0  0
   18.2552   19.8460   23.5720 H   0  0  0  0  0  0  0  0  0  0  0  0
   18.3997   18.5587   24.7644 H   0  0  0  0  0  0  0  0  0  0  0  0
   16.9403   18.1877   23.2019 C   0  0  0  0  0  0  0  0  0  0  0  0
   16.1232   18.7025   23.7146 H   0  0  0  0  0  0  0  0  0  0  0  0
   16.8337   18.3642   22.1282 H   0  0  0  0  0  0  0  0  0  0  0  0
   16.7751   16.7017   23.4541 N   0  3  0  0  0  0  0  0  0  0  0  0
   17.4904   16.1519   22.9684 H   0  0  0  0  0  0  0  0  0  0  0  0
   15.8634   16.3600   23.1310 H   0  0  0  0  0  0  0  0  0  0  0  0
   16.8434   16.4749   24.4515 H   0  0  0  0  0  0  0  0  0  0  0  0
  1  2  1  0  0  0  0
  1  3  1  0  0  0  0
  1  4  1  0  0  0  0
  1  5  1  0  0  0  0
  5  6  1  0  0  0  0
  5  7  1  0  0  0  0
  5  8  1  0  0  0  0
  8  9  1  0  0  0  0
  8 10  1  0  0  0  0
  8 11  1  0  0  0  0
 11 12  1  0  0  0  0
 11 13  1  0  0  0  0
 11 14  1  0  0  0  0
 14 15  1  0  0  0  0
 14 16  1  0  0  0  0
 14 17  1  0  0  0  0
 17 18  1  0  0  0  0
 17 19  1  0  0  0  0
 17 20  1  0  0  0  0
 20 21  1  0  0  0  0
 20 22  1  0  0  0  0
 20 23  1  0  0  0  0
 23 24  1  0  0  0  0
 23 25  1  0  0  0  0
 23 26  1  0  0  0  0
M  END
> <VConfSearch Rank>
508

> <Conf_Id>
112

> <Delta U+W>
1.422

> <U+W>
-4.130

> <U>
49.323

> <W>
-53.453

> <W(PB)>
-55.749

> <W(SA)>
2.296

> <Valence>
3.408

> <Coulomb>
44.893

> <VdW>
1.021

> <VdW6>
-7.481

> <VdW12>
8.503

> <Bond>
0.239

> <Angle>
1.013

> <Pdih>
2.156

> <Idih>
0.000

> <Tether>
0.000

$$$$
VeraChem MOL file


 26 25  0  0  0  0  0  0  0  0999 V2000     
   21.9913   21.8097   24.3158 C   0  0  0  0  0  0  0  0  0  0  0  0
   22.7405   22.6027   24.4374 H   0  0  0  0  0  0  0  0  0  0  0  0
   21.2111   22.1928   23.6463 H   0  0  0  0  0  0  0  0  0  0  0  0
   21.5396   21.6210   25.2983 H   0  0  0  0  0  0  0  0  0  0  0  0
   22.6458   20.5292   23.7497 C   0  0  0  0  0  0  0  0  0  0  0  0
   23.4936   20.2508   24.3911 H   0  0  0  0  0  0  0  0  0  0  0  0
   23.0673   20.7377   22.7565 H   0  0  0  0  0  0  0  0  0  0  0  0
   21.6720   19.3292   23.6641 C   0  0  0  0  0  0  0  0  0  0  0  0
   22.2383   18.4417   23.3500 H   0  0  0  0  0  0  0  0  0  0  0  0
   21.2832   19.1118   24.6675 H   0  0  0  0  0  0  0  0  0  0  0  0
   20.5006   19.5595   22.6759 C   0  0  0  0  0  0  0  0  0  0  0  0
   20.9069   19.9024   21.7143 H   0  0  0  0  0  0  0  0  0  0  0  0
   19.8510   20.3651   23.0427 H   0  0  0  0  0  0  0  0  0  0  0  0
   19.6466   18.2926   22.4234 C   0  0  0  0  0  0  0  0  0  0  0  0
   18.9259   18.5195   21.6268 H   0  0  0  0  0  0  0  0  0  0  0  0
   20.2878   17.4871   22.0393 H   0  0  0  0  0  0  0  0  0  0  0  0
   18.8866   17.8000   23.6805 C   0  0  0  0  0  0  0  0  0  0  0  0
   18.2623   18.6081   24.0841 H   0  0  0  0  0  0  0  0  0  0  0  0
   19.6033   17.5334   24.4673 H   0  0  0  0  0  0  0  0  0  0  0  0
   18.0096   16.5647   23.3985 C   0  0  0  0  0  0  0  0  0  0  0  0
   18.6251   15.7642   22.9791 H   0  0  0  0  0  0  0  0  0  0  0  0
   17.5772   16.2061   24.3366 H   0  0  0  0  0  0  0  0  0  0  0  0
   16.8661   16.8318   22.4394 N   0  3  0  0  0  0  0  0  0  0  0  0
   17.2035   17.1371   21.5213 H   0  0  0  0  0  0  0  0  0  0  0  0
   16.2378   17.5621   22.7899 H   0  0  0  0  0  0  0  0  0  0  0  0
   16.2948   15.9937   22.2855 H   0  0  0  0  0  0  0  0  0  0  0  0
  1  2  1  0  0  0  0
  1  3  1  0  0  0  0
  1  4  1  0  0  0  0
  1  5  1  0  0  0  0
  5  6  1  0  0  0  0
  5  7  1  0  0  0  0
  5  8  1  0  0  0  0
  8  9  1  0  0  0  0
  8 10  1  0  0  0  0
  8 11  1  0  0  0  0
 11 12  1  0  0  0  0
 11 13  1  0  0  0  0
 11 14  1  0  0  0  0
 14 15  1  0  0  0  0
 14 16  1  0  0  0  0
 14 17  1  0  0  0  0
 17 18  1  0  0  0  0
 17 19  1  0  0  0  0
 17 20  1  0  0  0  0
 20 21  1  0  0  0  0
 20 22  1  0  0  0  0
 20 23  1  0  0  0  0
 23 24  1  0  0  0  0
 23 25  1  0  0  0  0
 23 26  1  0  0  0  0
M  END
> <VConfSearch Rank>
509

> <Conf_Id>
130

> <Delta U+W>
1.282

> <U+W>
-4.270

> <U>
49.153

> <W>
-53.422

> <W(PB)>
-55.725

> <W(SA)>
2.303

> <Valence>
3.298

> <Coulomb>
44.907

> <VdW>
0.948

> <VdW6>
-7.574

> <VdW12>
8.522

> <Bond>
0.229

> <Angle>
0.912

> <Pdih>
2.157

> <Idih>
0.000

> <Tether>
0.000

$$$$
VeraChem MOL file


 26 25  0  0  0  0  0  0  0  0999 V2000     
   22.1235   20.6815   25.3471 C   0  0  0  0  0  0  0  0  0  0  0  0
   21.5880   20.8843   26.2836 H   0  0  0  0  0  0  0  0  0  0  0  0
   23.0852   21.2091   25.3886 H   0  0  0  0  0  0  0  0  0  0  0  0
   21.5459   21.1125   24.5198 H   0  0  0  0  0  0  0  0  0  0  0  0
   22.3460   19.1647   25.1519 C   0  0  0  0  0  0  0  0  0  0  0  0
   23.0263   18.8037   25.9358 H   0  0  0  0  0  0  0  0  0  0  0  0
   22.8641   18.9853   24.2004 H   0  0  0  0  0  0  0  0  0  0  0  0
   21.0376   18.3359   25.2155 C   0  0  0  0  0  0  0  0  0  0  0  0
   21.2861   17.2726   25.0938 H   0  0  0  0  0  0  0  0  0  0  0  0
   20.6082   18.4302   26.2224 H   0  0  0  0  0  0  0  0  0  0  0  0
   19.9532   18.7221   24.1763 C   0  0  0  0  0  0  0  0  0  0  0  0
   19.6174   19.7526   24.3517 H   0  0  0  0  0  0  0  0  0  0  0  0
   19.0763   18.0852   24.3518 H   0  0  0  0  0  0  0  0  0  0  0  0
   20.4202   18.5657   22.7069 C   0  0  0  0  0  0  0  0  0  0  0  0
   21.2785   19.2246   22.5219 H   0  0  0  0  0  0  0  0  0  0  0  0
   20.7720   17.5388   22.5363 H   0  0  0  0  0  0  0  0  0  0  0  0
   19.3164   18.9109   21.6795 C   0  0  0  0  0  0  0  0  0  0  0  0
   19.7484   18.8810   20.6703 H   0  0  0  0  0  0  0  0  0  0  0  0
   18.9694   19.9400   21.8425 H   0  0  0  0  0  0  0  0  0  0  0  0
   18.1192   17.9437   21.7412 C   0  0  0  0  0  0  0  0  0  0  0  0
   18.4654   16.9192   21.5802 H   0  0  0  0  0  0  0  0  0  0  0  0
   17.6490   17.9978   22.7264 H   0  0  0  0  0  0  0  0  0  0  0  0
   17.0581   18.2473   20.7034 N   0  3  0  0  0  0  0  0  0  0  0  0
   16.6715   19.1901   20.8166 H   0  0  0  0  0  0  0  0  0  0  0  0
   16.2705   17.5926   20.7609 H   0  0  0  0  0  0  0  0  0  0  0  0
   17.4282   18.1855   19.7492 H   0  0  0  0  0  0  0  0  0  0  0  0
  1  2  1  0  0  0  0
  1  3  1  0  0  0  0
  1  4  1  0  0  0  0
  1  5  1  0  0  0  0
  5  6  1  0  0  0  0
  5  7  1  0  0  0  0
  5  8  1  0  0  0  0
  8  9  1  0  0  0  0
  8 10  1  0  0  0  0
  8 11  1  0  0  0  0
 11 12  1  0  0  0  0
 11 13  1  0  0  0  0
 11 14  1  0  0  0  0
 14 15  1  0  0  0  0
 14 16  1  0  0  0  0
 14 17  1  0  0  0  0
 17 18  1  0  0  0  0
 17 19  1  0  0  0  0
 17 20  1  0  0  0  0
 20 21  1  0  0  0  0
 20 22  1  0  0  0  0
 20 23  1  0  0  0  0
 23 24  1  0  0  0  0
 23 25  1  0  0  0  0
 23 26  1  0  0  0  0
M  END
> <VConfSearch Rank>
510

> <Conf_Id>
111

> <Delta U+W>
1.290

> <U+W>
-4.262

> <U>
49.209

> <W>
-53.471

> <W(PB)>
-55.745

> <W(SA)>
2.274

> <Valence>
3.465

> <Coulomb>
44.958

> <VdW>
0.786

> <VdW6>
-7.903

> <VdW12>
8.689

> <Bond>
0.237

> <Angle>
1.212

> <Pdih>
2.015

> <Idih>
0.000

> <Tether>
0.000

$$$$
VeraChem MOL file


 26 25  0  0  0  0  0  0  0  0999 V2000     
   18.7821   18.9263   19.4634 C   0  0  0  0  0  0  0  0  0  0  0  0
   17.9915   19.6656   19.6472 H   0  0  0  0  0  0  0  0  0  0  0  0
   19.4674   19.3383   18.7112 H   0  0  0  0  0  0  0  0  0  0  0  0
   18.3131   18.0303   19.0366 H   0  0  0  0  0  0  0  0  0  0  0  0
   19.5316   18.5804   20.7676 C   0  0  0  0  0  0  0  0  0  0  0  0
   20.2950   17.8183   20.5577 H   0  0  0  0  0  0  0  0  0  0  0  0
   18.8227   18.1345   21.4778 H   0  0  0  0  0  0  0  0  0  0  0  0
   20.1980   19.8299   21.3905 C   0  0  0  0  0  0  0  0  0  0  0  0
   20.8408   20.3045   20.6363 H   0  0  0  0  0  0  0  0  0  0  0  0
   19.4284   20.5703   21.6489 H   0  0  0  0  0  0  0  0  0  0  0  0
   21.0575   19.5166   22.6399 C   0  0  0  0  0  0  0  0  0  0  0  0
   21.5809   20.4349   22.9404 H   0  0  0  0  0  0  0  0  0  0  0  0
   21.8378   18.7894   22.3760 H   0  0  0  0  0  0  0  0  0  0  0  0
   20.2356   18.9896   23.8407 C   0  0  0  0  0  0  0  0  0  0  0  0
   19.4213   19.6935   24.0583 H   0  0  0  0  0  0  0  0  0  0  0  0
   19.7696   18.0293   23.5836 H   0  0  0  0  0  0  0  0  0  0  0  0
   21.1173   18.8008   25.0979 C   0  0  0  0  0  0  0  0  0  0  0  0
   21.5628   19.7600   25.3936 H   0  0  0  0  0  0  0  0  0  0  0  0
   21.9518   18.1282   24.8587 H   0  0  0  0  0  0  0  0  0  0  0  0
   20.3384   18.2074   26.2877 C   0  0  0  0  0  0  0  0  0  0  0  0
   19.8891   17.2546   25.9953 H   0  0  0  0  0  0  0  0  0  0  0  0
   21.0281   18.0195   27.1151 H   0  0  0  0  0  0  0  0  0  0  0  0
   19.2347   19.1090   26.8051 N   0  3  0  0  0  0  0  0  0  0  0  0
   18.7449   18.6911   27.6038 H   0  0  0  0  0  0  0  0  0  0  0  0
   18.5296   19.2972   26.0859 H   0  0  0  0  0  0  0  0  0  0  0  0
   19.5985   20.0150   27.1179 H   0  0  0  0  0  0  0  0  0  0  0  0
  1  2  1  0  0  0  0
  1  3  1  0  0  0  0
  1  4  1  0  0  0  0
  1  5  1  0  0  0  0
  5  6  1  0  0  0  0
  5  7  1  0  0  0  0
  5  8  1  0  0  0  0
  8  9  1  0  0  0  0
  8 10  1  0  0  0  0
  8 11  1  0  0  0  0
 11 12  1  0  0  0  0
 11 13  1  0  0  0  0
 11 14  1  0  0  0  0
 14 15  1  0  0  0  0
 14 16  1  0  0  0  0
 14 17  1  0  0  0  0
 17 18  1  0  0  0  0
 17 19  1  0  0  0  0
 17 20  1  0  0  0  0
 20 21  1  0  0  0  0
 20 22  1  0  0  0  0
 20 23  1  0  0  0  0
 23 24  1  0  0  0  0
 23 25  1  0  0  0  0
 23 26  1  0  0  0  0
M  END
> <VConfSearch Rank>
511

> <Conf_Id>
105

> <Delta U+W>
0.736

> <U+W>
-4.817

> <U>
48.735

> <W>
-53.552

> <W(PB)>
-55.889

> <W(SA)>
2.337

> <Valence>
2.803

> <Coulomb>
45.123

> <VdW>
0.809

> <VdW6>
-6.953

> <VdW12>
7.761

> <Bond>
0.188

> <Angle>
0.699

> <Pdih>
1.917

> <Idih>
0.000

> <Tether>
0.000

$$$$
VeraChem MOL file


 26 25  0  0  0  0  0  0  0  0999 V2000     
   20.3945   21.4311   20.5297 C   0  0  0  0  0  0  0  0  0  0  0  0
   19.9995   22.4518   20.6164 H   0  0  0  0  0  0  0  0  0  0  0  0
   21.4626   21.4551   20.7822 H   0  0  0  0  0  0  0  0  0  0  0  0
   20.3030   21.1228   19.4801 H   0  0  0  0  0  0  0  0  0  0  0  0
   19.6285   20.4591   21.4519 C   0  0  0  0  0  0  0  0  0  0  0  0
   20.0244   19.4450   21.3077 H   0  0  0  0  0  0  0  0  0  0  0  0
   18.5702   20.4337   21.1568 H   0  0  0  0  0  0  0  0  0  0  0  0
   19.7463   20.8708   22.9383 C   0  0  0  0  0  0  0  0  0  0  0  0
   20.8002   20.8564   23.2456 H   0  0  0  0  0  0  0  0  0  0  0  0
   19.4168   21.9134   23.0462 H   0  0  0  0  0  0  0  0  0  0  0  0
   18.9004   19.9920   23.8960 C   0  0  0  0  0  0  0  0  0  0  0  0
   17.8374   20.1228   23.6510 H   0  0  0  0  0  0  0  0  0  0  0  0
   19.0205   20.3711   24.9202 H   0  0  0  0  0  0  0  0  0  0  0  0
   19.2309   18.4768   23.8795 C   0  0  0  0  0  0  0  0  0  0  0  0
   18.5547   17.9756   24.5845 H   0  0  0  0  0  0  0  0  0  0  0  0
   19.0039   18.0536   22.8921 H   0  0  0  0  0  0  0  0  0  0  0  0
   20.6986   18.1587   24.2603 C   0  0  0  0  0  0  0  0  0  0  0  0
   20.9373   18.5964   25.2386 H   0  0  0  0  0  0  0  0  0  0  0  0
   21.3784   18.6212   23.5339 H   0  0  0  0  0  0  0  0  0  0  0  0
   20.9909   16.6460   24.2877 C   0  0  0  0  0  0  0  0  0  0  0  0
   20.7360   16.2042   23.3207 H   0  0  0  0  0  0  0  0  0  0  0  0
   22.0582   16.4869   24.4644 H   0  0  0  0  0  0  0  0  0  0  0  0
   20.2314   15.8952   25.3639 N   0  3  0  0  0  0  0  0  0  0  0  0
   19.2175   15.9710   25.2366 H   0  0  0  0  0  0  0  0  0  0  0  0
   20.4468   16.2515   26.3007 H   0  0  0  0  0  0  0  0  0  0  0  0
   20.4600   14.8952   25.3639 H   0  0  0  0  0  0  0  0  0  0  0  0
  1  2  1  0  0  0  0
  1  3  1  0  0  0  0
  1  4  1  0  0  0  0
  1  5  1  0  0  0  0
  5  6  1  0  0  0  0
  5  7  1  0  0  0  0
  5  8  1  0  0  0  0
  8  9  1  0  0  0  0
  8 10  1  0  0  0  0
  8 11  1  0  0  0  0
 11 12  1  0  0  0  0
 11 13  1  0  0  0  0
 11 14  1  0  0  0  0
 14 15  1  0  0  0  0
 14 16  1  0  0  0  0
 14 17  1  0  0  0  0
 17 18  1  0  0  0  0
 17 19  1  0  0  0  0
 17 20  1  0  0  0  0
 20 21  1  0  0  0  0
 20 22  1  0  0  0  0
 20 23  1  0  0  0  0
 23 24  1  0  0  0  0
 23 25  1  0  0  0  0
 23 26  1  0  0  0  0
M  END
> <VConfSearch Rank>
512

> <Conf_Id>
144

> <Delta U+W>
1.073

> <U+W>
-4.479

> <U>
49.231

> <W>
-53.710

> <W(PB)>
-55.983

> <W(SA)>
2.273

> <Valence>
3.276

> <Coulomb>
45.175

> <VdW>
0.779

> <VdW6>
-7.944

> <VdW12>
8.723

> <Bond>
0.239

> <Angle>
1.155

> <Pdih>
1.883

> <Idih>
0.000

> <Tether>
0.000

$$$$
VeraChem MOL file


 26 25  0  0  0  0  0  0  0  0999 V2000     
   18.1781   15.8237   22.3790 C   0  0  0  0  0  0  0  0  0  0  0  0
   18.9052   15.6751   21.5714 H   0  0  0  0  0  0  0  0  0  0  0  0
   17.7716   14.8381   22.6404 H   0  0  0  0  0  0  0  0  0  0  0  0
   17.3525   16.4344   21.9911 H   0  0  0  0  0  0  0  0  0  0  0  0
   18.8258   16.4859   23.6165 C   0  0  0  0  0  0  0  0  0  0  0  0
   19.6699   15.8748   23.9656 H   0  0  0  0  0  0  0  0  0  0  0  0
   18.0924   16.4923   24.4350 H   0  0  0  0  0  0  0  0  0  0  0  0
   19.2980   17.9387   23.3653 C   0  0  0  0  0  0  0  0  0  0  0  0
   18.4559   18.5402   22.9966 H   0  0  0  0  0  0  0  0  0  0  0  0
   19.5936   18.3645   24.3322 H   0  0  0  0  0  0  0  0  0  0  0  0
   20.4903   18.0393   22.3814 C   0  0  0  0  0  0  0  0  0  0  0  0
   20.2382   17.5242   21.4459 H   0  0  0  0  0  0  0  0  0  0  0  0
   21.3537   17.5050   22.8009 H   0  0  0  0  0  0  0  0  0  0  0  0
   20.9068   19.4893   22.0215 C   0  0  0  0  0  0  0  0  0  0  0  0
   21.7276   19.4264   21.2936 H   0  0  0  0  0  0  0  0  0  0  0  0
   20.0853   19.9990   21.4990 H   0  0  0  0  0  0  0  0  0  0  0  0
   21.3889   20.3484   23.2177 C   0  0  0  0  0  0  0  0  0  0  0  0
   22.1061   21.0928   22.8469 H   0  0  0  0  0  0  0  0  0  0  0  0
   21.9349   19.7231   23.9365 H   0  0  0  0  0  0  0  0  0  0  0  0
   20.2418   21.0999   23.9214 C   0  0  0  0  0  0  0  0  0  0  0  0
   19.7425   21.7580   23.2053 H   0  0  0  0  0  0  0  0  0  0  0  0
   19.5040   20.3928   24.3051 H   0  0  0  0  0  0  0  0  0  0  0  0
   20.7163   21.9498   25.0823 N   0  3  0  0  0  0  0  0  0  0  0  0
   21.3908   22.6618   24.7837 H   0  0  0  0  0  0  0  0  0  0  0  0
   21.1733   21.3865   25.8069 H   0  0  0  0  0  0  0  0  0  0  0  0
   19.9400   22.4453   25.5343 H   0  0  0  0  0  0  0  0  0  0  0  0
  1  2  1  0  0  0  0
  1  3  1  0  0  0  0
  1  4  1  0  0  0  0
  1  5  1  0  0  0  0
  5  6  1  0  0  0  0
  5  7  1  0  0  0  0
  5  8  1  0  0  0  0
  8  9  1  0  0  0  0
  8 10  1  0  0  0  0
  8 11  1  0  0  0  0
 11 12  1  0  0  0  0
 11 13  1  0  0  0  0
 11 14  1  0  0  0  0
 14 15  1  0  0  0  0
 14 16  1  0  0  0  0
 14 17  1  0  0  0  0
 17 18  1  0  0  0  0
 17 19  1  0  0  0  0
 17 20  1  0  0  0  0
 20 21  1  0  0  0  0
 20 22  1  0  0  0  0
 20 23  1  0  0  0  0
 23 24  1  0  0  0  0
 23 25  1  0  0  0  0
 23 26  1  0  0  0  0
M  END
> <VConfSearch Rank>
513

> <Conf_Id>
93

> <Delta U+W>
3.253

> <U+W>
-2.300

> <U>
51.609

> <W>
-53.909

> <W(PB)>
-56.178

> <W(SA)>
2.270

> <Valence>
5.204

> <Coulomb>
45.645

> <VdW>
0.760

> <VdW6>
-7.997

> <VdW12>
8.758

> <Bond>
0.240

> <Angle>
1.456

> <Pdih>
3.507

> <Idih>
0.000

> <Tether>
0.000

$$$$
VeraChem MOL file


 26 25  0  0  0  0  0  0  0  0999 V2000     
   21.4163   20.7031   26.2097 C   0  0  0  0  0  0  0  0  0  0  0  0
   21.4739   21.6133   25.6005 H   0  0  0  0  0  0  0  0  0  0  0  0
   20.4242   20.6641   26.6777 H   0  0  0  0  0  0  0  0  0  0  0  0
   22.1612   20.7963   27.0106 H   0  0  0  0  0  0  0  0  0  0  0  0
   21.6844   19.4343   25.3683 C   0  0  0  0  0  0  0  0  0  0  0  0
   21.7435   18.5707   26.0453 H   0  0  0  0  0  0  0  0  0  0  0  0
   22.6673   19.5115   24.8828 H   0  0  0  0  0  0  0  0  0  0  0  0
   20.5943   19.1547   24.3053 C   0  0  0  0  0  0  0  0  0  0  0  0
   20.7930   18.1642   23.8772 H   0  0  0  0  0  0  0  0  0  0  0  0
   19.6113   19.0994   24.7927 H   0  0  0  0  0  0  0  0  0  0  0  0
   20.5606   20.2022   23.1646 C   0  0  0  0  0  0  0  0  0  0  0  0
   21.5202   20.1882   22.6298 H   0  0  0  0  0  0  0  0  0  0  0  0
   20.4652   21.2079   23.5930 H   0  0  0  0  0  0  0  0  0  0  0  0
   19.4027   20.0121   22.1505 C   0  0  0  0  0  0  0  0  0  0  0  0
   18.4347   20.1360   22.6557 H   0  0  0  0  0  0  0  0  0  0  0  0
   19.4638   20.8321   21.4215 H   0  0  0  0  0  0  0  0  0  0  0  0
   19.4272   18.6727   21.3717 C   0  0  0  0  0  0  0  0  0  0  0  0
   20.4638   18.3719   21.1693 H   0  0  0  0  0  0  0  0  0  0  0  0
   18.9530   18.8282   20.3935 H   0  0  0  0  0  0  0  0  0  0  0  0
   18.6706   17.5410   22.0944 C   0  0  0  0  0  0  0  0  0  0  0  0
   19.1122   17.3552   23.0752 H   0  0  0  0  0  0  0  0  0  0  0  0
   17.6274   17.8340   22.2407 H   0  0  0  0  0  0  0  0  0  0  0  0
   18.6840   16.2356   21.3256 N   0  3  0  0  0  0  0  0  0  0  0  0
   18.2502   16.3322   20.4017 H   0  0  0  0  0  0  0  0  0  0  0  0
   18.1717   15.4969   21.8198 H   0  0  0  0  0  0  0  0  0  0  0  0
   19.6374   15.8895   21.1765 H   0  0  0  0  0  0  0  0  0  0  0  0
  1  2  1  0  0  0  0
  1  3  1  0  0  0  0
  1  4  1  0  0  0  0
  1  5  1  0  0  0  0
  5  6  1  0  0  0  0
  5  7  1  0  0  0  0
  5  8  1  0  0  0  0
  8  9  1  0  0  0  0
  8 10  1  0  0  0  0
  8 11  1  0  0  0  0
 11 12  1  0  0  0  0
 11 13  1  0  0  0  0
 11 14  1  0  0  0  0
 14 15  1  0  0  0  0
 14 16  1  0  0  0  0
 14 17  1  0  0  0  0
 17 18  1  0  0  0  0
 17 19  1  0  0  0  0
 17 20  1  0  0  0  0
 20 21  1  0  0  0  0
 20 22  1  0  0  0  0
 20 23  1  0  0  0  0
 23 24  1  0  0  0  0
 23 25  1  0  0  0  0
 23 26  1  0  0  0  0
M  END
> <VConfSearch Rank>
514

> <Conf_Id>
94

> <Delta U+W>
3.247

> <U+W>
-2.305

> <U>
51.609

> <W>
-53.914

> <W(PB)>
-56.221

> <W(SA)>
2.307

> <Valence>
5.204

> <Coulomb>
45.645

> <VdW>
0.760

> <VdW6>
-7.997

> <VdW12>
8.757

> <Bond>
0.240

> <Angle>
1.456

> <Pdih>
3.508

> <Idih>
0.000

> <Tether>
0.000

$$$$
VeraChem MOL file


 26 25  0  0  0  0  0  0  0  0999 V2000     
   23.9587   17.8655   23.9162 C   0  0  0  0  0  0  0  0  0  0  0  0
   24.5337   18.6510   23.4086 H   0  0  0  0  0  0  0  0  0  0  0  0
   23.8924   18.1242   24.9811 H   0  0  0  0  0  0  0  0  0  0  0  0
   24.5224   16.9273   23.8318 H   0  0  0  0  0  0  0  0  0  0  0  0
   22.5545   17.7156   23.2933 C   0  0  0  0  0  0  0  0  0  0  0  0
   22.0168   16.9011   23.7986 H   0  0  0  0  0  0  0  0  0  0  0  0
   22.6530   17.4238   22.2383 H   0  0  0  0  0  0  0  0  0  0  0  0
   21.7393   19.0234   23.3988 C   0  0  0  0  0  0  0  0  0  0  0  0
   21.6452   19.3121   24.4549 H   0  0  0  0  0  0  0  0  0  0  0  0
   22.2824   19.8348   22.8948 H   0  0  0  0  0  0  0  0  0  0  0  0
   20.3327   18.8773   22.7756 C   0  0  0  0  0  0  0  0  0  0  0  0
   19.7990   18.0601   23.2789 H   0  0  0  0  0  0  0  0  0  0  0  0
   20.4283   18.5921   21.7188 H   0  0  0  0  0  0  0  0  0  0  0  0
   19.5175   20.1882   22.8846 C   0  0  0  0  0  0  0  0  0  0  0  0
   19.3979   20.4647   23.9407 H   0  0  0  0  0  0  0  0  0  0  0  0
   20.0856   21.0050   22.4182 H   0  0  0  0  0  0  0  0  0  0  0  0
   18.1295   20.1016   22.2017 C   0  0  0  0  0  0  0  0  0  0  0  0
   18.2654   19.9115   21.1288 H   0  0  0  0  0  0  0  0  0  0  0  0
   17.6259   21.0744   22.2786 H   0  0  0  0  0  0  0  0  0  0  0  0
   17.2093   19.0099   22.7846 C   0  0  0  0  0  0  0  0  0  0  0  0
   16.2656   18.9980   22.2325 H   0  0  0  0  0  0  0  0  0  0  0  0
   17.6802   18.0299   22.6719 H   0  0  0  0  0  0  0  0  0  0  0  0
   16.8831   19.2089   24.2515 N   0  3  0  0  0  0  0  0  0  0  0  0
   16.4112   20.1036   24.4182 H   0  0  0  0  0  0  0  0  0  0  0  0
   17.7283   19.1990   24.8307 H   0  0  0  0  0  0  0  0  0  0  0  0
   16.2643   18.4725   24.6078 H   0  0  0  0  0  0  0  0  0  0  0  0
  1  2  1  0  0  0  0
  1  3  1  0  0  0  0
  1  4  1  0  0  0  0
  1  5  1  0  0  0  0
  5  6  1  0  0  0  0
  5  7  1  0  0  0  0
  5  8  1  0  0  0  0
  8  9  1  0  0  0  0
  8 10  1  0  0  0  0
  8 11  1  0  0  0  0
 11 12  1  0  0  0  0
 11 13  1  0  0  0  0
 11 14  1  0  0  0  0
 14 15  1  0  0  0  0
 14 16  1  0  0  0  0
 14 17  1  0  0  0  0
 17 18  1  0  0  0  0
 17 19  1  0  0  0  0
 17 20  1  0  0  0  0
 20 21  1  0  0  0  0
 20 22  1  0  0  0  0
 20 23  1  0  0  0  0
 23 24  1  0  0  0  0
 23 25  1  0  0  0  0
 23 26  1  0  0  0  0
M  END
> <VConfSearch Rank>
515

> <Conf_Id>
83

> <Delta U+W>
0.559

> <U+W>
-4.994

> <U>
48.668

> <W>
-53.661

> <W(PB)>
-55.972

> <W(SA)>
2.311

> <Valence>
2.543

> <Coulomb>
45.478

> <VdW>
0.646

> <VdW6>
-7.096

> <VdW12>
7.742

> <Bond>
0.176

> <Angle>
0.630

> <Pdih>
1.738

> <Idih>
0.000

> <Tether>
0.000

$$$$
VeraChem MOL file


 26 25  0  0  0  0  0  0  0  0999 V2000     
   22.4096   16.0041   22.1568 C   0  0  0  0  0  0  0  0  0  0  0  0
   22.9104   15.4218   22.9412 H   0  0  0  0  0  0  0  0  0  0  0  0
   21.6183   15.3806   21.7205 H   0  0  0  0  0  0  0  0  0  0  0  0
   23.1465   16.2128   21.3703 H   0  0  0  0  0  0  0  0  0  0  0  0
   21.8310   17.3178   22.7239 C   0  0  0  0  0  0  0  0  0  0  0  0
   21.3763   17.8892   21.9039 H   0  0  0  0  0  0  0  0  0  0  0  0
   22.6487   17.9321   23.1261 H   0  0  0  0  0  0  0  0  0  0  0  0
   20.7858   17.0485   23.8322 C   0  0  0  0  0  0  0  0  0  0  0  0
   19.9423   16.4806   23.4159 H   0  0  0  0  0  0  0  0  0  0  0  0
   21.2388   16.4076   24.6011 H   0  0  0  0  0  0  0  0  0  0  0  0
   20.2592   18.3349   24.5148 C   0  0  0  0  0  0  0  0  0  0  0  0
   21.1018   18.8949   24.9434 H   0  0  0  0  0  0  0  0  0  0  0  0
   19.6216   18.0424   25.3605 H   0  0  0  0  0  0  0  0  0  0  0  0
   19.4499   19.2525   23.5669 C   0  0  0  0  0  0  0  0  0  0  0  0
   20.0973   19.6092   22.7562 H   0  0  0  0  0  0  0  0  0  0  0  0
   18.6398   18.6749   23.1004 H   0  0  0  0  0  0  0  0  0  0  0  0
   18.8506   20.4647   24.3185 C   0  0  0  0  0  0  0  0  0  0  0  0
   19.6541   21.0648   24.7660 H   0  0  0  0  0  0  0  0  0  0  0  0
   18.2275   20.1066   25.1488 H   0  0  0  0  0  0  0  0  0  0  0  0
   17.9844   21.3596   23.4111 C   0  0  0  0  0  0  0  0  0  0  0  0
   17.1882   20.7631   22.9577 H   0  0  0  0  0  0  0  0  0  0  0  0
   17.5205   22.1454   24.0136 H   0  0  0  0  0  0  0  0  0  0  0  0
   18.7607   22.0334   22.2966 N   0  3  0  0  0  0  0  0  0  0  0  0
   19.1930   21.3497   21.6677 H   0  0  0  0  0  0  0  0  0  0  0  0
   19.5120   22.6279   22.6615 H   0  0  0  0  0  0  0  0  0  0  0  0
   18.1582   22.6317   21.7211 H   0  0  0  0  0  0  0  0  0  0  0  0
  1  2  1  0  0  0  0
  1  3  1  0  0  0  0
  1  4  1  0  0  0  0
  1  5  1  0  0  0  0
  5  6  1  0  0  0  0
  5  7  1  0  0  0  0
  5  8  1  0  0  0  0
  8  9  1  0  0  0  0
  8 10  1  0  0  0  0
  8 11  1  0  0  0  0
 11 12  1  0  0  0  0
 11 13  1  0  0  0  0
 11 14  1  0  0  0  0
 14 15  1  0  0  0  0
 14 16  1  0  0  0  0
 14 17  1  0  0  0  0
 17 18  1  0  0  0  0
 17 19  1  0  0  0  0
 17 20  1  0  0  0  0
 20 21  1  0  0  0  0
 20 22  1  0  0  0  0
 20 23  1  0  0  0  0
 23 24  1  0  0  0  0
 23 25  1  0  0  0  0
 23 26  1  0  0  0  0
M  END
> <VConfSearch Rank>
516

> <Conf_Id>
18

> <Delta U+W>
0.759

> <U+W>
-4.793

> <U>
48.945

> <W>
-53.738

> <W(PB)>
-56.051

> <W(SA)>
2.313

> <Valence>
2.802

> <Coulomb>
45.335

> <VdW>
0.807

> <VdW6>
-6.962

> <VdW12>
7.769

> <Bond>
0.189

> <Angle>
0.696

> <Pdih>
1.917

> <Idih>
0.000

> <Tether>
0.000

$$$$
VeraChem MOL file


 26 25  0  0  0  0  0  0  0  0999 V2000     
   20.5585   17.7391   26.9804 C   0  0  0  0  0  0  0  0  0  0  0  0
   20.1545   18.6406   27.4593 H   0  0  0  0  0  0  0  0  0  0  0  0
   19.9970   16.8728   27.3536 H   0  0  0  0  0  0  0  0  0  0  0  0
   21.6026   17.6267   27.3001 H   0  0  0  0  0  0  0  0  0  0  0  0
   20.4672   17.8399   25.4430 C   0  0  0  0  0  0  0  0  0  0  0  0
   20.9048   16.9382   24.9924 H   0  0  0  0  0  0  0  0  0  0  0  0
   21.0731   18.6912   25.1058 H   0  0  0  0  0  0  0  0  0  0  0  0
   19.0038   18.0037   24.9685 C   0  0  0  0  0  0  0  0  0  0  0  0
   18.4004   17.1854   25.3852 H   0  0  0  0  0  0  0  0  0  0  0  0
   18.5841   18.9339   25.3758 H   0  0  0  0  0  0  0  0  0  0  0  0
   18.8457   17.9934   23.4281 C   0  0  0  0  0  0  0  0  0  0  0  0
   17.7730   17.9923   23.1897 H   0  0  0  0  0  0  0  0  0  0  0  0
   19.2524   17.0565   23.0230 H   0  0  0  0  0  0  0  0  0  0  0  0
   19.5164   19.2001   22.7284 C   0  0  0  0  0  0  0  0  0  0  0  0
   19.1455   20.1343   23.1724 H   0  0  0  0  0  0  0  0  0  0  0  0
   20.5996   19.1714   22.9000 H   0  0  0  0  0  0  0  0  0  0  0  0
   19.2362   19.2069   21.2069 C   0  0  0  0  0  0  0  0  0  0  0  0
   18.1514   19.2045   21.0364 H   0  0  0  0  0  0  0  0  0  0  0  0
   19.6275   18.2892   20.7480 H   0  0  0  0  0  0  0  0  0  0  0  0
   19.8374   20.4347   20.4957 C   0  0  0  0  0  0  0  0  0  0  0  0
   19.5345   20.4293   19.4451 H   0  0  0  0  0  0  0  0  0  0  0  0
   19.4558   21.3501   20.9558 H   0  0  0  0  0  0  0  0  0  0  0  0
   21.3523   20.4834   20.5365 N   0  3  0  0  0  0  0  0  0  0  0  0
   21.7717   19.6573   20.0976 H   0  0  0  0  0  0  0  0  0  0  0  0
   21.7051   20.5287   21.4974 H   0  0  0  0  0  0  0  0  0  0  0  0
   21.7199   21.3040   20.0427 H   0  0  0  0  0  0  0  0  0  0  0  0
  1  2  1  0  0  0  0
  1  3  1  0  0  0  0
  1  4  1  0  0  0  0
  1  5  1  0  0  0  0
  5  6  1  0  0  0  0
  5  7  1  0  0  0  0
  5  8  1  0  0  0  0
  8  9  1  0  0  0  0
  8 10  1  0  0  0  0
  8 11  1  0  0  0  0
 11 12  1  0  0  0  0
 11 13  1  0  0  0  0
 11 14  1  0  0  0  0
 14 15  1  0  0  0  0
 14 16  1  0  0  0  0
 14 17  1  0  0  0  0
 17 18  1  0  0  0  0
 17 19  1  0  0  0  0
 17 20  1  0  0  0  0
 20 21  1  0  0  0  0
 20 22  1  0  0  0  0
 20 23  1  0  0  0  0
 23 24  1  0  0  0  0
 23 25  1  0  0  0  0
 23 26  1  0  0  0  0
M  END
> <VConfSearch Rank>
517

> <Conf_Id>
17

> <Delta U+W>
0.843

> <U+W>
-4.709

> <U>
48.945

> <W>
-53.653

> <W(PB)>
-55.991

> <W(SA)>
2.338

> <Valence>
2.802

> <Coulomb>
45.335

> <VdW>
0.807

> <VdW6>
-6.962

> <VdW12>
7.769

> <Bond>
0.189

> <Angle>
0.696

> <Pdih>
1.917

> <Idih>
0.000

> <Tether>
0.000

$$$$
VeraChem MOL file


 26 25  0  0  0  0  0  0  0  0999 V2000     
   20.8703   21.4441   21.1861 C   0  0  0  0  0  0  0  0  0  0  0  0
   19.8178   21.2317   21.4108 H   0  0  0  0  0  0  0  0  0  0  0  0
   21.2789   22.0587   21.9987 H   0  0  0  0  0  0  0  0  0  0  0  0
   20.8966   22.0430   20.2666 H   0  0  0  0  0  0  0  0  0  0  0  0
   21.6869   20.1440   21.0079 C   0  0  0  0  0  0  0  0  0  0  0  0
   22.6974   20.4052   20.6640 H   0  0  0  0  0  0  0  0  0  0  0  0
   21.2397   19.5328   20.2115 H   0  0  0  0  0  0  0  0  0  0  0  0
   21.8049   19.3082   22.3054 C   0  0  0  0  0  0  0  0  0  0  0  0
   22.4889   18.4690   22.1177 H   0  0  0  0  0  0  0  0  0  0  0  0
   22.2711   19.9167   23.0926 H   0  0  0  0  0  0  0  0  0  0  0  0
   20.4501   18.7540   22.8077 C   0  0  0  0  0  0  0  0  0  0  0  0
   19.9649   18.1872   22.0012 H   0  0  0  0  0  0  0  0  0  0  0  0
   19.7830   19.5879   23.0592 H   0  0  0  0  0  0  0  0  0  0  0  0
   20.6286   17.8416   24.0451 C   0  0  0  0  0  0  0  0  0  0  0  0
   21.3309   17.0329   23.7998 H   0  0  0  0  0  0  0  0  0  0  0  0
   21.0870   18.4133   24.8640 H   0  0  0  0  0  0  0  0  0  0  0  0
   19.3019   17.2140   24.5336 C   0  0  0  0  0  0  0  0  0  0  0  0
   19.5190   16.5140   25.3514 H   0  0  0  0  0  0  0  0  0  0  0  0
   18.8533   16.6227   23.7243 H   0  0  0  0  0  0  0  0  0  0  0  0
   18.2915   18.2665   25.0275 C   0  0  0  0  0  0  0  0  0  0  0  0
   18.7378   18.8549   25.8338 H   0  0  0  0  0  0  0  0  0  0  0  0
   18.0322   18.9435   24.2096 H   0  0  0  0  0  0  0  0  0  0  0  0
   17.0072   17.6558   25.5498 N   0  3  0  0  0  0  0  0  0  0  0  0
   16.3485   18.3725   25.8737 H   0  0  0  0  0  0  0  0  0  0  0  0
   17.1774   17.0275   26.3420 H   0  0  0  0  0  0  0  0  0  0  0  0
   16.5234   17.1092   24.8298 H   0  0  0  0  0  0  0  0  0  0  0  0
  1  2  1  0  0  0  0
  1  3  1  0  0  0  0
  1  4  1  0  0  0  0
  1  5  1  0  0  0  0
  5  6  1  0  0  0  0
  5  7  1  0  0  0  0
  5  8  1  0  0  0  0
  8  9  1  0  0  0  0
  8 10  1  0  0  0  0
  8 11  1  0  0  0  0
 11 12  1  0  0  0  0
 11 13  1  0  0  0  0
 11 14  1  0  0  0  0
 14 15  1  0  0  0  0
 14 16  1  0  0  0  0
 14 17  1  0  0  0  0
 17 18  1  0  0  0  0
 17 19  1  0  0  0  0
 17 20  1  0  0  0  0
 20 21  1  0  0  0  0
 20 22  1  0  0  0  0
 20 23  1  0  0  0  0
 23 24  1  0  0  0  0
 23 25  1  0  0  0  0
 23 26  1  0  0  0  0
M  END
> <VConfSearch Rank>
518

> <Conf_Id>
96

> <Delta U+W>
0.912

> <U+W>
-4.640

> <U>
48.723

> <W>
-53.364

> <W(PB)>
-55.683

> <W(SA)>
2.320

> <Valence>
2.962

> <Coulomb>
44.993

> <VdW>
0.768

> <VdW6>
-7.008

> <VdW12>
7.776

> <Bond>
0.188

> <Angle>
0.757

> <Pdih>
2.018

> <Idih>
0.000

> <Tether>
0.000

$$$$
VeraChem MOL file


 26 25  0  0  0  0  0  0  0  0999 V2000     
   17.4407   16.7727   22.9861 C   0  0  0  0  0  0  0  0  0  0  0  0
   16.5031   16.2644   23.2458 H   0  0  0  0  0  0  0  0  0  0  0  0
   17.9635   16.1545   22.2448 H   0  0  0  0  0  0  0  0  0  0  0  0
   18.0548   16.8148   23.8942 H   0  0  0  0  0  0  0  0  0  0  0  0
   17.1533   18.1853   22.4285 C   0  0  0  0  0  0  0  0  0  0  0  0
   16.6589   18.7933   23.1990 H   0  0  0  0  0  0  0  0  0  0  0  0
   16.4377   18.0993   21.5989 H   0  0  0  0  0  0  0  0  0  0  0  0
   18.4192   18.9152   21.9182 C   0  0  0  0  0  0  0  0  0  0  0  0
   18.8987   18.3132   21.1340 H   0  0  0  0  0  0  0  0  0  0  0  0
   18.1102   19.8552   21.4405 H   0  0  0  0  0  0  0  0  0  0  0  0
   19.4435   19.2283   23.0353 C   0  0  0  0  0  0  0  0  0  0  0  0
   19.8061   18.2904   23.4742 H   0  0  0  0  0  0  0  0  0  0  0  0
   18.9474   19.7882   23.8401 H   0  0  0  0  0  0  0  0  0  0  0  0
   20.6422   20.0473   22.4992 C   0  0  0  0  0  0  0  0  0  0  0  0
   21.1587   19.4778   21.7140 H   0  0  0  0  0  0  0  0  0  0  0  0
   20.2694   20.9648   22.0231 H   0  0  0  0  0  0  0  0  0  0  0  0
   21.6533   20.4380   23.6028 C   0  0  0  0  0  0  0  0  0  0  0  0
   21.1447   21.0275   24.3773 H   0  0  0  0  0  0  0  0  0  0  0  0
   22.4227   21.0890   23.1667 H   0  0  0  0  0  0  0  0  0  0  0  0
   22.3345   19.2155   24.2462 C   0  0  0  0  0  0  0  0  0  0  0  0
   21.5832   18.5813   24.7236 H   0  0  0  0  0  0  0  0  0  0  0  0
   22.8414   18.6288   23.4753 H   0  0  0  0  0  0  0  0  0  0  0  0
   23.3592   19.5925   25.2964 N   0  3  0  0  0  0  0  0  0  0  0  0
   22.9399   20.1252   26.0656 H   0  0  0  0  0  0  0  0  0  0  0  0
   24.1124   20.1684   24.9060 H   0  0  0  0  0  0  0  0  0  0  0  0
   23.8011   18.7653   25.7121 H   0  0  0  0  0  0  0  0  0  0  0  0
  1  2  1  0  0  0  0
  1  3  1  0  0  0  0
  1  4  1  0  0  0  0
  1  5  1  0  0  0  0
  5  6  1  0  0  0  0
  5  7  1  0  0  0  0
  5  8  1  0  0  0  0
  8  9  1  0  0  0  0
  8 10  1  0  0  0  0
  8 11  1  0  0  0  0
 11 12  1  0  0  0  0
 11 13  1  0  0  0  0
 11 14  1  0  0  0  0
 14 15  1  0  0  0  0
 14 16  1  0  0  0  0
 14 17  1  0  0  0  0
 17 18  1  0  0  0  0
 17 19  1  0  0  0  0
 17 20  1  0  0  0  0
 20 21  1  0  0  0  0
 20 22  1  0  0  0  0
 20 23  1  0  0  0  0
 23 24  1  0  0  0  0
 23 25  1  0  0  0  0
 23 26  1  0  0  0  0
M  END
> <VConfSearch Rank>
519

> <Conf_Id>
133

> <Delta U+W>
0.844

> <U+W>
-4.708

> <U>
48.723

> <W>
-53.431

> <W(PB)>
-55.776

> <W(SA)>
2.344

> <Valence>
2.962

> <Coulomb>
44.993

> <VdW>
0.768

> <VdW6>
-7.008

> <VdW12>
7.776

> <Bond>
0.188

> <Angle>
0.756

> <Pdih>
2.018

> <Idih>
0.000

> <Tether>
0.000

$$$$
VeraChem MOL file


 26 25  0  0  0  0  0  0  0  0999 V2000     
   22.1763   19.5126   20.8890 C   0  0  0  0  0  0  0  0  0  0  0  0
   21.8593   20.1528   20.0555 H   0  0  0  0  0  0  0  0  0  0  0  0
   22.0295   20.0671   21.8242 H   0  0  0  0  0  0  0  0  0  0  0  0
   23.2527   19.3274   20.7801 H   0  0  0  0  0  0  0  0  0  0  0  0
   21.3952   18.1792   20.8932 C   0  0  0  0  0  0  0  0  0  0  0  0
   21.7145   17.5651   21.7458 H   0  0  0  0  0  0  0  0  0  0  0  0
   21.6659   17.6080   19.9943 H   0  0  0  0  0  0  0  0  0  0  0  0
   19.8565   18.3660   20.9134 C   0  0  0  0  0  0  0  0  0  0  0  0
   19.5490   18.8748   19.9894 H   0  0  0  0  0  0  0  0  0  0  0  0
   19.3797   17.3766   20.8842 H   0  0  0  0  0  0  0  0  0  0  0  0
   19.3004   19.1578   22.1251 C   0  0  0  0  0  0  0  0  0  0  0  0
   18.2102   19.2374   22.0139 H   0  0  0  0  0  0  0  0  0  0  0  0
   19.6814   20.1874   22.1062 H   0  0  0  0  0  0  0  0  0  0  0  0
   19.6213   18.5050   23.4910 C   0  0  0  0  0  0  0  0  0  0  0  0
   19.2785   17.4610   23.4891 H   0  0  0  0  0  0  0  0  0  0  0  0
   20.7077   18.4845   23.6498 H   0  0  0  0  0  0  0  0  0  0  0  0
   18.9557   19.2638   24.6601 C   0  0  0  0  0  0  0  0  0  0  0  0
   17.8669   19.2813   24.5182 H   0  0  0  0  0  0  0  0  0  0  0  0
   19.2973   20.3075   24.6652 H   0  0  0  0  0  0  0  0  0  0  0  0
   19.2843   18.6112   26.0144 C   0  0  0  0  0  0  0  0  0  0  0  0
   18.9315   17.5763   26.0195 H   0  0  0  0  0  0  0  0  0  0  0  0
   20.3668   18.6065   26.1678 H   0  0  0  0  0  0  0  0  0  0  0  0
   18.6487   19.3277   27.1882 N   0  3  0  0  0  0  0  0  0  0  0  0
   18.8800   18.8769   28.0803 H   0  0  0  0  0  0  0  0  0  0  0  0
   17.6259   19.3432   27.1182 H   0  0  0  0  0  0  0  0  0  0  0  0
   18.9613   20.3018   27.2563 H   0  0  0  0  0  0  0  0  0  0  0  0
  1  2  1  0  0  0  0
  1  3  1  0  0  0  0
  1  4  1  0  0  0  0
  1  5  1  0  0  0  0
  5  6  1  0  0  0  0
  5  7  1  0  0  0  0
  5  8  1  0  0  0  0
  8  9  1  0  0  0  0
  8 10  1  0  0  0  0
  8 11  1  0  0  0  0
 11 12  1  0  0  0  0
 11 13  1  0  0  0  0
 11 14  1  0  0  0  0
 14 15  1  0  0  0  0
 14 16  1  0  0  0  0
 14 17  1  0  0  0  0
 17 18  1  0  0  0  0
 17 19  1  0  0  0  0
 17 20  1  0  0  0  0
 20 21  1  0  0  0  0
 20 22  1  0  0  0  0
 20 23  1  0  0  0  0
 23 24  1  0  0  0  0
 23 25  1  0  0  0  0
 23 26  1  0  0  0  0
M  END
> <VConfSearch Rank>
520

> <Conf_Id>
106

> <Delta U+W>
0.767

> <U+W>
-4.785

> <U>
48.494

> <W>
-53.279

> <W(PB)>
-55.569

> <W(SA)>
2.290

> <Valence>
3.117

> <Coulomb>
44.693

> <VdW>
0.684

> <VdW6>
-7.347

> <VdW12>
8.030

> <Bond>
0.208

> <Angle>
1.039

> <Pdih>
1.870

> <Idih>
0.000

> <Tether>
0.000

$$$$
VeraChem MOL file


 26 25  0  0  0  0  0  0  0  0999 V2000     
   16.7760   21.9292   22.4371 C   0  0  0  0  0  0  0  0  0  0  0  0
   17.0265   22.0466   21.3746 H   0  0  0  0  0  0  0  0  0  0  0  0
   15.9489   21.2117   22.5161 H   0  0  0  0  0  0  0  0  0  0  0  0
   16.4180   22.8984   22.8079 H   0  0  0  0  0  0  0  0  0  0  0  0
   18.0014   21.4548   23.2468 C   0  0  0  0  0  0  0  0  0  0  0  0
   17.7294   21.3794   24.3090 H   0  0  0  0  0  0  0  0  0  0  0  0
   18.7987   22.2080   23.1764 H   0  0  0  0  0  0  0  0  0  0  0  0
   18.5260   20.0913   22.7446 C   0  0  0  0  0  0  0  0  0  0  0  0
   17.7249   19.3425   22.8146 H   0  0  0  0  0  0  0  0  0  0  0  0
   18.7944   20.1711   21.6821 H   0  0  0  0  0  0  0  0  0  0  0  0
   19.7530   19.6128   23.5532 C   0  0  0  0  0  0  0  0  0  0  0  0
   19.4838   19.5336   24.6156 H   0  0  0  0  0  0  0  0  0  0  0  0
   20.5534   20.3625   23.4830 H   0  0  0  0  0  0  0  0  0  0  0  0
   20.2775   18.2488   23.0503 C   0  0  0  0  0  0  0  0  0  0  0  0
   19.4773   17.4988   23.1203 H   0  0  0  0  0  0  0  0  0  0  0  0
   20.5470   18.3277   21.9878 H   0  0  0  0  0  0  0  0  0  0  0  0
   21.5039   17.7699   23.8580 C   0  0  0  0  0  0  0  0  0  0  0  0
   21.2371   17.6845   24.9199 H   0  0  0  0  0  0  0  0  0  0  0  0
   22.3079   18.5145   23.7863 H   0  0  0  0  0  0  0  0  0  0  0  0
   22.0178   16.4116   23.3490 C   0  0  0  0  0  0  0  0  0  0  0  0
   21.2255   15.6629   23.4339 H   0  0  0  0  0  0  0  0  0  0  0  0
   22.3001   16.4959   22.2960 H   0  0  0  0  0  0  0  0  0  0  0  0
   23.2223   15.9070   24.1171 N   0  3  0  0  0  0  0  0  0  0  0  0
   23.5485   15.0015   23.7621 H   0  0  0  0  0  0  0  0  0  0  0  0
   23.0147   15.7798   25.1131 H   0  0  0  0  0  0  0  0  0  0  0  0
   24.0145   16.5549   24.0543 H   0  0  0  0  0  0  0  0  0  0  0  0
  1  2  1  0  0  0  0
  1  3  1  0  0  0  0
  1  4  1  0  0  0  0
  1  5  1  0  0  0  0
  5  6  1  0  0  0  0
  5  7  1  0  0  0  0
  5  8  1  0  0  0  0
  8  9  1  0  0  0  0
  8 10  1  0  0  0  0
  8 11  1  0  0  0  0
 11 12  1  0  0  0  0
 11 13  1  0  0  0  0
 11 14  1  0  0  0  0
 14 15  1  0  0  0  0
 14 16  1  0  0  0  0
 14 17  1  0  0  0  0
 17 18  1  0  0  0  0
 17 19  1  0  0  0  0
 17 20  1  0  0  0  0
 20 21  1  0  0  0  0
 20 22  1  0  0  0  0
 20 23  1  0  0  0  0
 23 24  1  0  0  0  0
 23 25  1  0  0  0  0
 23 26  1  0  0  0  0
M  END
> <VConfSearch Rank>
521

> <Conf_Id>
25

> <Delta U+W>
0.000

> <U+W>
-5.552

> <U>
47.192

> <W>
-52.745

> <W(PB)>
-55.134

> <W(SA)>
2.389

> <Valence>
2.156

> <Coulomb>
44.449

> <VdW>
0.587

> <VdW6>
-5.761

> <VdW12>
6.348

> <Bond>
0.129

> <Angle>
0.393

> <Pdih>
1.634

> <Idih>
0.000

> <Tether>
0.000

$$$$
VeraChem MOL file


 26 25  0  0  0  0  0  0  0  0999 V2000     
   19.5874   23.2116   22.4858 C   0  0  0  0  0  0  0  0  0  0  0  0
   19.9578   23.5353   23.4673 H   0  0  0  0  0  0  0  0  0  0  0  0
   20.4338   23.2033   21.7867 H   0  0  0  0  0  0  0  0  0  0  0  0
   18.8668   23.9612   22.1337 H   0  0  0  0  0  0  0  0  0  0  0  0
   18.9267   21.8196   22.5736 C   0  0  0  0  0  0  0  0  0  0  0  0
   18.5365   21.5382   21.5854 H   0  0  0  0  0  0  0  0  0  0  0  0
   18.0641   21.8677   23.2531 H   0  0  0  0  0  0  0  0  0  0  0  0
   19.9203   20.7448   23.0674 C   0  0  0  0  0  0  0  0  0  0  0  0
   20.7817   20.7022   22.3865 H   0  0  0  0  0  0  0  0  0  0  0  0
   20.3092   21.0314   24.0543 H   0  0  0  0  0  0  0  0  0  0  0  0
   19.2622   19.3493   23.1566 C   0  0  0  0  0  0  0  0  0  0  0  0
   18.8737   19.0632   22.1693 H   0  0  0  0  0  0  0  0  0  0  0  0
   18.4004   19.3934   23.8368 H   0  0  0  0  0  0  0  0  0  0  0  0
   20.2564   18.2743   23.6512 C   0  0  0  0  0  0  0  0  0  0  0  0
   21.1176   18.2380   22.9707 H   0  0  0  0  0  0  0  0  0  0  0  0
   20.6426   18.5590   24.6398 H   0  0  0  0  0  0  0  0  0  0  0  0
   19.5959   16.8781   23.7388 C   0  0  0  0  0  0  0  0  0  0  0  0
   19.2338   16.5700   22.7489 H   0  0  0  0  0  0  0  0  0  0  0  0
   18.7146   16.9331   24.3917 H   0  0  0  0  0  0  0  0  0  0  0  0
   20.5486   15.8027   24.2957 C   0  0  0  0  0  0  0  0  0  0  0  0
   20.9157   16.1095   25.2789 H   0  0  0  0  0  0  0  0  0  0  0  0
   20.0041   14.8618   24.4135 H   0  0  0  0  0  0  0  0  0  0  0  0
   21.7482   15.5315   23.4091 N   0  3  0  0  0  0  0  0  0  0  0  0
   22.3264   16.3684   23.2860 H   0  0  0  0  0  0  0  0  0  0  0  0
   21.4676   15.2165   22.4747 H   0  0  0  0  0  0  0  0  0  0  0  0
   22.3545   14.8028   23.8013 H   0  0  0  0  0  0  0  0  0  0  0  0
  1  2  1  0  0  0  0
  1  3  1  0  0  0  0
  1  4  1  0  0  0  0
  1  5  1  0  0  0  0
  5  6  1  0  0  0  0
  5  7  1  0  0  0  0
  5  8  1  0  0  0  0
  8  9  1  0  0  0  0
  8 10  1  0  0  0  0
  8 11  1  0  0  0  0
 11 12  1  0  0  0  0
 11 13  1  0  0  0  0
 11 14  1  0  0  0  0
 14 15  1  0  0  0  0
 14 16  1  0  0  0  0
 14 17  1  0  0  0  0
 17 18  1  0  0  0  0
 17 19  1  0  0  0  0
 17 20  1  0  0  0  0
 20 21  1  0  0  0  0
 20 22  1  0  0  0  0
 20 23  1  0  0  0  0
 23 24  1  0  0  0  0
 23 25  1  0  0  0  0
 23 26  1  0  0  0  0
M  END
> <VConfSearch Rank>
522

> <Conf_Id>
20

> <Delta U+W>
0.150

> <U+W>
-5.403

> <U>
47.845

> <W>
-53.248

> <W(PB)>
-55.599

> <W(SA)>
2.351

> <Valence>
2.258

> <Coulomb>
44.893

> <VdW>
0.694

> <VdW6>
-6.285

> <VdW12>
6.979

> <Bond>
0.149

> <Angle>
0.434

> <Pdih>
1.675

> <Idih>
0.000

> <Tether>
0.000

$$$$
VeraChem MOL file


 26 25  0  0  0  0  0  0  0  0999 V2000     
   16.7742   21.2399   25.0775 C   0  0  0  0  0  0  0  0  0  0  0  0
   16.9703   20.7976   26.0629 H   0  0  0  0  0  0  0  0  0  0  0  0
   17.3049   22.1993   25.0214 H   0  0  0  0  0  0  0  0  0  0  0  0
   15.6981   21.4456   25.0085 H   0  0  0  0  0  0  0  0  0  0  0  0
   17.2214   20.2916   23.9448 C   0  0  0  0  0  0  0  0  0  0  0  0
   16.9817   20.7458   22.9732 H   0  0  0  0  0  0  0  0  0  0  0  0
   16.6498   19.3549   24.0066 H   0  0  0  0  0  0  0  0  0  0  0  0
   18.7338   19.9855   24.0186 C   0  0  0  0  0  0  0  0  0  0  0  0
   19.3008   20.9249   23.9587 H   0  0  0  0  0  0  0  0  0  0  0  0
   18.9688   19.5340   24.9925 H   0  0  0  0  0  0  0  0  0  0  0  0
   19.1854   19.0361   22.8860 C   0  0  0  0  0  0  0  0  0  0  0  0
   18.9487   19.4881   21.9128 H   0  0  0  0  0  0  0  0  0  0  0  0
   18.6182   18.0969   22.9467 H   0  0  0  0  0  0  0  0  0  0  0  0
   20.6986   18.7307   22.9596 C   0  0  0  0  0  0  0  0  0  0  0  0
   21.2659   19.6698   22.8959 H   0  0  0  0  0  0  0  0  0  0  0  0
   20.9301   18.2839   23.9357 H   0  0  0  0  0  0  0  0  0  0  0  0
   21.1484   17.7794   21.8256 C   0  0  0  0  0  0  0  0  0  0  0  0
   20.8793   18.2175   20.8552 H   0  0  0  0  0  0  0  0  0  0  0  0
   20.6099   16.8252   21.8987 H   0  0  0  0  0  0  0  0  0  0  0  0
   22.6665   17.5155   21.8368 C   0  0  0  0  0  0  0  0  0  0  0  0
   22.9355   16.9087   20.9679 H   0  0  0  0  0  0  0  0  0  0  0  0
   23.2056   18.4643   21.7701 H   0  0  0  0  0  0  0  0  0  0  0  0
   23.1501   16.7855   23.0745 N   0  3  0  0  0  0  0  0  0  0  0  0
   22.6949   15.8730   23.1806 H   0  0  0  0  0  0  0  0  0  0  0  0
   22.9614   17.3195   23.9284 H   0  0  0  0  0  0  0  0  0  0  0  0
   24.1611   16.6142   23.0448 H   0  0  0  0  0  0  0  0  0  0  0  0
  1  2  1  0  0  0  0
  1  3  1  0  0  0  0
  1  4  1  0  0  0  0
  1  5  1  0  0  0  0
  5  6  1  0  0  0  0
  5  7  1  0  0  0  0
  5  8  1  0  0  0  0
  8  9  1  0  0  0  0
  8 10  1  0  0  0  0
  8 11  1  0  0  0  0
 11 12  1  0  0  0  0
 11 13  1  0  0  0  0
 11 14  1  0  0  0  0
 14 15  1  0  0  0  0
 14 16  1  0  0  0  0
 14 17  1  0  0  0  0
 17 18  1  0  0  0  0
 17 19  1  0  0  0  0
 17 20  1  0  0  0  0
 20 21  1  0  0  0  0
 20 22  1  0  0  0  0
 20 23  1  0  0  0  0
 23 24  1  0  0  0  0
 23 25  1  0  0  0  0
 23 26  1  0  0  0  0
M  END
> <VConfSearch Rank>
523

> <Conf_Id>
19

> <Delta U+W>
0.162

> <U+W>
-5.391

> <U>
47.845

> <W>
-53.235

> <W(PB)>
-55.585

> <W(SA)>
2.349

> <Valence>
2.258

> <Coulomb>
44.893

> <VdW>
0.694

> <VdW6>
-6.285

> <VdW12>
6.979

> <Bond>
0.149

> <Angle>
0.434

> <Pdih>
1.675

> <Idih>
0.000

> <Tether>
0.000

$$$$
VeraChem MOL file


 26 25  0  0  0  0  0  0  0  0999 V2000     
   21.9782   15.2511   23.1324 C   0  0  0  0  0  0  0  0  0  0  0  0
   22.3180   14.8559   24.0987 H   0  0  0  0  0  0  0  0  0  0  0  0
   21.1048   14.6679   22.8125 H   0  0  0  0  0  0  0  0  0  0  0  0
   22.7798   15.0866   22.4008 H   0  0  0  0  0  0  0  0  0  0  0  0
   21.6346   16.7523   23.2361 C   0  0  0  0  0  0  0  0  0  0  0  0
   21.3395   17.1190   22.2441 H   0  0  0  0  0  0  0  0  0  0  0  0
   22.5337   17.3122   23.5289 H   0  0  0  0  0  0  0  0  0  0  0  0
   20.5030   17.0087   24.2594 C   0  0  0  0  0  0  0  0  0  0  0  0
   19.5886   16.4912   23.9380 H   0  0  0  0  0  0  0  0  0  0  0  0
   20.7862   16.5633   25.2231 H   0  0  0  0  0  0  0  0  0  0  0  0
   20.1982   18.5102   24.4841 C   0  0  0  0  0  0  0  0  0  0  0  0
   21.1095   19.0238   24.8203 H   0  0  0  0  0  0  0  0  0  0  0  0
   19.4738   18.5981   25.3056 H   0  0  0  0  0  0  0  0  0  0  0  0
   19.6290   19.2205   23.2323 C   0  0  0  0  0  0  0  0  0  0  0  0
   20.3716   19.2092   22.4236 H   0  0  0  0  0  0  0  0  0  0  0  0
   18.7495   18.6725   22.8665 H   0  0  0  0  0  0  0  0  0  0  0  0
   19.2348   20.6834   23.5329 C   0  0  0  0  0  0  0  0  0  0  0  0
   20.1116   21.2350   23.8977 H   0  0  0  0  0  0  0  0  0  0  0  0
   18.4828   20.7076   24.3328 H   0  0  0  0  0  0  0  0  0  0  0  0
   18.6736   21.3836   22.2827 C   0  0  0  0  0  0  0  0  0  0  0  0
   19.4250   21.3770   21.4885 H   0  0  0  0  0  0  0  0  0  0  0  0
   17.7905   20.8470   21.9254 H   0  0  0  0  0  0  0  0  0  0  0  0
   18.2750   22.8230   22.5373 N   0  3  0  0  0  0  0  0  0  0  0  0
   19.0696   23.3900   22.8507 H   0  0  0  0  0  0  0  0  0  0  0  0
   17.5488   22.8968   23.2573 H   0  0  0  0  0  0  0  0  0  0  0  0
   17.9038   23.2706   21.6921 H   0  0  0  0  0  0  0  0  0  0  0  0
  1  2  1  0  0  0  0
  1  3  1  0  0  0  0
  1  4  1  0  0  0  0
  1  5  1  0  0  0  0
  5  6  1  0  0  0  0
  5  7  1  0  0  0  0
  5  8  1  0  0  0  0
  8  9  1  0  0  0  0
  8 10  1  0  0  0  0
  8 11  1  0  0  0  0
 11 12  1  0  0  0  0
 11 13  1  0  0  0  0
 11 14  1  0  0  0  0
 14 15  1  0  0  0  0
 14 16  1  0  0  0  0
 14 17  1  0  0  0  0
 17 18  1  0  0  0  0
 17 19  1  0  0  0  0
 17 20  1  0  0  0  0
 20 21  1  0  0  0  0
 20 22  1  0  0  0  0
 20 23  1  0  0  0  0
 23 24  1  0  0  0  0
 23 25  1  0  0  0  0
 23 26  1  0  0  0  0
M  END
> <VConfSearch Rank>
524

> <Conf_Id>
37

> <Delta U+W>
0.565

> <U+W>
-4.988

> <U>
48.035

> <W>
-53.022

> <W(PB)>
-55.379

> <W(SA)>
2.357

> <Valence>
2.701

> <Coulomb>
44.622

> <VdW>
0.712

> <VdW6>
-6.418

> <VdW12>
7.129

> <Bond>
0.168

> <Angle>
0.659

> <Pdih>
1.875

> <Idih>
0.000

> <Tether>
0.000

$$$$
VeraChem MOL file


 26 25  0  0  0  0  0  0  0  0999 V2000     
   19.4254   22.8145   24.0785 C   0  0  0  0  0  0  0  0  0  0  0  0
   20.5143   22.8232   23.9392 H   0  0  0  0  0  0  0  0  0  0  0  0
   18.9552   23.0401   23.1125 H   0  0  0  0  0  0  0  0  0  0  0  0
   19.1684   23.6228   24.7753 H   0  0  0  0  0  0  0  0  0  0  0  0
   18.9466   21.4522   24.6238 C   0  0  0  0  0  0  0  0  0  0  0  0
   17.8601   21.4863   24.7854 H   0  0  0  0  0  0  0  0  0  0  0  0
   19.4075   21.2697   25.6047 H   0  0  0  0  0  0  0  0  0  0  0  0
   19.2954   20.2958   23.6607 C   0  0  0  0  0  0  0  0  0  0  0  0
   18.8308   20.4818   22.6825 H   0  0  0  0  0  0  0  0  0  0  0  0
   20.3813   20.2789   23.5008 H   0  0  0  0  0  0  0  0  0  0  0  0
   18.8192   18.9289   24.2086 C   0  0  0  0  0  0  0  0  0  0  0  0
   17.7458   18.9892   24.4355 H   0  0  0  0  0  0  0  0  0  0  0  0
   19.3239   18.7150   25.1609 H   0  0  0  0  0  0  0  0  0  0  0  0
   19.0466   17.7540   23.2257 C   0  0  0  0  0  0  0  0  0  0  0  0
   18.5771   16.8533   23.6452 H   0  0  0  0  0  0  0  0  0  0  0  0
   18.5274   17.9597   22.2793 H   0  0  0  0  0  0  0  0  0  0  0  0
   20.5393   17.4587   22.9481 C   0  0  0  0  0  0  0  0  0  0  0  0
   21.0684   17.3031   23.8977 H   0  0  0  0  0  0  0  0  0  0  0  0
   21.0090   18.3172   22.4519 H   0  0  0  0  0  0  0  0  0  0  0  0
   20.7076   16.2136   22.0594 C   0  0  0  0  0  0  0  0  0  0  0  0
   20.2596   15.3464   22.5521 H   0  0  0  0  0  0  0  0  0  0  0  0
   20.1959   16.3701   21.1059 H   0  0  0  0  0  0  0  0  0  0  0  0
   22.1572   15.8863   21.7642 N   0  3  0  0  0  0  0  0  0  0  0  0
   22.6893   15.7011   22.6208 H   0  0  0  0  0  0  0  0  0  0  0  0
   22.6302   16.6530   21.2746 H   0  0  0  0  0  0  0  0  0  0  0  0
   22.2465   15.0537   21.1716 H   0  0  0  0  0  0  0  0  0  0  0  0
  1  2  1  0  0  0  0
  1  3  1  0  0  0  0
  1  4  1  0  0  0  0
  1  5  1  0  0  0  0
  5  6  1  0  0  0  0
  5  7  1  0  0  0  0
  5  8  1  0  0  0  0
  8  9  1  0  0  0  0
  8 10  1  0  0  0  0
  8 11  1  0  0  0  0
 11 12  1  0  0  0  0
 11 13  1  0  0  0  0
 11 14  1  0  0  0  0
 14 15  1  0  0  0  0
 14 16  1  0  0  0  0
 14 17  1  0  0  0  0
 17 18  1  0  0  0  0
 17 19  1  0  0  0  0
 17 20  1  0  0  0  0
 20 21  1  0  0  0  0
 20 22  1  0  0  0  0
 20 23  1  0  0  0  0
 23 24  1  0  0  0  0
 23 25  1  0  0  0  0
 23 26  1  0  0  0  0
M  END
> <VConfSearch Rank>
525

> <Conf_Id>
35

> <Delta U+W>
0.587

> <U+W>
-4.965

> <U>
48.214

> <W>
-53.179

> <W(PB)>
-55.527

> <W(SA)>
2.348

> <Valence>
2.697

> <Coulomb>
44.819

> <VdW>
0.699

> <VdW6>
-6.437

> <VdW12>
7.136

> <Bond>
0.168

> <Angle>
0.657

> <Pdih>
1.872

> <Idih>
0.000

> <Tether>
0.000

$$$$
VeraChem MOL file


 26 25  0  0  0  0  0  0  0  0999 V2000     
   20.6671   18.1779   19.3827 C   0  0  0  0  0  0  0  0  0  0  0  0
   20.9963   19.1945   19.1311 H   0  0  0  0  0  0  0  0  0  0  0  0
   21.5282   17.6297   19.7867 H   0  0  0  0  0  0  0  0  0  0  0  0
   20.3594   17.6834   18.4522 H   0  0  0  0  0  0  0  0  0  0  0  0
   19.5027   18.2065   20.3953 C   0  0  0  0  0  0  0  0  0  0  0  0
   19.1736   17.1784   20.6018 H   0  0  0  0  0  0  0  0  0  0  0  0
   18.6454   18.7303   19.9497 H   0  0  0  0  0  0  0  0  0  0  0  0
   19.9091   18.8986   21.7153 C   0  0  0  0  0  0  0  0  0  0  0  0
   20.7711   18.3716   22.1446 H   0  0  0  0  0  0  0  0  0  0  0  0
   20.2352   19.9263   21.5040 H   0  0  0  0  0  0  0  0  0  0  0  0
   18.7432   18.9242   22.7329 C   0  0  0  0  0  0  0  0  0  0  0  0
   18.4509   17.8961   22.9878 H   0  0  0  0  0  0  0  0  0  0  0  0
   17.8656   19.3856   22.2593 H   0  0  0  0  0  0  0  0  0  0  0  0
   19.0687   19.7072   24.0287 C   0  0  0  0  0  0  0  0  0  0  0  0
   19.3442   20.7404   23.7753 H   0  0  0  0  0  0  0  0  0  0  0  0
   18.1546   19.7721   24.6352 H   0  0  0  0  0  0  0  0  0  0  0  0
   20.1892   19.0619   24.8775 C   0  0  0  0  0  0  0  0  0  0  0  0
   21.1343   19.0625   24.3200 H   0  0  0  0  0  0  0  0  0  0  0  0
   19.9370   18.0140   25.0878 H   0  0  0  0  0  0  0  0  0  0  0  0
   20.3905   19.8151   26.2043 C   0  0  0  0  0  0  0  0  0  0  0  0
   20.6578   20.8554   26.0000 H   0  0  0  0  0  0  0  0  0  0  0  0
   19.4599   19.8053   26.7781 H   0  0  0  0  0  0  0  0  0  0  0  0
   21.4793   19.2136   27.0694 N   0  3  0  0  0  0  0  0  0  0  0  0
   22.3893   19.2184   26.5970 H   0  0  0  0  0  0  0  0  0  0  0  0
   21.2744   18.2409   27.3203 H   0  0  0  0  0  0  0  0  0  0  0  0
   21.5964   19.7301   27.9480 H   0  0  0  0  0  0  0  0  0  0  0  0
  1  2  1  0  0  0  0
  1  3  1  0  0  0  0
  1  4  1  0  0  0  0
  1  5  1  0  0  0  0
  5  6  1  0  0  0  0
  5  7  1  0  0  0  0
  5  8  1  0  0  0  0
  8  9  1  0  0  0  0
  8 10  1  0  0  0  0
  8 11  1  0  0  0  0
 11 12  1  0  0  0  0
 11 13  1  0  0  0  0
 11 14  1  0  0  0  0
 14 15  1  0  0  0  0
 14 16  1  0  0  0  0
 14 17  1  0  0  0  0
 17 18  1  0  0  0  0
 17 19  1  0  0  0  0
 17 20  1  0  0  0  0
 20 21  1  0  0  0  0
 20 22  1  0  0  0  0
 20 23  1  0  0  0  0
 23 24  1  0  0  0  0
 23 25  1  0  0  0  0
 23 26  1  0  0  0  0
M  END
> <VConfSearch Rank>
526

> <Conf_Id>
36

> <Delta U+W>
0.565

> <U+W>
-4.987

> <U>
48.214

> <W>
-53.201

> <W(PB)>
-55.543

> <W(SA)>
2.342

> <Valence>
2.697

> <Coulomb>
44.819

> <VdW>
0.698

> <VdW6>
-6.437

> <VdW12>
7.136

> <Bond>
0.168

> <Angle>
0.657

> <Pdih>
1.872

> <Idih>
0.000

> <Tether>
0.000

$$$$
VeraChem MOL file


 26 25  0  0  0  0  0  0  0  0999 V2000     
   17.6484   16.3452   25.8347 C   0  0  0  0  0  0  0  0  0  0  0  0
   16.8481   16.0129   25.1607 H   0  0  0  0  0  0  0  0  0  0  0  0
   17.9068   15.5042   26.4913 H   0  0  0  0  0  0  0  0  0  0  0  0
   17.2527   17.1540   26.4628 H   0  0  0  0  0  0  0  0  0  0  0  0
   18.8845   16.8150   25.0388 C   0  0  0  0  0  0  0  0  0  0  0  0
   19.2775   15.9764   24.4471 H   0  0  0  0  0  0  0  0  0  0  0  0
   19.6790   17.1085   25.7393 H   0  0  0  0  0  0  0  0  0  0  0  0
   18.5479   17.9992   24.1057 C   0  0  0  0  0  0  0  0  0  0  0  0
   17.7515   17.7017   23.4097 H   0  0  0  0  0  0  0  0  0  0  0  0
   18.1538   18.8343   24.7014 H   0  0  0  0  0  0  0  0  0  0  0  0
   19.7833   18.4725   23.3067 C   0  0  0  0  0  0  0  0  0  0  0  0
   20.1748   17.6372   22.7095 H   0  0  0  0  0  0  0  0  0  0  0  0
   20.5769   18.7621   24.0083 H   0  0  0  0  0  0  0  0  0  0  0  0
   19.4432   19.6596   22.3739 C   0  0  0  0  0  0  0  0  0  0  0  0
   18.6154   19.3724   21.7108 H   0  0  0  0  0  0  0  0  0  0  0  0
   19.0826   20.5089   22.9708 H   0  0  0  0  0  0  0  0  0  0  0  0
   20.6405   20.1115   21.5050 C   0  0  0  0  0  0  0  0  0  0  0  0
   20.3023   20.8923   20.8108 H   0  0  0  0  0  0  0  0  0  0  0  0
   20.9870   19.2713   20.8885 H   0  0  0  0  0  0  0  0  0  0  0  0
   21.8120   20.6566   22.3432 C   0  0  0  0  0  0  0  0  0  0  0  0
   21.4675   21.4937   22.9563 H   0  0  0  0  0  0  0  0  0  0  0  0
   22.1874   19.8743   23.0079 H   0  0  0  0  0  0  0  0  0  0  0  0
   22.9708   21.1424   21.4968 N   0  3  0  0  0  0  0  0  0  0  0  0
   23.7398   21.5011   22.0734 H   0  0  0  0  0  0  0  0  0  0  0  0
   22.6918   21.9013   20.8664 H   0  0  0  0  0  0  0  0  0  0  0  0
   23.3589   20.3934   20.9142 H   0  0  0  0  0  0  0  0  0  0  0  0
  1  2  1  0  0  0  0
  1  3  1  0  0  0  0
  1  4  1  0  0  0  0
  1  5  1  0  0  0  0
  5  6  1  0  0  0  0
  5  7  1  0  0  0  0
  5  8  1  0  0  0  0
  8  9  1  0  0  0  0
  8 10  1  0  0  0  0
  8 11  1  0  0  0  0
 11 12  1  0  0  0  0
 11 13  1  0  0  0  0
 11 14  1  0  0  0  0
 14 15  1  0  0  0  0
 14 16  1  0  0  0  0
 14 17  1  0  0  0  0
 17 18  1  0  0  0  0
 17 19  1  0  0  0  0
 17 20  1  0  0  0  0
 20 21  1  0  0  0  0
 20 22  1  0  0  0  0
 20 23  1  0  0  0  0
 23 24  1  0  0  0  0
 23 25  1  0  0  0  0
 23 26  1  0  0  0  0
M  END
> <VConfSearch Rank>
527

> <Conf_Id>
44

> <Delta U+W>
0.371

> <U+W>
-5.181

> <U>
48.002

> <W>
-53.183

> <W(PB)>
-55.533

> <W(SA)>
2.350

> <Valence>
2.459

> <Coulomb>
44.901

> <VdW>
0.643

> <VdW6>
-6.362

> <VdW12>
7.005

> <Bond>
0.151

> <Angle>
0.519

> <Pdih>
1.789

> <Idih>
0.000

> <Tether>
0.000

$$$$
VeraChem MOL file


 26 25  0  0  0  0  0  0  0  0999 V2000     
   16.4271   18.2977   21.7531 C   0  0  0  0  0  0  0  0  0  0  0  0
   16.6055   17.2259   21.5971 H   0  0  0  0  0  0  0  0  0  0  0  0
   15.3544   18.4831   21.6120 H   0  0  0  0  0  0  0  0  0  0  0  0
   16.9619   18.8531   20.9729 H   0  0  0  0  0  0  0  0  0  0  0  0
   16.8691   18.7348   23.1683 C   0  0  0  0  0  0  0  0  0  0  0  0
   16.2173   18.2476   23.9069 H   0  0  0  0  0  0  0  0  0  0  0  0
   16.7134   19.8162   23.2875 H   0  0  0  0  0  0  0  0  0  0  0  0
   18.3398   18.3781   23.4948 C   0  0  0  0  0  0  0  0  0  0  0  0
   18.5136   18.6001   24.5552 H   0  0  0  0  0  0  0  0  0  0  0  0
   18.4894   17.2963   23.3755 H   0  0  0  0  0  0  0  0  0  0  0  0
   19.3682   19.1479   22.6272 C   0  0  0  0  0  0  0  0  0  0  0  0
   19.2215   20.2298   22.7493 H   0  0  0  0  0  0  0  0  0  0  0  0
   19.1856   18.9293   21.5673 H   0  0  0  0  0  0  0  0  0  0  0  0
   20.8409   18.7851   22.9413 C   0  0  0  0  0  0  0  0  0  0  0  0
   20.9839   17.7010   22.8331 H   0  0  0  0  0  0  0  0  0  0  0  0
   21.4769   19.2572   22.1809 H   0  0  0  0  0  0  0  0  0  0  0  0
   21.3058   19.2359   24.3491 C   0  0  0  0  0  0  0  0  0  0  0  0
   20.7072   18.7331   25.1185 H   0  0  0  0  0  0  0  0  0  0  0  0
   21.1380   20.3139   24.4741 H   0  0  0  0  0  0  0  0  0  0  0  0
   22.7886   18.9124   24.6166 C   0  0  0  0  0  0  0  0  0  0  0  0
   23.0319   19.1614   25.6531 H   0  0  0  0  0  0  0  0  0  0  0  0
   22.9638   17.8428   24.4730 H   0  0  0  0  0  0  0  0  0  0  0  0
   23.7517   19.6717   23.7250 N   0  3  0  0  0  0  0  0  0  0  0  0
   23.6040   19.4550   22.7345 H   0  0  0  0  0  0  0  0  0  0  0  0
   24.7287   19.4442   23.9395 H   0  0  0  0  0  0  0  0  0  0  0  0
   23.6502   20.6863   23.8319 H   0  0  0  0  0  0  0  0  0  0  0  0
  1  2  1  0  0  0  0
  1  3  1  0  0  0  0
  1  4  1  0  0  0  0
  1  5  1  0  0  0  0
  5  6  1  0  0  0  0
  5  7  1  0  0  0  0
  5  8  1  0  0  0  0
  8  9  1  0  0  0  0
  8 10  1  0  0  0  0
  8 11  1  0  0  0  0
 11 12  1  0  0  0  0
 11 13  1  0  0  0  0
 11 14  1  0  0  0  0
 14 15  1  0  0  0  0
 14 16  1  0  0  0  0
 14 17  1  0  0  0  0
 17 18  1  0  0  0  0
 17 19  1  0  0  0  0
 17 20  1  0  0  0  0
 20 21  1  0  0  0  0
 20 22  1  0  0  0  0
 20 23  1  0  0  0  0
 23 24  1  0  0  0  0
 23 25  1  0  0  0  0
 23 26  1  0  0  0  0
M  END
> <VConfSearch Rank>
528

> <Conf_Id>
112

> <Delta U+W>
1.422

> <U+W>
-4.130

> <U>
49.323

> <W>
-53.453

> <W(PB)>
-55.749

> <W(SA)>
2.296

> <Valence>
3.408

> <Coulomb>
44.893

> <VdW>
1.021

> <VdW6>
-7.481

> <VdW12>
8.503

> <Bond>
0.239

> <Angle>
1.013

> <Pdih>
2.156

> <Idih>
0.000

> <Tether>
0.000

$$$$
VeraChem MOL file


 26 25  0  0  0  0  0  0  0  0999 V2000     
   20.6623   15.2549   22.9688 C   0  0  0  0  0  0  0  0  0  0  0  0
   20.7803   14.2147   22.6387 H   0  0  0  0  0  0  0  0  0  0  0  0
   21.6255   15.7591   22.8214 H   0  0  0  0  0  0  0  0  0  0  0  0
   20.4410   15.2429   24.0440 H   0  0  0  0  0  0  0  0  0  0  0  0
   19.5315   15.9491   22.1764 C   0  0  0  0  0  0  0  0  0  0  0  0
   18.6172   15.3452   22.2603 H   0  0  0  0  0  0  0  0  0  0  0  0
   19.7885   15.9708   21.1081 H   0  0  0  0  0  0  0  0  0  0  0  0
   19.2273   17.3837   22.6713 C   0  0  0  0  0  0  0  0  0  0  0  0
   18.3519   17.7627   22.1262 H   0  0  0  0  0  0  0  0  0  0  0  0
   18.9414   17.3435   23.7305 H   0  0  0  0  0  0  0  0  0  0  0  0
   20.4112   18.3641   22.4745 C   0  0  0  0  0  0  0  0  0  0  0  0
   20.7658   18.2920   21.4371 H   0  0  0  0  0  0  0  0  0  0  0  0
   21.2552   18.0685   23.1116 H   0  0  0  0  0  0  0  0  0  0  0  0
   20.0463   19.8405   22.7663 C   0  0  0  0  0  0  0  0  0  0  0  0
   20.9033   20.4664   22.4846 H   0  0  0  0  0  0  0  0  0  0  0  0
   19.2132   20.1485   22.1194 H   0  0  0  0  0  0  0  0  0  0  0  0
   19.6808   20.1045   24.2487 C   0  0  0  0  0  0  0  0  0  0  0  0
   20.4995   19.7762   24.9027 H   0  0  0  0  0  0  0  0  0  0  0  0
   18.8001   19.5118   24.5255 H   0  0  0  0  0  0  0  0  0  0  0  0
   19.3628   21.5864   24.5273 C   0  0  0  0  0  0  0  0  0  0  0  0
   18.5605   21.9216   23.8646 H   0  0  0  0  0  0  0  0  0  0  0  0
   19.0197   21.6949   25.5598 H   0  0  0  0  0  0  0  0  0  0  0  0
   20.5481   22.5129   24.3386 N   0  3  0  0  0  0  0  0  0  0  0  0
   20.8991   22.4897   23.3763 H   0  0  0  0  0  0  0  0  0  0  0  0
   21.3295   22.2615   24.9527 H   0  0  0  0  0  0  0  0  0  0  0  0
   20.3058   23.4879   24.5461 H   0  0  0  0  0  0  0  0  0  0  0  0
  1  2  1  0  0  0  0
  1  3  1  0  0  0  0
  1  4  1  0  0  0  0
  1  5  1  0  0  0  0
  5  6  1  0  0  0  0
  5  7  1  0  0  0  0
  5  8  1  0  0  0  0
  8  9  1  0  0  0  0
  8 10  1  0  0  0  0
  8 11  1  0  0  0  0
 11 12  1  0  0  0  0
 11 13  1  0  0  0  0
 11 14  1  0  0  0  0
 14 15  1  0  0  0  0
 14 16  1  0  0  0  0
 14 17  1  0  0  0  0
 17 18  1  0  0  0  0
 17 19  1  0  0  0  0
 17 20  1  0  0  0  0
 20 21  1  0  0  0  0
 20 22  1  0  0  0  0
 20 23  1  0  0  0  0
 23 24  1  0  0  0  0
 23 25  1  0  0  0  0
 23 26  1  0  0  0  0
M  END
> <VConfSearch Rank>
529

> <Conf_Id>
130

> <Delta U+W>
1.282

> <U+W>
-4.270

> <U>
49.153

> <W>
-53.422

> <W(PB)>
-55.725

> <W(SA)>
2.303

> <Valence>
3.298

> <Coulomb>
44.907

> <VdW>
0.948

> <VdW6>
-7.574

> <VdW12>
8.522

> <Bond>
0.229

> <Angle>
0.912

> <Pdih>
2.157

> <Idih>
0.000

> <Tether>
0.000

$$$$
VeraChem MOL file


 26 25  0  0  0  0  0  0  0  0999 V2000     
   17.6884   20.6488   25.1317 C   0  0  0  0  0  0  0  0  0  0  0  0
   18.2369   21.2731   25.8489 H   0  0  0  0  0  0  0  0  0  0  0  0
   16.6159   20.7695   25.3321 H   0  0  0  0  0  0  0  0  0  0  0  0
   17.9439   19.5991   25.3228 H   0  0  0  0  0  0  0  0  0  0  0  0
   18.0164   21.0552   23.6772 C   0  0  0  0  0  0  0  0  0  0  0  0
   17.6346   22.0702   23.4993 H   0  0  0  0  0  0  0  0  0  0  0  0
   17.4732   20.4047   22.9789 H   0  0  0  0  0  0  0  0  0  0  0  0
   19.5334   21.0369   23.3586 C   0  0  0  0  0  0  0  0  0  0  0  0
   19.6804   21.3609   22.3191 H   0  0  0  0  0  0  0  0  0  0  0  0
   20.0343   21.7908   23.9814 H   0  0  0  0  0  0  0  0  0  0  0  0
   20.2414   19.6729   23.5663 C   0  0  0  0  0  0  0  0  0  0  0  0
   20.1941   19.3844   24.6247 H   0  0  0  0  0  0  0  0  0  0  0  0
   21.3067   19.8079   23.3379 H   0  0  0  0  0  0  0  0  0  0  0  0
   19.6639   18.5352   22.6865 C   0  0  0  0  0  0  0  0  0  0  0  0
   18.6062   18.3790   22.9353 H   0  0  0  0  0  0  0  0  0  0  0  0
   19.6958   18.8311   21.6288 H   0  0  0  0  0  0  0  0  0  0  0  0
   20.4064   17.1906   22.8693 C   0  0  0  0  0  0  0  0  0  0  0  0
   19.8791   16.4133   22.3004 H   0  0  0  0  0  0  0  0  0  0  0  0
   20.3683   16.8884   23.9243 H   0  0  0  0  0  0  0  0  0  0  0  0
   21.8720   17.2487   22.3988 C   0  0  0  0  0  0  0  0  0  0  0  0
   21.9095   17.5508   21.3487 H   0  0  0  0  0  0  0  0  0  0  0  0
   22.4222   17.9856   22.9893 H   0  0  0  0  0  0  0  0  0  0  0  0
   22.5892   15.9206   22.5292 N   0  3  0  0  0  0  0  0  0  0  0  0
   22.6123   15.5925   23.5003 H   0  0  0  0  0  0  0  0  0  0  0  0
   23.5626   15.9803   22.2109 H   0  0  0  0  0  0  0  0  0  0  0  0
   22.1382   15.1866   21.9733 H   0  0  0  0  0  0  0  0  0  0  0  0
  1  2  1  0  0  0  0
  1  3  1  0  0  0  0
  1  4  1  0  0  0  0
  1  5  1  0  0  0  0
  5  6  1  0  0  0  0
  5  7  1  0  0  0  0
  5  8  1  0  0  0  0
  8  9  1  0  0  0  0
  8 10  1  0  0  0  0
  8 11  1  0  0  0  0
 11 12  1  0  0  0  0
 11 13  1  0  0  0  0
 11 14  1  0  0  0  0
 14 15  1  0  0  0  0
 14 16  1  0  0  0  0
 14 17  1  0  0  0  0
 17 18  1  0  0  0  0
 17 19  1  0  0  0  0
 17 20  1  0  0  0  0
 20 21  1  0  0  0  0
 20 22  1  0  0  0  0
 20 23  1  0  0  0  0
 23 24  1  0  0  0  0
 23 25  1  0  0  0  0
 23 26  1  0  0  0  0
M  END
> <VConfSearch Rank>
530

> <Conf_Id>
111

> <Delta U+W>
1.290

> <U+W>
-4.262

> <U>
49.209

> <W>
-53.471

> <W(PB)>
-55.745

> <W(SA)>
2.274

> <Valence>
3.465

> <Coulomb>
44.958

> <VdW>
0.786

> <VdW6>
-7.903

> <VdW12>
8.689

> <Bond>
0.237

> <Angle>
1.212

> <Pdih>
2.015

> <Idih>
0.000

> <Tether>
0.000

$$$$
VeraChem MOL file


 26 25  0  0  0  0  0  0  0  0999 V2000     
   18.8501   19.8078   19.5286 C   0  0  0  0  0  0  0  0  0  0  0  0
   17.9172   20.2817   19.8608 H   0  0  0  0  0  0  0  0  0  0  0  0
   19.4349   20.5544   18.9756 H   0  0  0  0  0  0  0  0  0  0  0  0
   18.5888   19.0011   18.8315 H   0  0  0  0  0  0  0  0  0  0  0  0
   19.6484   19.2543   20.7281 C   0  0  0  0  0  0  0  0  0  0  0  0
   20.5600   18.7613   20.3624 H   0  0  0  0  0  0  0  0  0  0  0  0
   19.0483   18.4836   21.2296 H   0  0  0  0  0  0  0  0  0  0  0  0
   20.0248   20.3735   21.7275 C   0  0  0  0  0  0  0  0  0  0  0  0
   20.5545   21.1705   21.1875 H   0  0  0  0  0  0  0  0  0  0  0  0
   19.1116   20.8308   22.1328 H   0  0  0  0  0  0  0  0  0  0  0  0
   20.9238   19.8891   22.8916 C   0  0  0  0  0  0  0  0  0  0  0  0
   21.2342   20.7649   23.4782 H   0  0  0  0  0  0  0  0  0  0  0  0
   21.8445   19.4480   22.4855 H   0  0  0  0  0  0  0  0  0  0  0  0
   20.2277   18.8750   23.8309 C   0  0  0  0  0  0  0  0  0  0  0  0
   19.2791   19.3010   24.1837 H   0  0  0  0  0  0  0  0  0  0  0  0
   19.9822   17.9590   23.2777 H   0  0  0  0  0  0  0  0  0  0  0  0
   21.1214   18.5089   25.0396 C   0  0  0  0  0  0  0  0  0  0  0  0
   21.3469   19.4084   25.6278 H   0  0  0  0  0  0  0  0  0  0  0  0
   22.0831   18.1226   24.6765 H   0  0  0  0  0  0  0  0  0  0  0  0
   20.4818   17.4450   25.9524 C   0  0  0  0  0  0  0  0  0  0  0  0
   20.2512   16.5497   25.3687 H   0  0  0  0  0  0  0  0  0  0  0  0
   21.1905   17.1671   26.7372 H   0  0  0  0  0  0  0  0  0  0  0  0
   19.2059   17.9078   26.6281 N   0  3  0  0  0  0  0  0  0  0  0  0
   18.8130   17.1821   27.2374 H   0  0  0  0  0  0  0  0  0  0  0  0
   18.4814   18.1510   25.9455 H   0  0  0  0  0  0  0  0  0  0  0  0
   19.3631   18.7359   27.2117 H   0  0  0  0  0  0  0  0  0  0  0  0
  1  2  1  0  0  0  0
  1  3  1  0  0  0  0
  1  4  1  0  0  0  0
  1  5  1  0  0  0  0
  5  6  1  0  0  0  0
  5  7  1  0  0  0  0
  5  8  1  0  0  0  0
  8  9  1  0  0  0  0
  8 10  1  0  0  0  0
  8 11  1  0  0  0  0
 11 12  1  0  0  0  0
 11 13  1  0  0  0  0
 11 14  1  0  0  0  0
 14 15  1  0  0  0  0
 14 16  1  0  0  0  0
 14 17  1  0  0  0  0
 17 18  1  0  0  0  0
 17 19  1  0  0  0  0
 17 20  1  0  0  0  0
 20 21  1  0  0  0  0
 20 22  1  0  0  0  0
 20 23  1  0  0  0  0
 23 24  1  0  0  0  0
 23 25  1  0  0  0  0
 23 26  1  0  0  0  0
M  END
> <VConfSearch Rank>
531

> <Conf_Id>
105

> <Delta U+W>
0.736

> <U+W>
-4.817

> <U>
48.735

> <W>
-53.552

> <W(PB)>
-55.889

> <W(SA)>
2.337

> <Valence>
2.803

> <Coulomb>
45.123

> <VdW>
0.809

> <VdW6>
-6.953

> <VdW12>
7.761

> <Bond>
0.188

> <Angle>
0.699

> <Pdih>
1.917

> <Idih>
0.000

> <Tether>
0.000

$$$$
VeraChem MOL file


 26 25  0  0  0  0  0  0  0  0999 V2000     
   23.5786   18.7601   22.2728 C   0  0  0  0  0  0  0  0  0  0  0  0
   24.3273   19.4537   22.6772 H   0  0  0  0  0  0  0  0  0  0  0  0
   23.6284   17.8279   22.8506 H   0  0  0  0  0  0  0  0  0  0  0  0
   23.8581   18.5297   21.2365 H   0  0  0  0  0  0  0  0  0  0  0  0
   22.1637   19.3739   22.3318 C   0  0  0  0  0  0  0  0  0  0  0  0
   21.4509   18.6692   21.8833 H   0  0  0  0  0  0  0  0  0  0  0  0
   22.1366   20.2874   21.7216 H   0  0  0  0  0  0  0  0  0  0  0  0
   21.7452   19.7035   23.7840 C   0  0  0  0  0  0  0  0  0  0  0  0
   21.7320   18.7847   24.3848 H   0  0  0  0  0  0  0  0  0  0  0  0
   22.5111   20.3474   24.2379 H   0  0  0  0  0  0  0  0  0  0  0  0
   20.3776   20.4273   23.8881 C   0  0  0  0  0  0  0  0  0  0  0  0
   20.4541   21.4030   23.3888 H   0  0  0  0  0  0  0  0  0  0  0  0
   20.1750   20.6471   24.9454 H   0  0  0  0  0  0  0  0  0  0  0  0
   19.1682   19.6592   23.2943 C   0  0  0  0  0  0  0  0  0  0  0  0
   18.2753   20.2857   23.4193 H   0  0  0  0  0  0  0  0  0  0  0  0
   19.2983   19.5333   22.2112 H   0  0  0  0  0  0  0  0  0  0  0  0
   18.9251   18.2796   23.9560 C   0  0  0  0  0  0  0  0  0  0  0  0
   18.8137   18.3971   25.0420 H   0  0  0  0  0  0  0  0  0  0  0  0
   19.7974   17.6334   23.7968 H   0  0  0  0  0  0  0  0  0  0  0  0
   17.6889   17.5570   23.3866 C   0  0  0  0  0  0  0  0  0  0  0  0
   17.7885   17.4557   22.3026 H   0  0  0  0  0  0  0  0  0  0  0  0
   17.6252   16.5544   23.8181 H   0  0  0  0  0  0  0  0  0  0  0  0
   16.3793   18.2643   23.6757 N   0  3  0  0  0  0  0  0  0  0  0  0
   16.3554   19.2026   23.2648 H   0  0  0  0  0  0  0  0  0  0  0  0
   16.2180   18.3700   24.6826 H   0  0  0  0  0  0  0  0  0  0  0  0
   15.5771   17.7499   23.2962 H   0  0  0  0  0  0  0  0  0  0  0  0
  1  2  1  0  0  0  0
  1  3  1  0  0  0  0
  1  4  1  0  0  0  0
  1  5  1  0  0  0  0
  5  6  1  0  0  0  0
  5  7  1  0  0  0  0
  5  8  1  0  0  0  0
  8  9  1  0  0  0  0
  8 10  1  0  0  0  0
  8 11  1  0  0  0  0
 11 12  1  0  0  0  0
 11 13  1  0  0  0  0
 11 14  1  0  0  0  0
 14 15  1  0  0  0  0
 14 16  1  0  0  0  0
 14 17  1  0  0  0  0
 17 18  1  0  0  0  0
 17 19  1  0  0  0  0
 17 20  1  0  0  0  0
 20 21  1  0  0  0  0
 20 22  1  0  0  0  0
 20 23  1  0  0  0  0
 23 24  1  0  0  0  0
 23 25  1  0  0  0  0
 23 26  1  0  0  0  0
M  END
> <VConfSearch Rank>
532

> <Conf_Id>
144

> <Delta U+W>
1.073

> <U+W>
-4.479

> <U>
49.231

> <W>
-53.710

> <W(PB)>
-55.983

> <W(SA)>
2.273

> <Valence>
3.276

> <Coulomb>
45.175

> <VdW>
0.779

> <VdW6>
-7.944

> <VdW12>
8.723

> <Bond>
0.239

> <Angle>
1.155

> <Pdih>
1.883

> <Idih>
0.000

> <Tether>
0.000

$$$$
VeraChem MOL file


 26 25  0  0  0  0  0  0  0  0999 V2000     
   20.6218   22.5046   23.2331 C   0  0  0  0  0  0  0  0  0  0  0  0
   20.5183   22.5078   24.3250 H   0  0  0  0  0  0  0  0  0  0  0  0
   21.2518   23.3612   22.9605 H   0  0  0  0  0  0  0  0  0  0  0  0
   19.6293   22.6651   22.7925 H   0  0  0  0  0  0  0  0  0  0  0  0
   21.2505   21.1880   22.7225 C   0  0  0  0  0  0  0  0  0  0  0  0
   22.2266   21.0319   23.2025 H   0  0  0  0  0  0  0  0  0  0  0  0
   21.4503   21.2890   21.6465 H   0  0  0  0  0  0  0  0  0  0  0  0
   20.3523   19.9466   22.9434 C   0  0  0  0  0  0  0  0  0  0  0  0
   19.3708   20.1160   22.4799 H   0  0  0  0  0  0  0  0  0  0  0  0
   20.8131   19.1038   22.4133 H   0  0  0  0  0  0  0  0  0  0  0  0
   20.1744   19.5705   24.4355 C   0  0  0  0  0  0  0  0  0  0  0  0
   19.8098   20.4428   24.9926 H   0  0  0  0  0  0  0  0  0  0  0  0
   21.1536   19.3206   24.8666 H   0  0  0  0  0  0  0  0  0  0  0  0
   19.1857   18.4032   24.6914 C   0  0  0  0  0  0  0  0  0  0  0  0
   19.1169   18.2607   25.7788 H   0  0  0  0  0  0  0  0  0  0  0  0
   18.1753   18.6864   24.3648 H   0  0  0  0  0  0  0  0  0  0  0  0
   19.5900   17.0504   24.0530 C   0  0  0  0  0  0  0  0  0  0  0  0
   19.1797   16.2376   24.6670 H   0  0  0  0  0  0  0  0  0  0  0  0
   20.6818   16.9338   24.0739 H   0  0  0  0  0  0  0  0  0  0  0  0
   19.0585   16.8786   22.6165 C   0  0  0  0  0  0  0  0  0  0  0  0
   17.9671   16.9438   22.6204 H   0  0  0  0  0  0  0  0  0  0  0  0
   19.4441   17.6707   21.9719 H   0  0  0  0  0  0  0  0  0  0  0  0
   19.4433   15.5501   21.9985 N   0  3  0  0  0  0  0  0  0  0  0  0
   19.0812   14.7581   22.5396 H   0  0  0  0  0  0  0  0  0  0  0  0
   20.4605   15.4357   21.9404 H   0  0  0  0  0  0  0  0  0  0  0  0
   19.0767   15.4525   21.0454 H   0  0  0  0  0  0  0  0  0  0  0  0
  1  2  1  0  0  0  0
  1  3  1  0  0  0  0
  1  4  1  0  0  0  0
  1  5  1  0  0  0  0
  5  6  1  0  0  0  0
  5  7  1  0  0  0  0
  5  8  1  0  0  0  0
  8  9  1  0  0  0  0
  8 10  1  0  0  0  0
  8 11  1  0  0  0  0
 11 12  1  0  0  0  0
 11 13  1  0  0  0  0
 11 14  1  0  0  0  0
 14 15  1  0  0  0  0
 14 16  1  0  0  0  0
 14 17  1  0  0  0  0
 17 18  1  0  0  0  0
 17 19  1  0  0  0  0
 17 20  1  0  0  0  0
 20 21  1  0  0  0  0
 20 22  1  0  0  0  0
 20 23  1  0  0  0  0
 23 24  1  0  0  0  0
 23 25  1  0  0  0  0
 23 26  1  0  0  0  0
M  END
> <VConfSearch Rank>
533

> <Conf_Id>
93

> <Delta U+W>
3.253

> <U+W>
-2.300

> <U>
51.609

> <W>
-53.909

> <W(PB)>
-56.178

> <W(SA)>
2.270

> <Valence>
5.204

> <Coulomb>
45.645

> <VdW>
0.760

> <VdW6>
-7.997

> <VdW12>
8.758

> <Bond>
0.240

> <Angle>
1.456

> <Pdih>
3.507

> <Idih>
0.000

> <Tether>
0.000

$$$$
VeraChem MOL file


 26 25  0  0  0  0  0  0  0  0999 V2000     
   18.2164   21.6632   21.6303 C   0  0  0  0  0  0  0  0  0  0  0  0
   18.5236   21.2405   20.6660 H   0  0  0  0  0  0  0  0  0  0  0  0
   17.2736   21.1876   21.9301 H   0  0  0  0  0  0  0  0  0  0  0  0
   18.0175   22.7311   21.4724 H   0  0  0  0  0  0  0  0  0  0  0  0
   19.3045   21.4708   22.7113 C   0  0  0  0  0  0  0  0  0  0  0  0
   19.0038   22.0218   23.6134 H   0  0  0  0  0  0  0  0  0  0  0  0
   20.2470   21.9246   22.3744 H   0  0  0  0  0  0  0  0  0  0  0  0
   19.5422   19.9896   23.0937 C   0  0  0  0  0  0  0  0  0  0  0  0
   20.2082   19.9737   23.9655 H   0  0  0  0  0  0  0  0  0  0  0  0
   18.5934   19.5348   23.4096 H   0  0  0  0  0  0  0  0  0  0  0  0
   20.1770   19.1521   21.9557 C   0  0  0  0  0  0  0  0  0  0  0  0
   21.1638   19.5659   21.7068 H   0  0  0  0  0  0  0  0  0  0  0  0
   19.5687   19.2470   21.0474 H   0  0  0  0  0  0  0  0  0  0  0  0
   20.3170   17.6399   22.2710 C   0  0  0  0  0  0  0  0  0  0  0  0
   19.3241   17.1905   22.4117 H   0  0  0  0  0  0  0  0  0  0  0  0
   20.7388   17.1543   21.3801 H   0  0  0  0  0  0  0  0  0  0  0  0
   21.2275   17.3042   23.4790 C   0  0  0  0  0  0  0  0  0  0  0  0
   22.0652   18.0125   23.5295 H   0  0  0  0  0  0  0  0  0  0  0  0
   21.6699   16.3120   23.3184 H   0  0  0  0  0  0  0  0  0  0  0  0
   20.4659   17.2760   24.8187 C   0  0  0  0  0  0  0  0  0  0  0  0
   20.0088   18.2474   25.0160 H   0  0  0  0  0  0  0  0  0  0  0  0
   19.6696   16.5284   24.7708 H   0  0  0  0  0  0  0  0  0  0  0  0
   21.3547   16.9345   25.9971 N   0  3  0  0  0  0  0  0  0  0  0  0
   21.7920   16.0132   25.8912 H   0  0  0  0  0  0  0  0  0  0  0  0
   20.8293   16.9158   26.8780 H   0  0  0  0  0  0  0  0  0  0  0  0
   22.1116   17.6158   26.1152 H   0  0  0  0  0  0  0  0  0  0  0  0
  1  2  1  0  0  0  0
  1  3  1  0  0  0  0
  1  4  1  0  0  0  0
  1  5  1  0  0  0  0
  5  6  1  0  0  0  0
  5  7  1  0  0  0  0
  5  8  1  0  0  0  0
  8  9  1  0  0  0  0
  8 10  1  0  0  0  0
  8 11  1  0  0  0  0
 11 12  1  0  0  0  0
 11 13  1  0  0  0  0
 11 14  1  0  0  0  0
 14 15  1  0  0  0  0
 14 16  1  0  0  0  0
 14 17  1  0  0  0  0
 17 18  1  0  0  0  0
 17 19  1  0  0  0  0
 17 20  1  0  0  0  0
 20 21  1  0  0  0  0
 20 22  1  0  0  0  0
 20 23  1  0  0  0  0
 23 24  1  0  0  0  0
 23 25  1  0  0  0  0
 23 26  1  0  0  0  0
M  END
> <VConfSearch Rank>
534

> <Conf_Id>
94

> <Delta U+W>
3.247

> <U+W>
-2.305

> <U>
51.609

> <W>
-53.914

> <W(PB)>
-56.221

> <W(SA)>
2.307

> <Valence>
5.204

> <Coulomb>
45.645

> <VdW>
0.760

> <VdW6>
-7.997

> <VdW12>
8.757

> <Bond>
0.240

> <Angle>
1.456

> <Pdih>
3.508

> <Idih>
0.000

> <Tether>
0.000

$$$$
VeraChem MOL file


 26 25  0  0  0  0  0  0  0  0999 V2000     
   22.2910   22.4038   23.3214 C   0  0  0  0  0  0  0  0  0  0  0  0
   22.4230   22.5996   24.3935 H   0  0  0  0  0  0  0  0  0  0  0  0
   23.1846   21.8807   22.9567 H   0  0  0  0  0  0  0  0  0  0  0  0
   22.2334   23.3717   22.8067 H   0  0  0  0  0  0  0  0  0  0  0  0
   21.0169   21.5721   23.0622 C   0  0  0  0  0  0  0  0  0  0  0  0
   20.8936   21.4218   21.9805 H   0  0  0  0  0  0  0  0  0  0  0  0
   20.1379   22.1350   23.4063 H   0  0  0  0  0  0  0  0  0  0  0  0
   21.0720   20.2034   23.7762 C   0  0  0  0  0  0  0  0  0  0  0  0
   21.9533   19.6454   23.4307 H   0  0  0  0  0  0  0  0  0  0  0  0
   21.1982   20.3592   24.8566 H   0  0  0  0  0  0  0  0  0  0  0  0
   19.7976   19.3679   23.5194 C   0  0  0  0  0  0  0  0  0  0  0  0
   19.6740   19.2229   22.4379 H   0  0  0  0  0  0  0  0  0  0  0  0
   18.9176   19.9256   23.8687 H   0  0  0  0  0  0  0  0  0  0  0  0
   19.8565   17.9966   24.2341 C   0  0  0  0  0  0  0  0  0  0  0  0
   20.7208   17.4248   23.8704 H   0  0  0  0  0  0  0  0  0  0  0  0
   20.0274   18.1573   25.3076 H   0  0  0  0  0  0  0  0  0  0  0  0
   18.5621   17.1628   24.0612 C   0  0  0  0  0  0  0  0  0  0  0  0
   17.7190   17.7069   24.5074 H   0  0  0  0  0  0  0  0  0  0  0  0
   18.6554   16.2262   24.6269 H   0  0  0  0  0  0  0  0  0  0  0  0
   18.2177   16.8338   22.5944 C   0  0  0  0  0  0  0  0  0  0  0  0
   17.2818   16.2696   22.5593 H   0  0  0  0  0  0  0  0  0  0  0  0
   18.0766   17.7596   22.0308 H   0  0  0  0  0  0  0  0  0  0  0  0
   19.2787   16.0117   21.8902 N   0  3  0  0  0  0  0  0  0  0  0  0
   19.4366   15.1134   22.3582 H   0  0  0  0  0  0  0  0  0  0  0  0
   20.1784   16.5014   21.8618 H   0  0  0  0  0  0  0  0  0  0  0  0
   19.0179   15.8028   20.9203 H   0  0  0  0  0  0  0  0  0  0  0  0
  1  2  1  0  0  0  0
  1  3  1  0  0  0  0
  1  4  1  0  0  0  0
  1  5  1  0  0  0  0
  5  6  1  0  0  0  0
  5  7  1  0  0  0  0
  5  8  1  0  0  0  0
  8  9  1  0  0  0  0
  8 10  1  0  0  0  0
  8 11  1  0  0  0  0
 11 12  1  0  0  0  0
 11 13  1  0  0  0  0
 11 14  1  0  0  0  0
 14 15  1  0  0  0  0
 14 16  1  0  0  0  0
 14 17  1  0  0  0  0
 17 18  1  0  0  0  0
 17 19  1  0  0  0  0
 17 20  1  0  0  0  0
 20 21  1  0  0  0  0
 20 22  1  0  0  0  0
 20 23  1  0  0  0  0
 23 24  1  0  0  0  0
 23 25  1  0  0  0  0
 23 26  1  0  0  0  0
M  END
> <VConfSearch Rank>
535

> <Conf_Id>
83

> <Delta U+W>
0.559

> <U+W>
-4.994

> <U>
48.668

> <W>
-53.661

> <W(PB)>
-55.972

> <W(SA)>
2.311

> <Valence>
2.543

> <Coulomb>
45.478

> <VdW>
0.646

> <VdW6>
-7.096

> <VdW12>
7.742

> <Bond>
0.176

> <Angle>
0.630

> <Pdih>
1.738

> <Idih>
0.000

> <Tether>
0.000

$$$$
VeraChem MOL file


 26 25  0  0  0  0  0  0  0  0999 V2000     
   21.5166   22.5819   23.9514 C   0  0  0  0  0  0  0  0  0  0  0  0
   21.8407   22.8215   24.9725 H   0  0  0  0  0  0  0  0  0  0  0  0
   22.4112   22.4828   23.3229 H   0  0  0  0  0  0  0  0  0  0  0  0
   20.9329   23.4321   23.5752 H   0  0  0  0  0  0  0  0  0  0  0  0
   20.6746   21.2885   23.9250 C   0  0  0  0  0  0  0  0  0  0  0  0
   20.3358   21.1058   22.8967 H   0  0  0  0  0  0  0  0  0  0  0  0
   19.7733   21.4283   24.5380 H   0  0  0  0  0  0  0  0  0  0  0  0
   21.4786   20.0743   24.4471 C   0  0  0  0  0  0  0  0  0  0  0  0
   22.3505   19.9019   23.8013 H   0  0  0  0  0  0  0  0  0  0  0  0
   21.8759   20.3119   25.4437 H   0  0  0  0  0  0  0  0  0  0  0  0
   20.6433   18.7744   24.5501 C   0  0  0  0  0  0  0  0  0  0  0  0
   19.7795   18.9436   25.2077 H   0  0  0  0  0  0  0  0  0  0  0  0
   21.2573   18.0057   25.0394 H   0  0  0  0  0  0  0  0  0  0  0  0
   20.1607   18.2381   23.1808 C   0  0  0  0  0  0  0  0  0  0  0  0
   19.4879   18.9683   22.7142 H   0  0  0  0  0  0  0  0  0  0  0  0
   21.0221   18.1198   22.5088 H   0  0  0  0  0  0  0  0  0  0  0  0
   19.4295   16.8821   23.3234 C   0  0  0  0  0  0  0  0  0  0  0  0
   18.5504   16.9950   23.9717 H   0  0  0  0  0  0  0  0  0  0  0  0
   20.0933   16.1608   23.8185 H   0  0  0  0  0  0  0  0  0  0  0  0
   18.9965   16.2930   21.9669 C   0  0  0  0  0  0  0  0  0  0  0  0
   19.8687   16.1870   21.3163 H   0  0  0  0  0  0  0  0  0  0  0  0
   18.5657   15.3004   22.1239 H   0  0  0  0  0  0  0  0  0  0  0  0
   17.9646   17.1314   21.2381 N   0  3  0  0  0  0  0  0  0  0  0  0
   18.3190   18.0687   21.0243 H   0  0  0  0  0  0  0  0  0  0  0  0
   17.1097   17.2489   21.7916 H   0  0  0  0  0  0  0  0  0  0  0  0
   17.6881   16.7045   20.3472 H   0  0  0  0  0  0  0  0  0  0  0  0
  1  2  1  0  0  0  0
  1  3  1  0  0  0  0
  1  4  1  0  0  0  0
  1  5  1  0  0  0  0
  5  6  1  0  0  0  0
  5  7  1  0  0  0  0
  5  8  1  0  0  0  0
  8  9  1  0  0  0  0
  8 10  1  0  0  0  0
  8 11  1  0  0  0  0
 11 12  1  0  0  0  0
 11 13  1  0  0  0  0
 11 14  1  0  0  0  0
 14 15  1  0  0  0  0
 14 16  1  0  0  0  0
 14 17  1  0  0  0  0
 17 18  1  0  0  0  0
 17 19  1  0  0  0  0
 17 20  1  0  0  0  0
 20 21  1  0  0  0  0
 20 22  1  0  0  0  0
 20 23  1  0  0  0  0
 23 24  1  0  0  0  0
 23 25  1  0  0  0  0
 23 26  1  0  0  0  0
M  END
> <VConfSearch Rank>
536

> <Conf_Id>
18

> <Delta U+W>
0.759

> <U+W>
-4.793

> <U>
48.945

> <W>
-53.738

> <W(PB)>
-56.051

> <W(SA)>
2.313

> <Valence>
2.802

> <Coulomb>
45.335

> <VdW>
0.807

> <VdW6>
-6.962

> <VdW12>
7.769

> <Bond>
0.189

> <Angle>
0.696

> <Pdih>
1.917

> <Idih>
0.000

> <Tether>
0.000

$$$$
VeraChem MOL file


 26 25  0  0  0  0  0  0  0  0999 V2000     
   19.7130   15.3755   21.4844 C   0  0  0  0  0  0  0  0  0  0  0  0
   18.7476   15.5452   20.9899 H   0  0  0  0  0  0  0  0  0  0  0  0
   20.4571   15.1434   20.7113 H   0  0  0  0  0  0  0  0  0  0  0  0
   19.6109   14.4929   22.1291 H   0  0  0  0  0  0  0  0  0  0  0  0
   20.1367   16.6081   22.3110 C   0  0  0  0  0  0  0  0  0  0  0  0
   21.0896   16.3976   22.8163 H   0  0  0  0  0  0  0  0  0  0  0  0
   19.3905   16.7825   23.0974 H   0  0  0  0  0  0  0  0  0  0  0  0
   20.2827   17.8668   21.4235 C   0  0  0  0  0  0  0  0  0  0  0  0
   20.9713   17.6422   20.5972 H   0  0  0  0  0  0  0  0  0  0  0  0
   19.3157   18.1084   20.9612 H   0  0  0  0  0  0  0  0  0  0  0  0
   20.8181   19.1046   22.1845 C   0  0  0  0  0  0  0  0  0  0  0  0
   21.0026   19.9063   21.4562 H   0  0  0  0  0  0  0  0  0  0  0  0
   21.7920   18.8667   22.6343 H   0  0  0  0  0  0  0  0  0  0  0  0
   19.8522   19.6267   23.2753 C   0  0  0  0  0  0  0  0  0  0  0  0
   18.8645   19.8138   22.8316 H   0  0  0  0  0  0  0  0  0  0  0  0
   19.7168   18.8590   24.0472 H   0  0  0  0  0  0  0  0  0  0  0  0
   20.3772   20.9270   23.9290 C   0  0  0  0  0  0  0  0  0  0  0  0
   20.5416   21.6848   23.1514 H   0  0  0  0  0  0  0  0  0  0  0  0
   21.3524   20.7444   24.3997 H   0  0  0  0  0  0  0  0  0  0  0  0
   19.4021   21.5050   24.9728 C   0  0  0  0  0  0  0  0  0  0  0  0
   19.7847   22.4633   25.3346 H   0  0  0  0  0  0  0  0  0  0  0  0
   18.4277   21.6803   24.5090 H   0  0  0  0  0  0  0  0  0  0  0  0
   19.1953   20.6087   26.1781 N   0  3  0  0  0  0  0  0  0  0  0  0
   20.0751   20.4245   26.6710 H   0  0  0  0  0  0  0  0  0  0  0  0
   18.8000   19.7012   25.9132 H   0  0  0  0  0  0  0  0  0  0  0  0
   18.5530   21.0287   26.8588 H   0  0  0  0  0  0  0  0  0  0  0  0
  1  2  1  0  0  0  0
  1  3  1  0  0  0  0
  1  4  1  0  0  0  0
  1  5  1  0  0  0  0
  5  6  1  0  0  0  0
  5  7  1  0  0  0  0
  5  8  1  0  0  0  0
  8  9  1  0  0  0  0
  8 10  1  0  0  0  0
  8 11  1  0  0  0  0
 11 12  1  0  0  0  0
 11 13  1  0  0  0  0
 11 14  1  0  0  0  0
 14 15  1  0  0  0  0
 14 16  1  0  0  0  0
 14 17  1  0  0  0  0
 17 18  1  0  0  0  0
 17 19  1  0  0  0  0
 17 20  1  0  0  0  0
 20 21  1  0  0  0  0
 20 22  1  0  0  0  0
 20 23  1  0  0  0  0
 23 24  1  0  0  0  0
 23 25  1  0  0  0  0
 23 26  1  0  0  0  0
M  END
> <VConfSearch Rank>
537

> <Conf_Id>
17

> <Delta U+W>
0.843

> <U+W>
-4.709

> <U>
48.945

> <W>
-53.653

> <W(PB)>
-55.991

> <W(SA)>
2.338

> <Valence>
2.802

> <Coulomb>
45.335

> <VdW>
0.807

> <VdW6>
-6.962

> <VdW12>
7.769

> <Bond>
0.189

> <Angle>
0.696

> <Pdih>
1.917

> <Idih>
0.000

> <Tether>
0.000

$$$$
VeraChem MOL file


 26 25  0  0  0  0  0  0  0  0999 V2000     
   19.8735   15.4241   23.3925 C   0  0  0  0  0  0  0  0  0  0  0  0
   19.9072   15.9843   22.4498 H   0  0  0  0  0  0  0  0  0  0  0  0
   20.8955   15.3504   23.7862 H   0  0  0  0  0  0  0  0  0  0  0  0
   19.5294   14.4081   23.1598 H   0  0  0  0  0  0  0  0  0  0  0  0
   18.9297   16.0930   24.4175 C   0  0  0  0  0  0  0  0  0  0  0  0
   18.8331   15.4341   25.2918 H   0  0  0  0  0  0  0  0  0  0  0  0
   17.9221   16.1835   23.9882 H   0  0  0  0  0  0  0  0  0  0  0  0
   19.4223   17.4808   24.8942 C   0  0  0  0  0  0  0  0  0  0  0  0
   18.7577   17.8291   25.6969 H   0  0  0  0  0  0  0  0  0  0  0  0
   20.4211   17.3818   25.3411 H   0  0  0  0  0  0  0  0  0  0  0  0
   19.4568   18.5430   23.7693 C   0  0  0  0  0  0  0  0  0  0  0  0
   18.4687   18.6034   23.2926 H   0  0  0  0  0  0  0  0  0  0  0  0
   20.1681   18.2331   22.9935 H   0  0  0  0  0  0  0  0  0  0  0  0
   19.8552   19.9370   24.3108 C   0  0  0  0  0  0  0  0  0  0  0  0
   19.1647   20.2229   25.1164 H   0  0  0  0  0  0  0  0  0  0  0  0
   20.8558   19.8871   24.7624 H   0  0  0  0  0  0  0  0  0  0  0  0
   19.8333   21.0393   23.2258 C   0  0  0  0  0  0  0  0  0  0  0  0
   20.0368   22.0091   23.6991 H   0  0  0  0  0  0  0  0  0  0  0  0
   18.8280   21.1074   22.7891 H   0  0  0  0  0  0  0  0  0  0  0  0
   20.8674   20.7974   22.1101 C   0  0  0  0  0  0  0  0  0  0  0  0
   21.8684   20.7302   22.5447 H   0  0  0  0  0  0  0  0  0  0  0  0
   20.6489   19.8555   21.6005 H   0  0  0  0  0  0  0  0  0  0  0  0
   20.8828   21.8967   21.0678 N   0  3  0  0  0  0  0  0  0  0  0  0
   21.5774   21.7171   20.3346 H   0  0  0  0  0  0  0  0  0  0  0  0
   21.1107   22.8086   21.4775 H   0  0  0  0  0  0  0  0  0  0  0  0
   19.9749   21.9940   20.6014 H   0  0  0  0  0  0  0  0  0  0  0  0
  1  2  1  0  0  0  0
  1  3  1  0  0  0  0
  1  4  1  0  0  0  0
  1  5  1  0  0  0  0
  5  6  1  0  0  0  0
  5  7  1  0  0  0  0
  5  8  1  0  0  0  0
  8  9  1  0  0  0  0
  8 10  1  0  0  0  0
  8 11  1  0  0  0  0
 11 12  1  0  0  0  0
 11 13  1  0  0  0  0
 11 14  1  0  0  0  0
 14 15  1  0  0  0  0
 14 16  1  0  0  0  0
 14 17  1  0  0  0  0
 17 18  1  0  0  0  0
 17 19  1  0  0  0  0
 17 20  1  0  0  0  0
 20 21  1  0  0  0  0
 20 22  1  0  0  0  0
 20 23  1  0  0  0  0
 23 24  1  0  0  0  0
 23 25  1  0  0  0  0
 23 26  1  0  0  0  0
M  END
> <VConfSearch Rank>
538

> <Conf_Id>
96

> <Delta U+W>
0.912

> <U+W>
-4.640

> <U>
48.723

> <W>
-53.364

> <W(PB)>
-55.683

> <W(SA)>
2.320

> <Valence>
2.962

> <Coulomb>
44.993

> <VdW>
0.768

> <VdW6>
-7.008

> <VdW12>
7.776

> <Bond>
0.188

> <Angle>
0.757

> <Pdih>
2.018

> <Idih>
0.000

> <Tether>
0.000

$$$$
VeraChem MOL file


 26 25  0  0  0  0  0  0  0  0999 V2000     
   18.0597   21.1753   25.0742 C   0  0  0  0  0  0  0  0  0  0  0  0
   17.2497   21.8967   25.2428 H   0  0  0  0  0  0  0  0  0  0  0  0
   18.7651   21.2613   25.9109 H   0  0  0  0  0  0  0  0  0  0  0  0
   18.5787   21.4720   24.1543 H   0  0  0  0  0  0  0  0  0  0  0  0
   17.4933   19.7410   24.9698 C   0  0  0  0  0  0  0  0  0  0  0  0
   16.8156   19.6731   24.1073 H   0  0  0  0  0  0  0  0  0  0  0  0
   16.8804   19.5371   25.8589 H   0  0  0  0  0  0  0  0  0  0  0  0
   18.5886   18.6527   24.8619 C   0  0  0  0  0  0  0  0  0  0  0  0
   19.2514   18.7114   25.7363 H   0  0  0  0  0  0  0  0  0  0  0  0
   18.1053   17.6669   24.9062 H   0  0  0  0  0  0  0  0  0  0  0  0
   19.4267   18.7473   23.5644 C   0  0  0  0  0  0  0  0  0  0  0  0
   19.9644   19.7035   23.5436 H   0  0  0  0  0  0  0  0  0  0  0  0
   18.7562   18.7376   22.6941 H   0  0  0  0  0  0  0  0  0  0  0  0
   20.4381   17.5813   23.4504 C   0  0  0  0  0  0  0  0  0  0  0  0
   21.1293   17.6054   24.3044 H   0  0  0  0  0  0  0  0  0  0  0  0
   19.8981   16.6265   23.5147 H   0  0  0  0  0  0  0  0  0  0  0  0
   21.2464   17.6050   22.1317 C   0  0  0  0  0  0  0  0  0  0  0  0
   20.5590   17.5573   21.2766 H   0  0  0  0  0  0  0  0  0  0  0  0
   21.8731   16.7046   22.0819 H   0  0  0  0  0  0  0  0  0  0  0  0
   22.1442   18.8502   22.0058 C   0  0  0  0  0  0  0  0  0  0  0  0
   21.5280   19.7530   22.0086 H   0  0  0  0  0  0  0  0  0  0  0  0
   22.8290   18.8975   22.8568 H   0  0  0  0  0  0  0  0  0  0  0  0
   22.9729   18.8576   20.7375 N   0  3  0  0  0  0  0  0  0  0  0  0
   22.3856   18.8410   19.8972 H   0  0  0  0  0  0  0  0  0  0  0  0
   23.5979   18.0466   20.6848 H   0  0  0  0  0  0  0  0  0  0  0  0
   23.5633   19.6940   20.6728 H   0  0  0  0  0  0  0  0  0  0  0  0
  1  2  1  0  0  0  0
  1  3  1  0  0  0  0
  1  4  1  0  0  0  0
  1  5  1  0  0  0  0
  5  6  1  0  0  0  0
  5  7  1  0  0  0  0
  5  8  1  0  0  0  0
  8  9  1  0  0  0  0
  8 10  1  0  0  0  0
  8 11  1  0  0  0  0
 11 12  1  0  0  0  0
 11 13  1  0  0  0  0
 11 14  1  0  0  0  0
 14 15  1  0  0  0  0
 14 16  1  0  0  0  0
 14 17  1  0  0  0  0
 17 18  1  0  0  0  0
 17 19  1  0  0  0  0
 17 20  1  0  0  0  0
 20 21  1  0  0  0  0
 20 22  1  0  0  0  0
 20 23  1  0  0  0  0
 23 24  1  0  0  0  0
 23 25  1  0  0  0  0
 23 26  1  0  0  0  0
M  END
> <VConfSearch Rank>
539

> <Conf_Id>
133

> <Delta U+W>
0.844

> <U+W>
-4.708

> <U>
48.723

> <W>
-53.431

> <W(PB)>
-55.776

> <W(SA)>
2.344

> <Valence>
2.962

> <Coulomb>
44.993

> <VdW>
0.768

> <VdW6>
-7.008

> <VdW12>
7.776

> <Bond>
0.188

> <Angle>
0.756

> <Pdih>
2.018

> <Idih>
0.000

> <Tether>
0.000

$$$$
VeraChem MOL file


 26 25  0  0  0  0  0  0  0  0999 V2000     
   19.4827   15.5776   23.4646 C   0  0  0  0  0  0  0  0  0  0  0  0
   18.6112   15.1618   22.9426 H   0  0  0  0  0  0  0  0  0  0  0  0
   20.0775   16.1486   22.7408 H   0  0  0  0  0  0  0  0  0  0  0  0
   20.0997   14.7381   23.8101 H   0  0  0  0  0  0  0  0  0  0  0  0
   19.0474   16.4570   24.6585 C   0  0  0  0  0  0  0  0  0  0  0  0
   19.9339   16.8772   25.1521 H   0  0  0  0  0  0  0  0  0  0  0  0
   18.5609   15.8185   25.4090 H   0  0  0  0  0  0  0  0  0  0  0  0
   18.0656   17.5898   24.2643 C   0  0  0  0  0  0  0  0  0  0  0  0
   17.1372   17.1391   23.8874 H   0  0  0  0  0  0  0  0  0  0  0  0
   17.7839   18.1448   25.1697 H   0  0  0  0  0  0  0  0  0  0  0  0
   18.5977   18.5899   23.2055 C   0  0  0  0  0  0  0  0  0  0  0  0
   17.8086   19.3262   22.9994 H   0  0  0  0  0  0  0  0  0  0  0  0
   18.7791   18.0688   22.2561 H   0  0  0  0  0  0  0  0  0  0  0  0
   19.8797   19.3356   23.6475 C   0  0  0  0  0  0  0  0  0  0  0  0
   19.7075   19.8182   24.6196 H   0  0  0  0  0  0  0  0  0  0  0  0
   20.6999   18.6190   23.7870 H   0  0  0  0  0  0  0  0  0  0  0  0
   20.3104   20.3990   22.6134 C   0  0  0  0  0  0  0  0  0  0  0  0
   19.5015   21.1285   22.4735 H   0  0  0  0  0  0  0  0  0  0  0  0
   20.4841   19.9194   21.6408 H   0  0  0  0  0  0  0  0  0  0  0  0
   21.5883   21.1316   23.0584 C   0  0  0  0  0  0  0  0  0  0  0  0
   21.4148   21.6241   24.0191 H   0  0  0  0  0  0  0  0  0  0  0  0
   22.4013   20.4112   23.1829 H   0  0  0  0  0  0  0  0  0  0  0  0
   22.0439   22.1845   22.0688 N   0  3  0  0  0  0  0  0  0  0  0  0
   22.8963   22.6603   22.3843 H   0  0  0  0  0  0  0  0  0  0  0  0
   21.3326   22.9092   21.9273 H   0  0  0  0  0  0  0  0  0  0  0  0
   22.2506   21.7808   21.1493 H   0  0  0  0  0  0  0  0  0  0  0  0
  1  2  1  0  0  0  0
  1  3  1  0  0  0  0
  1  4  1  0  0  0  0
  1  5  1  0  0  0  0
  5  6  1  0  0  0  0
  5  7  1  0  0  0  0
  5  8  1  0  0  0  0
  8  9  1  0  0  0  0
  8 10  1  0  0  0  0
  8 11  1  0  0  0  0
 11 12  1  0  0  0  0
 11 13  1  0  0  0  0
 11 14  1  0  0  0  0
 14 15  1  0  0  0  0
 14 16  1  0  0  0  0
 14 17  1  0  0  0  0
 17 18  1  0  0  0  0
 17 19  1  0  0  0  0
 17 20  1  0  0  0  0
 20 21  1  0  0  0  0
 20 22  1  0  0  0  0
 20 23  1  0  0  0  0
 23 24  1  0  0  0  0
 23 25  1  0  0  0  0
 23 26  1  0  0  0  0
M  END
> <VConfSearch Rank>
540

> <Conf_Id>
106

> <Delta U+W>
0.767

> <U+W>
-4.785

> <U>
48.494

> <W>
-53.279

> <W(PB)>
-55.569

> <W(SA)>
2.290

> <Valence>
3.117

> <Coulomb>
44.693

> <VdW>
0.684

> <VdW6>
-7.347

> <VdW12>
8.030

> <Bond>
0.208

> <Angle>
1.039

> <Pdih>
1.870

> <Idih>
0.000

> <Tether>
0.000

$$$$
VeraChem MOL file


 26 25  0  0  0  0  0  0  0  0999 V2000     
   22.1583   19.4119   19.3760 C   0  0  0  0  0  0  0  0  0  0  0  0
   22.8101   18.5388   19.5102 H   0  0  0  0  0  0  0  0  0  0  0  0
   21.3051   19.1095   18.7548 H   0  0  0  0  0  0  0  0  0  0  0  0
   22.7243   20.1731   18.8234 H   0  0  0  0  0  0  0  0  0  0  0  0
   21.6853   19.9656   20.7368 C   0  0  0  0  0  0  0  0  0  0  0  0
   21.0640   20.8570   20.5715 H   0  0  0  0  0  0  0  0  0  0  0  0
   22.5574   20.2908   21.3211 H   0  0  0  0  0  0  0  0  0  0  0  0
   20.8852   18.9130   21.5358 C   0  0  0  0  0  0  0  0  0  0  0  0
   20.0160   18.5892   20.9467 H   0  0  0  0  0  0  0  0  0  0  0  0
   21.5095   18.0231   21.6964 H   0  0  0  0  0  0  0  0  0  0  0  0
   20.4096   19.4638   22.8992 C   0  0  0  0  0  0  0  0  0  0  0  0
   19.7857   20.3538   22.7375 H   0  0  0  0  0  0  0  0  0  0  0  0
   21.2795   19.7878   23.4873 H   0  0  0  0  0  0  0  0  0  0  0  0
   19.6095   18.4103   23.6982 C   0  0  0  0  0  0  0  0  0  0  0  0
   18.7394   18.0860   23.1103 H   0  0  0  0  0  0  0  0  0  0  0  0
   20.2332   17.5201   23.8601 H   0  0  0  0  0  0  0  0  0  0  0  0
   19.1337   18.9601   25.0609 C   0  0  0  0  0  0  0  0  0  0  0  0
   18.5054   19.8469   24.9031 H   0  0  0  0  0  0  0  0  0  0  0  0
   20.0009   19.2806   25.6537 H   0  0  0  0  0  0  0  0  0  0  0  0
   18.3386   17.9034   25.8478 C   0  0  0  0  0  0  0  0  0  0  0  0
   17.4648   17.5932   25.2684 H   0  0  0  0  0  0  0  0  0  0  0  0
   18.9658   17.0248   26.0216 H   0  0  0  0  0  0  0  0  0  0  0  0
   17.8538   18.4053   27.1927 N   0  3  0  0  0  0  0  0  0  0  0  0
   17.3268   17.6862   27.7002 H   0  0  0  0  0  0  0  0  0  0  0  0
   17.2349   19.2171   27.0973 H   0  0  0  0  0  0  0  0  0  0  0  0
   18.6315   18.6881   27.7981 H   0  0  0  0  0  0  0  0  0  0  0  0
  1  2  1  0  0  0  0
  1  3  1  0  0  0  0
  1  4  1  0  0  0  0
  1  5  1  0  0  0  0
  5  6  1  0  0  0  0
  5  7  1  0  0  0  0
  5  8  1  0  0  0  0
  8  9  1  0  0  0  0
  8 10  1  0  0  0  0
  8 11  1  0  0  0  0
 11 12  1  0  0  0  0
 11 13  1  0  0  0  0
 11 14  1  0  0  0  0
 14 15  1  0  0  0  0
 14 16  1  0  0  0  0
 14 17  1  0  0  0  0
 17 18  1  0  0  0  0
 17 19  1  0  0  0  0
 17 20  1  0  0  0  0
 20 21  1  0  0  0  0
 20 22  1  0  0  0  0
 20 23  1  0  0  0  0
 23 24  1  0  0  0  0
 23 25  1  0  0  0  0
 23 26  1  0  0  0  0
M  END
> <VConfSearch Rank>
541

> <Conf_Id>
25

> <Delta U+W>
0.000

> <U+W>
-5.552

> <U>
47.192

> <W>
-52.745

> <W(PB)>
-55.134

> <W(SA)>
2.389

> <Valence>
2.156

> <Coulomb>
44.449

> <VdW>
0.587

> <VdW6>
-5.761

> <VdW12>
6.348

> <Bond>
0.129

> <Angle>
0.393

> <Pdih>
1.634

> <Idih>
0.000

> <Tether>
0.000

$$$$
VeraChem MOL file


 26 25  0  0  0  0  0  0  0  0999 V2000     
   18.0485   16.6995   26.3603 C   0  0  0  0  0  0  0  0  0  0  0  0
   17.5215   17.5581   26.7967 H   0  0  0  0  0  0  0  0  0  0  0  0
   17.3825   16.2262   25.6270 H   0  0  0  0  0  0  0  0  0  0  0  0
   18.2347   15.9747   27.1634 H   0  0  0  0  0  0  0  0  0  0  0  0
   19.3746   17.1378   25.7035 C   0  0  0  0  0  0  0  0  0  0  0  0
   19.8943   16.2544   25.3066 H   0  0  0  0  0  0  0  0  0  0  0  0
   20.0323   17.5760   26.4673 H   0  0  0  0  0  0  0  0  0  0  0  0
   19.1407   18.1591   24.5684 C   0  0  0  0  0  0  0  0  0  0  0  0
   18.4809   17.7175   23.8088 H   0  0  0  0  0  0  0  0  0  0  0  0
   18.6192   19.0392   24.9694 H   0  0  0  0  0  0  0  0  0  0  0  0
   20.4666   18.6004   23.9082 C   0  0  0  0  0  0  0  0  0  0  0  0
   20.9875   17.7198   23.5073 H   0  0  0  0  0  0  0  0  0  0  0  0
   21.1259   19.0408   24.6690 H   0  0  0  0  0  0  0  0  0  0  0  0
   20.2323   19.6226   22.7730 C   0  0  0  0  0  0  0  0  0  0  0  0
   19.5691   19.1792   22.0184 H   0  0  0  0  0  0  0  0  0  0  0  0
   19.7140   20.5045   23.1747 H   0  0  0  0  0  0  0  0  0  0  0  0
   21.5606   20.0623   22.1130 C   0  0  0  0  0  0  0  0  0  0  0  0
   22.0723   19.1922   21.6804 H   0  0  0  0  0  0  0  0  0  0  0  0
   22.2310   20.4700   22.8813 H   0  0  0  0  0  0  0  0  0  0  0  0
   21.3584   21.1338   21.0242 C   0  0  0  0  0  0  0  0  0  0  0  0
   20.8436   21.9991   21.4504 H   0  0  0  0  0  0  0  0  0  0  0  0
   22.3332   21.4646   20.6555 H   0  0  0  0  0  0  0  0  0  0  0  0
   20.5565   20.6492   19.8322 N   0  3  0  0  0  0  0  0  0  0  0  0
   19.6127   20.3565   20.1032 H   0  0  0  0  0  0  0  0  0  0  0  0
   21.0026   19.8482   19.3734 H   0  0  0  0  0  0  0  0  0  0  0  0
   20.4513   21.3811   19.1212 H   0  0  0  0  0  0  0  0  0  0  0  0
  1  2  1  0  0  0  0
  1  3  1  0  0  0  0
  1  4  1  0  0  0  0
  1  5  1  0  0  0  0
  5  6  1  0  0  0  0
  5  7  1  0  0  0  0
  5  8  1  0  0  0  0
  8  9  1  0  0  0  0
  8 10  1  0  0  0  0
  8 11  1  0  0  0  0
 11 12  1  0  0  0  0
 11 13  1  0  0  0  0
 11 14  1  0  0  0  0
 14 15  1  0  0  0  0
 14 16  1  0  0  0  0
 14 17  1  0  0  0  0
 17 18  1  0  0  0  0
 17 19  1  0  0  0  0
 17 20  1  0  0  0  0
 20 21  1  0  0  0  0
 20 22  1  0  0  0  0
 20 23  1  0  0  0  0
 23 24  1  0  0  0  0
 23 25  1  0  0  0  0
 23 26  1  0  0  0  0
M  END
> <VConfSearch Rank>
542

> <Conf_Id>
20

> <Delta U+W>
0.150

> <U+W>
-5.403

> <U>
47.845

> <W>
-53.248

> <W(PB)>
-55.599

> <W(SA)>
2.351

> <Valence>
2.258

> <Coulomb>
44.893

> <VdW>
0.694

> <VdW6>
-6.285

> <VdW12>
6.979

> <Bond>
0.149

> <Angle>
0.434

> <Pdih>
1.675

> <Idih>
0.000

> <Tether>
0.000

$$$$
VeraChem MOL file


 26 25  0  0  0  0  0  0  0  0999 V2000     
   21.6124   22.6042   24.8212 C   0  0  0  0  0  0  0  0  0  0  0  0
   21.9031   22.9348   23.8155 H   0  0  0  0  0  0  0  0  0  0  0  0
   20.6427   23.0584   25.0634 H   0  0  0  0  0  0  0  0  0  0  0  0
   22.3535   22.9935   25.5313 H   0  0  0  0  0  0  0  0  0  0  0  0
   21.5390   21.0645   24.8995 C   0  0  0  0  0  0  0  0  0  0  0  0
   21.2797   20.7636   25.9243 H   0  0  0  0  0  0  0  0  0  0  0  0
   22.5304   20.6410   24.6859 H   0  0  0  0  0  0  0  0  0  0  0  0
   20.5020   20.4901   23.9091 C   0  0  0  0  0  0  0  0  0  0  0  0
   19.5132   20.9180   24.1251 H   0  0  0  0  0  0  0  0  0  0  0  0
   20.7640   20.7956   22.8866 H   0  0  0  0  0  0  0  0  0  0  0  0
   20.4256   18.9484   23.9846 C   0  0  0  0  0  0  0  0  0  0  0  0
   20.1648   18.6442   25.0077 H   0  0  0  0  0  0  0  0  0  0  0  0
   21.4146   18.5212   23.7682 H   0  0  0  0  0  0  0  0  0  0  0  0
   19.3875   18.3741   22.9941 C   0  0  0  0  0  0  0  0  0  0  0  0
   18.3979   18.7991   23.2125 H   0  0  0  0  0  0  0  0  0  0  0  0
   19.6502   18.6853   21.9742 H   0  0  0  0  0  0  0  0  0  0  0  0
   19.3133   16.8307   23.0706 C   0  0  0  0  0  0  0  0  0  0  0  0
   19.0870   16.5282   24.1017 H   0  0  0  0  0  0  0  0  0  0  0  0
   20.2901   16.3940   22.8232 H   0  0  0  0  0  0  0  0  0  0  0  0
   18.2355   16.2396   22.1416 C   0  0  0  0  0  0  0  0  0  0  0  0
   18.1723   15.1597   22.3005 H   0  0  0  0  0  0  0  0  0  0  0  0
   17.2625   16.6769   22.3815 H   0  0  0  0  0  0  0  0  0  0  0  0
   18.5054   16.4722   20.6679 N   0  3  0  0  0  0  0  0  0  0  0  0
   19.3986   16.0629   20.3752 H   0  0  0  0  0  0  0  0  0  0  0  0
   18.5407   17.4709   20.4413 H   0  0  0  0  0  0  0  0  0  0  0  0
   17.7773   16.0559   20.0772 H   0  0  0  0  0  0  0  0  0  0  0  0
  1  2  1  0  0  0  0
  1  3  1  0  0  0  0
  1  4  1  0  0  0  0
  1  5  1  0  0  0  0
  5  6  1  0  0  0  0
  5  7  1  0  0  0  0
  5  8  1  0  0  0  0
  8  9  1  0  0  0  0
  8 10  1  0  0  0  0
  8 11  1  0  0  0  0
 11 12  1  0  0  0  0
 11 13  1  0  0  0  0
 11 14  1  0  0  0  0
 14 15  1  0  0  0  0
 14 16  1  0  0  0  0
 14 17  1  0  0  0  0
 17 18  1  0  0  0  0
 17 19  1  0  0  0  0
 17 20  1  0  0  0  0
 20 21  1  0  0  0  0
 20 22  1  0  0  0  0
 20 23  1  0  0  0  0
 23 24  1  0  0  0  0
 23 25  1  0  0  0  0
 23 26  1  0  0  0  0
M  END
> <VConfSearch Rank>
543

> <Conf_Id>
19

> <Delta U+W>
0.162

> <U+W>
-5.391

> <U>
47.845

> <W>
-53.235

> <W(PB)>
-55.585

> <W(SA)>
2.349

> <Valence>
2.258

> <Coulomb>
44.893

> <VdW>
0.694

> <VdW6>
-6.285

> <VdW12>
6.979

> <Bond>
0.149

> <Angle>
0.434

> <Pdih>
1.675

> <Idih>
0.000

> <Tether>
0.000

$$$$
VeraChem MOL file


 26 25  0  0  0  0  0  0  0  0999 V2000     
   23.8539   19.2839   21.6189 C   0  0  0  0  0  0  0  0  0  0  0  0
   24.6262   18.6603   22.0878 H   0  0  0  0  0  0  0  0  0  0  0  0
   23.5984   18.8397   20.6480 H   0  0  0  0  0  0  0  0  0  0  0  0
   24.2886   20.2745   21.4323 H   0  0  0  0  0  0  0  0  0  0  0  0
   22.6074   19.3971   22.5220 C   0  0  0  0  0  0  0  0  0  0  0  0
   21.8771   20.0597   22.0390 H   0  0  0  0  0  0  0  0  0  0  0  0
   22.8885   19.8712   23.4728 H   0  0  0  0  0  0  0  0  0  0  0  0
   21.9742   18.0124   22.7956 C   0  0  0  0  0  0  0  0  0  0  0  0
   21.6453   17.5618   21.8490 H   0  0  0  0  0  0  0  0  0  0  0  0
   22.7438   17.3429   23.2043 H   0  0  0  0  0  0  0  0  0  0  0  0
   20.7871   18.0584   23.7889 C   0  0  0  0  0  0  0  0  0  0  0  0
   21.1207   18.4950   24.7404 H   0  0  0  0  0  0  0  0  0  0  0  0
   20.4820   17.0269   24.0132 H   0  0  0  0  0  0  0  0  0  0  0  0
   19.5631   18.8410   23.2550 C   0  0  0  0  0  0  0  0  0  0  0  0
   19.8301   19.8942   23.0975 H   0  0  0  0  0  0  0  0  0  0  0  0
   19.2660   18.4367   22.2773 H   0  0  0  0  0  0  0  0  0  0  0  0
   18.3657   18.7657   24.2279 C   0  0  0  0  0  0  0  0  0  0  0  0
   18.6583   19.1700   25.2061 H   0  0  0  0  0  0  0  0  0  0  0  0
   18.0810   17.7166   24.3845 H   0  0  0  0  0  0  0  0  0  0  0  0
   17.1545   19.5492   23.6918 C   0  0  0  0  0  0  0  0  0  0  0  0
   17.4281   20.5982   23.5499 H   0  0  0  0  0  0  0  0  0  0  0  0
   16.8495   19.1393   22.7251 H   0  0  0  0  0  0  0  0  0  0  0  0
   15.9577   19.4994   24.6195 N   0  3  0  0  0  0  0  0  0  0  0  0
   16.1711   19.8966   25.5404 H   0  0  0  0  0  0  0  0  0  0  0  0
   15.6327   18.5391   24.7729 H   0  0  0  0  0  0  0  0  0  0  0  0
   15.1623   20.0272   24.2438 H   0  0  0  0  0  0  0  0  0  0  0  0
  1  2  1  0  0  0  0
  1  3  1  0  0  0  0
  1  4  1  0  0  0  0
  1  5  1  0  0  0  0
  5  6  1  0  0  0  0
  5  7  1  0  0  0  0
  5  8  1  0  0  0  0
  8  9  1  0  0  0  0
  8 10  1  0  0  0  0
  8 11  1  0  0  0  0
 11 12  1  0  0  0  0
 11 13  1  0  0  0  0
 11 14  1  0  0  0  0
 14 15  1  0  0  0  0
 14 16  1  0  0  0  0
 14 17  1  0  0  0  0
 17 18  1  0  0  0  0
 17 19  1  0  0  0  0
 17 20  1  0  0  0  0
 20 21  1  0  0  0  0
 20 22  1  0  0  0  0
 20 23  1  0  0  0  0
 23 24  1  0  0  0  0
 23 25  1  0  0  0  0
 23 26  1  0  0  0  0
M  END
> <VConfSearch Rank>
544

> <Conf_Id>
37

> <Delta U+W>
0.565

> <U+W>
-4.988

> <U>
48.035

> <W>
-53.022

> <W(PB)>
-55.379

> <W(SA)>
2.357

> <Valence>
2.701

> <Coulomb>
44.622

> <VdW>
0.712

> <VdW6>
-6.418

> <VdW12>
7.129

> <Bond>
0.168

> <Angle>
0.659

> <Pdih>
1.875

> <Idih>
0.000

> <Tether>
0.000

$$$$
VeraChem MOL file


 26 25  0  0  0  0  0  0  0  0999 V2000     
   21.9717   15.4891   24.0726 C   0  0  0  0  0  0  0  0  0  0  0  0
   22.5041   16.1533   24.7659 H   0  0  0  0  0  0  0  0  0  0  0  0
   21.1473   15.0135   24.6197 H   0  0  0  0  0  0  0  0  0  0  0  0
   22.6681   14.7002   23.7601 H   0  0  0  0  0  0  0  0  0  0  0  0
   21.4477   16.2696   22.8485 C   0  0  0  0  0  0  0  0  0  0  0  0
   20.9514   15.5734   22.1579 H   0  0  0  0  0  0  0  0  0  0  0  0
   22.2966   16.7057   22.3033 H   0  0  0  0  0  0  0  0  0  0  0  0
   20.4636   17.3869   23.2606 C   0  0  0  0  0  0  0  0  0  0  0  0
   19.6161   16.9459   23.8032 H   0  0  0  0  0  0  0  0  0  0  0  0
   20.9686   18.0692   23.9567 H   0  0  0  0  0  0  0  0  0  0  0  0
   19.9408   18.1728   22.0340 C   0  0  0  0  0  0  0  0  0  0  0  0
   19.5084   17.4645   21.3137 H   0  0  0  0  0  0  0  0  0  0  0  0
   20.7810   18.6603   21.5204 H   0  0  0  0  0  0  0  0  0  0  0  0
   18.8653   19.2294   22.3875 C   0  0  0  0  0  0  0  0  0  0  0  0
   18.4715   19.6516   21.4525 H   0  0  0  0  0  0  0  0  0  0  0  0
   18.0172   18.7394   22.8855 H   0  0  0  0  0  0  0  0  0  0  0  0
   19.3959   20.3809   23.2735 C   0  0  0  0  0  0  0  0  0  0  0  0
   20.2748   20.8376   22.7993 H   0  0  0  0  0  0  0  0  0  0  0  0
   19.7184   19.9914   24.2472 H   0  0  0  0  0  0  0  0  0  0  0  0
   18.3189   21.4571   23.4969 C   0  0  0  0  0  0  0  0  0  0  0  0
   18.0024   21.8668   22.5339 H   0  0  0  0  0  0  0  0  0  0  0  0
   17.4477   21.0104   23.9837 H   0  0  0  0  0  0  0  0  0  0  0  0
   18.7982   22.6070   24.3592 N   0  3  0  0  0  0  0  0  0  0  0  0
   19.6019   23.0881   23.9424 H   0  0  0  0  0  0  0  0  0  0  0  0
   19.0852   22.2919   25.2917 H   0  0  0  0  0  0  0  0  0  0  0  0
   18.0657   23.3123   24.4948 H   0  0  0  0  0  0  0  0  0  0  0  0
  1  2  1  0  0  0  0
  1  3  1  0  0  0  0
  1  4  1  0  0  0  0
  1  5  1  0  0  0  0
  5  6  1  0  0  0  0
  5  7  1  0  0  0  0
  5  8  1  0  0  0  0
  8  9  1  0  0  0  0
  8 10  1  0  0  0  0
  8 11  1  0  0  0  0
 11 12  1  0  0  0  0
 11 13  1  0  0  0  0
 11 14  1  0  0  0  0
 14 15  1  0  0  0  0
 14 16  1  0  0  0  0
 14 17  1  0  0  0  0
 17 18  1  0  0  0  0
 17 19  1  0  0  0  0
 17 20  1  0  0  0  0
 20 21  1  0  0  0  0
 20 22  1  0  0  0  0
 20 23  1  0  0  0  0
 23 24  1  0  0  0  0
 23 25  1  0  0  0  0
 23 26  1  0  0  0  0
M  END
> <VConfSearch Rank>
545

> <Conf_Id>
35

> <Delta U+W>
0.587

> <U+W>
-4.965

> <U>
48.214

> <W>
-53.179

> <W(PB)>
-55.527

> <W(SA)>
2.348

> <Valence>
2.697

> <Coulomb>
44.819

> <VdW>
0.699

> <VdW6>
-6.437

> <VdW12>
7.136

> <Bond>
0.168

> <Angle>
0.657

> <Pdih>
1.872

> <Idih>
0.000

> <Tether>
0.000

$$$$
VeraChem MOL file


 26 25  0  0  0  0  0  0  0  0999 V2000     
   17.4011   21.1627   21.2007 C   0  0  0  0  0  0  0  0  0  0  0  0
   16.7978   20.2981   20.8945 H   0  0  0  0  0  0  0  0  0  0  0  0
   17.0875   21.4582   22.2104 H   0  0  0  0  0  0  0  0  0  0  0  0
   17.1707   21.9924   20.5199 H   0  0  0  0  0  0  0  0  0  0  0  0
   18.9076   20.8291   21.1629 C   0  0  0  0  0  0  0  0  0  0  0  0
   19.4858   21.7214   21.4414 H   0  0  0  0  0  0  0  0  0  0  0  0
   19.1978   20.5716   20.1346 H   0  0  0  0  0  0  0  0  0  0  0  0
   19.2595   19.6627   22.1127 C   0  0  0  0  0  0  0  0  0  0  0  0
   18.9563   19.9291   23.1336 H   0  0  0  0  0  0  0  0  0  0  0  0
   18.6807   18.7728   21.8290 H   0  0  0  0  0  0  0  0  0  0  0  0
   20.7706   19.3302   22.0785 C   0  0  0  0  0  0  0  0  0  0  0  0
   21.3497   20.2016   22.4141 H   0  0  0  0  0  0  0  0  0  0  0  0
   21.0717   19.1421   21.0385 H   0  0  0  0  0  0  0  0  0  0  0  0
   21.1527   18.0944   22.9298 C   0  0  0  0  0  0  0  0  0  0  0  0
   20.5865   17.2187   22.5829 H   0  0  0  0  0  0  0  0  0  0  0  0
   22.2130   17.8648   22.7543 H   0  0  0  0  0  0  0  0  0  0  0  0
   20.9271   18.2936   24.4471 C   0  0  0  0  0  0  0  0  0  0  0  0
   19.8600   18.4420   24.6547 H   0  0  0  0  0  0  0  0  0  0  0  0
   21.4521   19.1975   24.7835 H   0  0  0  0  0  0  0  0  0  0  0  0
   21.4296   17.0818   25.2515 C   0  0  0  0  0  0  0  0  0  0  0  0
   20.8981   16.1815   24.9313 H   0  0  0  0  0  0  0  0  0  0  0  0
   22.4973   16.9347   25.0674 H   0  0  0  0  0  0  0  0  0  0  0  0
   21.2298   17.2365   26.7454 N   0  3  0  0  0  0  0  0  0  0  0  0
   20.2405   17.3511   26.9890 H   0  0  0  0  0  0  0  0  0  0  0  0
   21.7284   18.0525   27.1151 H   0  0  0  0  0  0  0  0  0  0  0  0
   21.5716   16.4187   27.2620 H   0  0  0  0  0  0  0  0  0  0  0  0
  1  2  1  0  0  0  0
  1  3  1  0  0  0  0
  1  4  1  0  0  0  0
  1  5  1  0  0  0  0
  5  6  1  0  0  0  0
  5  7  1  0  0  0  0
  5  8  1  0  0  0  0
  8  9  1  0  0  0  0
  8 10  1  0  0  0  0
  8 11  1  0  0  0  0
 11 12  1  0  0  0  0
 11 13  1  0  0  0  0
 11 14  1  0  0  0  0
 14 15  1  0  0  0  0
 14 16  1  0  0  0  0
 14 17  1  0  0  0  0
 17 18  1  0  0  0  0
 17 19  1  0  0  0  0
 17 20  1  0  0  0  0
 20 21  1  0  0  0  0
 20 22  1  0  0  0  0
 20 23  1  0  0  0  0
 23 24  1  0  0  0  0
 23 25  1  0  0  0  0
 23 26  1  0  0  0  0
M  END
> <VConfSearch Rank>
546

> <Conf_Id>
36

> <Delta U+W>
0.565

> <U+W>
-4.987

> <U>
48.214

> <W>
-53.201

> <W(PB)>
-55.543

> <W(SA)>
2.342

> <Valence>
2.697

> <Coulomb>
44.819

> <VdW>
0.698

> <VdW6>
-6.437

> <VdW12>
7.136

> <Bond>
0.168

> <Angle>
0.657

> <Pdih>
1.872

> <Idih>
0.000

> <Tether>
0.000

$$$$
VeraChem MOL file


 26 25  0  0  0  0  0  0  0  0999 V2000     
   22.5260   22.3583   23.4001 C   0  0  0  0  0  0  0  0  0  0  0  0
   22.8407   22.3809   24.4516 H   0  0  0  0  0  0  0  0  0  0  0  0
   23.3766   22.6828   22.7867 H   0  0  0  0  0  0  0  0  0  0  0  0
   21.7177   23.0896   23.2693 H   0  0  0  0  0  0  0  0  0  0  0  0
   22.0660   20.9435   22.9890 C   0  0  0  0  0  0  0  0  0  0  0  0
   22.9045   20.2414   23.0983 H   0  0  0  0  0  0  0  0  0  0  0  0
   21.7902   20.9447   21.9251 H   0  0  0  0  0  0  0  0  0  0  0  0
   20.8685   20.4621   23.8378 C   0  0  0  0  0  0  0  0  0  0  0  0
   21.1484   20.4655   24.9004 H   0  0  0  0  0  0  0  0  0  0  0  0
   20.0336   21.1679   23.7269 H   0  0  0  0  0  0  0  0  0  0  0  0
   20.4050   19.0455   23.4294 C   0  0  0  0  0  0  0  0  0  0  0  0
   21.2400   18.3403   23.5433 H   0  0  0  0  0  0  0  0  0  0  0  0
   20.1331   19.0482   22.3653 H   0  0  0  0  0  0  0  0  0  0  0  0
   19.2046   18.5666   24.2806 C   0  0  0  0  0  0  0  0  0  0  0  0
   19.4740   18.6154   25.3447 H   0  0  0  0  0  0  0  0  0  0  0  0
   18.3560   19.2512   24.1433 H   0  0  0  0  0  0  0  0  0  0  0  0
   18.7613   17.1227   23.9471 C   0  0  0  0  0  0  0  0  0  0  0  0
   17.9693   16.8227   24.6462 H   0  0  0  0  0  0  0  0  0  0  0  0
   19.6003   16.4326   24.1077 H   0  0  0  0  0  0  0  0  0  0  0  0
   18.2405   16.9780   22.5048 C   0  0  0  0  0  0  0  0  0  0  0  0
   17.4044   17.6642   22.3451 H   0  0  0  0  0  0  0  0  0  0  0  0
   19.0342   17.2313   21.7973 H   0  0  0  0  0  0  0  0  0  0  0  0
   17.7629   15.5763   22.1849 N   0  3  0  0  0  0  0  0  0  0  0  0
   17.4204   15.5011   21.2208 H   0  0  0  0  0  0  0  0  0  0  0  0
   16.9944   15.2852   22.7979 H   0  0  0  0  0  0  0  0  0  0  0  0
   18.5118   14.8840   22.2904 H   0  0  0  0  0  0  0  0  0  0  0  0
  1  2  1  0  0  0  0
  1  3  1  0  0  0  0
  1  4  1  0  0  0  0
  1  5  1  0  0  0  0
  5  6  1  0  0  0  0
  5  7  1  0  0  0  0
  5  8  1  0  0  0  0
  8  9  1  0  0  0  0
  8 10  1  0  0  0  0
  8 11  1  0  0  0  0
 11 12  1  0  0  0  0
 11 13  1  0  0  0  0
 11 14  1  0  0  0  0
 14 15  1  0  0  0  0
 14 16  1  0  0  0  0
 14 17  1  0  0  0  0
 17 18  1  0  0  0  0
 17 19  1  0  0  0  0
 17 20  1  0  0  0  0
 20 21  1  0  0  0  0
 20 22  1  0  0  0  0
 20 23  1  0  0  0  0
 23 24  1  0  0  0  0
 23 25  1  0  0  0  0
 23 26  1  0  0  0  0
M  END
> <VConfSearch Rank>
547

> <Conf_Id>
44

> <Delta U+W>
0.371

> <U+W>
-5.181

> <U>
48.002

> <W>
-53.183

> <W(PB)>
-55.533

> <W(SA)>
2.350

> <Valence>
2.459

> <Coulomb>
44.901

> <VdW>
0.643

> <VdW6>
-6.362

> <VdW12>
7.005

> <Bond>
0.151

> <Angle>
0.519

> <Pdih>
1.789

> <Idih>
0.000

> <Tether>
0.000

$$$$
VeraChem MOL file


 26 25  0  0  0  0  0  0  0  0999 V2000     
   22.6497   17.7312   20.6943 C   0  0  0  0  0  0  0  0  0  0  0  0
   23.3880   17.4861   21.4688 H   0  0  0  0  0  0  0  0  0  0  0  0
   23.0033   17.3044   19.7468 H   0  0  0  0  0  0  0  0  0  0  0  0
   22.6250   18.8213   20.5748 H   0  0  0  0  0  0  0  0  0  0  0  0
   21.2570   17.1659   21.0549 C   0  0  0  0  0  0  0  0  0  0  0  0
   21.3069   16.0682   21.0353 H   0  0  0  0  0  0  0  0  0  0  0  0
   20.5293   17.4540   20.2834 H   0  0  0  0  0  0  0  0  0  0  0  0
   20.7493   17.6133   22.4473 C   0  0  0  0  0  0  0  0  0  0  0  0
   19.8299   17.0559   22.6664 H   0  0  0  0  0  0  0  0  0  0  0  0
   21.4796   17.3216   23.2145 H   0  0  0  0  0  0  0  0  0  0  0  0
   20.4696   19.1350   22.5420 C   0  0  0  0  0  0  0  0  0  0  0  0
   19.7364   19.4264   21.7774 H   0  0  0  0  0  0  0  0  0  0  0  0
   21.3896   19.6886   22.3142 H   0  0  0  0  0  0  0  0  0  0  0  0
   19.9734   19.5897   23.9370 C   0  0  0  0  0  0  0  0  0  0  0  0
   20.7001   19.2856   24.7031 H   0  0  0  0  0  0  0  0  0  0  0  0
   19.9538   20.6874   23.9496 H   0  0  0  0  0  0  0  0  0  0  0  0
   18.5687   19.0483   24.3043 C   0  0  0  0  0  0  0  0  0  0  0  0
   18.5892   17.9523   24.3410 H   0  0  0  0  0  0  0  0  0  0  0  0
   17.8435   19.3240   23.5273 H   0  0  0  0  0  0  0  0  0  0  0  0
   18.0748   19.5584   25.6721 C   0  0  0  0  0  0  0  0  0  0  0  0
   17.1294   19.0686   25.9210 H   0  0  0  0  0  0  0  0  0  0  0  0
   18.8044   19.3036   26.4455 H   0  0  0  0  0  0  0  0  0  0  0  0
   17.8412   21.0558   25.7195 N   0  3  0  0  0  0  0  0  0  0  0  0
   18.7009   21.5807   25.5316 H   0  0  0  0  0  0  0  0  0  0  0  0
   17.4994   21.3588   26.6380 H   0  0  0  0  0  0  0  0  0  0  0  0
   17.1460   21.3548   25.0279 H   0  0  0  0  0  0  0  0  0  0  0  0
  1  2  1  0  0  0  0
  1  3  1  0  0  0  0
  1  4  1  0  0  0  0
  1  5  1  0  0  0  0
  5  6  1  0  0  0  0
  5  7  1  0  0  0  0
  5  8  1  0  0  0  0
  8  9  1  0  0  0  0
  8 10  1  0  0  0  0
  8 11  1  0  0  0  0
 11 12  1  0  0  0  0
 11 13  1  0  0  0  0
 11 14  1  0  0  0  0
 14 15  1  0  0  0  0
 14 16  1  0  0  0  0
 14 17  1  0  0  0  0
 17 18  1  0  0  0  0
 17 19  1  0  0  0  0
 17 20  1  0  0  0  0
 20 21  1  0  0  0  0
 20 22  1  0  0  0  0
 20 23  1  0  0  0  0
 23 24  1  0  0  0  0
 23 25  1  0  0  0  0
 23 26  1  0  0  0  0
M  END
> <VConfSearch Rank>
548

> <Conf_Id>
112

> <Delta U+W>
1.422

> <U+W>
-4.130

> <U>
49.323

> <W>
-53.453

> <W(PB)>
-55.749

> <W(SA)>
2.296

> <Valence>
3.408

> <Coulomb>
44.893

> <VdW>
1.021

> <VdW6>
-7.481

> <VdW12>
8.503

> <Bond>
0.239

> <Angle>
1.013

> <Pdih>
2.156

> <Idih>
0.000

> <Tether>
0.000

$$$$
VeraChem MOL file


 26 25  0  0  0  0  0  0  0  0999 V2000     
   21.1902   16.9574   20.3765 C   0  0  0  0  0  0  0  0  0  0  0  0
   21.3115   16.4072   19.4344 H   0  0  0  0  0  0  0  0  0  0  0  0
   21.4569   18.0040   20.1841 H   0  0  0  0  0  0  0  0  0  0  0  0
   21.9067   16.5470   21.0998 H   0  0  0  0  0  0  0  0  0  0  0  0
   19.7403   16.8279   20.8958 C   0  0  0  0  0  0  0  0  0  0  0  0
   19.4812   15.7619   20.9621 H   0  0  0  0  0  0  0  0  0  0  0  0
   19.0459   17.2682   20.1667 H   0  0  0  0  0  0  0  0  0  0  0  0
   19.5254   17.4792   22.2833 C   0  0  0  0  0  0  0  0  0  0  0  0
   18.5037   17.2552   22.6197 H   0  0  0  0  0  0  0  0  0  0  0  0
   20.2023   17.0084   23.0081 H   0  0  0  0  0  0  0  0  0  0  0  0
   19.7328   19.0150   22.2784 C   0  0  0  0  0  0  0  0  0  0  0  0
   19.1446   19.4521   21.4598 H   0  0  0  0  0  0  0  0  0  0  0  0
   20.7835   19.2526   22.0661 H   0  0  0  0  0  0  0  0  0  0  0  0
   19.3140   19.6996   23.6028 C   0  0  0  0  0  0  0  0  0  0  0  0
   19.3811   20.7864   23.4618 H   0  0  0  0  0  0  0  0  0  0  0  0
   18.2579   19.4802   23.8126 H   0  0  0  0  0  0  0  0  0  0  0  0
   20.1842   19.2828   24.8151 C   0  0  0  0  0  0  0  0  0  0  0  0
   21.2439   19.4768   24.6025 H   0  0  0  0  0  0  0  0  0  0  0  0
   20.0902   18.2033   24.9863 H   0  0  0  0  0  0  0  0  0  0  0  0
   19.7795   20.0067   26.1138 C   0  0  0  0  0  0  0  0  0  0  0  0
   18.7199   19.8309   26.3185 H   0  0  0  0  0  0  0  0  0  0  0  0
   20.3592   19.6036   26.9487 H   0  0  0  0  0  0  0  0  0  0  0  0
   20.0100   21.5049   26.0771 N   0  3  0  0  0  0  0  0  0  0  0  0
   19.4635   21.9554   25.3367 H   0  0  0  0  0  0  0  0  0  0  0  0
   20.9950   21.7345   25.9095 H   0  0  0  0  0  0  0  0  0  0  0  0
   19.7443   21.9527   26.9609 H   0  0  0  0  0  0  0  0  0  0  0  0
  1  2  1  0  0  0  0
  1  3  1  0  0  0  0
  1  4  1  0  0  0  0
  1  5  1  0  0  0  0
  5  6  1  0  0  0  0
  5  7  1  0  0  0  0
  5  8  1  0  0  0  0
  8  9  1  0  0  0  0
  8 10  1  0  0  0  0
  8 11  1  0  0  0  0
 11 12  1  0  0  0  0
 11 13  1  0  0  0  0
 11 14  1  0  0  0  0
 14 15  1  0  0  0  0
 14 16  1  0  0  0  0
 14 17  1  0  0  0  0
 17 18  1  0  0  0  0
 17 19  1  0  0  0  0
 17 20  1  0  0  0  0
 20 21  1  0  0  0  0
 20 22  1  0  0  0  0
 20 23  1  0  0  0  0
 23 24  1  0  0  0  0
 23 25  1  0  0  0  0
 23 26  1  0  0  0  0
M  END
> <VConfSearch Rank>
549

> <Conf_Id>
130

> <Delta U+W>
1.282

> <U+W>
-4.270

> <U>
49.153

> <W>
-53.422

> <W(PB)>
-55.725

> <W(SA)>
2.303

> <Valence>
3.298

> <Coulomb>
44.907

> <VdW>
0.948

> <VdW6>
-7.574

> <VdW12>
8.522

> <Bond>
0.229

> <Angle>
0.912

> <Pdih>
2.157

> <Idih>
0.000

> <Tether>
0.000

$$$$
VeraChem MOL file


 26 25  0  0  0  0  0  0  0  0999 V2000     
   21.6552   16.9714   25.6769 C   0  0  0  0  0  0  0  0  0  0  0  0
   21.0901   16.0388   25.8027 H   0  0  0  0  0  0  0  0  0  0  0  0
   22.4698   16.9727   26.4126 H   0  0  0  0  0  0  0  0  0  0  0  0
   20.9917   17.8114   25.9174 H   0  0  0  0  0  0  0  0  0  0  0  0
   22.2202   17.0892   24.2433 C   0  0  0  0  0  0  0  0  0  0  0  0
   22.9675   16.2977   24.0919 H   0  0  0  0  0  0  0  0  0  0  0  0
   22.7631   18.0376   24.1353 H   0  0  0  0  0  0  0  0  0  0  0  0
   21.1378   16.9615   23.1410 C   0  0  0  0  0  0  0  0  0  0  0  0
   21.6240   17.0303   22.1581 H   0  0  0  0  0  0  0  0  0  0  0  0
   20.7011   15.9545   23.1897 H   0  0  0  0  0  0  0  0  0  0  0  0
   19.9908   18.0029   23.2098 C   0  0  0  0  0  0  0  0  0  0  0  0
   19.4274   17.8773   24.1438 H   0  0  0  0  0  0  0  0  0  0  0  0
   19.2845   17.7804   22.3994 H   0  0  0  0  0  0  0  0  0  0  0  0
   20.4772   19.4690   23.0840 C   0  0  0  0  0  0  0  0  0  0  0  0
   21.1604   19.7019   23.9111 H   0  0  0  0  0  0  0  0  0  0  0  0
   21.0554   19.5902   22.1575 H   0  0  0  0  0  0  0  0  0  0  0  0
   19.3208   20.4961   23.1093 C   0  0  0  0  0  0  0  0  0  0  0  0
   19.7453   21.5088   23.1236 H   0  0  0  0  0  0  0  0  0  0  0  0
   18.7468   20.3827   24.0386 H   0  0  0  0  0  0  0  0  0  0  0  0
   18.3785   20.3647   21.8980 C   0  0  0  0  0  0  0  0  0  0  0  0
   18.9507   20.4764   20.9730 H   0  0  0  0  0  0  0  0  0  0  0  0
   17.9112   19.3767   21.8969 H   0  0  0  0  0  0  0  0  0  0  0  0
   17.2731   21.4008   21.8921 N   0  3  0  0  0  0  0  0  0  0  0  0
   16.6803   21.3318   22.7257 H   0  0  0  0  0  0  0  0  0  0  0  0
   16.6574   21.2965   21.0782 H   0  0  0  0  0  0  0  0  0  0  0  0
   17.6448   22.3559   21.8643 H   0  0  0  0  0  0  0  0  0  0  0  0
  1  2  1  0  0  0  0
  1  3  1  0  0  0  0
  1  4  1  0  0  0  0
  1  5  1  0  0  0  0
  5  6  1  0  0  0  0
  5  7  1  0  0  0  0
  5  8  1  0  0  0  0
  8  9  1  0  0  0  0
  8 10  1  0  0  0  0
  8 11  1  0  0  0  0
 11 12  1  0  0  0  0
 11 13  1  0  0  0  0
 11 14  1  0  0  0  0
 14 15  1  0  0  0  0
 14 16  1  0  0  0  0
 14 17  1  0  0  0  0
 17 18  1  0  0  0  0
 17 19  1  0  0  0  0
 17 20  1  0  0  0  0
 20 21  1  0  0  0  0
 20 22  1  0  0  0  0
 20 23  1  0  0  0  0
 23 24  1  0  0  0  0
 23 25  1  0  0  0  0
 23 26  1  0  0  0  0
M  END
> <VConfSearch Rank>
550

> <Conf_Id>
111

> <Delta U+W>
1.290

> <U+W>
-4.262

> <U>
49.209

> <W>
-53.471

> <W(PB)>
-55.745

> <W(SA)>
2.274

> <Valence>
3.465

> <Coulomb>
44.958

> <VdW>
0.786

> <VdW6>
-7.903

> <VdW12>
8.689

> <Bond>
0.237

> <Angle>
1.212

> <Pdih>
2.015

> <Idih>
0.000

> <Tether>
0.000

$$$$
VeraChem MOL file


 26 25  0  0  0  0  0  0  0  0999 V2000     
   18.7702   19.7060   27.0160 C   0  0  0  0  0  0  0  0  0  0  0  0
   19.8001   19.7649   27.3914 H   0  0  0  0  0  0  0  0  0  0  0  0
   18.2789   20.6678   27.2128 H   0  0  0  0  0  0  0  0  0  0  0  0
   18.2443   18.9349   27.5939 H   0  0  0  0  0  0  0  0  0  0  0  0
   18.7475   19.3686   25.5100 C   0  0  0  0  0  0  0  0  0  0  0  0
   17.7054   19.2876   25.1706 H   0  0  0  0  0  0  0  0  0  0  0  0
   19.2096   18.3841   25.3590 H   0  0  0  0  0  0  0  0  0  0  0  0
   19.4872   20.4403   24.6747 C   0  0  0  0  0  0  0  0  0  0  0  0
   19.0606   21.4269   24.9023 H   0  0  0  0  0  0  0  0  0  0  0  0
   20.5423   20.4836   24.9784 H   0  0  0  0  0  0  0  0  0  0  0  0
   19.3959   20.2076   23.1465 C   0  0  0  0  0  0  0  0  0  0  0  0
   19.8435   21.0718   22.6363 H   0  0  0  0  0  0  0  0  0  0  0  0
   18.3407   20.1820   22.8413 H   0  0  0  0  0  0  0  0  0  0  0  0
   20.1091   18.9184   22.6727 C   0  0  0  0  0  0  0  0  0  0  0  0
   21.1461   18.9251   23.0340 H   0  0  0  0  0  0  0  0  0  0  0  0
   19.6220   18.0376   23.1113 H   0  0  0  0  0  0  0  0  0  0  0  0
   20.0904   18.7885   21.1312 C   0  0  0  0  0  0  0  0  0  0  0  0
   20.6074   19.6431   20.6745 H   0  0  0  0  0  0  0  0  0  0  0  0
   19.0519   18.8244   20.7761 H   0  0  0  0  0  0  0  0  0  0  0  0
   20.7300   17.4769   20.6363 C   0  0  0  0  0  0  0  0  0  0  0  0
   20.2209   16.6238   21.0931 H   0  0  0  0  0  0  0  0  0  0  0  0
   20.6129   17.4029   19.5517 H   0  0  0  0  0  0  0  0  0  0  0  0
   22.2095   17.3639   20.9477 N   0  3  0  0  0  0  0  0  0  0  0  0
   22.6069   16.4866   20.5944 H   0  0  0  0  0  0  0  0  0  0  0  0
   22.3883   17.3895   21.9563 H   0  0  0  0  0  0  0  0  0  0  0  0
   22.7469   18.1276   20.5247 H   0  0  0  0  0  0  0  0  0  0  0  0
  1  2  1  0  0  0  0
  1  3  1  0  0  0  0
  1  4  1  0  0  0  0
  1  5  1  0  0  0  0
  5  6  1  0  0  0  0
  5  7  1  0  0  0  0
  5  8  1  0  0  0  0
  8  9  1  0  0  0  0
  8 10  1  0  0  0  0
  8 11  1  0  0  0  0
 11 12  1  0  0  0  0
 11 13  1  0  0  0  0
 11 14  1  0  0  0  0
 14 15  1  0  0  0  0
 14 16  1  0  0  0  0
 14 17  1  0  0  0  0
 17 18  1  0  0  0  0
 17 19  1  0  0  0  0
 17 20  1  0  0  0  0
 20 21  1  0  0  0  0
 20 22  1  0  0  0  0
 20 23  1  0  0  0  0
 23 24  1  0  0  0  0
 23 25  1  0  0  0  0
 23 26  1  0  0  0  0
M  END
> <VConfSearch Rank>
551

> <Conf_Id>
105

> <Delta U+W>
0.736

> <U+W>
-4.817

> <U>
48.735

> <W>
-53.552

> <W(PB)>
-55.889

> <W(SA)>
2.337

> <Valence>
2.803

> <Coulomb>
45.123

> <VdW>
0.809

> <VdW6>
-6.953

> <VdW12>
7.761

> <Bond>
0.188

> <Angle>
0.699

> <Pdih>
1.917

> <Idih>
0.000

> <Tether>
0.000

$$$$
VeraChem MOL file


 26 25  0  0  0  0  0  0  0  0999 V2000     
   19.0909   18.3172   26.8525 C   0  0  0  0  0  0  0  0  0  0  0  0
   19.8525   18.0410   27.5934 H   0  0  0  0  0  0  0  0  0  0  0  0
   18.9039   19.3954   26.9398 H   0  0  0  0  0  0  0  0  0  0  0  0
   18.1626   17.7920   27.1121 H   0  0  0  0  0  0  0  0  0  0  0  0
   19.5453   17.9472   25.4246 C   0  0  0  0  0  0  0  0  0  0  0  0
   18.7433   18.2011   24.7188 H   0  0  0  0  0  0  0  0  0  0  0  0
   19.6956   16.8605   25.3597 H   0  0  0  0  0  0  0  0  0  0  0  0
   20.8508   18.6791   25.0339 C   0  0  0  0  0  0  0  0  0  0  0  0
   20.6898   19.7649   25.0584 H   0  0  0  0  0  0  0  0  0  0  0  0
   21.6163   18.4723   25.7945 H   0  0  0  0  0  0  0  0  0  0  0  0
   21.4117   18.2551   23.6516 C   0  0  0  0  0  0  0  0  0  0  0  0
   21.6861   17.1920   23.6915 H   0  0  0  0  0  0  0  0  0  0  0  0
   22.3485   18.7995   23.4697 H   0  0  0  0  0  0  0  0  0  0  0  0
   20.4598   18.4774   22.4475 C   0  0  0  0  0  0  0  0  0  0  0  0
   20.9710   18.1234   21.5426 H   0  0  0  0  0  0  0  0  0  0  0  0
   19.5662   17.8483   22.5540 H   0  0  0  0  0  0  0  0  0  0  0  0
   20.0390   19.9559   22.2553 C   0  0  0  0  0  0  0  0  0  0  0  0
   20.9293   20.5927   22.1677 H   0  0  0  0  0  0  0  0  0  0  0  0
   19.4893   20.3027   23.1392 H   0  0  0  0  0  0  0  0  0  0  0  0
   19.1357   20.1614   21.0239 C   0  0  0  0  0  0  0  0  0  0  0  0
   18.2577   19.5143   21.0992 H   0  0  0  0  0  0  0  0  0  0  0  0
   18.7927   21.1993   20.9958 H   0  0  0  0  0  0  0  0  0  0  0  0
   19.8239   19.8705   19.7046 N   0  3  0  0  0  0  0  0  0  0  0  0
   20.1398   18.8975   19.6471 H   0  0  0  0  0  0  0  0  0  0  0  0
   20.6473   20.4653   19.5655 H   0  0  0  0  0  0  0  0  0  0  0  0
   19.2001   20.0312   18.9063 H   0  0  0  0  0  0  0  0  0  0  0  0
  1  2  1  0  0  0  0
  1  3  1  0  0  0  0
  1  4  1  0  0  0  0
  1  5  1  0  0  0  0
  5  6  1  0  0  0  0
  5  7  1  0  0  0  0
  5  8  1  0  0  0  0
  8  9  1  0  0  0  0
  8 10  1  0  0  0  0
  8 11  1  0  0  0  0
 11 12  1  0  0  0  0
 11 13  1  0  0  0  0
 11 14  1  0  0  0  0
 14 15  1  0  0  0  0
 14 16  1  0  0  0  0
 14 17  1  0  0  0  0
 17 18  1  0  0  0  0
 17 19  1  0  0  0  0
 17 20  1  0  0  0  0
 20 21  1  0  0  0  0
 20 22  1  0  0  0  0
 20 23  1  0  0  0  0
 23 24  1  0  0  0  0
 23 25  1  0  0  0  0
 23 26  1  0  0  0  0
M  END
> <VConfSearch Rank>
552

> <Conf_Id>
144

> <Delta U+W>
1.073

> <U+W>
-4.479

> <U>
49.231

> <W>
-53.710

> <W(PB)>
-55.983

> <W(SA)>
2.273

> <Valence>
3.276

> <Coulomb>
45.175

> <VdW>
0.779

> <VdW6>
-7.944

> <VdW12>
8.723

> <Bond>
0.239

> <Angle>
1.155

> <Pdih>
1.883

> <Idih>
0.000

> <Tether>
0.000

$$$$
VeraChem MOL file


 26 25  0  0  0  0  0  0  0  0999 V2000     
   22.9569   17.9589   21.3808 C   0  0  0  0  0  0  0  0  0  0  0  0
   22.4500   17.0273   21.1016 H   0  0  0  0  0  0  0  0  0  0  0  0
   23.7068   18.1694   20.6073 H   0  0  0  0  0  0  0  0  0  0  0  0
   23.4888   17.7915   22.3264 H   0  0  0  0  0  0  0  0  0  0  0  0
   21.9625   19.1361   21.5032 C   0  0  0  0  0  0  0  0  0  0  0  0
   21.4183   19.2624   20.5568 H   0  0  0  0  0  0  0  0  0  0  0  0
   22.5334   20.0629   21.6549 H   0  0  0  0  0  0  0  0  0  0  0  0
   20.9573   18.9787   22.6699 C   0  0  0  0  0  0  0  0  0  0  0  0
   21.5059   18.8319   23.6103 H   0  0  0  0  0  0  0  0  0  0  0  0
   20.4085   19.9239   22.7662 H   0  0  0  0  0  0  0  0  0  0  0  0
   19.9457   17.8242   22.4622 C   0  0  0  0  0  0  0  0  0  0  0  0
   20.4890   16.8920   22.2627 H   0  0  0  0  0  0  0  0  0  0  0  0
   19.3443   18.0249   21.5649 H   0  0  0  0  0  0  0  0  0  0  0  0
   19.0035   17.5697   23.6677 C   0  0  0  0  0  0  0  0  0  0  0  0
   18.3677   16.7100   23.4145 H   0  0  0  0  0  0  0  0  0  0  0  0
   19.5884   17.2581   24.5442 H   0  0  0  0  0  0  0  0  0  0  0  0
   18.0809   18.7577   24.0403 C   0  0  0  0  0  0  0  0  0  0  0  0
   17.1631   18.3591   24.4927 H   0  0  0  0  0  0  0  0  0  0  0  0
   17.7716   19.2949   23.1339 H   0  0  0  0  0  0  0  0  0  0  0  0
   18.7264   19.7296   25.0474 C   0  0  0  0  0  0  0  0  0  0  0  0
   18.9796   19.1908   25.9644 H   0  0  0  0  0  0  0  0  0  0  0  0
   19.6458   20.1488   24.6345 H   0  0  0  0  0  0  0  0  0  0  0  0
   17.8184   20.8833   25.4209 N   0  3  0  0  0  0  0  0  0  0  0  0
   16.9448   20.5588   25.8484 H   0  0  0  0  0  0  0  0  0  0  0  0
   17.5629   21.4486   24.6046 H   0  0  0  0  0  0  0  0  0  0  0  0
   18.2632   21.5158   26.0951 H   0  0  0  0  0  0  0  0  0  0  0  0
  1  2  1  0  0  0  0
  1  3  1  0  0  0  0
  1  4  1  0  0  0  0
  1  5  1  0  0  0  0
  5  6  1  0  0  0  0
  5  7  1  0  0  0  0
  5  8  1  0  0  0  0
  8  9  1  0  0  0  0
  8 10  1  0  0  0  0
  8 11  1  0  0  0  0
 11 12  1  0  0  0  0
 11 13  1  0  0  0  0
 11 14  1  0  0  0  0
 14 15  1  0  0  0  0
 14 16  1  0  0  0  0
 14 17  1  0  0  0  0
 17 18  1  0  0  0  0
 17 19  1  0  0  0  0
 17 20  1  0  0  0  0
 20 21  1  0  0  0  0
 20 22  1  0  0  0  0
 20 23  1  0  0  0  0
 23 24  1  0  0  0  0
 23 25  1  0  0  0  0
 23 26  1  0  0  0  0
M  END
> <VConfSearch Rank>
553

> <Conf_Id>
93

> <Delta U+W>
3.253

> <U+W>
-2.300

> <U>
51.609

> <W>
-53.909

> <W(PB)>
-56.178

> <W(SA)>
2.270

> <Valence>
5.204

> <Coulomb>
45.645

> <VdW>
0.760

> <VdW6>
-7.997

> <VdW12>
8.758

> <Bond>
0.240

> <Angle>
1.456

> <Pdih>
3.507

> <Idih>
0.000

> <Tether>
0.000

$$$$
VeraChem MOL file


 26 25  0  0  0  0  0  0  0  0999 V2000     
   20.8011   22.4604   24.0686 C   0  0  0  0  0  0  0  0  0  0  0  0
   21.1643   22.5805   23.0407 H   0  0  0  0  0  0  0  0  0  0  0  0
   19.7241   22.6726   24.0804 H   0  0  0  0  0  0  0  0  0  0  0  0
   21.2991   23.2210   24.6838 H   0  0  0  0  0  0  0  0  0  0  0  0
   21.0950   21.0453   24.6170 C   0  0  0  0  0  0  0  0  0  0  0  0
   20.8308   21.0207   25.6835 H   0  0  0  0  0  0  0  0  0  0  0  0
   22.1739   20.8430   24.5634 H   0  0  0  0  0  0  0  0  0  0  0  0
   20.3138   19.9246   23.8887 C   0  0  0  0  0  0  0  0  0  0  0  0
   20.4697   18.9932   24.4472 H   0  0  0  0  0  0  0  0  0  0  0  0
   19.2377   20.1424   23.9268 H   0  0  0  0  0  0  0  0  0  0  0  0
   20.7592   19.7154   22.4199 C   0  0  0  0  0  0  0  0  0  0  0  0
   21.8156   19.4146   22.3998 H   0  0  0  0  0  0  0  0  0  0  0  0
   20.7035   20.6692   21.8804 H   0  0  0  0  0  0  0  0  0  0  0  0
   19.9137   18.6805   21.6325 C   0  0  0  0  0  0  0  0  0  0  0  0
   18.8743   19.0275   21.5498 H   0  0  0  0  0  0  0  0  0  0  0  0
   20.2998   18.6524   20.6041 H   0  0  0  0  0  0  0  0  0  0  0  0
   19.9485   17.2389   22.1995 C   0  0  0  0  0  0  0  0  0  0  0  0
   20.9417   17.0190   22.6130 H   0  0  0  0  0  0  0  0  0  0  0  0
   19.7944   16.5338   21.3718 H   0  0  0  0  0  0  0  0  0  0  0  0
   18.8569   16.9801   23.2564 C   0  0  0  0  0  0  0  0  0  0  0  0
   18.9747   17.6639   24.0990 H   0  0  0  0  0  0  0  0  0  0  0  0
   17.8719   17.1514   22.8140 H   0  0  0  0  0  0  0  0  0  0  0  0
   18.8835   15.5663   23.8002 N   0  3  0  0  0  0  0  0  0  0  0  0
   18.7437   14.8701   23.0606 H   0  0  0  0  0  0  0  0  0  0  0  0
   18.1473   15.4123   24.4978 H   0  0  0  0  0  0  0  0  0  0  0  0
   19.7762   15.3483   24.2548 H   0  0  0  0  0  0  0  0  0  0  0  0
  1  2  1  0  0  0  0
  1  3  1  0  0  0  0
  1  4  1  0  0  0  0
  1  5  1  0  0  0  0
  5  6  1  0  0  0  0
  5  7  1  0  0  0  0
  5  8  1  0  0  0  0
  8  9  1  0  0  0  0
  8 10  1  0  0  0  0
  8 11  1  0  0  0  0
 11 12  1  0  0  0  0
 11 13  1  0  0  0  0
 11 14  1  0  0  0  0
 14 15  1  0  0  0  0
 14 16  1  0  0  0  0
 14 17  1  0  0  0  0
 17 18  1  0  0  0  0
 17 19  1  0  0  0  0
 17 20  1  0  0  0  0
 20 21  1  0  0  0  0
 20 22  1  0  0  0  0
 20 23  1  0  0  0  0
 23 24  1  0  0  0  0
 23 25  1  0  0  0  0
 23 26  1  0  0  0  0
M  END
> <VConfSearch Rank>
554

> <Conf_Id>
94

> <Delta U+W>
3.247

> <U+W>
-2.305

> <U>
51.609

> <W>
-53.914

> <W(PB)>
-56.221

> <W(SA)>
2.307

> <Valence>
5.204

> <Coulomb>
45.645

> <VdW>
0.760

> <VdW6>
-7.997

> <VdW12>
8.757

> <Bond>
0.240

> <Angle>
1.456

> <Pdih>
3.508

> <Idih>
0.000

> <Tether>
0.000

$$$$
VeraChem MOL file


 26 25  0  0  0  0  0  0  0  0999 V2000     
   22.5390   20.2773   26.2464 C   0  0  0  0  0  0  0  0  0  0  0  0
   23.5156   20.3585   25.7515 H   0  0  0  0  0  0  0  0  0  0  0  0
   22.0731   21.2714   26.2487 H   0  0  0  0  0  0  0  0  0  0  0  0
   22.7134   19.9845   27.2899 H   0  0  0  0  0  0  0  0  0  0  0  0
   21.6401   19.2449   25.5336 C   0  0  0  0  0  0  0  0  0  0  0  0
   20.6848   19.1611   26.0706 H   0  0  0  0  0  0  0  0  0  0  0  0
   22.1161   18.2553   25.5771 H   0  0  0  0  0  0  0  0  0  0  0  0
   21.3787   19.6336   24.0615 C   0  0  0  0  0  0  0  0  0  0  0  0
   20.9047   20.6242   24.0230 H   0  0  0  0  0  0  0  0  0  0  0  0
   22.3366   19.7189   23.5300 H   0  0  0  0  0  0  0  0  0  0  0  0
   20.4792   18.6019   23.3442 C   0  0  0  0  0  0  0  0  0  0  0  0
   19.5273   18.5165   23.8851 H   0  0  0  0  0  0  0  0  0  0  0  0
   20.9560   17.6126   23.3805 H   0  0  0  0  0  0  0  0  0  0  0  0
   20.2173   18.9949   21.8705 C   0  0  0  0  0  0  0  0  0  0  0  0
   19.7183   19.9723   21.8296 H   0  0  0  0  0  0  0  0  0  0  0  0
   21.1796   19.1222   21.3556 H   0  0  0  0  0  0  0  0  0  0  0  0
   19.3815   17.9434   21.0984 C   0  0  0  0  0  0  0  0  0  0  0  0
   19.9314   16.9933   21.0709 H   0  0  0  0  0  0  0  0  0  0  0  0
   19.2714   18.2633   20.0537 H   0  0  0  0  0  0  0  0  0  0  0  0
   17.9836   17.6884   21.6978 C   0  0  0  0  0  0  0  0  0  0  0  0
   17.4728   16.9188   21.1127 H   0  0  0  0  0  0  0  0  0  0  0  0
   18.0815   17.3248   22.7239 H   0  0  0  0  0  0  0  0  0  0  0  0
   17.0967   18.9176   21.7172 N   0  3  0  0  0  0  0  0  0  0  0  0
   16.9432   19.2907   20.7748 H   0  0  0  0  0  0  0  0  0  0  0  0
   17.5073   19.6703   22.2784 H   0  0  0  0  0  0  0  0  0  0  0  0
   16.1727   18.7149   22.1138 H   0  0  0  0  0  0  0  0  0  0  0  0
  1  2  1  0  0  0  0
  1  3  1  0  0  0  0
  1  4  1  0  0  0  0
  1  5  1  0  0  0  0
  5  6  1  0  0  0  0
  5  7  1  0  0  0  0
  5  8  1  0  0  0  0
  8  9  1  0  0  0  0
  8 10  1  0  0  0  0
  8 11  1  0  0  0  0
 11 12  1  0  0  0  0
 11 13  1  0  0  0  0
 11 14  1  0  0  0  0
 14 15  1  0  0  0  0
 14 16  1  0  0  0  0
 14 17  1  0  0  0  0
 17 18  1  0  0  0  0
 17 19  1  0  0  0  0
 17 20  1  0  0  0  0
 20 21  1  0  0  0  0
 20 22  1  0  0  0  0
 20 23  1  0  0  0  0
 23 24  1  0  0  0  0
 23 25  1  0  0  0  0
 23 26  1  0  0  0  0
M  END
> <VConfSearch Rank>
555

> <Conf_Id>
83

> <Delta U+W>
0.559

> <U+W>
-4.994

> <U>
48.668

> <W>
-53.661

> <W(PB)>
-55.972

> <W(SA)>
2.311

> <Valence>
2.543

> <Coulomb>
45.478

> <VdW>
0.646

> <VdW6>
-7.096

> <VdW12>
7.742

> <Bond>
0.176

> <Angle>
0.630

> <Pdih>
1.738

> <Idih>
0.000

> <Tether>
0.000

$$$$
VeraChem MOL file


 26 25  0  0  0  0  0  0  0  0999 V2000     
   20.3869   22.9004   23.4543 C   0  0  0  0  0  0  0  0  0  0  0  0
   19.4608   23.4853   23.5286 H   0  0  0  0  0  0  0  0  0  0  0  0
   20.8965   22.9418   24.4258 H   0  0  0  0  0  0  0  0  0  0  0  0
   21.0339   23.3872   22.7131 H   0  0  0  0  0  0  0  0  0  0  0  0
   20.0912   21.4418   23.0452 C   0  0  0  0  0  0  0  0  0  0  0  0
   21.0416   20.9020   22.9415 H   0  0  0  0  0  0  0  0  0  0  0  0
   19.6086   21.4313   22.0579 H   0  0  0  0  0  0  0  0  0  0  0  0
   19.1834   20.7331   24.0781 C   0  0  0  0  0  0  0  0  0  0  0  0
   19.6897   20.6958   25.0525 H   0  0  0  0  0  0  0  0  0  0  0  0
   18.2752   21.3337   24.2259 H   0  0  0  0  0  0  0  0  0  0  0  0
   18.7619   19.3037   23.6570 C   0  0  0  0  0  0  0  0  0  0  0  0
   18.2429   19.3436   22.6893 H   0  0  0  0  0  0  0  0  0  0  0  0
   18.0286   18.9299   24.3849 H   0  0  0  0  0  0  0  0  0  0  0  0
   19.9441   18.3080   23.5754 C   0  0  0  0  0  0  0  0  0  0  0  0
   20.6484   18.6335   22.7997 H   0  0  0  0  0  0  0  0  0  0  0  0
   20.4918   18.3100   24.5279 H   0  0  0  0  0  0  0  0  0  0  0  0
   19.4613   16.8718   23.2625 C   0  0  0  0  0  0  0  0  0  0  0  0
   18.9357   16.8531   22.2985 H   0  0  0  0  0  0  0  0  0  0  0  0
   18.7330   16.5589   24.0225 H   0  0  0  0  0  0  0  0  0  0  0  0
   20.6124   15.8476   23.2411 C   0  0  0  0  0  0  0  0  0  0  0  0
   21.1427   15.8697   24.1970 H   0  0  0  0  0  0  0  0  0  0  0  0
   20.2017   14.8438   23.1024 H   0  0  0  0  0  0  0  0  0  0  0  0
   21.6230   16.0870   22.1365 N   0  3  0  0  0  0  0  0  0  0  0  0
   22.0769   17.0010   22.2285 H   0  0  0  0  0  0  0  0  0  0  0  0
   21.1875   16.0562   21.2089 H   0  0  0  0  0  0  0  0  0  0  0  0
   22.3668   15.3806   22.1417 H   0  0  0  0  0  0  0  0  0  0  0  0
  1  2  1  0  0  0  0
  1  3  1  0  0  0  0
  1  4  1  0  0  0  0
  1  5  1  0  0  0  0
  5  6  1  0  0  0  0
  5  7  1  0  0  0  0
  5  8  1  0  0  0  0
  8  9  1  0  0  0  0
  8 10  1  0  0  0  0
  8 11  1  0  0  0  0
 11 12  1  0  0  0  0
 11 13  1  0  0  0  0
 11 14  1  0  0  0  0
 14 15  1  0  0  0  0
 14 16  1  0  0  0  0
 14 17  1  0  0  0  0
 17 18  1  0  0  0  0
 17 19  1  0  0  0  0
 17 20  1  0  0  0  0
 20 21  1  0  0  0  0
 20 22  1  0  0  0  0
 20 23  1  0  0  0  0
 23 24  1  0  0  0  0
 23 25  1  0  0  0  0
 23 26  1  0  0  0  0
M  END
> <VConfSearch Rank>
556

> <Conf_Id>
18

> <Delta U+W>
0.759

> <U+W>
-4.793

> <U>
48.945

> <W>
-53.738

> <W(PB)>
-56.051

> <W(SA)>
2.313

> <Valence>
2.802

> <Coulomb>
45.335

> <VdW>
0.807

> <VdW6>
-6.962

> <VdW12>
7.769

> <Bond>
0.189

> <Angle>
0.696

> <Pdih>
1.917

> <Idih>
0.000

> <Tether>
0.000

$$$$
VeraChem MOL file


 26 25  0  0  0  0  0  0  0  0999 V2000     
   17.8161   22.0947   24.0977 C   0  0  0  0  0  0  0  0  0  0  0  0
   17.2449   22.1164   23.1604 H   0  0  0  0  0  0  0  0  0  0  0  0
   17.1037   22.0393   24.9311 H   0  0  0  0  0  0  0  0  0  0  0  0
   18.3605   23.0441   24.1827 H   0  0  0  0  0  0  0  0  0  0  0  0
   18.7945   20.9012   24.1231 C   0  0  0  0  0  0  0  0  0  0  0  0
   19.3712   20.9231   25.0583 H   0  0  0  0  0  0  0  0  0  0  0  0
   19.5143   21.0140   23.3017 H   0  0  0  0  0  0  0  0  0  0  0  0
   18.0496   19.5509   24.0000 C   0  0  0  0  0  0  0  0  0  0  0  0
   17.2796   19.4960   24.7819 H   0  0  0  0  0  0  0  0  0  0  0  0
   17.5170   19.5078   23.0399 H   0  0  0  0  0  0  0  0  0  0  0  0
   18.9749   18.3167   24.1363 C   0  0  0  0  0  0  0  0  0  0  0  0
   18.3483   17.4143   24.1579 H   0  0  0  0  0  0  0  0  0  0  0  0
   19.4962   18.3530   25.1029 H   0  0  0  0  0  0  0  0  0  0  0  0
   20.0071   18.1865   22.9904 C   0  0  0  0  0  0  0  0  0  0  0  0
   19.4856   18.2031   22.0233 H   0  0  0  0  0  0  0  0  0  0  0  0
   20.6850   19.0489   23.0040 H   0  0  0  0  0  0  0  0  0  0  0  0
   20.8308   16.8822   23.1083 C   0  0  0  0  0  0  0  0  0  0  0  0
   20.1492   16.0214   23.1256 H   0  0  0  0  0  0  0  0  0  0  0  0
   21.3782   16.8676   24.0602 H   0  0  0  0  0  0  0  0  0  0  0  0
   21.8208   16.6952   21.9423 C   0  0  0  0  0  0  0  0  0  0  0  0
   22.3087   15.7210   22.0339 H   0  0  0  0  0  0  0  0  0  0  0  0
   21.2796   16.7175   20.9926 H   0  0  0  0  0  0  0  0  0  0  0  0
   22.9085   17.7502   21.8891 N   0  3  0  0  0  0  0  0  0  0  0  0
   23.4681   17.7637   22.7479 H   0  0  0  0  0  0  0  0  0  0  0  0
   22.5202   18.6902   21.7650 H   0  0  0  0  0  0  0  0  0  0  0  0
   23.5576   17.5885   21.1113 H   0  0  0  0  0  0  0  0  0  0  0  0
  1  2  1  0  0  0  0
  1  3  1  0  0  0  0
  1  4  1  0  0  0  0
  1  5  1  0  0  0  0
  5  6  1  0  0  0  0
  5  7  1  0  0  0  0
  5  8  1  0  0  0  0
  8  9  1  0  0  0  0
  8 10  1  0  0  0  0
  8 11  1  0  0  0  0
 11 12  1  0  0  0  0
 11 13  1  0  0  0  0
 11 14  1  0  0  0  0
 14 15  1  0  0  0  0
 14 16  1  0  0  0  0
 14 17  1  0  0  0  0
 17 18  1  0  0  0  0
 17 19  1  0  0  0  0
 17 20  1  0  0  0  0
 20 21  1  0  0  0  0
 20 22  1  0  0  0  0
 20 23  1  0  0  0  0
 23 24  1  0  0  0  0
 23 25  1  0  0  0  0
 23 26  1  0  0  0  0
M  END
> <VConfSearch Rank>
557

> <Conf_Id>
17

> <Delta U+W>
0.843

> <U+W>
-4.709

> <U>
48.945

> <W>
-53.653

> <W(PB)>
-55.991

> <W(SA)>
2.338

> <Valence>
2.802

> <Coulomb>
45.335

> <VdW>
0.807

> <VdW6>
-6.962

> <VdW12>
7.769

> <Bond>
0.189

> <Angle>
0.696

> <Pdih>
1.917

> <Idih>
0.000

> <Tether>
0.000

$$$$
VeraChem MOL file


 26 25  0  0  0  0  0  0  0  0999 V2000     
   21.0811   18.5398   20.0686 C   0  0  0  0  0  0  0  0  0  0  0  0
   21.6038   18.0926   20.9231 H   0  0  0  0  0  0  0  0  0  0  0  0
   20.2623   17.8697   19.7763 H   0  0  0  0  0  0  0  0  0  0  0  0
   21.7926   18.5843   19.2338 H   0  0  0  0  0  0  0  0  0  0  0  0
   20.5509   19.9526   20.4028 C   0  0  0  0  0  0  0  0  0  0  0  0
   20.1484   20.4055   19.4858 H   0  0  0  0  0  0  0  0  0  0  0  0
   21.3840   20.5941   20.7222 H   0  0  0  0  0  0  0  0  0  0  0  0
   19.4437   19.9550   21.4845 C   0  0  0  0  0  0  0  0  0  0  0  0
   19.0496   20.9764   21.5769 H   0  0  0  0  0  0  0  0  0  0  0  0
   18.6044   19.3288   21.1516 H   0  0  0  0  0  0  0  0  0  0  0  0
   19.9351   19.4749   22.8712 C   0  0  0  0  0  0  0  0  0  0  0  0
   20.8051   20.0717   23.1779 H   0  0  0  0  0  0  0  0  0  0  0  0
   20.2704   18.4326   22.8013 H   0  0  0  0  0  0  0  0  0  0  0  0
   18.8249   19.5914   23.9433 C   0  0  0  0  0  0  0  0  0  0  0  0
   18.4636   20.6285   23.9786 H   0  0  0  0  0  0  0  0  0  0  0  0
   17.9642   18.9723   23.6543 H   0  0  0  0  0  0  0  0  0  0  0  0
   19.3011   19.1847   25.3577 C   0  0  0  0  0  0  0  0  0  0  0  0
   18.4925   19.3781   26.0751 H   0  0  0  0  0  0  0  0  0  0  0  0
   20.1465   19.8177   25.6587 H   0  0  0  0  0  0  0  0  0  0  0  0
   19.7075   17.7016   25.4458 C   0  0  0  0  0  0  0  0  0  0  0  0
   18.8658   17.0712   25.1467 H   0  0  0  0  0  0  0  0  0  0  0  0
   20.5427   17.5055   24.7685 H   0  0  0  0  0  0  0  0  0  0  0  0
   20.1319   17.2851   26.8392 N   0  3  0  0  0  0  0  0  0  0  0  0
   20.3982   16.2951   26.8766 H   0  0  0  0  0  0  0  0  0  0  0  0
   19.3798   17.4177   27.5233 H   0  0  0  0  0  0  0  0  0  0  0  0
   20.9391   17.8240   27.1700 H   0  0  0  0  0  0  0  0  0  0  0  0
  1  2  1  0  0  0  0
  1  3  1  0  0  0  0
  1  4  1  0  0  0  0
  1  5  1  0  0  0  0
  5  6  1  0  0  0  0
  5  7  1  0  0  0  0
  5  8  1  0  0  0  0
  8  9  1  0  0  0  0
  8 10  1  0  0  0  0
  8 11  1  0  0  0  0
 11 12  1  0  0  0  0
 11 13  1  0  0  0  0
 11 14  1  0  0  0  0
 14 15  1  0  0  0  0
 14 16  1  0  0  0  0
 14 17  1  0  0  0  0
 17 18  1  0  0  0  0
 17 19  1  0  0  0  0
 17 20  1  0  0  0  0
 20 21  1  0  0  0  0
 20 22  1  0  0  0  0
 20 23  1  0  0  0  0
 23 24  1  0  0  0  0
 23 25  1  0  0  0  0
 23 26  1  0  0  0  0
M  END
> <VConfSearch Rank>
558

> <Conf_Id>
96

> <Delta U+W>
0.912

> <U+W>
-4.640

> <U>
48.723

> <W>
-53.364

> <W(PB)>
-55.683

> <W(SA)>
2.320

> <Valence>
2.962

> <Coulomb>
44.993

> <VdW>
0.768

> <VdW6>
-7.008

> <VdW12>
7.776

> <Bond>
0.188

> <Angle>
0.757

> <Pdih>
2.018

> <Idih>
0.000

> <Tether>
0.000

$$$$
VeraChem MOL file


 26 25  0  0  0  0  0  0  0  0999 V2000     
   21.3370   21.9309   24.6255 C   0  0  0  0  0  0  0  0  0  0  0  0
   21.7571   22.9450   24.6238 H   0  0  0  0  0  0  0  0  0  0  0  0
   21.5279   21.4902   25.6126 H   0  0  0  0  0  0  0  0  0  0  0  0
   21.8845   21.3465   23.8757 H   0  0  0  0  0  0  0  0  0  0  0  0
   19.8227   21.9726   24.3187 C   0  0  0  0  0  0  0  0  0  0  0  0
   19.6604   22.3878   23.3142 H   0  0  0  0  0  0  0  0  0  0  0  0
   19.3387   22.6666   25.0200 H   0  0  0  0  0  0  0  0  0  0  0  0
   19.1332   20.5914   24.4319 C   0  0  0  0  0  0  0  0  0  0  0  0
   19.2810   20.1896   25.4438 H   0  0  0  0  0  0  0  0  0  0  0  0
   18.0503   20.7321   24.3104 H   0  0  0  0  0  0  0  0  0  0  0  0
   19.6307   19.5658   23.3853 C   0  0  0  0  0  0  0  0  0  0  0  0
   20.6990   19.3707   23.5415 H   0  0  0  0  0  0  0  0  0  0  0  0
   19.5265   19.9913   22.3777 H   0  0  0  0  0  0  0  0  0  0  0  0
   18.8434   18.2359   23.4683 C   0  0  0  0  0  0  0  0  0  0  0  0
   18.9693   17.7924   24.4658 H   0  0  0  0  0  0  0  0  0  0  0  0
   17.7704   18.4431   23.3537 H   0  0  0  0  0  0  0  0  0  0  0  0
   19.2674   17.2106   22.3905 C   0  0  0  0  0  0  0  0  0  0  0  0
   19.1204   17.6428   21.3918 H   0  0  0  0  0  0  0  0  0  0  0  0
   18.6086   16.3343   22.4539 H   0  0  0  0  0  0  0  0  0  0  0  0
   20.7298   16.7527   22.5467 C   0  0  0  0  0  0  0  0  0  0  0  0
   21.3996   17.6098   22.4405 H   0  0  0  0  0  0  0  0  0  0  0  0
   20.8761   16.3218   23.5408 H   0  0  0  0  0  0  0  0  0  0  0  0
   21.1383   15.7143   21.5219 N   0  3  0  0  0  0  0  0  0  0  0  0
   21.0489   16.0674   20.5635 H   0  0  0  0  0  0  0  0  0  0  0  0
   20.5640   14.8674   21.5862 H   0  0  0  0  0  0  0  0  0  0  0  0
   22.1144   15.4228   21.6430 H   0  0  0  0  0  0  0  0  0  0  0  0
  1  2  1  0  0  0  0
  1  3  1  0  0  0  0
  1  4  1  0  0  0  0
  1  5  1  0  0  0  0
  5  6  1  0  0  0  0
  5  7  1  0  0  0  0
  5  8  1  0  0  0  0
  8  9  1  0  0  0  0
  8 10  1  0  0  0  0
  8 11  1  0  0  0  0
 11 12  1  0  0  0  0
 11 13  1  0  0  0  0
 11 14  1  0  0  0  0
 14 15  1  0  0  0  0
 14 16  1  0  0  0  0
 14 17  1  0  0  0  0
 17 18  1  0  0  0  0
 17 19  1  0  0  0  0
 17 20  1  0  0  0  0
 20 21  1  0  0  0  0
 20 22  1  0  0  0  0
 20 23  1  0  0  0  0
 23 24  1  0  0  0  0
 23 25  1  0  0  0  0
 23 26  1  0  0  0  0
M  END
> <VConfSearch Rank>
559

> <Conf_Id>
133

> <Delta U+W>
0.844

> <U+W>
-4.708

> <U>
48.723

> <W>
-53.431

> <W(PB)>
-55.776

> <W(SA)>
2.344

> <Valence>
2.962

> <Coulomb>
44.993

> <VdW>
0.768

> <VdW6>
-7.008

> <VdW12>
7.776

> <Bond>
0.188

> <Angle>
0.756

> <Pdih>
2.018

> <Idih>
0.000

> <Tether>
0.000

$$$$
VeraChem MOL file


 26 25  0  0  0  0  0  0  0  0999 V2000     
   19.3768   15.6096   23.6779 C   0  0  0  0  0  0  0  0  0  0  0  0
   20.2212   14.9277   23.5139 H   0  0  0  0  0  0  0  0  0  0  0  0
   19.6630   16.3321   24.4524 H   0  0  0  0  0  0  0  0  0  0  0  0
   18.5390   15.0190   24.0706 H   0  0  0  0  0  0  0  0  0  0  0  0
   18.9718   16.3177   22.3653 C   0  0  0  0  0  0  0  0  0  0  0  0
   18.1399   17.0083   22.5580 H   0  0  0  0  0  0  0  0  0  0  0  0
   18.5817   15.5666   21.6643 H   0  0  0  0  0  0  0  0  0  0  0  0
   20.1439   17.0675   21.6822 C   0  0  0  0  0  0  0  0  0  0  0  0
   20.9093   16.3361   21.3884 H   0  0  0  0  0  0  0  0  0  0  0  0
   19.7805   17.5141   20.7465 H   0  0  0  0  0  0  0  0  0  0  0  0
   20.8148   18.1713   22.5401 C   0  0  0  0  0  0  0  0  0  0  0  0
   21.6355   18.6105   21.9563 H   0  0  0  0  0  0  0  0  0  0  0  0
   21.2819   17.7236   23.4273 H   0  0  0  0  0  0  0  0  0  0  0  0
   19.8437   19.2968   22.9703 C   0  0  0  0  0  0  0  0  0  0  0  0
   19.3452   19.7112   22.0831 H   0  0  0  0  0  0  0  0  0  0  0  0
   19.0569   18.8852   23.6163 H   0  0  0  0  0  0  0  0  0  0  0  0
   20.5752   20.4280   23.7258 C   0  0  0  0  0  0  0  0  0  0  0  0
   21.3581   20.8555   23.0851 H   0  0  0  0  0  0  0  0  0  0  0  0
   21.0738   20.0170   24.6138 H   0  0  0  0  0  0  0  0  0  0  0  0
   19.6016   21.5399   24.1542 C   0  0  0  0  0  0  0  0  0  0  0  0
   19.1146   21.9631   23.2715 H   0  0  0  0  0  0  0  0  0  0  0  0
   18.8295   21.1223   24.8061 H   0  0  0  0  0  0  0  0  0  0  0  0
   20.2820   22.6699   24.8997 N   0  3  0  0  0  0  0  0  0  0  0  0
   19.6159   23.3997   25.1757 H   0  0  0  0  0  0  0  0  0  0  0  0
   21.0030   23.1242   24.3296 H   0  0  0  0  0  0  0  0  0  0  0  0
   20.7378   22.3420   25.7576 H   0  0  0  0  0  0  0  0  0  0  0  0
  1  2  1  0  0  0  0
  1  3  1  0  0  0  0
  1  4  1  0  0  0  0
  1  5  1  0  0  0  0
  5  6  1  0  0  0  0
  5  7  1  0  0  0  0
  5  8  1  0  0  0  0
  8  9  1  0  0  0  0
  8 10  1  0  0  0  0
  8 11  1  0  0  0  0
 11 12  1  0  0  0  0
 11 13  1  0  0  0  0
 11 14  1  0  0  0  0
 14 15  1  0  0  0  0
 14 16  1  0  0  0  0
 14 17  1  0  0  0  0
 17 18  1  0  0  0  0
 17 19  1  0  0  0  0
 17 20  1  0  0  0  0
 20 21  1  0  0  0  0
 20 22  1  0  0  0  0
 20 23  1  0  0  0  0
 23 24  1  0  0  0  0
 23 25  1  0  0  0  0
 23 26  1  0  0  0  0
M  END
> <VConfSearch Rank>
560

> <Conf_Id>
106

> <Delta U+W>
0.767

> <U+W>
-4.785

> <U>
48.494

> <W>
-53.279

> <W(PB)>
-55.569

> <W(SA)>
2.290

> <Valence>
3.117

> <Coulomb>
44.693

> <VdW>
0.684

> <VdW6>
-7.347

> <VdW12>
8.030

> <Bond>
0.208

> <Angle>
1.039

> <Pdih>
1.870

> <Idih>
0.000

> <Tether>
0.000

$$$$
VeraChem MOL file


 26 25  0  0  0  0  0  0  0  0999 V2000     
   21.5555   18.0811   19.1588 C   0  0  0  0  0  0  0  0  0  0  0  0
   22.6082   18.2734   19.4041 H   0  0  0  0  0  0  0  0  0  0  0  0
   21.3855   16.9976   19.2076 H   0  0  0  0  0  0  0  0  0  0  0  0
   21.3867   18.4023   18.1228 H   0  0  0  0  0  0  0  0  0  0  0  0
   20.6147   18.8342   20.1231 C   0  0  0  0  0  0  0  0  0  0  0  0
   19.5710   18.6498   19.8322 H   0  0  0  0  0  0  0  0  0  0  0  0
   20.7841   19.9158   20.0271 H   0  0  0  0  0  0  0  0  0  0  0  0
   20.8319   18.4003   21.5897 C   0  0  0  0  0  0  0  0  0  0  0  0
   20.6638   17.3182   21.6801 H   0  0  0  0  0  0  0  0  0  0  0  0
   21.8769   18.5845   21.8750 H   0  0  0  0  0  0  0  0  0  0  0  0
   19.8913   19.1522   22.5583 C   0  0  0  0  0  0  0  0  0  0  0  0
   18.8466   18.9677   22.2721 H   0  0  0  0  0  0  0  0  0  0  0  0
   20.0597   20.2343   22.4669 H   0  0  0  0  0  0  0  0  0  0  0  0
   20.1092   18.7179   24.0255 C   0  0  0  0  0  0  0  0  0  0  0  0
   19.9409   17.6358   24.1174 H   0  0  0  0  0  0  0  0  0  0  0  0
   21.1540   18.9024   24.3122 H   0  0  0  0  0  0  0  0  0  0  0  0
   19.1694   19.4690   24.9942 C   0  0  0  0  0  0  0  0  0  0  0  0
   18.1240   19.2827   24.7143 H   0  0  0  0  0  0  0  0  0  0  0  0
   19.3383   20.5508   24.9091 H   0  0  0  0  0  0  0  0  0  0  0  0
   19.3949   19.0292   26.4515 C   0  0  0  0  0  0  0  0  0  0  0  0
   19.2118   17.9553   26.5446 H   0  0  0  0  0  0  0  0  0  0  0  0
   20.4306   19.2279   26.7400 H   0  0  0  0  0  0  0  0  0  0  0  0
   18.4903   19.7446   27.4341 N   0  3  0  0  0  0  0  0  0  0  0  0
   18.6567   19.4371   28.3986 H   0  0  0  0  0  0  0  0  0  0  0  0
   17.4990   19.5756   27.2340 H   0  0  0  0  0  0  0  0  0  0  0  0
   18.6332   20.7598   27.4159 H   0  0  0  0  0  0  0  0  0  0  0  0
  1  2  1  0  0  0  0
  1  3  1  0  0  0  0
  1  4  1  0  0  0  0
  1  5  1  0  0  0  0
  5  6  1  0  0  0  0
  5  7  1  0  0  0  0
  5  8  1  0  0  0  0
  8  9  1  0  0  0  0
  8 10  1  0  0  0  0
  8 11  1  0  0  0  0
 11 12  1  0  0  0  0
 11 13  1  0  0  0  0
 11 14  1  0  0  0  0
 14 15  1  0  0  0  0
 14 16  1  0  0  0  0
 14 17  1  0  0  0  0
 17 18  1  0  0  0  0
 17 19  1  0  0  0  0
 17 20  1  0  0  0  0
 20 21  1  0  0  0  0
 20 22  1  0  0  0  0
 20 23  1  0  0  0  0
 23 24  1  0  0  0  0
 23 25  1  0  0  0  0
 23 26  1  0  0  0  0
M  END
> <VConfSearch Rank>
561

> <Conf_Id>
25

> <Delta U+W>
0.000

> <U+W>
-5.552

> <U>
47.192

> <W>
-52.745

> <W(PB)>
-55.134

> <W(SA)>
2.389

> <Valence>
2.156

> <Coulomb>
44.449

> <VdW>
0.587

> <VdW6>
-5.761

> <VdW12>
6.348

> <Bond>
0.129

> <Angle>
0.393

> <Pdih>
1.634

> <Idih>
0.000

> <Tether>
0.000

$$$$
VeraChem MOL file


 26 25  0  0  0  0  0  0  0  0999 V2000     
   21.5436   22.0978   25.8619 C   0  0  0  0  0  0  0  0  0  0  0  0
   21.6510   22.8465   25.0662 H   0  0  0  0  0  0  0  0  0  0  0  0
   20.5585   22.2326   26.3275 H   0  0  0  0  0  0  0  0  0  0  0  0
   22.3071   22.3035   26.6233 H   0  0  0  0  0  0  0  0  0  0  0  0
   21.7022   20.6678   25.3034 C   0  0  0  0  0  0  0  0  0  0  0  0
   21.6239   19.9440   26.1267 H   0  0  0  0  0  0  0  0  0  0  0  0
   22.7080   20.5532   24.8752 H   0  0  0  0  0  0  0  0  0  0  0  0
   20.6387   20.3521   24.2285 C   0  0  0  0  0  0  0  0  0  0  0  0
   19.6353   20.4704   24.6605 H   0  0  0  0  0  0  0  0  0  0  0  0
   20.7195   21.0794   23.4087 H   0  0  0  0  0  0  0  0  0  0  0  0
   20.7943   18.9208   23.6668 C   0  0  0  0  0  0  0  0  0  0  0  0
   20.7133   18.1941   24.4870 H   0  0  0  0  0  0  0  0  0  0  0  0
   21.7984   18.8034   23.2361 H   0  0  0  0  0  0  0  0  0  0  0  0
   19.7305   18.6055   22.5910 C   0  0  0  0  0  0  0  0  0  0  0  0
   18.7295   18.7291   23.0254 H   0  0  0  0  0  0  0  0  0  0  0  0
   19.8136   19.3305   21.7693 H   0  0  0  0  0  0  0  0  0  0  0  0
   19.8876   17.1721   22.0307 C   0  0  0  0  0  0  0  0  0  0  0  0
   19.7751   16.4373   22.8391 H   0  0  0  0  0  0  0  0  0  0  0  0
   20.9032   17.0465   21.6324 H   0  0  0  0  0  0  0  0  0  0  0  0
   18.8811   16.8584   20.9069 C   0  0  0  0  0  0  0  0  0  0  0  0
   18.9865   17.5920   20.1030 H   0  0  0  0  0  0  0  0  0  0  0  0
   19.0945   15.8683   20.4950 H   0  0  0  0  0  0  0  0  0  0  0  0
   17.4352   16.8645   21.3630 N   0  3  0  0  0  0  0  0  0  0  0  0
   17.1563   17.7801   21.7290 H   0  0  0  0  0  0  0  0  0  0  0  0
   17.2671   16.1772   22.1049 H   0  0  0  0  0  0  0  0  0  0  0  0
   16.7929   16.6398   20.5954 H   0  0  0  0  0  0  0  0  0  0  0  0
  1  2  1  0  0  0  0
  1  3  1  0  0  0  0
  1  4  1  0  0  0  0
  1  5  1  0  0  0  0
  5  6  1  0  0  0  0
  5  7  1  0  0  0  0
  5  8  1  0  0  0  0
  8  9  1  0  0  0  0
  8 10  1  0  0  0  0
  8 11  1  0  0  0  0
 11 12  1  0  0  0  0
 11 13  1  0  0  0  0
 11 14  1  0  0  0  0
 14 15  1  0  0  0  0
 14 16  1  0  0  0  0
 14 17  1  0  0  0  0
 17 18  1  0  0  0  0
 17 19  1  0  0  0  0
 17 20  1  0  0  0  0
 20 21  1  0  0  0  0
 20 22  1  0  0  0  0
 20 23  1  0  0  0  0
 23 24  1  0  0  0  0
 23 25  1  0  0  0  0
 23 26  1  0  0  0  0
M  END
> <VConfSearch Rank>
562

> <Conf_Id>
20

> <Delta U+W>
0.150

> <U+W>
-5.403

> <U>
47.845

> <W>
-53.248

> <W(PB)>
-55.599

> <W(SA)>
2.351

> <Valence>
2.258

> <Coulomb>
44.893

> <VdW>
0.694

> <VdW6>
-6.285

> <VdW12>
6.979

> <Bond>
0.149

> <Angle>
0.434

> <Pdih>
1.675

> <Idih>
0.000

> <Tether>
0.000

$$$$
VeraChem MOL file


 26 25  0  0  0  0  0  0  0  0999 V2000     
   17.4789   22.4387   23.7870 C   0  0  0  0  0  0  0  0  0  0  0  0
   16.8447   22.1574   22.9361 H   0  0  0  0  0  0  0  0  0  0  0  0
   16.9942   22.0851   24.7063 H   0  0  0  0  0  0  0  0  0  0  0  0
   17.5206   23.5349   23.8282 H   0  0  0  0  0  0  0  0  0  0  0  0
   18.8960   21.8445   23.6430 C   0  0  0  0  0  0  0  0  0  0  0  0
   19.5158   22.1706   24.4900 H   0  0  0  0  0  0  0  0  0  0  0  0
   19.3675   22.2423   22.7335 H   0  0  0  0  0  0  0  0  0  0  0  0
   18.8658   20.3012   23.5826 C   0  0  0  0  0  0  0  0  0  0  0  0
   18.3917   19.9083   24.4928 H   0  0  0  0  0  0  0  0  0  0  0  0
   18.2432   19.9801   22.7361 H   0  0  0  0  0  0  0  0  0  0  0  0
   20.2832   19.7024   23.4385 C   0  0  0  0  0  0  0  0  0  0  0  0
   20.9052   20.0252   24.2849 H   0  0  0  0  0  0  0  0  0  0  0  0
   20.7566   20.0955   22.5280 H   0  0  0  0  0  0  0  0  0  0  0  0
   20.2527   18.1584   23.3788 C   0  0  0  0  0  0  0  0  0  0  0  0
   19.7821   17.7653   24.2908 H   0  0  0  0  0  0  0  0  0  0  0  0
   19.6260   17.8415   22.5345 H   0  0  0  0  0  0  0  0  0  0  0  0
   21.6724   17.5611   23.2336 C   0  0  0  0  0  0  0  0  0  0  0  0
   22.3017   17.9134   24.0618 H   0  0  0  0  0  0  0  0  0  0  0  0
   22.1405   17.9231   22.3085 H   0  0  0  0  0  0  0  0  0  0  0  0
   21.6738   16.0202   23.2418 C   0  0  0  0  0  0  0  0  0  0  0  0
   22.7055   15.6584   23.2216 H   0  0  0  0  0  0  0  0  0  0  0  0
   21.2030   15.6565   24.1592 H   0  0  0  0  0  0  0  0  0  0  0  0
   20.9471   15.4027   22.0631 N   0  3  0  0  0  0  0  0  0  0  0  0
   21.3589   15.6896   21.1692 H   0  0  0  0  0  0  0  0  0  0  0  0
   19.9589   15.6729   22.0424 H   0  0  0  0  0  0  0  0  0  0  0  0
   20.9775   14.3778   22.0917 H   0  0  0  0  0  0  0  0  0  0  0  0
  1  2  1  0  0  0  0
  1  3  1  0  0  0  0
  1  4  1  0  0  0  0
  1  5  1  0  0  0  0
  5  6  1  0  0  0  0
  5  7  1  0  0  0  0
  5  8  1  0  0  0  0
  8  9  1  0  0  0  0
  8 10  1  0  0  0  0
  8 11  1  0  0  0  0
 11 12  1  0  0  0  0
 11 13  1  0  0  0  0
 11 14  1  0  0  0  0
 14 15  1  0  0  0  0
 14 16  1  0  0  0  0
 14 17  1  0  0  0  0
 17 18  1  0  0  0  0
 17 19  1  0  0  0  0
 17 20  1  0  0  0  0
 20 21  1  0  0  0  0
 20 22  1  0  0  0  0
 20 23  1  0  0  0  0
 23 24  1  0  0  0  0
 23 25  1  0  0  0  0
 23 26  1  0  0  0  0
M  END
> <VConfSearch Rank>
563

> <Conf_Id>
19

> <Delta U+W>
0.162

> <U+W>
-5.391

> <U>
47.845

> <W>
-53.235

> <W(PB)>
-55.585

> <W(SA)>
2.349

> <Valence>
2.258

> <Coulomb>
44.893

> <VdW>
0.694

> <VdW6>
-6.285

> <VdW12>
6.979

> <Bond>
0.149

> <Angle>
0.434

> <Pdih>
1.675

> <Idih>
0.000

> <Tether>
0.000

$$$$
VeraChem MOL file


 26 25  0  0  0  0  0  0  0  0999 V2000     
   22.1000   18.7794   19.6588 C   0  0  0  0  0  0  0  0  0  0  0  0
   22.7688   17.9166   19.5425 H   0  0  0  0  0  0  0  0  0  0  0  0
   21.2188   18.6170   19.0244 H   0  0  0  0  0  0  0  0  0  0  0  0
   22.6266   19.6665   19.2836 H   0  0  0  0  0  0  0  0  0  0  0  0
   21.6925   18.9714   21.1351 C   0  0  0  0  0  0  0  0  0  0  0  0
   21.0595   19.8650   21.2161 H   0  0  0  0  0  0  0  0  0  0  0  0
   22.5908   19.1607   21.7391 H   0  0  0  0  0  0  0  0  0  0  0  0
   20.9440   17.7342   21.6853 C   0  0  0  0  0  0  0  0  0  0  0  0
   20.0185   17.5769   21.1143 H   0  0  0  0  0  0  0  0  0  0  0  0
   21.5627   16.8411   21.5211 H   0  0  0  0  0  0  0  0  0  0  0  0
   20.6128   17.8302   23.1949 C   0  0  0  0  0  0  0  0  0  0  0  0
   21.5405   17.9721   23.7664 H   0  0  0  0  0  0  0  0  0  0  0  0
   20.1945   16.8677   23.5204 H   0  0  0  0  0  0  0  0  0  0  0  0
   19.6094   18.9575   23.5383 C   0  0  0  0  0  0  0  0  0  0  0  0
   20.0431   19.9351   23.2897 H   0  0  0  0  0  0  0  0  0  0  0  0
   18.7047   18.8438   22.9250 H   0  0  0  0  0  0  0  0  0  0  0  0
   19.2221   18.9445   25.0335 C   0  0  0  0  0  0  0  0  0  0  0  0
   20.1238   19.0591   25.6499 H   0  0  0  0  0  0  0  0  0  0  0  0
   18.7756   17.9750   25.2921 H   0  0  0  0  0  0  0  0  0  0  0  0
   18.2275   20.0703   25.3673 C   0  0  0  0  0  0  0  0  0  0  0  0
   18.6738   21.0391   25.1271 H   0  0  0  0  0  0  0  0  0  0  0  0
   17.3212   19.9508   24.7675 H   0  0  0  0  0  0  0  0  0  0  0  0
   17.8227   20.0910   26.8272 N   0  3  0  0  0  0  0  0  0  0  0  0
   18.6290   20.2283   27.4455 H   0  0  0  0  0  0  0  0  0  0  0  0
   17.3704   19.2156   27.1108 H   0  0  0  0  0  0  0  0  0  0  0  0
   17.1601   20.8480   27.0281 H   0  0  0  0  0  0  0  0  0  0  0  0
  1  2  1  0  0  0  0
  1  3  1  0  0  0  0
  1  4  1  0  0  0  0
  1  5  1  0  0  0  0
  5  6  1  0  0  0  0
  5  7  1  0  0  0  0
  5  8  1  0  0  0  0
  8  9  1  0  0  0  0
  8 10  1  0  0  0  0
  8 11  1  0  0  0  0
 11 12  1  0  0  0  0
 11 13  1  0  0  0  0
 11 14  1  0  0  0  0
 14 15  1  0  0  0  0
 14 16  1  0  0  0  0
 14 17  1  0  0  0  0
 17 18  1  0  0  0  0
 17 19  1  0  0  0  0
 17 20  1  0  0  0  0
 20 21  1  0  0  0  0
 20 22  1  0  0  0  0
 20 23  1  0  0  0  0
 23 24  1  0  0  0  0
 23 25  1  0  0  0  0
 23 26  1  0  0  0  0
M  END
> <VConfSearch Rank>
564

> <Conf_Id>
37

> <Delta U+W>
0.565

> <U+W>
-4.988

> <U>
48.035

> <W>
-53.022

> <W(PB)>
-55.379

> <W(SA)>
2.357

> <Valence>
2.701

> <Coulomb>
44.622

> <VdW>
0.712

> <VdW6>
-6.418

> <VdW12>
7.129

> <Bond>
0.168

> <Angle>
0.659

> <Pdih>
1.875

> <Idih>
0.000

> <Tether>
0.000

$$$$
VeraChem MOL file


 26 25  0  0  0  0  0  0  0  0999 V2000     
   16.1293   17.6352   23.7881 C   0  0  0  0  0  0  0  0  0  0  0  0
   16.1860   18.3098   24.6523 H   0  0  0  0  0  0  0  0  0  0  0  0
   15.7350   18.2038   22.9357 H   0  0  0  0  0  0  0  0  0  0  0  0
   15.4086   16.8422   24.0264 H   0  0  0  0  0  0  0  0  0  0  0  0
   17.5128   17.0341   23.4615 C   0  0  0  0  0  0  0  0  0  0  0  0
   17.4170   16.3381   22.6162 H   0  0  0  0  0  0  0  0  0  0  0  0
   17.8659   16.4445   24.3192 H   0  0  0  0  0  0  0  0  0  0  0  0
   18.5470   18.1300   23.1211 C   0  0  0  0  0  0  0  0  0  0  0  0
   18.1906   18.7151   22.2621 H   0  0  0  0  0  0  0  0  0  0  0  0
   18.6260   18.8227   23.9691 H   0  0  0  0  0  0  0  0  0  0  0  0
   19.9358   17.5283   22.7975 C   0  0  0  0  0  0  0  0  0  0  0  0
   19.8243   16.7810   21.9996 H   0  0  0  0  0  0  0  0  0  0  0  0
   20.3193   16.9881   23.6741 H   0  0  0  0  0  0  0  0  0  0  0  0
   20.9759   18.5806   22.3408 C   0  0  0  0  0  0  0  0  0  0  0  0
   21.8871   18.0547   22.0232 H   0  0  0  0  0  0  0  0  0  0  0  0
   20.6002   19.1090   21.4535 H   0  0  0  0  0  0  0  0  0  0  0  0
   21.3450   19.6044   23.4400 C   0  0  0  0  0  0  0  0  0  0  0  0
   21.6725   19.0743   24.3442 H   0  0  0  0  0  0  0  0  0  0  0  0
   20.4648   20.1996   23.7137 H   0  0  0  0  0  0  0  0  0  0  0  0
   22.4630   20.5516   22.9699 C   0  0  0  0  0  0  0  0  0  0  0  0
   23.3530   19.9713   22.7118 H   0  0  0  0  0  0  0  0  0  0  0  0
   22.1356   21.0939   22.0788 H   0  0  0  0  0  0  0  0  0  0  0  0
   22.8579   21.5710   24.0190 N   0  3  0  0  0  0  0  0  0  0  0  0
   23.2018   21.1244   24.8754 H   0  0  0  0  0  0  0  0  0  0  0  0
   22.0696   22.1697   24.2862 H   0  0  0  0  0  0  0  0  0  0  0  0
   23.6040   22.1912   23.6855 H   0  0  0  0  0  0  0  0  0  0  0  0
  1  2  1  0  0  0  0
  1  3  1  0  0  0  0
  1  4  1  0  0  0  0
  1  5  1  0  0  0  0
  5  6  1  0  0  0  0
  5  7  1  0  0  0  0
  5  8  1  0  0  0  0
  8  9  1  0  0  0  0
  8 10  1  0  0  0  0
  8 11  1  0  0  0  0
 11 12  1  0  0  0  0
 11 13  1  0  0  0  0
 11 14  1  0  0  0  0
 14 15  1  0  0  0  0
 14 16  1  0  0  0  0
 14 17  1  0  0  0  0
 17 18  1  0  0  0  0
 17 19  1  0  0  0  0
 17 20  1  0  0  0  0
 20 21  1  0  0  0  0
 20 22  1  0  0  0  0
 20 23  1  0  0  0  0
 23 24  1  0  0  0  0
 23 25  1  0  0  0  0
 23 26  1  0  0  0  0
M  END
> <VConfSearch Rank>
565

> <Conf_Id>
35

> <Delta U+W>
0.587

> <U+W>
-4.965

> <U>
48.214

> <W>
-53.179

> <W(PB)>
-55.527

> <W(SA)>
2.348

> <Valence>
2.697

> <Coulomb>
44.819

> <VdW>
0.699

> <VdW6>
-6.437

> <VdW12>
7.136

> <Bond>
0.168

> <Angle>
0.657

> <Pdih>
1.872

> <Idih>
0.000

> <Tether>
0.000

$$$$
VeraChem MOL file


 26 25  0  0  0  0  0  0  0  0999 V2000     
   21.6823   21.8632   20.9728 C   0  0  0  0  0  0  0  0  0  0  0  0
   21.3567   21.4101   20.0273 H   0  0  0  0  0  0  0  0  0  0  0  0
   20.8434   22.4413   21.3817 H   0  0  0  0  0  0  0  0  0  0  0  0
   22.4966   22.5641   20.7477 H   0  0  0  0  0  0  0  0  0  0  0  0
   22.1522   20.7846   21.9718 C   0  0  0  0  0  0  0  0  0  0  0  0
   22.5024   21.2694   22.8939 H   0  0  0  0  0  0  0  0  0  0  0  0
   23.0130   20.2475   21.5495 H   0  0  0  0  0  0  0  0  0  0  0  0
   21.0242   19.7833   22.3055 C   0  0  0  0  0  0  0  0  0  0  0  0
   20.1682   20.3334   22.7175 H   0  0  0  0  0  0  0  0  0  0  0  0
   20.6790   19.2999   21.3812 H   0  0  0  0  0  0  0  0  0  0  0  0
   21.4934   18.7038   23.3104 C   0  0  0  0  0  0  0  0  0  0  0  0
   21.7881   19.1801   24.2557 H   0  0  0  0  0  0  0  0  0  0  0  0
   22.3962   18.2169   22.9162 H   0  0  0  0  0  0  0  0  0  0  0  0
   20.4305   17.6125   23.5888 C   0  0  0  0  0  0  0  0  0  0  0  0
   20.1484   17.1239   22.6458 H   0  0  0  0  0  0  0  0  0  0  0  0
   20.8872   16.8332   24.2148 H   0  0  0  0  0  0  0  0  0  0  0  0
   19.1643   18.1475   24.2980 C   0  0  0  0  0  0  0  0  0  0  0  0
   18.6455   18.8681   23.6534 H   0  0  0  0  0  0  0  0  0  0  0  0
   19.4509   18.6797   25.2148 H   0  0  0  0  0  0  0  0  0  0  0  0
   18.1960   17.0050   24.6519 C   0  0  0  0  0  0  0  0  0  0  0  0
   17.8950   16.4820   23.7402 H   0  0  0  0  0  0  0  0  0  0  0  0
   18.6960   16.2892   25.3100 H   0  0  0  0  0  0  0  0  0  0  0  0
   16.9410   17.4855   25.3516 N   0  3  0  0  0  0  0  0  0  0  0  0
   16.4082   18.1428   24.7726 H   0  0  0  0  0  0  0  0  0  0  0  0
   17.1542   17.9639   26.2331 H   0  0  0  0  0  0  0  0  0  0  0  0
   16.3105   16.7088   25.5786 H   0  0  0  0  0  0  0  0  0  0  0  0
  1  2  1  0  0  0  0
  1  3  1  0  0  0  0
  1  4  1  0  0  0  0
  1  5  1  0  0  0  0
  5  6  1  0  0  0  0
  5  7  1  0  0  0  0
  5  8  1  0  0  0  0
  8  9  1  0  0  0  0
  8 10  1  0  0  0  0
  8 11  1  0  0  0  0
 11 12  1  0  0  0  0
 11 13  1  0  0  0  0
 11 14  1  0  0  0  0
 14 15  1  0  0  0  0
 14 16  1  0  0  0  0
 14 17  1  0  0  0  0
 17 18  1  0  0  0  0
 17 19  1  0  0  0  0
 17 20  1  0  0  0  0
 20 21  1  0  0  0  0
 20 22  1  0  0  0  0
 20 23  1  0  0  0  0
 23 24  1  0  0  0  0
 23 25  1  0  0  0  0
 23 26  1  0  0  0  0
M  END
> <VConfSearch Rank>
566

> <Conf_Id>
36

> <Delta U+W>
0.565

> <U+W>
-4.987

> <U>
48.214

> <W>
-53.201

> <W(PB)>
-55.543

> <W(SA)>
2.342

> <Valence>
2.697

> <Coulomb>
44.819

> <VdW>
0.698

> <VdW6>
-6.437

> <VdW12>
7.136

> <Bond>
0.168

> <Angle>
0.657

> <Pdih>
1.872

> <Idih>
0.000

> <Tether>
0.000

$$$$
VeraChem MOL file


 26 25  0  0  0  0  0  0  0  0999 V2000     
   21.0029   17.9515   27.3533 C   0  0  0  0  0  0  0  0  0  0  0  0
   20.1206   17.3913   27.6892 H   0  0  0  0  0  0  0  0  0  0  0  0
   21.8877   17.4964   27.8171 H   0  0  0  0  0  0  0  0  0  0  0  0
   20.9177   18.9801   27.7275 H   0  0  0  0  0  0  0  0  0  0  0  0
   21.1218   17.9291   25.8146 C   0  0  0  0  0  0  0  0  0  0  0  0
   21.2395   16.8910   25.4732 H   0  0  0  0  0  0  0  0  0  0  0  0
   22.0306   18.4675   25.5114 H   0  0  0  0  0  0  0  0  0  0  0  0
   19.8879   18.5645   25.1362 C   0  0  0  0  0  0  0  0  0  0  0  0
   18.9820   18.0245   25.4449 H   0  0  0  0  0  0  0  0  0  0  0  0
   19.7732   19.6012   25.4820 H   0  0  0  0  0  0  0  0  0  0  0  0
   20.0030   18.5436   23.5952 C   0  0  0  0  0  0  0  0  0  0  0  0
   20.1150   17.5062   23.2507 H   0  0  0  0  0  0  0  0  0  0  0  0
   20.9133   19.0793   23.2946 H   0  0  0  0  0  0  0  0  0  0  0  0
   18.7662   19.1819   22.9186 C   0  0  0  0  0  0  0  0  0  0  0  0
   17.8590   18.6681   23.2658 H   0  0  0  0  0  0  0  0  0  0  0  0
   18.6698   20.2299   23.2350 H   0  0  0  0  0  0  0  0  0  0  0  0
   18.8151   19.1120   21.3742 C   0  0  0  0  0  0  0  0  0  0  0  0
   17.8712   19.5011   20.9698 H   0  0  0  0  0  0  0  0  0  0  0  0
   18.8859   18.0639   21.0542 H   0  0  0  0  0  0  0  0  0  0  0  0
   19.9866   19.9155   20.7788 C   0  0  0  0  0  0  0  0  0  0  0  0
   19.9157   20.9593   21.0964 H   0  0  0  0  0  0  0  0  0  0  0  0
   20.9352   19.5093   21.1391 H   0  0  0  0  0  0  0  0  0  0  0  0
   20.0150   19.8882   19.2643 N   0  3  0  0  0  0  0  0  0  0  0  0
   20.8016   20.4286   18.8881 H   0  0  0  0  0  0  0  0  0  0  0  0
   19.1604   20.2839   18.8589 H   0  0  0  0  0  0  0  0  0  0  0  0
   20.1075   18.9339   18.9009 H   0  0  0  0  0  0  0  0  0  0  0  0
  1  2  1  0  0  0  0
  1  3  1  0  0  0  0
  1  4  1  0  0  0  0
  1  5  1  0  0  0  0
  5  6  1  0  0  0  0
  5  7  1  0  0  0  0
  5  8  1  0  0  0  0
  8  9  1  0  0  0  0
  8 10  1  0  0  0  0
  8 11  1  0  0  0  0
 11 12  1  0  0  0  0
 11 13  1  0  0  0  0
 11 14  1  0  0  0  0
 14 15  1  0  0  0  0
 14 16  1  0  0  0  0
 14 17  1  0  0  0  0
 17 18  1  0  0  0  0
 17 19  1  0  0  0  0
 17 20  1  0  0  0  0
 20 21  1  0  0  0  0
 20 22  1  0  0  0  0
 20 23  1  0  0  0  0
 23 24  1  0  0  0  0
 23 25  1  0  0  0  0
 23 26  1  0  0  0  0
M  END
> <VConfSearch Rank>
567

> <Conf_Id>
44

> <Delta U+W>
0.371

> <U+W>
-5.181

> <U>
48.002

> <W>
-53.183

> <W(PB)>
-55.533

> <W(SA)>
2.350

> <Valence>
2.459

> <Coulomb>
44.901

> <VdW>
0.643

> <VdW6>
-6.362

> <VdW12>
7.005

> <Bond>
0.151

> <Angle>
0.519

> <Pdih>
1.789

> <Idih>
0.000

> <Tether>
0.000

$$$$
VeraChem MOL file


 26 25  0  0  0  0  0  0  0  0999 V2000     
   19.8091   15.2072   22.0214 C   0  0  0  0  0  0  0  0  0  0  0  0
   20.7754   15.2733   21.5048 H   0  0  0  0  0  0  0  0  0  0  0  0
   19.5226   14.1483   22.0624 H   0  0  0  0  0  0  0  0  0  0  0  0
   19.0579   15.7275   21.4147 H   0  0  0  0  0  0  0  0  0  0  0  0
   19.8990   15.7979   23.4469 C   0  0  0  0  0  0  0  0  0  0  0  0
   20.5652   15.1643   24.0491 H   0  0  0  0  0  0  0  0  0  0  0  0
   18.9128   15.7522   23.9296 H   0  0  0  0  0  0  0  0  0  0  0  0
   20.4328   17.2506   23.4820 C   0  0  0  0  0  0  0  0  0  0  0  0
   20.5898   17.5273   24.5322 H   0  0  0  0  0  0  0  0  0  0  0  0
   21.4191   17.2902   22.9997 H   0  0  0  0  0  0  0  0  0  0  0  0
   19.4806   18.2738   22.8117 C   0  0  0  0  0  0  0  0  0  0  0  0
   18.4953   18.2373   23.2964 H   0  0  0  0  0  0  0  0  0  0  0  0
   19.3200   17.9888   21.7641 H   0  0  0  0  0  0  0  0  0  0  0  0
   20.0160   19.7271   22.8330 C   0  0  0  0  0  0  0  0  0  0  0  0
   21.0078   19.7607   22.3610 H   0  0  0  0  0  0  0  0  0  0  0  0
   19.3559   20.3418   22.2070 H   0  0  0  0  0  0  0  0  0  0  0  0
   20.0920   20.3411   24.2538 C   0  0  0  0  0  0  0  0  0  0  0  0
   20.7863   19.7615   24.8741 H   0  0  0  0  0  0  0  0  0  0  0  0
   19.1101   20.2837   24.7421 H   0  0  0  0  0  0  0  0  0  0  0  0
   20.5755   21.8043   24.2431 C   0  0  0  0  0  0  0  0  0  0  0  0
   20.7034   22.1506   25.2723 H   0  0  0  0  0  0  0  0  0  0  0  0
   21.5437   21.8685   23.7393 H   0  0  0  0  0  0  0  0  0  0  0  0
   19.6211   22.7598   23.5537 N   0  3  0  0  0  0  0  0  0  0  0  0
   19.4841   22.5151   22.5682 H   0  0  0  0  0  0  0  0  0  0  0  0
   19.9660   23.7257   23.5779 H   0  0  0  0  0  0  0  0  0  0  0  0
   18.6969   22.7609   23.9973 H   0  0  0  0  0  0  0  0  0  0  0  0
  1  2  1  0  0  0  0
  1  3  1  0  0  0  0
  1  4  1  0  0  0  0
  1  5  1  0  0  0  0
  5  6  1  0  0  0  0
  5  7  1  0  0  0  0
  5  8  1  0  0  0  0
  8  9  1  0  0  0  0
  8 10  1  0  0  0  0
  8 11  1  0  0  0  0
 11 12  1  0  0  0  0
 11 13  1  0  0  0  0
 11 14  1  0  0  0  0
 14 15  1  0  0  0  0
 14 16  1  0  0  0  0
 14 17  1  0  0  0  0
 17 18  1  0  0  0  0
 17 19  1  0  0  0  0
 17 20  1  0  0  0  0
 20 21  1  0  0  0  0
 20 22  1  0  0  0  0
 20 23  1  0  0  0  0
 23 24  1  0  0  0  0
 23 25  1  0  0  0  0
 23 26  1  0  0  0  0
M  END
> <VConfSearch Rank>
568

> <Conf_Id>
112

> <Delta U+W>
1.422

> <U+W>
-4.130

> <U>
49.323

> <W>
-53.453

> <W(PB)>
-55.749

> <W(SA)>
2.296

> <Valence>
3.408

> <Coulomb>
44.893

> <VdW>
1.021

> <VdW6>
-7.481

> <VdW12>
8.503

> <Bond>
0.239

> <Angle>
1.013

> <Pdih>
2.156

> <Idih>
0.000

> <Tether>
0.000

$$$$
VeraChem MOL file


 26 25  0  0  0  0  0  0  0  0999 V2000     
   16.6415   19.0611   21.7265 C   0  0  0  0  0  0  0  0  0  0  0  0
   15.7364   18.9298   21.1194 H   0  0  0  0  0  0  0  0  0  0  0  0
   16.5140   18.4689   22.6412 H   0  0  0  0  0  0  0  0  0  0  0  0
   16.7061   20.1201   22.0082 H   0  0  0  0  0  0  0  0  0  0  0  0
   17.8930   18.6194   20.9346 C   0  0  0  0  0  0  0  0  0  0  0  0
   17.9140   19.1562   19.9759 H   0  0  0  0  0  0  0  0  0  0  0  0
   17.8157   17.5514   20.6871 H   0  0  0  0  0  0  0  0  0  0  0  0
   19.2199   18.8886   21.6845 C   0  0  0  0  0  0  0  0  0  0  0  0
   20.0555   18.6409   21.0156 H   0  0  0  0  0  0  0  0  0  0  0  0
   19.2989   19.9628   21.8971 H   0  0  0  0  0  0  0  0  0  0  0  0
   19.3600   18.0732   22.9949 C   0  0  0  0  0  0  0  0  0  0  0  0
   19.1486   17.0162   22.7819 H   0  0  0  0  0  0  0  0  0  0  0  0
   18.6063   18.3991   23.7239 H   0  0  0  0  0  0  0  0  0  0  0  0
   20.7654   18.1723   23.6375 C   0  0  0  0  0  0  0  0  0  0  0  0
   20.8047   17.4728   24.4829 H   0  0  0  0  0  0  0  0  0  0  0  0
   21.5235   17.8310   22.9190 H   0  0  0  0  0  0  0  0  0  0  0  0
   21.1191   19.5976   24.1314 C   0  0  0  0  0  0  0  0  0  0  0  0
   20.3522   19.9548   24.8315 H   0  0  0  0  0  0  0  0  0  0  0  0
   21.1208   20.2947   23.2843 H   0  0  0  0  0  0  0  0  0  0  0  0
   22.5029   19.6664   24.8058 C   0  0  0  0  0  0  0  0  0  0  0  0
   23.2667   19.2938   24.1178 H   0  0  0  0  0  0  0  0  0  0  0  0
   22.7379   20.7072   25.0446 H   0  0  0  0  0  0  0  0  0  0  0  0
   22.5976   18.8687   26.0918 N   0  3  0  0  0  0  0  0  0  0  0  0
   22.4248   17.8712   25.9338 H   0  0  0  0  0  0  0  0  0  0  0  0
   21.9169   19.1878   26.7888 H   0  0  0  0  0  0  0  0  0  0  0  0
   23.5258   18.9480   26.5214 H   0  0  0  0  0  0  0  0  0  0  0  0
  1  2  1  0  0  0  0
  1  3  1  0  0  0  0
  1  4  1  0  0  0  0
  1  5  1  0  0  0  0
  5  6  1  0  0  0  0
  5  7  1  0  0  0  0
  5  8  1  0  0  0  0
  8  9  1  0  0  0  0
  8 10  1  0  0  0  0
  8 11  1  0  0  0  0
 11 12  1  0  0  0  0
 11 13  1  0  0  0  0
 11 14  1  0  0  0  0
 14 15  1  0  0  0  0
 14 16  1  0  0  0  0
 14 17  1  0  0  0  0
 17 18  1  0  0  0  0
 17 19  1  0  0  0  0
 17 20  1  0  0  0  0
 20 21  1  0  0  0  0
 20 22  1  0  0  0  0
 20 23  1  0  0  0  0
 23 24  1  0  0  0  0
 23 25  1  0  0  0  0
 23 26  1  0  0  0  0
M  END
> <VConfSearch Rank>
569

> <Conf_Id>
130

> <Delta U+W>
1.282

> <U+W>
-4.270

> <U>
49.153

> <W>
-53.422

> <W(PB)>
-55.725

> <W(SA)>
2.303

> <Valence>
3.298

> <Coulomb>
44.907

> <VdW>
0.948

> <VdW6>
-7.574

> <VdW12>
8.522

> <Bond>
0.229

> <Angle>
0.912

> <Pdih>
2.157

> <Idih>
0.000

> <Tether>
0.000

$$$$
VeraChem MOL file


 26 25  0  0  0  0  0  0  0  0999 V2000     
   22.0279   17.5601   20.8511 C   0  0  0  0  0  0  0  0  0  0  0  0
   22.3130   16.5462   21.1606 H   0  0  0  0  0  0  0  0  0  0  0  0
   22.5659   17.7920   19.9228 H   0  0  0  0  0  0  0  0  0  0  0  0
   22.3738   18.2644   21.6180 H   0  0  0  0  0  0  0  0  0  0  0  0
   20.5016   17.6655   20.6332 C   0  0  0  0  0  0  0  0  0  0  0  0
   20.2222   17.0335   19.7787 H   0  0  0  0  0  0  0  0  0  0  0  0
   20.2382   18.6918   20.3447 H   0  0  0  0  0  0  0  0  0  0  0  0
   19.6704   17.2238   21.8648 C   0  0  0  0  0  0  0  0  0  0  0  0
   18.6027   17.3047   21.6186 H   0  0  0  0  0  0  0  0  0  0  0  0
   19.8551   16.1569   22.0515 H   0  0  0  0  0  0  0  0  0  0  0  0
   19.9471   18.0107   23.1722 C   0  0  0  0  0  0  0  0  0  0  0  0
   20.9864   17.8544   23.4899 H   0  0  0  0  0  0  0  0  0  0  0  0
   19.3215   17.5787   23.9643 H   0  0  0  0  0  0  0  0  0  0  0  0
   19.6574   19.5286   23.0544 C   0  0  0  0  0  0  0  0  0  0  0  0
   20.3039   19.9673   22.2833 H   0  0  0  0  0  0  0  0  0  0  0  0
   18.6223   19.6843   22.7202 H   0  0  0  0  0  0  0  0  0  0  0  0
   19.8942   20.2958   24.3766 C   0  0  0  0  0  0  0  0  0  0  0  0
   19.7734   21.3712   24.1899 H   0  0  0  0  0  0  0  0  0  0  0  0
   20.9308   20.1488   24.7079 H   0  0  0  0  0  0  0  0  0  0  0  0
   18.9262   19.8696   25.4963 C   0  0  0  0  0  0  0  0  0  0  0  0
   17.8943   20.0149   25.1654 H   0  0  0  0  0  0  0  0  0  0  0  0
   19.0684   18.8106   25.7264 H   0  0  0  0  0  0  0  0  0  0  0  0
   19.1210   20.6532   26.7781 N   0  3  0  0  0  0  0  0  0  0  0  0
   20.0667   20.5374   27.1568 H   0  0  0  0  0  0  0  0  0  0  0  0
   18.4674   20.3548   27.5103 H   0  0  0  0  0  0  0  0  0  0  0  0
   18.9731   21.6581   26.6379 H   0  0  0  0  0  0  0  0  0  0  0  0
  1  2  1  0  0  0  0
  1  3  1  0  0  0  0
  1  4  1  0  0  0  0
  1  5  1  0  0  0  0
  5  6  1  0  0  0  0
  5  7  1  0  0  0  0
  5  8  1  0  0  0  0
  8  9  1  0  0  0  0
  8 10  1  0  0  0  0
  8 11  1  0  0  0  0
 11 12  1  0  0  0  0
 11 13  1  0  0  0  0
 11 14  1  0  0  0  0
 14 15  1  0  0  0  0
 14 16  1  0  0  0  0
 14 17  1  0  0  0  0
 17 18  1  0  0  0  0
 17 19  1  0  0  0  0
 17 20  1  0  0  0  0
 20 21  1  0  0  0  0
 20 22  1  0  0  0  0
 20 23  1  0  0  0  0
 23 24  1  0  0  0  0
 23 25  1  0  0  0  0
 23 26  1  0  0  0  0
M  END
> <VConfSearch Rank>
570

> <Conf_Id>
111

> <Delta U+W>
1.290

> <U+W>
-4.262

> <U>
49.209

> <W>
-53.471

> <W(PB)>
-55.745

> <W(SA)>
2.274

> <Valence>
3.465

> <Coulomb>
44.958

> <VdW>
0.786

> <VdW6>
-7.903

> <VdW12>
8.689

> <Bond>
0.237

> <Angle>
1.212

> <Pdih>
2.015

> <Idih>
0.000

> <Tether>
0.000

$$$$
VeraChem MOL file


 26 25  0  0  0  0  0  0  0  0999 V2000     
   19.2701   22.8497   22.4846 C   0  0  0  0  0  0  0  0  0  0  0  0
   19.8422   23.1861   23.3591 H   0  0  0  0  0  0  0  0  0  0  0  0
   19.7367   23.2748   21.5864 H   0  0  0  0  0  0  0  0  0  0  0  0
   18.2566   23.2637   22.5654 H   0  0  0  0  0  0  0  0  0  0  0  0
   19.2250   21.3087   22.4109 C   0  0  0  0  0  0  0  0  0  0  0  0
   18.6223   21.0031   21.5443 H   0  0  0  0  0  0  0  0  0  0  0  0
   18.7161   20.9244   23.3047 H   0  0  0  0  0  0  0  0  0  0  0  0
   20.6437   20.7017   22.3008 C   0  0  0  0  0  0  0  0  0  0  0  0
   21.1623   21.1595   21.4471 H   0  0  0  0  0  0  0  0  0  0  0  0
   21.2291   20.9637   23.1930 H   0  0  0  0  0  0  0  0  0  0  0  0
   20.6479   19.1650   22.1099 C   0  0  0  0  0  0  0  0  0  0  0  0
   21.6813   18.8408   21.9246 H   0  0  0  0  0  0  0  0  0  0  0  0
   20.0770   18.9054   21.2076 H   0  0  0  0  0  0  0  0  0  0  0  0
   20.0869   18.3884   23.3254 C   0  0  0  0  0  0  0  0  0  0  0  0
   20.6232   18.6992   24.2319 H   0  0  0  0  0  0  0  0  0  0  0  0
   19.0291   18.6408   23.4758 H   0  0  0  0  0  0  0  0  0  0  0  0
   20.2174   16.8585   23.1359 C   0  0  0  0  0  0  0  0  0  0  0  0
   21.2739   16.5815   23.0215 H   0  0  0  0  0  0  0  0  0  0  0  0
   19.7136   16.5634   22.2058 H   0  0  0  0  0  0  0  0  0  0  0  0
   19.5999   16.0596   24.2998 C   0  0  0  0  0  0  0  0  0  0  0  0
   18.5491   16.3366   24.4199 H   0  0  0  0  0  0  0  0  0  0  0  0
   19.6468   14.9913   24.0714 H   0  0  0  0  0  0  0  0  0  0  0  0
   20.2986   16.2769   25.6276 N   0  3  0  0  0  0  0  0  0  0  0  0
   19.8719   15.7220   26.3776 H   0  0  0  0  0  0  0  0  0  0  0  0
   20.2599   17.2578   25.9211 H   0  0  0  0  0  0  0  0  0  0  0  0
   21.2880   16.0117   25.5850 H   0  0  0  0  0  0  0  0  0  0  0  0
  1  2  1  0  0  0  0
  1  3  1  0  0  0  0
  1  4  1  0  0  0  0
  1  5  1  0  0  0  0
  5  6  1  0  0  0  0
  5  7  1  0  0  0  0
  5  8  1  0  0  0  0
  8  9  1  0  0  0  0
  8 10  1  0  0  0  0
  8 11  1  0  0  0  0
 11 12  1  0  0  0  0
 11 13  1  0  0  0  0
 11 14  1  0  0  0  0
 14 15  1  0  0  0  0
 14 16  1  0  0  0  0
 14 17  1  0  0  0  0
 17 18  1  0  0  0  0
 17 19  1  0  0  0  0
 17 20  1  0  0  0  0
 20 21  1  0  0  0  0
 20 22  1  0  0  0  0
 20 23  1  0  0  0  0
 23 24  1  0  0  0  0
 23 25  1  0  0  0  0
 23 26  1  0  0  0  0
M  END
> <VConfSearch Rank>
571

> <Conf_Id>
105

> <Delta U+W>
0.736

> <U+W>
-4.817

> <U>
48.735

> <W>
-53.552

> <W(PB)>
-55.889

> <W(SA)>
2.337

> <Valence>
2.803

> <Coulomb>
45.123

> <VdW>
0.809

> <VdW6>
-6.953

> <VdW12>
7.761

> <Bond>
0.188

> <Angle>
0.699

> <Pdih>
1.917

> <Idih>
0.000

> <Tether>
0.000

$$$$
VeraChem MOL file


 26 25  0  0  0  0  0  0  0  0999 V2000     
   19.9731   16.0584   25.6266 C   0  0  0  0  0  0  0  0  0  0  0  0
   20.5399   16.0767   26.5667 H   0  0  0  0  0  0  0  0  0  0  0  0
   18.9314   16.3234   25.8501 H   0  0  0  0  0  0  0  0  0  0  0  0
   19.9848   15.0286   25.2464 H   0  0  0  0  0  0  0  0  0  0  0  0
   20.5821   17.0282   24.5920 C   0  0  0  0  0  0  0  0  0  0  0  0
   20.0141   16.9521   23.6552 H   0  0  0  0  0  0  0  0  0  0  0  0
   21.6128   16.7209   24.3664 H   0  0  0  0  0  0  0  0  0  0  0  0
   20.5727   18.4878   25.1039 C   0  0  0  0  0  0  0  0  0  0  0  0
   19.5397   18.8097   25.2903 H   0  0  0  0  0  0  0  0  0  0  0  0
   21.0793   18.5269   26.0781 H   0  0  0  0  0  0  0  0  0  0  0  0
   21.2773   19.4863   24.1491 C   0  0  0  0  0  0  0  0  0  0  0  0
   22.3408   19.2194   24.0792 H   0  0  0  0  0  0  0  0  0  0  0  0
   21.2490   20.4868   24.6024 H   0  0  0  0  0  0  0  0  0  0  0  0
   20.6906   19.5677   22.7158 C   0  0  0  0  0  0  0  0  0  0  0  0
   21.2870   20.2929   22.1469 H   0  0  0  0  0  0  0  0  0  0  0  0
   20.8175   18.6052   22.2027 H   0  0  0  0  0  0  0  0  0  0  0  0
   19.1996   19.9872   22.6797 C   0  0  0  0  0  0  0  0  0  0  0  0
   19.0634   20.9399   23.2084 H   0  0  0  0  0  0  0  0  0  0  0  0
   18.5923   19.2430   23.2099 H   0  0  0  0  0  0  0  0  0  0  0  0
   18.6519   20.1117   21.2448 C   0  0  0  0  0  0  0  0  0  0  0  0
   18.8036   19.1703   20.7098 H   0  0  0  0  0  0  0  0  0  0  0  0
   17.5777   20.3123   21.2836 H   0  0  0  0  0  0  0  0  0  0  0  0
   19.2964   21.2217   20.4377 N   0  3  0  0  0  0  0  0  0  0  0  0
   20.3048   21.0763   20.3290 H   0  0  0  0  0  0  0  0  0  0  0  0
   19.1680   22.1376   20.8800 H   0  0  0  0  0  0  0  0  0  0  0  0
   18.8991   21.2863   19.4942 H   0  0  0  0  0  0  0  0  0  0  0  0
  1  2  1  0  0  0  0
  1  3  1  0  0  0  0
  1  4  1  0  0  0  0
  1  5  1  0  0  0  0
  5  6  1  0  0  0  0
  5  7  1  0  0  0  0
  5  8  1  0  0  0  0
  8  9  1  0  0  0  0
  8 10  1  0  0  0  0
  8 11  1  0  0  0  0
 11 12  1  0  0  0  0
 11 13  1  0  0  0  0
 11 14  1  0  0  0  0
 14 15  1  0  0  0  0
 14 16  1  0  0  0  0
 14 17  1  0  0  0  0
 17 18  1  0  0  0  0
 17 19  1  0  0  0  0
 17 20  1  0  0  0  0
 20 21  1  0  0  0  0
 20 22  1  0  0  0  0
 20 23  1  0  0  0  0
 23 24  1  0  0  0  0
 23 25  1  0  0  0  0
 23 26  1  0  0  0  0
M  END
> <VConfSearch Rank>
572

> <Conf_Id>
144

> <Delta U+W>
1.073

> <U+W>
-4.479

> <U>
49.231

> <W>
-53.710

> <W(PB)>
-55.983

> <W(SA)>
2.273

> <Valence>
3.276

> <Coulomb>
45.175

> <VdW>
0.779

> <VdW6>
-7.944

> <VdW12>
8.723

> <Bond>
0.239

> <Angle>
1.155

> <Pdih>
1.883

> <Idih>
0.000

> <Tether>
0.000

$$$$
VeraChem MOL file


 26 25  0  0  0  0  0  0  0  0999 V2000     
   17.0249   20.0684   25.1376 C   0  0  0  0  0  0  0  0  0  0  0  0
   16.8680   20.8193   24.3537 H   0  0  0  0  0  0  0  0  0  0  0  0
   16.0531   19.8814   25.6125 H   0  0  0  0  0  0  0  0  0  0  0  0
   17.6919   20.4972   25.8967 H   0  0  0  0  0  0  0  0  0  0  0  0
   17.6066   18.7562   24.5637 C   0  0  0  0  0  0  0  0  0  0  0  0
   16.9398   18.3646   23.7829 H   0  0  0  0  0  0  0  0  0  0  0  0
   17.6215   18.0008   25.3617 H   0  0  0  0  0  0  0  0  0  0  0  0
   19.0408   18.9087   24.0012 C   0  0  0  0  0  0  0  0  0  0  0  0
   19.6988   19.3200   24.7790 H   0  0  0  0  0  0  0  0  0  0  0  0
   19.4150   17.9043   23.7669 H   0  0  0  0  0  0  0  0  0  0  0  0
   19.1147   19.7871   22.7274 C   0  0  0  0  0  0  0  0  0  0  0  0
   18.6481   20.7602   22.9255 H   0  0  0  0  0  0  0  0  0  0  0  0
   18.5209   19.3207   21.9294 H   0  0  0  0  0  0  0  0  0  0  0  0
   20.5531   20.0524   22.2114 C   0  0  0  0  0  0  0  0  0  0  0  0
   20.4738   20.7129   21.3368 H   0  0  0  0  0  0  0  0  0  0  0  0
   21.1238   20.6190   22.9602 H   0  0  0  0  0  0  0  0  0  0  0  0
   21.3414   18.7869   21.7893 C   0  0  0  0  0  0  0  0  0  0  0  0
   22.0603   19.0672   21.0078 H   0  0  0  0  0  0  0  0  0  0  0  0
   20.6625   18.0520   21.3367 H   0  0  0  0  0  0  0  0  0  0  0  0
   22.1258   18.1490   22.9527 C   0  0  0  0  0  0  0  0  0  0  0  0
   22.8349   18.8761   23.3575 H   0  0  0  0  0  0  0  0  0  0  0  0
   21.4448   17.8560   23.7539 H   0  0  0  0  0  0  0  0  0  0  0  0
   22.9066   16.9196   22.5357 N   0  3  0  0  0  0  0  0  0  0  0  0
   23.5928   17.1330   21.8044 H   0  0  0  0  0  0  0  0  0  0  0  0
   22.2941   16.1838   22.1691 H   0  0  0  0  0  0  0  0  0  0  0  0
   23.4253   16.5127   23.3217 H   0  0  0  0  0  0  0  0  0  0  0  0
  1  2  1  0  0  0  0
  1  3  1  0  0  0  0
  1  4  1  0  0  0  0
  1  5  1  0  0  0  0
  5  6  1  0  0  0  0
  5  7  1  0  0  0  0
  5  8  1  0  0  0  0
  8  9  1  0  0  0  0
  8 10  1  0  0  0  0
  8 11  1  0  0  0  0
 11 12  1  0  0  0  0
 11 13  1  0  0  0  0
 11 14  1  0  0  0  0
 14 15  1  0  0  0  0
 14 16  1  0  0  0  0
 14 17  1  0  0  0  0
 17 18  1  0  0  0  0
 17 19  1  0  0  0  0
 17 20  1  0  0  0  0
 20 21  1  0  0  0  0
 20 22  1  0  0  0  0
 20 23  1  0  0  0  0
 23 24  1  0  0  0  0
 23 25  1  0  0  0  0
 23 26  1  0  0  0  0
M  END
> <VConfSearch Rank>
573

> <Conf_Id>
93

> <Delta U+W>
3.253

> <U+W>
-2.300

> <U>
51.609

> <W>
-53.909

> <W(PB)>
-56.178

> <W(SA)>
2.270

> <Valence>
5.204

> <Coulomb>
45.645

> <VdW>
0.760

> <VdW6>
-7.997

> <VdW12>
8.758

> <Bond>
0.240

> <Angle>
1.456

> <Pdih>
3.507

> <Idih>
0.000

> <Tether>
0.000

$$$$
VeraChem MOL file


 26 25  0  0  0  0  0  0  0  0999 V2000     
   18.2698   15.7530   23.3899 C   0  0  0  0  0  0  0  0  0  0  0  0
   19.1754   15.2968   23.8079 H   0  0  0  0  0  0  0  0  0  0  0  0
   17.6617   16.1347   24.2202 H   0  0  0  0  0  0  0  0  0  0  0  0
   17.6991   14.9565   22.8951 H   0  0  0  0  0  0  0  0  0  0  0  0
   18.6082   16.8783   22.3855 C   0  0  0  0  0  0  0  0  0  0  0  0
   17.6777   17.2094   21.9033 H   0  0  0  0  0  0  0  0  0  0  0  0
   19.2450   16.4806   21.5829 H   0  0  0  0  0  0  0  0  0  0  0  0
   19.2903   18.1056   23.0374 C   0  0  0  0  0  0  0  0  0  0  0  0
   19.3440   18.8978   22.2804 H   0  0  0  0  0  0  0  0  0  0  0  0
   18.6599   18.4864   23.8526 H   0  0  0  0  0  0  0  0  0  0  0  0
   20.7166   17.8116   23.5653 C   0  0  0  0  0  0  0  0  0  0  0  0
   21.3604   17.5136   22.7264 H   0  0  0  0  0  0  0  0  0  0  0  0
   20.6856   16.9517   24.2462 H   0  0  0  0  0  0  0  0  0  0  0  0
   21.3762   18.9904   24.3275 C   0  0  0  0  0  0  0  0  0  0  0  0
   20.7990   19.2241   25.2330 H   0  0  0  0  0  0  0  0  0  0  0  0
   22.3579   18.6467   24.6820 H   0  0  0  0  0  0  0  0  0  0  0  0
   21.5902   20.2753   23.4882 C   0  0  0  0  0  0  0  0  0  0  0  0
   21.8365   20.0126   22.4508 H   0  0  0  0  0  0  0  0  0  0  0  0
   22.4610   20.8125   23.8871 H   0  0  0  0  0  0  0  0  0  0  0  0
   20.3809   21.2301   23.5283 C   0  0  0  0  0  0  0  0  0  0  0  0
   19.4909   20.7319   23.1394 H   0  0  0  0  0  0  0  0  0  0  0  0
   20.1818   21.5245   24.5622 H   0  0  0  0  0  0  0  0  0  0  0  0
   20.5966   22.4919   22.7182 N   0  3  0  0  0  0  0  0  0  0  0  0
   21.4027   23.0286   23.0548 H   0  0  0  0  0  0  0  0  0  0  0  0
   19.7837   23.1162   22.7612 H   0  0  0  0  0  0  0  0  0  0  0  0
   20.7634   22.2865   21.7277 H   0  0  0  0  0  0  0  0  0  0  0  0
  1  2  1  0  0  0  0
  1  3  1  0  0  0  0
  1  4  1  0  0  0  0
  1  5  1  0  0  0  0
  5  6  1  0  0  0  0
  5  7  1  0  0  0  0
  5  8  1  0  0  0  0
  8  9  1  0  0  0  0
  8 10  1  0  0  0  0
  8 11  1  0  0  0  0
 11 12  1  0  0  0  0
 11 13  1  0  0  0  0
 11 14  1  0  0  0  0
 14 15  1  0  0  0  0
 14 16  1  0  0  0  0
 14 17  1  0  0  0  0
 17 18  1  0  0  0  0
 17 19  1  0  0  0  0
 17 20  1  0  0  0  0
 20 21  1  0  0  0  0
 20 22  1  0  0  0  0
 20 23  1  0  0  0  0
 23 24  1  0  0  0  0
 23 25  1  0  0  0  0
 23 26  1  0  0  0  0
M  END
> <VConfSearch Rank>
574

> <Conf_Id>
94

> <Delta U+W>
3.247

> <U+W>
-2.305

> <U>
51.609

> <W>
-53.914

> <W(PB)>
-56.221

> <W(SA)>
2.307

> <Valence>
5.204

> <Coulomb>
45.645

> <VdW>
0.760

> <VdW6>
-7.997

> <VdW12>
8.757

> <Bond>
0.240

> <Angle>
1.456

> <Pdih>
3.508

> <Idih>
0.000

> <Tether>
0.000

$$$$
VeraChem MOL file


 26 25  0  0  0  0  0  0  0  0999 V2000     
   21.9265   18.3549   26.8536 C   0  0  0  0  0  0  0  0  0  0  0  0
   22.7049   19.1288   26.8715 H   0  0  0  0  0  0  0  0  0  0  0  0
   21.0580   18.7304   27.4103 H   0  0  0  0  0  0  0  0  0  0  0  0
   22.3132   17.4758   27.3854 H   0  0  0  0  0  0  0  0  0  0  0  0
   21.5409   17.9892   25.4046 C   0  0  0  0  0  0  0  0  0  0  0  0
   20.7865   17.1901   25.4188 H   0  0  0  0  0  0  0  0  0  0  0  0
   22.4207   17.5855   24.8841 H   0  0  0  0  0  0  0  0  0  0  0  0
   20.9932   19.2102   24.6329 C   0  0  0  0  0  0  0  0  0  0  0  0
   20.1153   19.6115   25.1580 H   0  0  0  0  0  0  0  0  0  0  0  0
   21.7498   20.0070   24.6241 H   0  0  0  0  0  0  0  0  0  0  0  0
   20.6064   18.8480   23.1812 C   0  0  0  0  0  0  0  0  0  0  0  0
   19.8560   18.0464   23.1978 H   0  0  0  0  0  0  0  0  0  0  0  0
   21.4860   18.4503   22.6564 H   0  0  0  0  0  0  0  0  0  0  0  0
   20.0561   20.0725   22.4113 C   0  0  0  0  0  0  0  0  0  0  0  0
   19.1620   20.4591   22.9183 H   0  0  0  0  0  0  0  0  0  0  0  0
   20.7988   20.8816   22.4440 H   0  0  0  0  0  0  0  0  0  0  0  0
   19.7295   19.7639   20.9285 C   0  0  0  0  0  0  0  0  0  0  0  0
   20.6496   19.4623   20.4106 H   0  0  0  0  0  0  0  0  0  0  0  0
   19.3870   20.6824   20.4336 H   0  0  0  0  0  0  0  0  0  0  0  0
   18.6689   18.6611   20.7350 C   0  0  0  0  0  0  0  0  0  0  0  0
   18.5171   18.4873   19.6662 H   0  0  0  0  0  0  0  0  0  0  0  0
   19.0190   17.7280   21.1837 H   0  0  0  0  0  0  0  0  0  0  0  0
   17.3221   18.9991   21.3432 N   0  3  0  0  0  0  0  0  0  0  0  0
   16.9265   19.8544   20.9396 H   0  0  0  0  0  0  0  0  0  0  0  0
   17.3910   19.1447   22.3551 H   0  0  0  0  0  0  0  0  0  0  0  0
   16.6368   18.2511   21.1916 H   0  0  0  0  0  0  0  0  0  0  0  0
  1  2  1  0  0  0  0
  1  3  1  0  0  0  0
  1  4  1  0  0  0  0
  1  5  1  0  0  0  0
  5  6  1  0  0  0  0
  5  7  1  0  0  0  0
  5  8  1  0  0  0  0
  8  9  1  0  0  0  0
  8 10  1  0  0  0  0
  8 11  1  0  0  0  0
 11 12  1  0  0  0  0
 11 13  1  0  0  0  0
 11 14  1  0  0  0  0
 14 15  1  0  0  0  0
 14 16  1  0  0  0  0
 14 17  1  0  0  0  0
 17 18  1  0  0  0  0
 17 19  1  0  0  0  0
 17 20  1  0  0  0  0
 20 21  1  0  0  0  0
 20 22  1  0  0  0  0
 20 23  1  0  0  0  0
 23 24  1  0  0  0  0
 23 25  1  0  0  0  0
 23 26  1  0  0  0  0
M  END
> <VConfSearch Rank>
575

> <Conf_Id>
83

> <Delta U+W>
0.559

> <U+W>
-4.994

> <U>
48.668

> <W>
-53.661

> <W(PB)>
-55.972

> <W(SA)>
2.311

> <Valence>
2.543

> <Coulomb>
45.478

> <VdW>
0.646

> <VdW6>
-7.096

> <VdW12>
7.742

> <Bond>
0.176

> <Angle>
0.630

> <Pdih>
1.738

> <Idih>
0.000

> <Tether>
0.000

$$$$
VeraChem MOL file


 26 25  0  0  0  0  0  0  0  0999 V2000     
   22.0518   22.2883   22.4492 C   0  0  0  0  0  0  0  0  0  0  0  0
   21.4899   23.1287   22.0213 H   0  0  0  0  0  0  0  0  0  0  0  0
   22.3100   22.5419   23.4857 H   0  0  0  0  0  0  0  0  0  0  0  0
   22.9874   22.1864   21.8841 H   0  0  0  0  0  0  0  0  0  0  0  0
   21.2319   20.9822   22.3858 C   0  0  0  0  0  0  0  0  0  0  0  0
   21.8413   20.1601   22.7836 H   0  0  0  0  0  0  0  0  0  0  0  0
   21.0144   20.7394   21.3363 H   0  0  0  0  0  0  0  0  0  0  0  0
   19.9093   21.1005   23.1797 C   0  0  0  0  0  0  0  0  0  0  0  0
   20.1290   21.2894   24.2396 H   0  0  0  0  0  0  0  0  0  0  0  0
   19.3546   21.9778   22.8193 H   0  0  0  0  0  0  0  0  0  0  0  0
   18.9954   19.8568   23.0525 C   0  0  0  0  0  0  0  0  0  0  0  0
   18.7644   19.6772   21.9934 H   0  0  0  0  0  0  0  0  0  0  0  0
   18.0378   20.0787   23.5434 H   0  0  0  0  0  0  0  0  0  0  0  0
   19.5993   18.5774   23.6800 C   0  0  0  0  0  0  0  0  0  0  0  0
   20.5202   18.3050   23.1496 H   0  0  0  0  0  0  0  0  0  0  0  0
   19.8771   18.7769   24.7242 H   0  0  0  0  0  0  0  0  0  0  0  0
   18.6062   17.3922   23.6293 C   0  0  0  0  0  0  0  0  0  0  0  0
   18.3427   17.1663   22.5874 H   0  0  0  0  0  0  0  0  0  0  0  0
   17.6732   17.6771   24.1337 H   0  0  0  0  0  0  0  0  0  0  0  0
   19.1577   16.1231   24.3074 C   0  0  0  0  0  0  0  0  0  0  0  0
   19.4285   16.3470   25.3427 H   0  0  0  0  0  0  0  0  0  0  0  0
   18.3830   15.3515   24.3170 H   0  0  0  0  0  0  0  0  0  0  0  0
   20.3762   15.5419   23.6172 N   0  3  0  0  0  0  0  0  0  0  0  0
   21.1584   16.2036   23.6064 H   0  0  0  0  0  0  0  0  0  0  0  0
   20.1781   15.2899   22.6434 H   0  0  0  0  0  0  0  0  0  0  0  0
   20.7088   14.6915   24.0847 H   0  0  0  0  0  0  0  0  0  0  0  0
  1  2  1  0  0  0  0
  1  3  1  0  0  0  0
  1  4  1  0  0  0  0
  1  5  1  0  0  0  0
  5  6  1  0  0  0  0
  5  7  1  0  0  0  0
  5  8  1  0  0  0  0
  8  9  1  0  0  0  0
  8 10  1  0  0  0  0
  8 11  1  0  0  0  0
 11 12  1  0  0  0  0
 11 13  1  0  0  0  0
 11 14  1  0  0  0  0
 14 15  1  0  0  0  0
 14 16  1  0  0  0  0
 14 17  1  0  0  0  0
 17 18  1  0  0  0  0
 17 19  1  0  0  0  0
 17 20  1  0  0  0  0
 20 21  1  0  0  0  0
 20 22  1  0  0  0  0
 20 23  1  0  0  0  0
 23 24  1  0  0  0  0
 23 25  1  0  0  0  0
 23 26  1  0  0  0  0
M  END
> <VConfSearch Rank>
576

> <Conf_Id>
18

> <Delta U+W>
0.759

> <U+W>
-4.793

> <U>
48.945

> <W>
-53.738

> <W(PB)>
-56.051

> <W(SA)>
2.313

> <Valence>
2.802

> <Coulomb>
45.335

> <VdW>
0.807

> <VdW6>
-6.962

> <VdW12>
7.769

> <Bond>
0.189

> <Angle>
0.696

> <Pdih>
1.917

> <Idih>
0.000

> <Tether>
0.000

$$$$
VeraChem MOL file


 26 25  0  0  0  0  0  0  0  0999 V2000     
   17.0786   21.3538   24.3781 C   0  0  0  0  0  0  0  0  0  0  0  0
   16.2886   20.5980   24.4781 H   0  0  0  0  0  0  0  0  0  0  0  0
   17.1880   21.8640   25.3440 H   0  0  0  0  0  0  0  0  0  0  0  0
   16.7440   22.0957   23.6415 H   0  0  0  0  0  0  0  0  0  0  0  0
   18.4097   20.7092   23.9365 C   0  0  0  0  0  0  0  0  0  0  0  0
   19.1714   21.4923   23.8169 H   0  0  0  0  0  0  0  0  0  0  0  0
   18.2707   20.2462   22.9507 H   0  0  0  0  0  0  0  0  0  0  0  0
   18.8993   19.6557   24.9581 C   0  0  0  0  0  0  0  0  0  0  0  0
   18.9525   20.1209   25.9521 H   0  0  0  0  0  0  0  0  0  0  0  0
   18.1618   18.8451   25.0368 H   0  0  0  0  0  0  0  0  0  0  0  0
   20.2891   19.0621   24.6202 C   0  0  0  0  0  0  0  0  0  0  0  0
   20.6049   18.4216   25.4553 H   0  0  0  0  0  0  0  0  0  0  0  0
   21.0290   19.8719   24.5561 H   0  0  0  0  0  0  0  0  0  0  0  0
   20.3075   18.2327   23.3136 C   0  0  0  0  0  0  0  0  0  0  0  0
   19.5307   17.4568   23.3606 H   0  0  0  0  0  0  0  0  0  0  0  0
   20.0635   18.8795   22.4618 H   0  0  0  0  0  0  0  0  0  0  0  0
   21.6846   17.5682   23.0775 C   0  0  0  0  0  0  0  0  0  0  0  0
   21.9417   16.9452   23.9445 H   0  0  0  0  0  0  0  0  0  0  0  0
   22.4652   18.3369   23.0015 H   0  0  0  0  0  0  0  0  0  0  0  0
   21.7105   16.6821   21.8171 C   0  0  0  0  0  0  0  0  0  0  0  0
   22.6764   16.1739   21.7511 H   0  0  0  0  0  0  0  0  0  0  0  0
   20.9288   15.9207   21.8863 H   0  0  0  0  0  0  0  0  0  0  0  0
   21.5065   17.4501   20.5258 N   0  3  0  0  0  0  0  0  0  0  0  0
   22.2258   18.1684   20.3925 H   0  0  0  0  0  0  0  0  0  0  0  0
   20.5978   17.9229   20.5045 H   0  0  0  0  0  0  0  0  0  0  0  0
   21.5435   16.8337   19.7067 H   0  0  0  0  0  0  0  0  0  0  0  0
  1  2  1  0  0  0  0
  1  3  1  0  0  0  0
  1  4  1  0  0  0  0
  1  5  1  0  0  0  0
  5  6  1  0  0  0  0
  5  7  1  0  0  0  0
  5  8  1  0  0  0  0
  8  9  1  0  0  0  0
  8 10  1  0  0  0  0
  8 11  1  0  0  0  0
 11 12  1  0  0  0  0
 11 13  1  0  0  0  0
 11 14  1  0  0  0  0
 14 15  1  0  0  0  0
 14 16  1  0  0  0  0
 14 17  1  0  0  0  0
 17 18  1  0  0  0  0
 17 19  1  0  0  0  0
 17 20  1  0  0  0  0
 20 21  1  0  0  0  0
 20 22  1  0  0  0  0
 20 23  1  0  0  0  0
 23 24  1  0  0  0  0
 23 25  1  0  0  0  0
 23 26  1  0  0  0  0
M  END
> <VConfSearch Rank>
577

> <Conf_Id>
17

> <Delta U+W>
0.843

> <U+W>
-4.709

> <U>
48.945

> <W>
-53.653

> <W(PB)>
-55.991

> <W(SA)>
2.338

> <Valence>
2.802

> <Coulomb>
45.335

> <VdW>
0.807

> <VdW6>
-6.962

> <VdW12>
7.769

> <Bond>
0.189

> <Angle>
0.696

> <Pdih>
1.917

> <Idih>
0.000

> <Tether>
0.000

$$$$
VeraChem MOL file


 26 25  0  0  0  0  0  0  0  0999 V2000     
   17.3418   20.2945   25.1279 C   0  0  0  0  0  0  0  0  0  0  0  0
   17.1852   19.8607   24.1325 H   0  0  0  0  0  0  0  0  0  0  0  0
   17.3253   19.4811   25.8648 H   0  0  0  0  0  0  0  0  0  0  0  0
   16.4900   20.9545   25.3374 H   0  0  0  0  0  0  0  0  0  0  0  0
   18.6684   21.0842   25.2012 C   0  0  0  0  0  0  0  0  0  0  0  0
   18.7200   21.5997   26.1705 H   0  0  0  0  0  0  0  0  0  0  0  0
   18.6730   21.8711   24.4341 H   0  0  0  0  0  0  0  0  0  0  0  0
   19.9247   20.1937   25.0454 C   0  0  0  0  0  0  0  0  0  0  0  0
   20.8147   20.8134   25.2218 H   0  0  0  0  0  0  0  0  0  0  0  0
   19.9261   19.4214   25.8269 H   0  0  0  0  0  0  0  0  0  0  0  0
   20.0400   19.5276   23.6532 C   0  0  0  0  0  0  0  0  0  0  0  0
   19.9888   20.2994   22.8729 H   0  0  0  0  0  0  0  0  0  0  0  0
   19.1867   18.8561   23.4958 H   0  0  0  0  0  0  0  0  0  0  0  0
   21.3595   18.7321   23.5071 C   0  0  0  0  0  0  0  0  0  0  0  0
   22.2086   19.4000   23.7078 H   0  0  0  0  0  0  0  0  0  0  0  0
   21.4008   17.9400   24.2677 H   0  0  0  0  0  0  0  0  0  0  0  0
   21.5409   18.1089   22.1030 C   0  0  0  0  0  0  0  0  0  0  0  0
   22.5327   17.6407   22.0466 H   0  0  0  0  0  0  0  0  0  0  0  0
   21.5235   18.9011   21.3426 H   0  0  0  0  0  0  0  0  0  0  0  0
   20.4674   17.0538   21.7765 C   0  0  0  0  0  0  0  0  0  0  0  0
   20.4850   16.2647   22.5331 H   0  0  0  0  0  0  0  0  0  0  0  0
   19.4776   17.5174   21.7849 H   0  0  0  0  0  0  0  0  0  0  0  0
   20.6655   16.4066   20.4210 N   0  3  0  0  0  0  0  0  0  0  0  0
   19.9412   15.7077   20.2229 H   0  0  0  0  0  0  0  0  0  0  0  0
   21.5690   15.9266   20.3552 H   0  0  0  0  0  0  0  0  0  0  0  0
   20.6329   17.0939   19.6609 H   0  0  0  0  0  0  0  0  0  0  0  0
  1  2  1  0  0  0  0
  1  3  1  0  0  0  0
  1  4  1  0  0  0  0
  1  5  1  0  0  0  0
  5  6  1  0  0  0  0
  5  7  1  0  0  0  0
  5  8  1  0  0  0  0
  8  9  1  0  0  0  0
  8 10  1  0  0  0  0
  8 11  1  0  0  0  0
 11 12  1  0  0  0  0
 11 13  1  0  0  0  0
 11 14  1  0  0  0  0
 14 15  1  0  0  0  0
 14 16  1  0  0  0  0
 14 17  1  0  0  0  0
 17 18  1  0  0  0  0
 17 19  1  0  0  0  0
 17 20  1  0  0  0  0
 20 21  1  0  0  0  0
 20 22  1  0  0  0  0
 20 23  1  0  0  0  0
 23 24  1  0  0  0  0
 23 25  1  0  0  0  0
 23 26  1  0  0  0  0
M  END
> <VConfSearch Rank>
578

> <Conf_Id>
96

> <Delta U+W>
0.912

> <U+W>
-4.640

> <U>
48.723

> <W>
-53.364

> <W(PB)>
-55.683

> <W(SA)>
2.320

> <Valence>
2.962

> <Coulomb>
44.993

> <VdW>
0.768

> <VdW6>
-7.008

> <VdW12>
7.776

> <Bond>
0.188

> <Angle>
0.757

> <Pdih>
2.018

> <Idih>
0.000

> <Tether>
0.000

$$$$
VeraChem MOL file


 26 25  0  0  0  0  0  0  0  0999 V2000     
   17.6397   17.3528   25.1475 C   0  0  0  0  0  0  0  0  0  0  0  0
   16.8854   16.5904   25.3816 H   0  0  0  0  0  0  0  0  0  0  0  0
   17.4622   18.2135   25.8053 H   0  0  0  0  0  0  0  0  0  0  0  0
   17.4747   17.6717   24.1109 H   0  0  0  0  0  0  0  0  0  0  0  0
   19.0630   16.7844   25.3475 C   0  0  0  0  0  0  0  0  0  0  0  0
   19.2264   15.9454   24.6567 H   0  0  0  0  0  0  0  0  0  0  0  0
   19.1379   16.3667   26.3613 H   0  0  0  0  0  0  0  0  0  0  0  0
   20.1795   17.8403   25.1622 C   0  0  0  0  0  0  0  0  0  0  0  0
   20.0232   18.6671   25.8688 H   0  0  0  0  0  0  0  0  0  0  0  0
   21.1408   17.3813   25.4314 H   0  0  0  0  0  0  0  0  0  0  0  0
   20.2701   18.3958   23.7206 C   0  0  0  0  0  0  0  0  0  0  0  0
   19.3363   18.9130   23.4671 H   0  0  0  0  0  0  0  0  0  0  0  0
   20.3771   17.5620   23.0132 H   0  0  0  0  0  0  0  0  0  0  0  0
   21.4626   19.3687   23.5564 C   0  0  0  0  0  0  0  0  0  0  0  0
   21.3439   20.2193   24.2419 H   0  0  0  0  0  0  0  0  0  0  0  0
   22.3894   18.8581   23.8525 H   0  0  0  0  0  0  0  0  0  0  0  0
   21.6257   19.8910   22.1096 C   0  0  0  0  0  0  0  0  0  0  0  0
   21.7679   19.0440   21.4252 H   0  0  0  0  0  0  0  0  0  0  0  0
   22.5382   20.4991   22.0512 H   0  0  0  0  0  0  0  0  0  0  0  0
   20.4265   20.7378   21.6434 C   0  0  0  0  0  0  0  0  0  0  0  0
   19.5178   20.1305   21.6537 H   0  0  0  0  0  0  0  0  0  0  0  0
   20.2851   21.5815   22.3243 H   0  0  0  0  0  0  0  0  0  0  0  0
   20.5997   21.2905   20.2434 N   0  3  0  0  0  0  0  0  0  0  0  0
   20.7114   20.5444   19.5491 H   0  0  0  0  0  0  0  0  0  0  0  0
   21.4241   21.8959   20.1709 H   0  0  0  0  0  0  0  0  0  0  0  0
   19.7914   21.8510   19.9522 H   0  0  0  0  0  0  0  0  0  0  0  0
  1  2  1  0  0  0  0
  1  3  1  0  0  0  0
  1  4  1  0  0  0  0
  1  5  1  0  0  0  0
  5  6  1  0  0  0  0
  5  7  1  0  0  0  0
  5  8  1  0  0  0  0
  8  9  1  0  0  0  0
  8 10  1  0  0  0  0
  8 11  1  0  0  0  0
 11 12  1  0  0  0  0
 11 13  1  0  0  0  0
 11 14  1  0  0  0  0
 14 15  1  0  0  0  0
 14 16  1  0  0  0  0
 14 17  1  0  0  0  0
 17 18  1  0  0  0  0
 17 19  1  0  0  0  0
 17 20  1  0  0  0  0
 20 21  1  0  0  0  0
 20 22  1  0  0  0  0
 20 23  1  0  0  0  0
 23 24  1  0  0  0  0
 23 25  1  0  0  0  0
 23 26  1  0  0  0  0
M  END
> <VConfSearch Rank>
579

> <Conf_Id>
133

> <Delta U+W>
0.844

> <U+W>
-4.708

> <U>
48.723

> <W>
-53.431

> <W(PB)>
-55.776

> <W(SA)>
2.344

> <Valence>
2.962

> <Coulomb>
44.993

> <VdW>
0.768

> <VdW6>
-7.008

> <VdW12>
7.776

> <Bond>
0.188

> <Angle>
0.756

> <Pdih>
2.018

> <Idih>
0.000

> <Tether>
0.000

$$$$
VeraChem MOL file


 26 25  0  0  0  0  0  0  0  0999 V2000     
   21.4762   18.6273   20.3486 C   0  0  0  0  0  0  0  0  0  0  0  0
   21.8864   19.5410   19.8993 H   0  0  0  0  0  0  0  0  0  0  0  0
   21.9137   18.5086   21.3477 H   0  0  0  0  0  0  0  0  0  0  0  0
   21.8067   17.7758   19.7399 H   0  0  0  0  0  0  0  0  0  0  0  0
   19.9330   18.6828   20.4095 C   0  0  0  0  0  0  0  0  0  0  0  0
   19.5474   17.7686   20.8801 H   0  0  0  0  0  0  0  0  0  0  0  0
   19.5385   18.6814   19.3838 H   0  0  0  0  0  0  0  0  0  0  0  0
   19.3896   19.9345   21.1447 C   0  0  0  0  0  0  0  0  0  0  0  0
   19.6863   20.8317   20.5842 H   0  0  0  0  0  0  0  0  0  0  0  0
   18.2915   19.9124   21.1165 H   0  0  0  0  0  0  0  0  0  0  0  0
   19.8527   20.0925   22.6162 C   0  0  0  0  0  0  0  0  0  0  0  0
   19.4191   21.0193   23.0164 H   0  0  0  0  0  0  0  0  0  0  0  0
   20.9416   20.2285   22.6534 H   0  0  0  0  0  0  0  0  0  0  0  0
   19.4406   18.9098   23.5251 C   0  0  0  0  0  0  0  0  0  0  0  0
   18.3562   18.7488   23.4499 H   0  0  0  0  0  0  0  0  0  0  0  0
   19.9256   17.9868   23.1808 H   0  0  0  0  0  0  0  0  0  0  0  0
   19.8233   19.1596   25.0005 C   0  0  0  0  0  0  0  0  0  0  0  0
   19.3348   20.0751   25.3600 H   0  0  0  0  0  0  0  0  0  0  0  0
   20.9070   19.3200   25.0790 H   0  0  0  0  0  0  0  0  0  0  0  0
   19.4148   17.9768   25.8960 C   0  0  0  0  0  0  0  0  0  0  0  0
   18.3340   17.8236   25.8332 H   0  0  0  0  0  0  0  0  0  0  0  0
   19.9120   17.0657   25.5521 H   0  0  0  0  0  0  0  0  0  0  0  0
   19.7739   18.1839   27.3532 N   0  3  0  0  0  0  0  0  0  0  0  0
   19.4931   17.3847   27.9321 H   0  0  0  0  0  0  0  0  0  0  0  0
   19.3150   19.0124   27.7459 H   0  0  0  0  0  0  0  0  0  0  0  0
   20.7833   18.3072   27.4844 H   0  0  0  0  0  0  0  0  0  0  0  0
  1  2  1  0  0  0  0
  1  3  1  0  0  0  0
  1  4  1  0  0  0  0
  1  5  1  0  0  0  0
  5  6  1  0  0  0  0
  5  7  1  0  0  0  0
  5  8  1  0  0  0  0
  8  9  1  0  0  0  0
  8 10  1  0  0  0  0
  8 11  1  0  0  0  0
 11 12  1  0  0  0  0
 11 13  1  0  0  0  0
 11 14  1  0  0  0  0
 14 15  1  0  0  0  0
 14 16  1  0  0  0  0
 14 17  1  0  0  0  0
 17 18  1  0  0  0  0
 17 19  1  0  0  0  0
 17 20  1  0  0  0  0
 20 21  1  0  0  0  0
 20 22  1  0  0  0  0
 20 23  1  0  0  0  0
 23 24  1  0  0  0  0
 23 25  1  0  0  0  0
 23 26  1  0  0  0  0
M  END
> <VConfSearch Rank>
580

> <Conf_Id>
106

> <Delta U+W>
0.767

> <U+W>
-4.785

> <U>
48.494

> <W>
-53.279

> <W(PB)>
-55.569

> <W(SA)>
2.290

> <Valence>
3.117

> <Coulomb>
44.693

> <VdW>
0.684

> <VdW6>
-7.347

> <VdW12>
8.030

> <Bond>
0.208

> <Angle>
1.039

> <Pdih>
1.870

> <Idih>
0.000

> <Tether>
0.000

$$$$
VeraChem MOL file


 26 25  0  0  0  0  0  0  0  0999 V2000     
   16.2635   16.4433   23.2592 C   0  0  0  0  0  0  0  0  0  0  0  0
   15.7369   17.0454   24.0112 H   0  0  0  0  0  0  0  0  0  0  0  0
   15.9334   16.7725   22.2653 H   0  0  0  0  0  0  0  0  0  0  0  0
   15.9544   15.3979   23.3879 H   0  0  0  0  0  0  0  0  0  0  0  0
   17.7933   16.5817   23.4098 C   0  0  0  0  0  0  0  0  0  0  0  0
   18.2919   15.9428   22.6674 H   0  0  0  0  0  0  0  0  0  0  0  0
   18.0970   16.2136   24.3998 H   0  0  0  0  0  0  0  0  0  0  0  0
   18.2555   18.0451   23.2331 C   0  0  0  0  0  0  0  0  0  0  0  0
   17.9477   18.4093   22.2432 H   0  0  0  0  0  0  0  0  0  0  0  0
   17.7528   18.6800   23.9758 H   0  0  0  0  0  0  0  0  0  0  0  0
   19.7871   18.1877   23.3831 C   0  0  0  0  0  0  0  0  0  0  0  0
   20.2889   17.5522   22.6402 H   0  0  0  0  0  0  0  0  0  0  0  0
   20.0941   17.8227   24.3730 H   0  0  0  0  0  0  0  0  0  0  0  0
   20.2489   19.6519   23.2064 C   0  0  0  0  0  0  0  0  0  0  0  0
   19.9420   20.0173   22.2164 H   0  0  0  0  0  0  0  0  0  0  0  0
   19.7473   20.2878   23.9493 H   0  0  0  0  0  0  0  0  0  0  0  0
   21.7795   19.7952   23.3561 C   0  0  0  0  0  0  0  0  0  0  0  0
   22.2846   19.1653   22.6116 H   0  0  0  0  0  0  0  0  0  0  0  0
   22.0897   19.4358   24.3464 H   0  0  0  0  0  0  0  0  0  0  0  0
   22.2282   21.2565   23.1786 C   0  0  0  0  0  0  0  0  0  0  0  0
   21.9360   21.6135   22.1873 H   0  0  0  0  0  0  0  0  0  0  0  0
   21.7402   21.8851   23.9284 H   0  0  0  0  0  0  0  0  0  0  0  0
   23.7258   21.4387   23.3186 N   0  3  0  0  0  0  0  0  0  0  0  0
   24.0033   22.4188   23.1969 H   0  0  0  0  0  0  0  0  0  0  0  0
   24.2440   20.8933   22.6220 H   0  0  0  0  0  0  0  0  0  0  0  0
   24.0618   21.1460   24.2420 H   0  0  0  0  0  0  0  0  0  0  0  0
  1  2  1  0  0  0  0
  1  3  1  0  0  0  0
  1  4  1  0  0  0  0
  1  5  1  0  0  0  0
  5  6  1  0  0  0  0
  5  7  1  0  0  0  0
  5  8  1  0  0  0  0
  8  9  1  0  0  0  0
  8 10  1  0  0  0  0
  8 11  1  0  0  0  0
 11 12  1  0  0  0  0
 11 13  1  0  0  0  0
 11 14  1  0  0  0  0
 14 15  1  0  0  0  0
 14 16  1  0  0  0  0
 14 17  1  0  0  0  0
 17 18  1  0  0  0  0
 17 19  1  0  0  0  0
 17 20  1  0  0  0  0
 20 21  1  0  0  0  0
 20 22  1  0  0  0  0
 20 23  1  0  0  0  0
 23 24  1  0  0  0  0
 23 25  1  0  0  0  0
 23 26  1  0  0  0  0
M  END
> <VConfSearch Rank>
581

> <Conf_Id>
25

> <Delta U+W>
0.000

> <U+W>
-5.552

> <U>
47.192

> <W>
-52.745

> <W(PB)>
-55.134

> <W(SA)>
2.389

> <Valence>
2.156

> <Coulomb>
44.449

> <VdW>
0.587

> <VdW6>
-5.761

> <VdW12>
6.348

> <Bond>
0.129

> <Angle>
0.393

> <Pdih>
1.634

> <Idih>
0.000

> <Tether>
0.000

$$$$
VeraChem MOL file


 26 25  0  0  0  0  0  0  0  0999 V2000     
   18.4626   15.0743   22.2975 C   0  0  0  0  0  0  0  0  0  0  0  0
   17.5959   15.1448   22.9677 H   0  0  0  0  0  0  0  0  0  0  0  0
   18.1521   15.4124   21.3002 H   0  0  0  0  0  0  0  0  0  0  0  0
   18.7449   14.0162   22.2219 H   0  0  0  0  0  0  0  0  0  0  0  0
   19.6427   15.9168   22.8263 C   0  0  0  0  0  0  0  0  0  0  0  0
   20.5044   15.7994   22.1543 H   0  0  0  0  0  0  0  0  0  0  0  0
   19.9525   15.5338   23.8088 H   0  0  0  0  0  0  0  0  0  0  0  0
   19.2717   17.4118   22.9425 C   0  0  0  0  0  0  0  0  0  0  0  0
   18.9605   17.7893   21.9586 H   0  0  0  0  0  0  0  0  0  0  0  0
   18.4087   17.5238   23.6134 H   0  0  0  0  0  0  0  0  0  0  0  0
   20.4512   18.2587   23.4718 C   0  0  0  0  0  0  0  0  0  0  0  0
   21.3137   18.1463   22.8003 H   0  0  0  0  0  0  0  0  0  0  0  0
   20.7622   17.8796   24.4551 H   0  0  0  0  0  0  0  0  0  0  0  0
   20.0795   19.7542   23.5885 C   0  0  0  0  0  0  0  0  0  0  0  0
   19.7648   20.1264   22.6043 H   0  0  0  0  0  0  0  0  0  0  0  0
   19.2187   19.8668   24.2623 H   0  0  0  0  0  0  0  0  0  0  0  0
   21.2617   20.6003   24.1175 C   0  0  0  0  0  0  0  0  0  0  0  0
   22.1178   20.5197   23.4344 H   0  0  0  0  0  0  0  0  0  0  0  0
   21.5931   20.1977   25.0840 H   0  0  0  0  0  0  0  0  0  0  0  0
   20.8936   22.0843   24.3081 C   0  0  0  0  0  0  0  0  0  0  0  0
   20.0375   22.1675   24.9831 H   0  0  0  0  0  0  0  0  0  0  0  0
   21.7374   22.6120   24.7611 H   0  0  0  0  0  0  0  0  0  0  0  0
   20.5455   22.7977   23.0164 N   0  3  0  0  0  0  0  0  0  0  0  0
   19.7343   22.3742   22.5554 H   0  0  0  0  0  0  0  0  0  0  0  0
   21.3216   22.7737   22.3470 H   0  0  0  0  0  0  0  0  0  0  0  0
   20.3182   23.7852   23.1762 H   0  0  0  0  0  0  0  0  0  0  0  0
  1  2  1  0  0  0  0
  1  3  1  0  0  0  0
  1  4  1  0  0  0  0
  1  5  1  0  0  0  0
  5  6  1  0  0  0  0
  5  7  1  0  0  0  0
  5  8  1  0  0  0  0
  8  9  1  0  0  0  0
  8 10  1  0  0  0  0
  8 11  1  0  0  0  0
 11 12  1  0  0  0  0
 11 13  1  0  0  0  0
 11 14  1  0  0  0  0
 14 15  1  0  0  0  0
 14 16  1  0  0  0  0
 14 17  1  0  0  0  0
 17 18  1  0  0  0  0
 17 19  1  0  0  0  0
 17 20  1  0  0  0  0
 20 21  1  0  0  0  0
 20 22  1  0  0  0  0
 20 23  1  0  0  0  0
 23 24  1  0  0  0  0
 23 25  1  0  0  0  0
 23 26  1  0  0  0  0
M  END
> <VConfSearch Rank>
582

> <Conf_Id>
20

> <Delta U+W>
0.150

> <U+W>
-5.403

> <U>
47.845

> <W>
-53.248

> <W(PB)>
-55.599

> <W(SA)>
2.351

> <Valence>
2.258

> <Coulomb>
44.893

> <VdW>
0.694

> <VdW6>
-6.285

> <VdW12>
6.979

> <Bond>
0.149

> <Angle>
0.434

> <Pdih>
1.675

> <Idih>
0.000

> <Tether>
0.000

$$$$
VeraChem MOL file


 26 25  0  0  0  0  0  0  0  0999 V2000     
   22.9033   20.2480   20.4014 C   0  0  0  0  0  0  0  0  0  0  0  0
   23.6932   20.2400   21.1638 H   0  0  0  0  0  0  0  0  0  0  0  0
   22.9452   19.2963   19.8557 H   0  0  0  0  0  0  0  0  0  0  0  0
   23.1287   21.0540   19.6910 H   0  0  0  0  0  0  0  0  0  0  0  0
   21.5154   20.4592   21.0427 C   0  0  0  0  0  0  0  0  0  0  0  0
   20.7512   20.4966   20.2538 H   0  0  0  0  0  0  0  0  0  0  0  0
   21.4935   21.4330   21.5519 H   0  0  0  0  0  0  0  0  0  0  0  0
   21.1729   19.3373   22.0479 C   0  0  0  0  0  0  0  0  0  0  0  0
   21.1983   18.3658   21.5349 H   0  0  0  0  0  0  0  0  0  0  0  0
   21.9408   19.3022   22.8330 H   0  0  0  0  0  0  0  0  0  0  0  0
   19.7837   19.5453   22.6922 C   0  0  0  0  0  0  0  0  0  0  0  0
   19.0169   19.5815   21.9060 H   0  0  0  0  0  0  0  0  0  0  0  0
   19.7592   20.5168   23.2052 H   0  0  0  0  0  0  0  0  0  0  0  0
   19.4410   18.4223   23.6972 C   0  0  0  0  0  0  0  0  0  0  0  0
   19.4627   17.4512   23.1834 H   0  0  0  0  0  0  0  0  0  0  0  0
   20.2130   18.3876   24.4775 H   0  0  0  0  0  0  0  0  0  0  0  0
   18.0505   18.6330   24.3417 C   0  0  0  0  0  0  0  0  0  0  0  0
   17.2906   18.7038   23.5521 H   0  0  0  0  0  0  0  0  0  0  0  0
   18.0278   19.5873   24.8847 H   0  0  0  0  0  0  0  0  0  0  0  0
   17.6569   17.4888   25.2957 C   0  0  0  0  0  0  0  0  0  0  0  0
   16.6361   17.6496   25.6531 H   0  0  0  0  0  0  0  0  0  0  0  0
   17.6843   16.5364   24.7594 H   0  0  0  0  0  0  0  0  0  0  0  0
   18.5559   17.3707   26.5109 N   0  3  0  0  0  0  0  0  0  0  0  0
   18.5548   18.2298   27.0703 H   0  0  0  0  0  0  0  0  0  0  0  0
   19.5278   17.1816   26.2473 H   0  0  0  0  0  0  0  0  0  0  0  0
   18.2595   16.6091   27.1310 H   0  0  0  0  0  0  0  0  0  0  0  0
  1  2  1  0  0  0  0
  1  3  1  0  0  0  0
  1  4  1  0  0  0  0
  1  5  1  0  0  0  0
  5  6  1  0  0  0  0
  5  7  1  0  0  0  0
  5  8  1  0  0  0  0
  8  9  1  0  0  0  0
  8 10  1  0  0  0  0
  8 11  1  0  0  0  0
 11 12  1  0  0  0  0
 11 13  1  0  0  0  0
 11 14  1  0  0  0  0
 14 15  1  0  0  0  0
 14 16  1  0  0  0  0
 14 17  1  0  0  0  0
 17 18  1  0  0  0  0
 17 19  1  0  0  0  0
 17 20  1  0  0  0  0
 20 21  1  0  0  0  0
 20 22  1  0  0  0  0
 20 23  1  0  0  0  0
 23 24  1  0  0  0  0
 23 25  1  0  0  0  0
 23 26  1  0  0  0  0
M  END
> <VConfSearch Rank>
583

> <Conf_Id>
19

> <Delta U+W>
0.162

> <U+W>
-5.391

> <U>
47.845

> <W>
-53.235

> <W(PB)>
-55.585

> <W(SA)>
2.349

> <Valence>
2.258

> <Coulomb>
44.893

> <VdW>
0.694

> <VdW6>
-6.285

> <VdW12>
6.979

> <Bond>
0.149

> <Angle>
0.434

> <Pdih>
1.675

> <Idih>
0.000

> <Tether>
0.000

$$$$
VeraChem MOL file


 26 25  0  0  0  0  0  0  0  0999 V2000     
   20.4570   16.3273   26.5382 C   0  0  0  0  0  0  0  0  0  0  0  0
   20.3082   15.2655   26.3026 H   0  0  0  0  0  0  0  0  0  0  0  0
   21.5310   16.4968   26.6896 H   0  0  0  0  0  0  0  0  0  0  0  0
   19.9457   16.5365   27.4869 H   0  0  0  0  0  0  0  0  0  0  0  0
   19.9069   17.2286   25.4125 C   0  0  0  0  0  0  0  0  0  0  0  0
   20.0364   18.2796   25.7028 H   0  0  0  0  0  0  0  0  0  0  0  0
   18.8266   17.0581   25.3047 H   0  0  0  0  0  0  0  0  0  0  0  0
   20.6161   16.9546   24.0651 C   0  0  0  0  0  0  0  0  0  0  0  0
   21.6882   17.1760   24.1590 H   0  0  0  0  0  0  0  0  0  0  0  0
   20.5421   15.8828   23.8348 H   0  0  0  0  0  0  0  0  0  0  0  0
   20.0230   17.7531   22.8782 C   0  0  0  0  0  0  0  0  0  0  0  0
   18.9543   17.5192   22.7755 H   0  0  0  0  0  0  0  0  0  0  0  0
   20.5044   17.4080   21.9527 H   0  0  0  0  0  0  0  0  0  0  0  0
   20.2136   19.2838   23.0049 C   0  0  0  0  0  0  0  0  0  0  0  0
   19.6738   19.6582   23.8846 H   0  0  0  0  0  0  0  0  0  0  0  0
   21.2774   19.5101   23.1622 H   0  0  0  0  0  0  0  0  0  0  0  0
   19.7094   20.0301   21.7500 C   0  0  0  0  0  0  0  0  0  0  0  0
   18.6460   19.8073   21.5899 H   0  0  0  0  0  0  0  0  0  0  0  0
   20.2508   19.6726   20.8638 H   0  0  0  0  0  0  0  0  0  0  0  0
   19.8989   21.5512   21.8853 C   0  0  0  0  0  0  0  0  0  0  0  0
   19.3479   21.9148   22.7570 H   0  0  0  0  0  0  0  0  0  0  0  0
   20.9587   21.7789   22.0287 H   0  0  0  0  0  0  0  0  0  0  0  0
   19.4154   22.3198   20.6725 N   0  3  0  0  0  0  0  0  0  0  0  0
   18.4161   22.1699   20.4985 H   0  0  0  0  0  0  0  0  0  0  0  0
   19.9148   22.0434   19.8208 H   0  0  0  0  0  0  0  0  0  0  0  0
   19.5508   23.3306   20.7832 H   0  0  0  0  0  0  0  0  0  0  0  0
  1  2  1  0  0  0  0
  1  3  1  0  0  0  0
  1  4  1  0  0  0  0
  1  5  1  0  0  0  0
  5  6  1  0  0  0  0
  5  7  1  0  0  0  0
  5  8  1  0  0  0  0
  8  9  1  0  0  0  0
  8 10  1  0  0  0  0
  8 11  1  0  0  0  0
 11 12  1  0  0  0  0
 11 13  1  0  0  0  0
 11 14  1  0  0  0  0
 14 15  1  0  0  0  0
 14 16  1  0  0  0  0
 14 17  1  0  0  0  0
 17 18  1  0  0  0  0
 17 19  1  0  0  0  0
 17 20  1  0  0  0  0
 20 21  1  0  0  0  0
 20 22  1  0  0  0  0
 20 23  1  0  0  0  0
 23 24  1  0  0  0  0
 23 25  1  0  0  0  0
 23 26  1  0  0  0  0
M  END
> <VConfSearch Rank>
584

> <Conf_Id>
37

> <Delta U+W>
0.565

> <U+W>
-4.988

> <U>
48.035

> <W>
-53.022

> <W(PB)>
-55.379

> <W(SA)>
2.357

> <Valence>
2.701

> <Coulomb>
44.622

> <VdW>
0.712

> <VdW6>
-6.418

> <VdW12>
7.129

> <Bond>
0.168

> <Angle>
0.659

> <Pdih>
1.875

> <Idih>
0.000

> <Tether>
0.000

$$$$
VeraChem MOL file


 26 25  0  0  0  0  0  0  0  0999 V2000     
   19.7548   22.4970   25.0911 C   0  0  0  0  0  0  0  0  0  0  0  0
   19.6526   22.8354   24.0517 H   0  0  0  0  0  0  0  0  0  0  0  0
   18.7482   22.3432   25.5012 H   0  0  0  0  0  0  0  0  0  0  0  0
   20.2319   23.3037   25.6626 H   0  0  0  0  0  0  0  0  0  0  0  0
   20.5912   21.2024   25.1735 C   0  0  0  0  0  0  0  0  0  0  0  0
   20.7050   20.9090   26.2266 H   0  0  0  0  0  0  0  0  0  0  0  0
   21.6018   21.3959   24.7873 H   0  0  0  0  0  0  0  0  0  0  0  0
   19.9408   20.0493   24.3774 C   0  0  0  0  0  0  0  0  0  0  0  0
   18.9319   19.8584   24.7684 H   0  0  0  0  0  0  0  0  0  0  0  0
   19.8246   20.3588   23.3305 H   0  0  0  0  0  0  0  0  0  0  0  0
   20.7809   18.7519   24.4561 C   0  0  0  0  0  0  0  0  0  0  0  0
   20.9524   18.5008   25.5120 H   0  0  0  0  0  0  0  0  0  0  0  0
   21.7726   18.9249   24.0156 H   0  0  0  0  0  0  0  0  0  0  0  0
   20.1118   17.5375   23.7665 C   0  0  0  0  0  0  0  0  0  0  0  0
   20.7170   16.6435   23.9716 H   0  0  0  0  0  0  0  0  0  0  0  0
   19.1273   17.3534   24.2188 H   0  0  0  0  0  0  0  0  0  0  0  0
   19.9602   17.7003   22.2358 C   0  0  0  0  0  0  0  0  0  0  0  0
   20.9362   17.9345   21.7903 H   0  0  0  0  0  0  0  0  0  0  0  0
   19.2904   18.5393   22.0090 H   0  0  0  0  0  0  0  0  0  0  0  0
   19.3973   16.4220   21.5900 C   0  0  0  0  0  0  0  0  0  0  0  0
   20.0664   15.5815   21.7932 H   0  0  0  0  0  0  0  0  0  0  0  0
   18.4178   16.1936   22.0189 H   0  0  0  0  0  0  0  0  0  0  0  0
   19.2348   16.5374   20.0880 N   0  3  0  0  0  0  0  0  0  0  0  0
   20.1276   16.7255   19.6204 H   0  0  0  0  0  0  0  0  0  0  0  0
   18.5933   17.2944   19.8299 H   0  0  0  0  0  0  0  0  0  0  0  0
   18.8592   15.6752   19.6783 H   0  0  0  0  0  0  0  0  0  0  0  0
  1  2  1  0  0  0  0
  1  3  1  0  0  0  0
  1  4  1  0  0  0  0
  1  5  1  0  0  0  0
  5  6  1  0  0  0  0
  5  7  1  0  0  0  0
  5  8  1  0  0  0  0
  8  9  1  0  0  0  0
  8 10  1  0  0  0  0
  8 11  1  0  0  0  0
 11 12  1  0  0  0  0
 11 13  1  0  0  0  0
 11 14  1  0  0  0  0
 14 15  1  0  0  0  0
 14 16  1  0  0  0  0
 14 17  1  0  0  0  0
 17 18  1  0  0  0  0
 17 19  1  0  0  0  0
 17 20  1  0  0  0  0
 20 21  1  0  0  0  0
 20 22  1  0  0  0  0
 20 23  1  0  0  0  0
 23 24  1  0  0  0  0
 23 25  1  0  0  0  0
 23 26  1  0  0  0  0
M  END
> <VConfSearch Rank>
585

> <Conf_Id>
35

> <Delta U+W>
0.587

> <U+W>
-4.965

> <U>
48.214

> <W>
-53.179

> <W(PB)>
-55.527

> <W(SA)>
2.348

> <Valence>
2.697

> <Coulomb>
44.819

> <VdW>
0.699

> <VdW6>
-6.437

> <VdW12>
7.136

> <Bond>
0.168

> <Angle>
0.657

> <Pdih>
1.872

> <Idih>
0.000

> <Tether>
0.000

$$$$
VeraChem MOL file


 26 25  0  0  0  0  0  0  0  0999 V2000     
   23.1515   21.5398   22.7737 C   0  0  0  0  0  0  0  0  0  0  0  0
   22.5123   22.4113   22.5810 H   0  0  0  0  0  0  0  0  0  0  0  0
   23.2369   21.4121   23.8608 H   0  0  0  0  0  0  0  0  0  0  0  0
   24.1521   21.7624   22.3810 H   0  0  0  0  0  0  0  0  0  0  0  0
   22.5751   20.2714   22.1096 C   0  0  0  0  0  0  0  0  0  0  0  0
   23.2520   19.4248   22.2913 H   0  0  0  0  0  0  0  0  0  0  0  0
   22.5346   20.4168   21.0209 H   0  0  0  0  0  0  0  0  0  0  0  0
   21.1653   19.9356   22.6445 C   0  0  0  0  0  0  0  0  0  0  0  0
   21.2183   19.8021   23.7328 H   0  0  0  0  0  0  0  0  0  0  0  0
   20.4920   20.7838   22.4587 H   0  0  0  0  0  0  0  0  0  0  0  0
   20.5881   18.6615   21.9820 C   0  0  0  0  0  0  0  0  0  0  0  0
   21.2309   17.8004   22.2118 H   0  0  0  0  0  0  0  0  0  0  0  0
   20.6148   18.7831   20.8902 H   0  0  0  0  0  0  0  0  0  0  0  0
   19.1315   18.3489   22.4043 C   0  0  0  0  0  0  0  0  0  0  0  0
   18.4853   19.2030   22.1586 H   0  0  0  0  0  0  0  0  0  0  0  0
   18.7679   17.5044   21.8023 H   0  0  0  0  0  0  0  0  0  0  0  0
   18.9830   17.9969   23.9032 C   0  0  0  0  0  0  0  0  0  0  0  0
   19.2626   18.8577   24.5235 H   0  0  0  0  0  0  0  0  0  0  0  0
   19.6662   17.1763   24.1599 H   0  0  0  0  0  0  0  0  0  0  0  0
   17.5395   17.5846   24.2411 C   0  0  0  0  0  0  0  0  0  0  0  0
   16.8570   18.4047   24.0023 H   0  0  0  0  0  0  0  0  0  0  0  0
   17.2552   16.7150   23.6422 H   0  0  0  0  0  0  0  0  0  0  0  0
   17.3499   17.2284   25.7015 N   0  3  0  0  0  0  0  0  0  0  0  0
   17.5744   18.0153   26.3192 H   0  0  0  0  0  0  0  0  0  0  0  0
   17.9457   16.4433   25.9838 H   0  0  0  0  0  0  0  0  0  0  0  0
   16.3818   16.9564   25.9045 H   0  0  0  0  0  0  0  0  0  0  0  0
  1  2  1  0  0  0  0
  1  3  1  0  0  0  0
  1  4  1  0  0  0  0
  1  5  1  0  0  0  0
  5  6  1  0  0  0  0
  5  7  1  0  0  0  0
  5  8  1  0  0  0  0
  8  9  1  0  0  0  0
  8 10  1  0  0  0  0
  8 11  1  0  0  0  0
 11 12  1  0  0  0  0
 11 13  1  0  0  0  0
 11 14  1  0  0  0  0
 14 15  1  0  0  0  0
 14 16  1  0  0  0  0
 14 17  1  0  0  0  0
 17 18  1  0  0  0  0
 17 19  1  0  0  0  0
 17 20  1  0  0  0  0
 20 21  1  0  0  0  0
 20 22  1  0  0  0  0
 20 23  1  0  0  0  0
 23 24  1  0  0  0  0
 23 25  1  0  0  0  0
 23 26  1  0  0  0  0
M  END
> <VConfSearch Rank>
586

> <Conf_Id>
36

> <Delta U+W>
0.565

> <U+W>
-4.987

> <U>
48.214

> <W>
-53.201

> <W(PB)>
-55.543

> <W(SA)>
2.342

> <Valence>
2.697

> <Coulomb>
44.819

> <VdW>
0.698

> <VdW6>
-6.437

> <VdW12>
7.136

> <Bond>
0.168

> <Angle>
0.657

> <Pdih>
1.872

> <Idih>
0.000

> <Tether>
0.000

$$$$
VeraChem MOL file


 26 25  0  0  0  0  0  0  0  0999 V2000     
   16.7482   21.4175   24.5308 C   0  0  0  0  0  0  0  0  0  0  0  0
   16.6390   21.1500   25.5899 H   0  0  0  0  0  0  0  0  0  0  0  0
   16.5617   22.4950   24.4344 H   0  0  0  0  0  0  0  0  0  0  0  0
   15.9714   20.8890   23.9628 H   0  0  0  0  0  0  0  0  0  0  0  0
   18.1564   21.0594   24.0104 C   0  0  0  0  0  0  0  0  0  0  0  0
   18.9089   21.6282   24.5743 H   0  0  0  0  0  0  0  0  0  0  0  0
   18.2464   21.3693   22.9598 H   0  0  0  0  0  0  0  0  0  0  0  0
   18.4447   19.5469   24.1348 C   0  0  0  0  0  0  0  0  0  0  0  0
   18.3506   19.2417   25.1862 H   0  0  0  0  0  0  0  0  0  0  0  0
   17.6889   18.9824   23.5712 H   0  0  0  0  0  0  0  0  0  0  0  0
   19.8542   19.1843   23.6150 C   0  0  0  0  0  0  0  0  0  0  0  0
   20.6091   19.7474   24.1811 H   0  0  0  0  0  0  0  0  0  0  0  0
   19.9431   19.4977   22.5662 H   0  0  0  0  0  0  0  0  0  0  0  0
   20.1396   17.6683   23.7397 C   0  0  0  0  0  0  0  0  0  0  0  0
   19.9994   17.3592   24.7848 H   0  0  0  0  0  0  0  0  0  0  0  0
   19.4065   17.1030   23.1476 H   0  0  0  0  0  0  0  0  0  0  0  0
   21.5698   17.2810   23.2957 C   0  0  0  0  0  0  0  0  0  0  0  0
   21.7275   16.2126   23.4944 H   0  0  0  0  0  0  0  0  0  0  0  0
   22.3050   17.8257   23.9030 H   0  0  0  0  0  0  0  0  0  0  0  0
   21.8248   17.5579   21.8021 C   0  0  0  0  0  0  0  0  0  0  0  0
   21.0936   17.0149   21.1973 H   0  0  0  0  0  0  0  0  0  0  0  0
   21.7144   18.6262   21.5994 H   0  0  0  0  0  0  0  0  0  0  0  0
   23.2089   17.1399   21.3497 N   0  3  0  0  0  0  0  0  0  0  0  0
   23.3585   17.3324   20.3533 H   0  0  0  0  0  0  0  0  0  0  0  0
   23.3690   16.1365   21.4869 H   0  0  0  0  0  0  0  0  0  0  0  0
   23.9449   17.6357   21.8633 H   0  0  0  0  0  0  0  0  0  0  0  0
  1  2  1  0  0  0  0
  1  3  1  0  0  0  0
  1  4  1  0  0  0  0
  1  5  1  0  0  0  0
  5  6  1  0  0  0  0
  5  7  1  0  0  0  0
  5  8  1  0  0  0  0
  8  9  1  0  0  0  0
  8 10  1  0  0  0  0
  8 11  1  0  0  0  0
 11 12  1  0  0  0  0
 11 13  1  0  0  0  0
 11 14  1  0  0  0  0
 14 15  1  0  0  0  0
 14 16  1  0  0  0  0
 14 17  1  0  0  0  0
 17 18  1  0  0  0  0
 17 19  1  0  0  0  0
 17 20  1  0  0  0  0
 20 21  1  0  0  0  0
 20 22  1  0  0  0  0
 20 23  1  0  0  0  0
 23 24  1  0  0  0  0
 23 25  1  0  0  0  0
 23 26  1  0  0  0  0
M  END
> <VConfSearch Rank>
587

> <Conf_Id>
44

> <Delta U+W>
0.371

> <U+W>
-5.181

> <U>
48.002

> <W>
-53.183

> <W(PB)>
-55.533

> <W(SA)>
2.350

> <Valence>
2.459

> <Coulomb>
44.901

> <VdW>
0.643

> <VdW6>
-6.362

> <VdW12>
7.005

> <Bond>
0.151

> <Angle>
0.519

> <Pdih>
1.789

> <Idih>
0.000

> <Tether>
0.000

$$$$
VeraChem MOL file


 26 25  0  0  0  0  0  0  0  0999 V2000     
   23.4553   19.1297   21.5322 C   0  0  0  0  0  0  0  0  0  0  0  0
   23.8335   19.8835   22.2350 H   0  0  0  0  0  0  0  0  0  0  0  0
   24.3082   18.7544   20.9520 H   0  0  0  0  0  0  0  0  0  0  0  0
   22.7728   19.6247   20.8305 H   0  0  0  0  0  0  0  0  0  0  0  0
   22.7597   17.9704   22.2815 C   0  0  0  0  0  0  0  0  0  0  0  0
   23.5136   17.4291   22.8700 H   0  0  0  0  0  0  0  0  0  0  0  0
   22.3596   17.2480   21.5563 H   0  0  0  0  0  0  0  0  0  0  0  0
   21.6312   18.4375   23.2328 C   0  0  0  0  0  0  0  0  0  0  0  0
   21.2985   17.5684   23.8141 H   0  0  0  0  0  0  0  0  0  0  0  0
   22.0368   19.1581   23.9562 H   0  0  0  0  0  0  0  0  0  0  0  0
   20.4207   19.0626   22.4934 C   0  0  0  0  0  0  0  0  0  0  0  0
   20.0123   18.3409   21.7727 H   0  0  0  0  0  0  0  0  0  0  0  0
   20.7594   19.9264   21.9070 H   0  0  0  0  0  0  0  0  0  0  0  0
   19.2942   19.5431   23.4417 C   0  0  0  0  0  0  0  0  0  0  0  0
   19.7059   20.2541   24.1714 H   0  0  0  0  0  0  0  0  0  0  0  0
   18.5630   20.1036   22.8444 H   0  0  0  0  0  0  0  0  0  0  0  0
   18.5726   18.3904   24.1845 C   0  0  0  0  0  0  0  0  0  0  0  0
   19.2856   17.8529   24.8214 H   0  0  0  0  0  0  0  0  0  0  0  0
   18.1843   17.6610   23.4613 H   0  0  0  0  0  0  0  0  0  0  0  0
   17.4214   18.8894   25.0792 C   0  0  0  0  0  0  0  0  0  0  0  0
   17.0167   18.0492   25.6502 H   0  0  0  0  0  0  0  0  0  0  0  0
   17.8005   19.6313   25.7873 H   0  0  0  0  0  0  0  0  0  0  0  0
   16.2745   19.5151   24.3098 N   0  3  0  0  0  0  0  0  0  0  0  0
   16.5771   20.3371   23.7782 H   0  0  0  0  0  0  0  0  0  0  0  0
   15.5204   19.8222   24.9336 H   0  0  0  0  0  0  0  0  0  0  0  0
   15.8607   18.8571   23.6413 H   0  0  0  0  0  0  0  0  0  0  0  0
  1  2  1  0  0  0  0
  1  3  1  0  0  0  0
  1  4  1  0  0  0  0
  1  5  1  0  0  0  0
  5  6  1  0  0  0  0
  5  7  1  0  0  0  0
  5  8  1  0  0  0  0
  8  9  1  0  0  0  0
  8 10  1  0  0  0  0
  8 11  1  0  0  0  0
 11 12  1  0  0  0  0
 11 13  1  0  0  0  0
 11 14  1  0  0  0  0
 14 15  1  0  0  0  0
 14 16  1  0  0  0  0
 14 17  1  0  0  0  0
 17 18  1  0  0  0  0
 17 19  1  0  0  0  0
 17 20  1  0  0  0  0
 20 21  1  0  0  0  0
 20 22  1  0  0  0  0
 20 23  1  0  0  0  0
 23 24  1  0  0  0  0
 23 25  1  0  0  0  0
 23 26  1  0  0  0  0
M  END
> <VConfSearch Rank>
588

> <Conf_Id>
112

> <Delta U+W>
1.422

> <U+W>
-4.130

> <U>
49.323

> <W>
-53.453

> <W(PB)>
-55.749

> <W(SA)>
2.296

> <Valence>
3.408

> <Coulomb>
44.893

> <VdW>
1.021

> <VdW6>
-7.481

> <VdW12>
8.503

> <Bond>
0.239

> <Angle>
1.013

> <Pdih>
2.156

> <Idih>
0.000

> <Tether>
0.000

$$$$
VeraChem MOL file


 26 25  0  0  0  0  0  0  0  0999 V2000     
   19.3226   22.2995   22.0689 C   0  0  0  0  0  0  0  0  0  0  0  0
   19.0994   23.3672   21.9459 H   0  0  0  0  0  0  0  0  0  0  0  0
   20.4140   22.1914   22.0943 H   0  0  0  0  0  0  0  0  0  0  0  0
   18.9451   21.7732   21.1826 H   0  0  0  0  0  0  0  0  0  0  0  0
   18.6684   21.7551   23.3590 C   0  0  0  0  0  0  0  0  0  0  0  0
   17.5950   21.9897   23.3387 H   0  0  0  0  0  0  0  0  0  0  0  0
   19.0811   22.2796   24.2321 H   0  0  0  0  0  0  0  0  0  0  0  0
   18.8404   20.2272   23.5361 C   0  0  0  0  0  0  0  0  0  0  0  0
   18.2648   19.9109   24.4169 H   0  0  0  0  0  0  0  0  0  0  0  0
   18.3959   19.7148   22.6729 H   0  0  0  0  0  0  0  0  0  0  0  0
   20.3175   19.7928   23.7126 C   0  0  0  0  0  0  0  0  0  0  0  0
   20.7801   20.4099   24.4951 H   0  0  0  0  0  0  0  0  0  0  0  0
   20.8805   19.9885   22.7904 H   0  0  0  0  0  0  0  0  0  0  0  0
   20.4814   18.3030   24.1021 C   0  0  0  0  0  0  0  0  0  0  0  0
   21.5418   18.1221   24.3221 H   0  0  0  0  0  0  0  0  0  0  0  0
   19.9345   18.1040   25.0342 H   0  0  0  0  0  0  0  0  0  0  0  0
   20.0092   17.3214   23.0003 C   0  0  0  0  0  0  0  0  0  0  0  0
   20.5343   17.5308   22.0589 H   0  0  0  0  0  0  0  0  0  0  0  0
   18.9401   17.4698   22.8038 H   0  0  0  0  0  0  0  0  0  0  0  0
   20.2202   15.8454   23.3895 C   0  0  0  0  0  0  0  0  0  0  0  0
   19.7140   15.6382   24.3362 H   0  0  0  0  0  0  0  0  0  0  0  0
   19.7823   15.2024   22.6211 H   0  0  0  0  0  0  0  0  0  0  0  0
   21.6774   15.4538   23.5387 N   0  3  0  0  0  0  0  0  0  0  0  0
   22.1429   15.9949   24.2739 H   0  0  0  0  0  0  0  0  0  0  0  0
   22.2030   15.6053   22.6717 H   0  0  0  0  0  0  0  0  0  0  0  0
   21.7821   14.4631   23.7834 H   0  0  0  0  0  0  0  0  0  0  0  0
  1  2  1  0  0  0  0
  1  3  1  0  0  0  0
  1  4  1  0  0  0  0
  1  5  1  0  0  0  0
  5  6  1  0  0  0  0
  5  7  1  0  0  0  0
  5  8  1  0  0  0  0
  8  9  1  0  0  0  0
  8 10  1  0  0  0  0
  8 11  1  0  0  0  0
 11 12  1  0  0  0  0
 11 13  1  0  0  0  0
 11 14  1  0  0  0  0
 14 15  1  0  0  0  0
 14 16  1  0  0  0  0
 14 17  1  0  0  0  0
 17 18  1  0  0  0  0
 17 19  1  0  0  0  0
 17 20  1  0  0  0  0
 20 21  1  0  0  0  0
 20 22  1  0  0  0  0
 20 23  1  0  0  0  0
 23 24  1  0  0  0  0
 23 25  1  0  0  0  0
 23 26  1  0  0  0  0
M  END
> <VConfSearch Rank>
589

> <Conf_Id>
130

> <Delta U+W>
1.282

> <U+W>
-4.270

> <U>
49.153

> <W>
-53.422

> <W(PB)>
-55.725

> <W(SA)>
2.303

> <Valence>
3.298

> <Coulomb>
44.907

> <VdW>
0.948

> <VdW6>
-7.574

> <VdW12>
8.522

> <Bond>
0.229

> <Angle>
0.912

> <Pdih>
2.157

> <Idih>
0.000

> <Tether>
0.000

$$$$
VeraChem MOL file


 26 25  0  0  0  0  0  0  0  0999 V2000     
   20.3200   21.9633   24.7970 C   0  0  0  0  0  0  0  0  0  0  0  0
   21.2550   22.4106   24.4355 H   0  0  0  0  0  0  0  0  0  0  0  0
   19.8953   22.6367   25.5526 H   0  0  0  0  0  0  0  0  0  0  0  0
   20.5616   21.0169   25.2966 H   0  0  0  0  0  0  0  0  0  0  0  0
   19.3208   21.7520   23.6372 C   0  0  0  0  0  0  0  0  0  0  0  0
   19.0178   22.7342   23.2484 H   0  0  0  0  0  0  0  0  0  0  0  0
   18.4029   21.2854   24.0188 H   0  0  0  0  0  0  0  0  0  0  0  0
   19.9011   20.9171   22.4671 C   0  0  0  0  0  0  0  0  0  0  0  0
   19.1402   20.8361   21.6787 H   0  0  0  0  0  0  0  0  0  0  0  0
   20.7387   21.4699   22.0199 H   0  0  0  0  0  0  0  0  0  0  0  0
   20.3909   19.4943   22.8426 C   0  0  0  0  0  0  0  0  0  0  0  0
   21.2251   19.5615   23.5534 H   0  0  0  0  0  0  0  0  0  0  0  0
   20.8029   19.0298   21.9372 H   0  0  0  0  0  0  0  0  0  0  0  0
   19.2761   18.5898   23.4265 C   0  0  0  0  0  0  0  0  0  0  0  0
   18.8840   19.0384   24.3485 H   0  0  0  0  0  0  0  0  0  0  0  0
   18.4343   18.5364   22.7224 H   0  0  0  0  0  0  0  0  0  0  0  0
   19.7655   17.1598   23.7558 C   0  0  0  0  0  0  0  0  0  0  0  0
   18.9566   16.6147   24.2602 H   0  0  0  0  0  0  0  0  0  0  0  0
   20.6013   17.2102   24.4664 H   0  0  0  0  0  0  0  0  0  0  0  0
   20.1958   16.3725   22.5037 C   0  0  0  0  0  0  0  0  0  0  0  0
   19.3638   16.3237   21.7961 H   0  0  0  0  0  0  0  0  0  0  0  0
   21.0331   16.8787   22.0168 H   0  0  0  0  0  0  0  0  0  0  0  0
   20.6286   14.9544   22.8153 N   0  3  0  0  0  0  0  0  0  0  0  0
   21.4275   14.9311   23.4575 H   0  0  0  0  0  0  0  0  0  0  0  0
   20.9107   14.4476   21.9691 H   0  0  0  0  0  0  0  0  0  0  0  0
   19.8754   14.4120   23.2507 H   0  0  0  0  0  0  0  0  0  0  0  0
  1  2  1  0  0  0  0
  1  3  1  0  0  0  0
  1  4  1  0  0  0  0
  1  5  1  0  0  0  0
  5  6  1  0  0  0  0
  5  7  1  0  0  0  0
  5  8  1  0  0  0  0
  8  9  1  0  0  0  0
  8 10  1  0  0  0  0
  8 11  1  0  0  0  0
 11 12  1  0  0  0  0
 11 13  1  0  0  0  0
 11 14  1  0  0  0  0
 14 15  1  0  0  0  0
 14 16  1  0  0  0  0
 14 17  1  0  0  0  0
 17 18  1  0  0  0  0
 17 19  1  0  0  0  0
 17 20  1  0  0  0  0
 20 21  1  0  0  0  0
 20 22  1  0  0  0  0
 20 23  1  0  0  0  0
 23 24  1  0  0  0  0
 23 25  1  0  0  0  0
 23 26  1  0  0  0  0
M  END
> <VConfSearch Rank>
590

> <Conf_Id>
111

> <Delta U+W>
1.290

> <U+W>
-4.262

> <U>
49.209

> <W>
-53.471

> <W(PB)>
-55.745

> <W(SA)>
2.274

> <Valence>
3.465

> <Coulomb>
44.958

> <VdW>
0.786

> <VdW6>
-7.903

> <VdW12>
8.689

> <Bond>
0.237

> <Angle>
1.212

> <Pdih>
2.015

> <Idih>
0.000

> <Tether>
0.000

$$$$
VeraChem MOL file


 26 25  0  0  0  0  0  0  0  0999 V2000     
   17.2637   16.3087   24.4348 C   0  0  0  0  0  0  0  0  0  0  0  0
   17.5351   16.4176   25.4930 H   0  0  0  0  0  0  0  0  0  0  0  0
   16.2061   16.5813   24.3232 H   0  0  0  0  0  0  0  0  0  0  0  0
   17.3683   15.2492   24.1673 H   0  0  0  0  0  0  0  0  0  0  0  0
   18.1615   17.1882   23.5389 C   0  0  0  0  0  0  0  0  0  0  0  0
   17.8861   17.0357   22.4860 H   0  0  0  0  0  0  0  0  0  0  0  0
   19.2034   16.8590   23.6469 H   0  0  0  0  0  0  0  0  0  0  0  0
   18.0340   18.6870   23.9006 C   0  0  0  0  0  0  0  0  0  0  0  0
   16.9740   18.9739   23.8633 H   0  0  0  0  0  0  0  0  0  0  0  0
   18.3599   18.8468   24.9376 H   0  0  0  0  0  0  0  0  0  0  0  0
   18.8284   19.6227   22.9565 C   0  0  0  0  0  0  0  0  0  0  0  0
   18.5862   20.6630   23.2142 H   0  0  0  0  0  0  0  0  0  0  0  0
   18.4894   19.4745   21.9219 H   0  0  0  0  0  0  0  0  0  0  0  0
   20.3616   19.4277   23.0377 C   0  0  0  0  0  0  0  0  0  0  0  0
   20.6827   19.5178   24.0839 H   0  0  0  0  0  0  0  0  0  0  0  0
   20.6290   18.4159   22.7057 H   0  0  0  0  0  0  0  0  0  0  0  0
   21.1158   20.4594   22.1657 C   0  0  0  0  0  0  0  0  0  0  0  0
   20.8904   21.4784   22.5073 H   0  0  0  0  0  0  0  0  0  0  0  0
   20.7583   20.3899   21.1296 H   0  0  0  0  0  0  0  0  0  0  0  0
   22.6412   20.2414   22.1708 C   0  0  0  0  0  0  0  0  0  0  0  0
   22.8692   19.2259   21.8360 H   0  0  0  0  0  0  0  0  0  0  0  0
   23.1102   20.9430   21.4754 H   0  0  0  0  0  0  0  0  0  0  0  0
   23.2821   20.4438   23.5299 N   0  3  0  0  0  0  0  0  0  0  0  0
   24.2978   20.3041   23.4964 H   0  0  0  0  0  0  0  0  0  0  0  0
   22.9119   19.7890   24.2256 H   0  0  0  0  0  0  0  0  0  0  0  0
   23.1219   21.3906   23.8890 H   0  0  0  0  0  0  0  0  0  0  0  0
  1  2  1  0  0  0  0
  1  3  1  0  0  0  0
  1  4  1  0  0  0  0
  1  5  1  0  0  0  0
  5  6  1  0  0  0  0
  5  7  1  0  0  0  0
  5  8  1  0  0  0  0
  8  9  1  0  0  0  0
  8 10  1  0  0  0  0
  8 11  1  0  0  0  0
 11 12  1  0  0  0  0
 11 13  1  0  0  0  0
 11 14  1  0  0  0  0
 14 15  1  0  0  0  0
 14 16  1  0  0  0  0
 14 17  1  0  0  0  0
 17 18  1  0  0  0  0
 17 19  1  0  0  0  0
 17 20  1  0  0  0  0
 20 21  1  0  0  0  0
 20 22  1  0  0  0  0
 20 23  1  0  0  0  0
 23 24  1  0  0  0  0
 23 25  1  0  0  0  0
 23 26  1  0  0  0  0
M  END
> <VConfSearch Rank>
591

> <Conf_Id>
105

> <Delta U+W>
0.736

> <U+W>
-4.817

> <U>
48.735

> <W>
-53.552

> <W(PB)>
-55.889

> <W(SA)>
2.337

> <Valence>
2.803

> <Coulomb>
45.123

> <VdW>
0.809

> <VdW6>
-6.953

> <VdW12>
7.761

> <Bond>
0.188

> <Angle>
0.699

> <Pdih>
1.917

> <Idih>
0.000

> <Tether>
0.000

$$$$
VeraChem MOL file


 26 25  0  0  0  0  0  0  0  0999 V2000     
   16.7024   17.5311   24.2660 C   0  0  0  0  0  0  0  0  0  0  0  0
   16.0646   18.0232   25.0118 H   0  0  0  0  0  0  0  0  0  0  0  0
   16.3496   17.8229   23.2682 H   0  0  0  0  0  0  0  0  0  0  0  0
   16.5650   16.4468   24.3684 H   0  0  0  0  0  0  0  0  0  0  0  0
   18.1846   17.9136   24.4636 C   0  0  0  0  0  0  0  0  0  0  0  0
   18.7932   17.3723   23.7271 H   0  0  0  0  0  0  0  0  0  0  0  0
   18.5172   17.5832   25.4575 H   0  0  0  0  0  0  0  0  0  0  0  0
   18.4043   19.4379   24.3196 C   0  0  0  0  0  0  0  0  0  0  0  0
   18.1109   19.7623   23.3126 H   0  0  0  0  0  0  0  0  0  0  0  0
   17.7304   19.9618   25.0115 H   0  0  0  0  0  0  0  0  0  0  0  0
   19.8573   19.8882   24.6216 C   0  0  0  0  0  0  0  0  0  0  0  0
   20.0846   19.6691   25.6740 H   0  0  0  0  0  0  0  0  0  0  0  0
   19.9148   20.9810   24.5240 H   0  0  0  0  0  0  0  0  0  0  0  0
   20.9541   19.2462   23.7327 C   0  0  0  0  0  0  0  0  0  0  0  0
   21.9265   19.6368   24.0606 H   0  0  0  0  0  0  0  0  0  0  0  0
   20.9912   18.1625   23.9057 H   0  0  0  0  0  0  0  0  0  0  0  0
   20.7699   19.5287   22.2206 C   0  0  0  0  0  0  0  0  0  0  0  0
   20.7126   20.6109   22.0438 H   0  0  0  0  0  0  0  0  0  0  0  0
   19.8191   19.1024   21.8772 H   0  0  0  0  0  0  0  0  0  0  0  0
   21.8981   18.9256   21.3616 C   0  0  0  0  0  0  0  0  0  0  0  0
   21.9702   17.8511   21.5501 H   0  0  0  0  0  0  0  0  0  0  0  0
   21.6645   19.0711   20.3034 H   0  0  0  0  0  0  0  0  0  0  0  0
   23.2595   19.5416   21.6191 N   0  3  0  0  0  0  0  0  0  0  0  0
   23.5596   19.4081   22.5896 H   0  0  0  0  0  0  0  0  0  0  0  0
   23.2612   20.5505   21.4373 H   0  0  0  0  0  0  0  0  0  0  0  0
   23.9835   19.1282   21.0215 H   0  0  0  0  0  0  0  0  0  0  0  0
  1  2  1  0  0  0  0
  1  3  1  0  0  0  0
  1  4  1  0  0  0  0
  1  5  1  0  0  0  0
  5  6  1  0  0  0  0
  5  7  1  0  0  0  0
  5  8  1  0  0  0  0
  8  9  1  0  0  0  0
  8 10  1  0  0  0  0
  8 11  1  0  0  0  0
 11 12  1  0  0  0  0
 11 13  1  0  0  0  0
 11 14  1  0  0  0  0
 14 15  1  0  0  0  0
 14 16  1  0  0  0  0
 14 17  1  0  0  0  0
 17 18  1  0  0  0  0
 17 19  1  0  0  0  0
 17 20  1  0  0  0  0
 20 21  1  0  0  0  0
 20 22  1  0  0  0  0
 20 23  1  0  0  0  0
 23 24  1  0  0  0  0
 23 25  1  0  0  0  0
 23 26  1  0  0  0  0
M  END
> <VConfSearch Rank>
592

> <Conf_Id>
144

> <Delta U+W>
1.073

> <U+W>
-4.479

> <U>
49.231

> <W>
-53.710

> <W(PB)>
-55.983

> <W(SA)>
2.273

> <Valence>
3.276

> <Coulomb>
45.175

> <VdW>
0.779

> <VdW6>
-7.944

> <VdW12>
8.723

> <Bond>
0.239

> <Angle>
1.155

> <Pdih>
1.883

> <Idih>
0.000

> <Tether>
0.000

$$$$
VeraChem MOL file


 26 25  0  0  0  0  0  0  0  0999 V2000     
   21.1815   16.8364   26.0636 C   0  0  0  0  0  0  0  0  0  0  0  0
   21.1051   17.7186   26.7106 H   0  0  0  0  0  0  0  0  0  0  0  0
   21.1036   15.9500   26.7064 H   0  0  0  0  0  0  0  0  0  0  0  0
   22.1788   16.8310   25.6049 H   0  0  0  0  0  0  0  0  0  0  0  0
   20.0736   16.8205   24.9857 C   0  0  0  0  0  0  0  0  0  0  0  0
   19.0865   16.8609   25.4672 H   0  0  0  0  0  0  0  0  0  0  0  0
   20.1162   15.8600   24.4533 H   0  0  0  0  0  0  0  0  0  0  0  0
   20.2002   17.9648   23.9509 C   0  0  0  0  0  0  0  0  0  0  0  0
   21.1959   17.9329   23.4877 H   0  0  0  0  0  0  0  0  0  0  0  0
   19.4720   17.7739   23.1527 H   0  0  0  0  0  0  0  0  0  0  0  0
   19.9401   19.3699   24.5487 C   0  0  0  0  0  0  0  0  0  0  0  0
   20.5962   19.5274   25.4140 H   0  0  0  0  0  0  0  0  0  0  0  0
   18.9119   19.4169   24.9327 H   0  0  0  0  0  0  0  0  0  0  0  0
   20.1755   20.5428   23.5615 C   0  0  0  0  0  0  0  0  0  0  0  0
   19.9984   21.4778   24.1109 H   0  0  0  0  0  0  0  0  0  0  0  0
   21.2309   20.5732   23.2567 H   0  0  0  0  0  0  0  0  0  0  0  0
   19.2617   20.5391   22.3101 C   0  0  0  0  0  0  0  0  0  0  0  0
   19.1205   21.5761   21.9772 H   0  0  0  0  0  0  0  0  0  0  0  0
   18.2650   20.1589   22.5708 H   0  0  0  0  0  0  0  0  0  0  0  0
   19.8525   19.7366   21.1343 C   0  0  0  0  0  0  0  0  0  0  0  0
   20.8198   20.1607   20.8518 H   0  0  0  0  0  0  0  0  0  0  0  0
   20.0094   18.6964   21.4256 H   0  0  0  0  0  0  0  0  0  0  0  0
   18.9642   19.7449   19.9071 N   0  3  0  0  0  0  0  0  0  0  0  0
   18.8030   20.6957   19.5588 H   0  0  0  0  0  0  0  0  0  0  0  0
   18.0447   19.3337   20.0979 H   0  0  0  0  0  0  0  0  0  0  0  0
   19.3763   19.2103   19.1346 H   0  0  0  0  0  0  0  0  0  0  0  0
  1  2  1  0  0  0  0
  1  3  1  0  0  0  0
  1  4  1  0  0  0  0
  1  5  1  0  0  0  0
  5  6  1  0  0  0  0
  5  7  1  0  0  0  0
  5  8  1  0  0  0  0
  8  9  1  0  0  0  0
  8 10  1  0  0  0  0
  8 11  1  0  0  0  0
 11 12  1  0  0  0  0
 11 13  1  0  0  0  0
 11 14  1  0  0  0  0
 14 15  1  0  0  0  0
 14 16  1  0  0  0  0
 14 17  1  0  0  0  0
 17 18  1  0  0  0  0
 17 19  1  0  0  0  0
 17 20  1  0  0  0  0
 20 21  1  0  0  0  0
 20 22  1  0  0  0  0
 20 23  1  0  0  0  0
 23 24  1  0  0  0  0
 23 25  1  0  0  0  0
 23 26  1  0  0  0  0
M  END
> <VConfSearch Rank>
593

> <Conf_Id>
93

> <Delta U+W>
3.253

> <U+W>
-2.300

> <U>
51.609

> <W>
-53.909

> <W(PB)>
-56.178

> <W(SA)>
2.270

> <Valence>
5.204

> <Coulomb>
45.645

> <VdW>
0.760

> <VdW6>
-7.997

> <VdW12>
8.758

> <Bond>
0.240

> <Angle>
1.456

> <Pdih>
3.507

> <Idih>
0.000

> <Tether>
0.000

$$$$
VeraChem MOL file


 26 25  0  0  0  0  0  0  0  0999 V2000     
   17.4255   19.2053   20.7414 C   0  0  0  0  0  0  0  0  0  0  0  0
   17.9799   18.4739   20.1409 H   0  0  0  0  0  0  0  0  0  0  0  0
   16.7467   18.6590   21.4091 H   0  0  0  0  0  0  0  0  0  0  0  0
   16.8113   19.7985   20.0515 H   0  0  0  0  0  0  0  0  0  0  0  0
   18.3754   20.1233   21.5441 C   0  0  0  0  0  0  0  0  0  0  0  0
   17.7790   20.9135   22.0213 H   0  0  0  0  0  0  0  0  0  0  0  0
   19.0669   20.6326   20.8584 H   0  0  0  0  0  0  0  0  0  0  0  0
   19.1761   19.3789   22.6401 C   0  0  0  0  0  0  0  0  0  0  0  0
   19.6928   20.1339   23.2456 H   0  0  0  0  0  0  0  0  0  0  0  0
   18.4814   18.8543   23.3103 H   0  0  0  0  0  0  0  0  0  0  0  0
   20.2186   18.3827   22.0743 C   0  0  0  0  0  0  0  0  0  0  0  0
   20.9579   18.9316   21.4750 H   0  0  0  0  0  0  0  0  0  0  0  0
   19.7242   17.6863   21.3854 H   0  0  0  0  0  0  0  0  0  0  0  0
   20.9514   17.5385   23.1495 C   0  0  0  0  0  0  0  0  0  0  0  0
   20.2328   16.8998   23.6817 H   0  0  0  0  0  0  0  0  0  0  0  0
   21.6281   16.8500   22.6245 H   0  0  0  0  0  0  0  0  0  0  0  0
   21.7889   18.3557   24.1653 C   0  0  0  0  0  0  0  0  0  0  0  0
   22.2386   19.2268   23.6706 H   0  0  0  0  0  0  0  0  0  0  0  0
   22.6231   17.7317   24.5129 H   0  0  0  0  0  0  0  0  0  0  0  0
   20.9773   18.7977   25.3988 C   0  0  0  0  0  0  0  0  0  0  0  0
   20.1349   19.4218   25.0951 H   0  0  0  0  0  0  0  0  0  0  0  0
   20.5811   17.9165   25.9106 H   0  0  0  0  0  0  0  0  0  0  0  0
   21.8007   19.5851   26.3974 N   0  3  0  0  0  0  0  0  0  0  0  0
   22.5947   19.0411   26.7508 H   0  0  0  0  0  0  0  0  0  0  0  0
   21.2449   19.8657   27.2127 H   0  0  0  0  0  0  0  0  0  0  0  0
   22.1822   20.4432   25.9862 H   0  0  0  0  0  0  0  0  0  0  0  0
  1  2  1  0  0  0  0
  1  3  1  0  0  0  0
  1  4  1  0  0  0  0
  1  5  1  0  0  0  0
  5  6  1  0  0  0  0
  5  7  1  0  0  0  0
  5  8  1  0  0  0  0
  8  9  1  0  0  0  0
  8 10  1  0  0  0  0
  8 11  1  0  0  0  0
 11 12  1  0  0  0  0
 11 13  1  0  0  0  0
 11 14  1  0  0  0  0
 14 15  1  0  0  0  0
 14 16  1  0  0  0  0
 14 17  1  0  0  0  0
 17 18  1  0  0  0  0
 17 19  1  0  0  0  0
 17 20  1  0  0  0  0
 20 21  1  0  0  0  0
 20 22  1  0  0  0  0
 20 23  1  0  0  0  0
 23 24  1  0  0  0  0
 23 25  1  0  0  0  0
 23 26  1  0  0  0  0
M  END
> <VConfSearch Rank>
594

> <Conf_Id>
94

> <Delta U+W>
3.247

> <U+W>
-2.305

> <U>
51.609

> <W>
-53.914

> <W(PB)>
-56.221

> <W(SA)>
2.307

> <Valence>
5.204

> <Coulomb>
45.645

> <VdW>
0.760

> <VdW6>
-7.997

> <VdW12>
8.757

> <Bond>
0.240

> <Angle>
1.456

> <Pdih>
3.508

> <Idih>
0.000

> <Tether>
0.000

$$$$
VeraChem MOL file


 26 25  0  0  0  0  0  0  0  0999 V2000     
   22.1604   22.4706   23.5768 C   0  0  0  0  0  0  0  0  0  0  0  0
   21.8383   22.8695   24.5476 H   0  0  0  0  0  0  0  0  0  0  0  0
   23.1089   21.9377   23.7237 H   0  0  0  0  0  0  0  0  0  0  0  0
   22.3515   23.3211   22.9096 H   0  0  0  0  0  0  0  0  0  0  0  0
   21.0872   21.5377   22.9768 C   0  0  0  0  0  0  0  0  0  0  0  0
   21.4225   21.1821   21.9924 H   0  0  0  0  0  0  0  0  0  0  0  0
   20.1617   22.1066   22.8099 H   0  0  0  0  0  0  0  0  0  0  0  0
   20.7989   20.3310   23.8971 C   0  0  0  0  0  0  0  0  0  0  0  0
   21.7271   19.7667   24.0625 H   0  0  0  0  0  0  0  0  0  0  0  0
   20.4668   20.6918   24.8804 H   0  0  0  0  0  0  0  0  0  0  0  0
   19.7242   19.3947   23.2997 C   0  0  0  0  0  0  0  0  0  0  0  0
   20.0594   19.0443   22.3144 H   0  0  0  0  0  0  0  0  0  0  0  0
   18.7956   19.9594   23.1381 H   0  0  0  0  0  0  0  0  0  0  0  0
   19.4390   18.1857   24.2227 C   0  0  0  0  0  0  0  0  0  0  0  0
   20.3589   17.6037   24.3677 H   0  0  0  0  0  0  0  0  0  0  0  0
   19.1505   18.5526   25.2175 H   0  0  0  0  0  0  0  0  0  0  0  0
   18.3112   17.2658   23.6914 C   0  0  0  0  0  0  0  0  0  0  0  0
   17.3752   17.8372   23.6338 H   0  0  0  0  0  0  0  0  0  0  0  0
   18.1322   16.4574   24.4127 H   0  0  0  0  0  0  0  0  0  0  0  0
   18.6013   16.6512   22.3069 C   0  0  0  0  0  0  0  0  0  0  0  0
   17.7494   16.0407   21.9954 H   0  0  0  0  0  0  0  0  0  0  0  0
   18.7357   17.4468   21.5696 H   0  0  0  0  0  0  0  0  0  0  0  0
   19.8349   15.7707   22.2788 N   0  3  0  0  0  0  0  0  0  0  0  0
   19.7563   14.9852   22.9328 H   0  0  0  0  0  0  0  0  0  0  0  0
   20.6781   16.2944   22.5332 H   0  0  0  0  0  0  0  0  0  0  0  0
   19.9969   15.3711   21.3481 H   0  0  0  0  0  0  0  0  0  0  0  0
  1  2  1  0  0  0  0
  1  3  1  0  0  0  0
  1  4  1  0  0  0  0
  1  5  1  0  0  0  0
  5  6  1  0  0  0  0
  5  7  1  0  0  0  0
  5  8  1  0  0  0  0
  8  9  1  0  0  0  0
  8 10  1  0  0  0  0
  8 11  1  0  0  0  0
 11 12  1  0  0  0  0
 11 13  1  0  0  0  0
 11 14  1  0  0  0  0
 14 15  1  0  0  0  0
 14 16  1  0  0  0  0
 14 17  1  0  0  0  0
 17 18  1  0  0  0  0
 17 19  1  0  0  0  0
 17 20  1  0  0  0  0
 20 21  1  0  0  0  0
 20 22  1  0  0  0  0
 20 23  1  0  0  0  0
 23 24  1  0  0  0  0
 23 25  1  0  0  0  0
 23 26  1  0  0  0  0
M  END
> <VConfSearch Rank>
595

> <Conf_Id>
83

> <Delta U+W>
0.559

> <U+W>
-4.994

> <U>
48.668

> <W>
-53.661

> <W(PB)>
-55.972

> <W(SA)>
2.311

> <Valence>
2.543

> <Coulomb>
45.478

> <VdW>
0.646

> <VdW6>
-7.096

> <VdW12>
7.742

> <Bond>
0.176

> <Angle>
0.630

> <Pdih>
1.738

> <Idih>
0.000

> <Tether>
0.000

$$$$
VeraChem MOL file


 26 25  0  0  0  0  0  0  0  0999 V2000     
   16.9372   16.6332   22.9305 C   0  0  0  0  0  0  0  0  0  0  0  0
   16.2382   16.5849   23.7757 H   0  0  0  0  0  0  0  0  0  0  0  0
   16.4523   17.1884   22.1170 H   0  0  0  0  0  0  0  0  0  0  0  0
   17.1135   15.6078   22.5805 H   0  0  0  0  0  0  0  0  0  0  0  0
   18.2643   17.3034   23.3449 C   0  0  0  0  0  0  0  0  0  0  0  0
   18.9496   17.2956   22.4871 H   0  0  0  0  0  0  0  0  0  0  0  0
   18.7395   16.7101   24.1386 H   0  0  0  0  0  0  0  0  0  0  0  0
   18.0413   18.7526   23.8383 C   0  0  0  0  0  0  0  0  0  0  0  0
   17.6162   19.3590   23.0266 H   0  0  0  0  0  0  0  0  0  0  0  0
   17.2914   18.7442   24.6413 H   0  0  0  0  0  0  0  0  0  0  0  0
   19.3260   19.4305   24.3749 C   0  0  0  0  0  0  0  0  0  0  0  0
   19.7424   18.8310   25.1962 H   0  0  0  0  0  0  0  0  0  0  0  0
   19.0499   20.4006   24.8108 H   0  0  0  0  0  0  0  0  0  0  0  0
   20.4076   19.6543   23.2907 C   0  0  0  0  0  0  0  0  0  0  0  0
   20.7433   18.6864   22.8983 H   0  0  0  0  0  0  0  0  0  0  0  0
   19.9727   20.2092   22.4477 H   0  0  0  0  0  0  0  0  0  0  0  0
   21.6226   20.4336   23.8474 C   0  0  0  0  0  0  0  0  0  0  0  0
   22.0819   19.8744   24.6735 H   0  0  0  0  0  0  0  0  0  0  0  0
   21.2809   21.3889   24.2677 H   0  0  0  0  0  0  0  0  0  0  0  0
   22.6856   20.7281   22.7714 C   0  0  0  0  0  0  0  0  0  0  0  0
   22.2293   21.2779   21.9438 H   0  0  0  0  0  0  0  0  0  0  0  0
   23.4736   21.3522   23.2018 H   0  0  0  0  0  0  0  0  0  0  0  0
   23.3426   19.4846   22.2050 N   0  3  0  0  0  0  0  0  0  0  0  0
   22.6616   18.8689   21.7500 H   0  0  0  0  0  0  0  0  0  0  0  0
   23.8094   18.9350   22.9338 H   0  0  0  0  0  0  0  0  0  0  0  0
   24.0538   19.7162   21.5030 H   0  0  0  0  0  0  0  0  0  0  0  0
  1  2  1  0  0  0  0
  1  3  1  0  0  0  0
  1  4  1  0  0  0  0
  1  5  1  0  0  0  0
  5  6  1  0  0  0  0
  5  7  1  0  0  0  0
  5  8  1  0  0  0  0
  8  9  1  0  0  0  0
  8 10  1  0  0  0  0
  8 11  1  0  0  0  0
 11 12  1  0  0  0  0
 11 13  1  0  0  0  0
 11 14  1  0  0  0  0
 14 15  1  0  0  0  0
 14 16  1  0  0  0  0
 14 17  1  0  0  0  0
 17 18  1  0  0  0  0
 17 19  1  0  0  0  0
 17 20  1  0  0  0  0
 20 21  1  0  0  0  0
 20 22  1  0  0  0  0
 20 23  1  0  0  0  0
 23 24  1  0  0  0  0
 23 25  1  0  0  0  0
 23 26  1  0  0  0  0
M  END
> <VConfSearch Rank>
596

> <Conf_Id>
18

> <Delta U+W>
0.759

> <U+W>
-4.793

> <U>
48.945

> <W>
-53.738

> <W(PB)>
-56.051

> <W(SA)>
2.313

> <Valence>
2.802

> <Coulomb>
45.335

> <VdW>
0.807

> <VdW6>
-6.962

> <VdW12>
7.769

> <Bond>
0.189

> <Angle>
0.696

> <Pdih>
1.917

> <Idih>
0.000

> <Tether>
0.000

$$$$
VeraChem MOL file


 26 25  0  0  0  0  0  0  0  0999 V2000     
   21.3546   20.6752   20.0600 C   0  0  0  0  0  0  0  0  0  0  0  0
   20.7249   21.5720   20.1274 H   0  0  0  0  0  0  0  0  0  0  0  0
   22.4053   20.9935   20.0721 H   0  0  0  0  0  0  0  0  0  0  0  0
   21.1587   20.1978   19.0912 H   0  0  0  0  0  0  0  0  0  0  0  0
   21.0563   19.6999   21.2185 C   0  0  0  0  0  0  0  0  0  0  0  0
   21.6794   18.8015   21.1076 H   0  0  0  0  0  0  0  0  0  0  0  0
   20.0103   19.3735   21.1479 H   0  0  0  0  0  0  0  0  0  0  0  0
   21.3212   20.3529   22.5957 C   0  0  0  0  0  0  0  0  0  0  0  0
   22.3477   20.7444   22.6130 H   0  0  0  0  0  0  0  0  0  0  0  0
   20.6590   21.2196   22.7284 H   0  0  0  0  0  0  0  0  0  0  0  0
   21.1480   19.3799   23.7879 C   0  0  0  0  0  0  0  0  0  0  0  0
   21.4716   19.8930   24.7040 H   0  0  0  0  0  0  0  0  0  0  0  0
   21.8211   18.5206   23.6618 H   0  0  0  0  0  0  0  0  0  0  0  0
   19.6945   18.8822   23.9752 C   0  0  0  0  0  0  0  0  0  0  0  0
   19.0179   19.7450   24.0485 H   0  0  0  0  0  0  0  0  0  0  0  0
   19.3849   18.3058   23.0946 H   0  0  0  0  0  0  0  0  0  0  0  0
   19.5491   18.0054   25.2416 C   0  0  0  0  0  0  0  0  0  0  0  0
   19.8884   18.5730   26.1183 H   0  0  0  0  0  0  0  0  0  0  0  0
   20.2013   17.1251   25.1667 H   0  0  0  0  0  0  0  0  0  0  0  0
   18.0975   17.5510   25.4884 C   0  0  0  0  0  0  0  0  0  0  0  0
   18.0432   17.0114   26.4379 H   0  0  0  0  0  0  0  0  0  0  0  0
   17.4444   18.4253   25.5554 H   0  0  0  0  0  0  0  0  0  0  0  0
   17.5514   16.6370   24.4089 N   0  3  0  0  0  0  0  0  0  0  0  0
   18.1120   15.7841   24.3128 H   0  0  0  0  0  0  0  0  0  0  0  0
   17.5382   17.0964   23.4932 H   0  0  0  0  0  0  0  0  0  0  0  0
   16.5898   16.3421   24.6107 H   0  0  0  0  0  0  0  0  0  0  0  0
  1  2  1  0  0  0  0
  1  3  1  0  0  0  0
  1  4  1  0  0  0  0
  1  5  1  0  0  0  0
  5  6  1  0  0  0  0
  5  7  1  0  0  0  0
  5  8  1  0  0  0  0
  8  9  1  0  0  0  0
  8 10  1  0  0  0  0
  8 11  1  0  0  0  0
 11 12  1  0  0  0  0
 11 13  1  0  0  0  0
 11 14  1  0  0  0  0
 14 15  1  0  0  0  0
 14 16  1  0  0  0  0
 14 17  1  0  0  0  0
 17 18  1  0  0  0  0
 17 19  1  0  0  0  0
 17 20  1  0  0  0  0
 20 21  1  0  0  0  0
 20 22  1  0  0  0  0
 20 23  1  0  0  0  0
 23 24  1  0  0  0  0
 23 25  1  0  0  0  0
 23 26  1  0  0  0  0
M  END
> <VConfSearch Rank>
597

> <Conf_Id>
17

> <Delta U+W>
0.843

> <U+W>
-4.709

> <U>
48.945

> <W>
-53.653

> <W(PB)>
-55.991

> <W(SA)>
2.338

> <Valence>
2.802

> <Coulomb>
45.335

> <VdW>
0.807

> <VdW6>
-6.962

> <VdW12>
7.769

> <Bond>
0.189

> <Angle>
0.696

> <Pdih>
1.917

> <Idih>
0.000

> <Tether>
0.000

$$$$
VeraChem MOL file


 26 25  0  0  0  0  0  0  0  0999 V2000     
   22.1868   21.3668   24.1438 C   0  0  0  0  0  0  0  0  0  0  0  0
   22.1493   20.9258   23.1400 H   0  0  0  0  0  0  0  0  0  0  0  0
   21.4130   22.1427   24.2084 H   0  0  0  0  0  0  0  0  0  0  0  0
   23.1631   21.8566   24.2523 H   0  0  0  0  0  0  0  0  0  0  0  0
   21.9939   20.2966   25.2422 C   0  0  0  0  0  0  0  0  0  0  0  0
   22.1627   20.7622   26.2233 H   0  0  0  0  0  0  0  0  0  0  0  0
   22.7604   19.5162   25.1365 H   0  0  0  0  0  0  0  0  0  0  0  0
   20.5864   19.6526   25.2342 C   0  0  0  0  0  0  0  0  0  0  0  0
   20.5005   18.9931   26.1089 H   0  0  0  0  0  0  0  0  0  0  0  0
   19.8247   20.4343   25.3607 H   0  0  0  0  0  0  0  0  0  0  0  0
   20.2887   18.8361   23.9537 C   0  0  0  0  0  0  0  0  0  0  0  0
   21.0795   18.0880   23.8047 H   0  0  0  0  0  0  0  0  0  0  0  0
   20.3087   19.5012   23.0814 H   0  0  0  0  0  0  0  0  0  0  0  0
   18.9154   18.1271   24.0337 C   0  0  0  0  0  0  0  0  0  0  0  0
   18.8862   17.4955   24.9324 H   0  0  0  0  0  0  0  0  0  0  0  0
   18.1188   18.8746   24.1534 H   0  0  0  0  0  0  0  0  0  0  0  0
   18.6140   17.2453   22.7990 C   0  0  0  0  0  0  0  0  0  0  0  0
   17.6714   16.7076   22.9669 H   0  0  0  0  0  0  0  0  0  0  0  0
   19.3963   16.4823   22.6907 H   0  0  0  0  0  0  0  0  0  0  0  0
   18.5025   18.0613   21.4974 C   0  0  0  0  0  0  0  0  0  0  0  0
   17.7233   18.8206   21.6048 H   0  0  0  0  0  0  0  0  0  0  0  0
   19.4503   18.5664   21.2944 H   0  0  0  0  0  0  0  0  0  0  0  0
   18.1626   17.2097   20.2913 N   0  3  0  0  0  0  0  0  0  0  0  0
   18.0928   17.7712   19.4357 H   0  0  0  0  0  0  0  0  0  0  0  0
   17.2653   16.7269   20.4051 H   0  0  0  0  0  0  0  0  0  0  0  0
   18.8726   16.4903   20.1191 H   0  0  0  0  0  0  0  0  0  0  0  0
  1  2  1  0  0  0  0
  1  3  1  0  0  0  0
  1  4  1  0  0  0  0
  1  5  1  0  0  0  0
  5  6  1  0  0  0  0
  5  7  1  0  0  0  0
  5  8  1  0  0  0  0
  8  9  1  0  0  0  0
  8 10  1  0  0  0  0
  8 11  1  0  0  0  0
 11 12  1  0  0  0  0
 11 13  1  0  0  0  0
 11 14  1  0  0  0  0
 14 15  1  0  0  0  0
 14 16  1  0  0  0  0
 14 17  1  0  0  0  0
 17 18  1  0  0  0  0
 17 19  1  0  0  0  0
 17 20  1  0  0  0  0
 20 21  1  0  0  0  0
 20 22  1  0  0  0  0
 20 23  1  0  0  0  0
 23 24  1  0  0  0  0
 23 25  1  0  0  0  0
 23 26  1  0  0  0  0
M  END
> <VConfSearch Rank>
598

> <Conf_Id>
96

> <Delta U+W>
0.912

> <U+W>
-4.640

> <U>
48.723

> <W>
-53.364

> <W(PB)>
-55.683

> <W(SA)>
2.320

> <Valence>
2.962

> <Coulomb>
44.993

> <VdW>
0.768

> <VdW6>
-7.008

> <VdW12>
7.776

> <Bond>
0.188

> <Angle>
0.757

> <Pdih>
2.018

> <Idih>
0.000

> <Tether>
0.000

$$$$
VeraChem MOL file


 26 25  0  0  0  0  0  0  0  0999 V2000     
   21.2365   17.2661   26.0890 C   0  0  0  0  0  0  0  0  0  0  0  0
   21.9388   16.9646   26.8769 H   0  0  0  0  0  0  0  0  0  0  0  0
   20.4607   16.4928   26.0170 H   0  0  0  0  0  0  0  0  0  0  0  0
   21.7916   17.2863   25.1431 H   0  0  0  0  0  0  0  0  0  0  0  0
   20.6183   18.6448   26.4146 C   0  0  0  0  0  0  0  0  0  0  0  0
   21.4103   19.4059   26.4500 H   0  0  0  0  0  0  0  0  0  0  0  0
   20.1824   18.6079   27.4228 H   0  0  0  0  0  0  0  0  0  0  0  0
   19.5195   19.0788   25.4146 C   0  0  0  0  0  0  0  0  0  0  0  0
   18.7204   18.3248   25.3978 H   0  0  0  0  0  0  0  0  0  0  0  0
   19.0609   20.0070   25.7826 H   0  0  0  0  0  0  0  0  0  0  0  0
   20.0486   19.3105   23.9789 C   0  0  0  0  0  0  0  0  0  0  0  0
   20.4501   18.3708   23.5795 H   0  0  0  0  0  0  0  0  0  0  0  0
   20.8801   20.0282   24.0067 H   0  0  0  0  0  0  0  0  0  0  0  0
   18.9394   19.8412   23.0391 C   0  0  0  0  0  0  0  0  0  0  0  0
   18.1188   19.1122   22.9857 H   0  0  0  0  0  0  0  0  0  0  0  0
   18.5121   20.7591   23.4661 H   0  0  0  0  0  0  0  0  0  0  0  0
   19.4489   20.1499   21.6115 C   0  0  0  0  0  0  0  0  0  0  0  0
   20.2533   20.8959   21.6600 H   0  0  0  0  0  0  0  0  0  0  0  0
   18.6335   20.6040   21.0328 H   0  0  0  0  0  0  0  0  0  0  0  0
   19.9506   18.8944   20.8738 C   0  0  0  0  0  0  0  0  0  0  0  0
   20.7928   18.4576   21.4164 H   0  0  0  0  0  0  0  0  0  0  0  0
   19.1496   18.1518   20.8248 H   0  0  0  0  0  0  0  0  0  0  0  0
   20.4089   19.1820   19.4586 N   0  3  0  0  0  0  0  0  0  0  0  0
   21.1814   19.8556   19.4366 H   0  0  0  0  0  0  0  0  0  0  0  0
   19.6537   19.5700   18.8839 H   0  0  0  0  0  0  0  0  0  0  0  0
   20.7386   18.3338   18.9850 H   0  0  0  0  0  0  0  0  0  0  0  0
  1  2  1  0  0  0  0
  1  3  1  0  0  0  0
  1  4  1  0  0  0  0
  1  5  1  0  0  0  0
  5  6  1  0  0  0  0
  5  7  1  0  0  0  0
  5  8  1  0  0  0  0
  8  9  1  0  0  0  0
  8 10  1  0  0  0  0
  8 11  1  0  0  0  0
 11 12  1  0  0  0  0
 11 13  1  0  0  0  0
 11 14  1  0  0  0  0
 14 15  1  0  0  0  0
 14 16  1  0  0  0  0
 14 17  1  0  0  0  0
 17 18  1  0  0  0  0
 17 19  1  0  0  0  0
 17 20  1  0  0  0  0
 20 21  1  0  0  0  0
 20 22  1  0  0  0  0
 20 23  1  0  0  0  0
 23 24  1  0  0  0  0
 23 25  1  0  0  0  0
 23 26  1  0  0  0  0
M  END
> <VConfSearch Rank>
599

> <Conf_Id>
133

> <Delta U+W>
0.844

> <U+W>
-4.708

> <U>
48.723

> <W>
-53.431

> <W(PB)>
-55.776

> <W(SA)>
2.344

> <Valence>
2.962

> <Coulomb>
44.993

> <VdW>
0.768

> <VdW6>
-7.008

> <VdW12>
7.776

> <Bond>
0.188

> <Angle>
0.756

> <Pdih>
2.018

> <Idih>
0.000

> <Tether>
0.000

$$$$
VeraChem MOL file


 26 25  0  0  0  0  0  0  0  0999 V2000     
   17.6570   20.8986   24.7831 C   0  0  0  0  0  0  0  0  0  0  0  0
   17.8649   21.2538   25.8007 H   0  0  0  0  0  0  0  0  0  0  0  0
   18.4955   21.1903   24.1385 H   0  0  0  0  0  0  0  0  0  0  0  0
   16.7633   21.4225   24.4202 H   0  0  0  0  0  0  0  0  0  0  0  0
   17.4335   19.3695   24.7635 C   0  0  0  0  0  0  0  0  0  0  0  0
   17.2475   19.0352   23.7342 H   0  0  0  0  0  0  0  0  0  0  0  0
   16.5167   19.1391   25.3239 H   0  0  0  0  0  0  0  0  0  0  0  0
   18.6053   18.5671   25.3844 C   0  0  0  0  0  0  0  0  0  0  0  0
   18.6911   18.8302   26.4477 H   0  0  0  0  0  0  0  0  0  0  0  0
   18.3544   17.4977   25.3590 H   0  0  0  0  0  0  0  0  0  0  0  0
   19.9848   18.7771   24.7080 C   0  0  0  0  0  0  0  0  0  0  0  0
   20.7285   18.1743   25.2472 H   0  0  0  0  0  0  0  0  0  0  0  0
   20.3029   19.8218   24.8230 H   0  0  0  0  0  0  0  0  0  0  0  0
   20.0066   18.3840   23.2115 C   0  0  0  0  0  0  0  0  0  0  0  0
   19.6448   17.3528   23.0970 H   0  0  0  0  0  0  0  0  0  0  0  0
   19.3207   19.0282   22.6455 H   0  0  0  0  0  0  0  0  0  0  0  0
   21.4232   18.5031   22.6076 C   0  0  0  0  0  0  0  0  0  0  0  0
   22.1166   17.8541   23.1588 H   0  0  0  0  0  0  0  0  0  0  0  0
   21.7872   19.5332   22.7196 H   0  0  0  0  0  0  0  0  0  0  0  0
   21.4346   18.1155   21.1184 C   0  0  0  0  0  0  0  0  0  0  0  0
   21.0880   17.0849   21.0036 H   0  0  0  0  0  0  0  0  0  0  0  0
   20.7580   18.7701   20.5624 H   0  0  0  0  0  0  0  0  0  0  0  0
   22.8086   18.2196   20.4886 N   0  3  0  0  0  0  0  0  0  0  0  0
   22.7940   17.9570   19.4969 H   0  0  0  0  0  0  0  0  0  0  0  0
   23.4879   17.6055   20.9497 H   0  0  0  0  0  0  0  0  0  0  0  0
   23.1810   19.1735   20.5391 H   0  0  0  0  0  0  0  0  0  0  0  0
  1  2  1  0  0  0  0
  1  3  1  0  0  0  0
  1  4  1  0  0  0  0
  1  5  1  0  0  0  0
  5  6  1  0  0  0  0
  5  7  1  0  0  0  0
  5  8  1  0  0  0  0
  8  9  1  0  0  0  0
  8 10  1  0  0  0  0
  8 11  1  0  0  0  0
 11 12  1  0  0  0  0
 11 13  1  0  0  0  0
 11 14  1  0  0  0  0
 14 15  1  0  0  0  0
 14 16  1  0  0  0  0
 14 17  1  0  0  0  0
 17 18  1  0  0  0  0
 17 19  1  0  0  0  0
 17 20  1  0  0  0  0
 20 21  1  0  0  0  0
 20 22  1  0  0  0  0
 20 23  1  0  0  0  0
 23 24  1  0  0  0  0
 23 25  1  0  0  0  0
 23 26  1  0  0  0  0
M  END
> <VConfSearch Rank>
600

> <Conf_Id>
106

> <Delta U+W>
0.767

> <U+W>
-4.785

> <U>
48.494

> <W>
-53.279

> <W(PB)>
-55.569

> <W(SA)>
2.290

> <Valence>
3.117

> <Coulomb>
44.693

> <VdW>
0.684

> <VdW6>
-7.347

> <VdW12>
8.030

> <Bond>
0.208

> <Angle>
1.039

> <Pdih>
1.870

> <Idih>
0.000

> <Tether>
0.000

$$$$
VeraChem MOL file


 26 25  0  0  0  0  0  0  0  0999 V2000     
   22.3602   16.6447   26.3682 C   0  0  0  0  0  0  0  0  0  0  0  0
   21.7570   15.7301   26.2975 H   0  0  0  0  0  0  0  0  0  0  0  0
   23.2507   16.5165   25.7391 H   0  0  0  0  0  0  0  0  0  0  0  0
   22.6946   16.7482   27.4086 H   0  0  0  0  0  0  0  0  0  0  0  0
   21.5461   17.8812   25.9318 C   0  0  0  0  0  0  0  0  0  0  0  0
   22.1639   18.7831   26.0455 H   0  0  0  0  0  0  0  0  0  0  0  0
   20.6817   18.0028   26.5997 H   0  0  0  0  0  0  0  0  0  0  0  0
   21.0626   17.7610   24.4696 C   0  0  0  0  0  0  0  0  0  0  0  0
   21.9298   17.6372   23.8062 H   0  0  0  0  0  0  0  0  0  0  0  0
   20.4474   16.8571   24.3605 H   0  0  0  0  0  0  0  0  0  0  0  0
   20.2470   18.9976   24.0289 C   0  0  0  0  0  0  0  0  0  0  0  0
   20.8628   19.9010   24.1386 H   0  0  0  0  0  0  0  0  0  0  0  0
   19.3804   19.1209   24.6931 H   0  0  0  0  0  0  0  0  0  0  0  0
   19.7635   18.8767   22.5660 C   0  0  0  0  0  0  0  0  0  0  0  0
   20.6300   18.7533   21.9013 H   0  0  0  0  0  0  0  0  0  0  0  0
   19.1474   17.9733   22.4559 H   0  0  0  0  0  0  0  0  0  0  0  0
   18.9483   20.1123   22.1248 C   0  0  0  0  0  0  0  0  0  0  0  0
   19.5625   21.0168   22.2282 H   0  0  0  0  0  0  0  0  0  0  0  0
   18.0784   20.2361   22.7835 H   0  0  0  0  0  0  0  0  0  0  0  0
   18.4719   19.9813   20.6674 C   0  0  0  0  0  0  0  0  0  0  0  0
   19.3358   19.8744   20.0058 H   0  0  0  0  0  0  0  0  0  0  0  0
   17.8464   19.0906   20.5631 H   0  0  0  0  0  0  0  0  0  0  0  0
   17.6672   21.1756   20.1965 N   0  3  0  0  0  0  0  0  0  0  0  0
   17.3598   21.0681   19.2236 H   0  0  0  0  0  0  0  0  0  0  0  0
   18.2094   22.0445   20.2436 H   0  0  0  0  0  0  0  0  0  0  0  0
   16.8236   21.3152   20.7622 H   0  0  0  0  0  0  0  0  0  0  0  0
  1  2  1  0  0  0  0
  1  3  1  0  0  0  0
  1  4  1  0  0  0  0
  1  5  1  0  0  0  0
  5  6  1  0  0  0  0
  5  7  1  0  0  0  0
  5  8  1  0  0  0  0
  8  9  1  0  0  0  0
  8 10  1  0  0  0  0
  8 11  1  0  0  0  0
 11 12  1  0  0  0  0
 11 13  1  0  0  0  0
 11 14  1  0  0  0  0
 14 15  1  0  0  0  0
 14 16  1  0  0  0  0
 14 17  1  0  0  0  0
 17 18  1  0  0  0  0
 17 19  1  0  0  0  0
 17 20  1  0  0  0  0
 20 21  1  0  0  0  0
 20 22  1  0  0  0  0
 20 23  1  0  0  0  0
 23 24  1  0  0  0  0
 23 25  1  0  0  0  0
 23 26  1  0  0  0  0
M  END
> <VConfSearch Rank>
601

> <Conf_Id>
25

> <Delta U+W>
0.000

> <U+W>
-5.552

> <U>
47.192

> <W>
-52.745

> <W(PB)>
-55.134

> <W(SA)>
2.389

> <Valence>
2.156

> <Coulomb>
44.449

> <VdW>
0.587

> <VdW6>
-5.761

> <VdW12>
6.348

> <Bond>
0.129

> <Angle>
0.393

> <Pdih>
1.634

> <Idih>
0.000

> <Tether>
0.000

$$$$
VeraChem MOL file


 26 25  0  0  0  0  0  0  0  0999 V2000     
   16.5665   16.4153   23.5629 C   0  0  0  0  0  0  0  0  0  0  0  0
   16.0020   16.9183   22.7669 H   0  0  0  0  0  0  0  0  0  0  0  0
   17.1124   15.5742   23.1158 H   0  0  0  0  0  0  0  0  0  0  0  0
   15.8442   16.0049   24.2804 H   0  0  0  0  0  0  0  0  0  0  0  0
   17.5327   17.3949   24.2621 C   0  0  0  0  0  0  0  0  0  0  0  0
   18.0573   16.8723   25.0741 H   0  0  0  0  0  0  0  0  0  0  0  0
   16.9555   18.2060   24.7279 H   0  0  0  0  0  0  0  0  0  0  0  0
   18.5609   17.9878   23.2734 C   0  0  0  0  0  0  0  0  0  0  0  0
   19.1336   17.1733   22.8086 H   0  0  0  0  0  0  0  0  0  0  0  0
   18.0318   18.5073   22.4625 H   0  0  0  0  0  0  0  0  0  0  0  0
   19.5303   18.9694   23.9700 C   0  0  0  0  0  0  0  0  0  0  0  0
   20.0592   18.4492   24.7807 H   0  0  0  0  0  0  0  0  0  0  0  0
   18.9564   19.7828   24.4353 H   0  0  0  0  0  0  0  0  0  0  0  0
   20.5585   19.5628   22.9805 C   0  0  0  0  0  0  0  0  0  0  0  0
   21.1256   18.7456   22.5150 H   0  0  0  0  0  0  0  0  0  0  0  0
   20.0296   20.0855   22.1714 H   0  0  0  0  0  0  0  0  0  0  0  0
   21.5284   20.5443   23.6800 C   0  0  0  0  0  0  0  0  0  0  0  0
   22.0854   20.0240   24.4707 H   0  0  0  0  0  0  0  0  0  0  0  0
   20.9504   21.3369   24.1736 H   0  0  0  0  0  0  0  0  0  0  0  0
   22.5193   21.2019   22.7002 C   0  0  0  0  0  0  0  0  0  0  0  0
   21.9678   21.7157   21.9083 H   0  0  0  0  0  0  0  0  0  0  0  0
   23.1191   21.9438   23.2345 H   0  0  0  0  0  0  0  0  0  0  0  0
   23.4748   20.2215   22.0485 N   0  3  0  0  0  0  0  0  0  0  0  0
   22.9770   19.5154   21.4976 H   0  0  0  0  0  0  0  0  0  0  0  0
   24.0399   19.7218   22.7428 H   0  0  0  0  0  0  0  0  0  0  0  0
   24.1283   20.6922   21.4131 H   0  0  0  0  0  0  0  0  0  0  0  0
  1  2  1  0  0  0  0
  1  3  1  0  0  0  0
  1  4  1  0  0  0  0
  1  5  1  0  0  0  0
  5  6  1  0  0  0  0
  5  7  1  0  0  0  0
  5  8  1  0  0  0  0
  8  9  1  0  0  0  0
  8 10  1  0  0  0  0
  8 11  1  0  0  0  0
 11 12  1  0  0  0  0
 11 13  1  0  0  0  0
 11 14  1  0  0  0  0
 14 15  1  0  0  0  0
 14 16  1  0  0  0  0
 14 17  1  0  0  0  0
 17 18  1  0  0  0  0
 17 19  1  0  0  0  0
 17 20  1  0  0  0  0
 20 21  1  0  0  0  0
 20 22  1  0  0  0  0
 20 23  1  0  0  0  0
 23 24  1  0  0  0  0
 23 25  1  0  0  0  0
 23 26  1  0  0  0  0
M  END
> <VConfSearch Rank>
602

> <Conf_Id>
20

> <Delta U+W>
0.150

> <U+W>
-5.403

> <U>
47.845

> <W>
-53.248

> <W(PB)>
-55.599

> <W(SA)>
2.351

> <Valence>
2.258

> <Coulomb>
44.893

> <VdW>
0.694

> <VdW6>
-6.285

> <VdW12>
6.979

> <Bond>
0.149

> <Angle>
0.434

> <Pdih>
1.675

> <Idih>
0.000

> <Tether>
0.000

$$$$
VeraChem MOL file


 26 25  0  0  0  0  0  0  0  0999 V2000     
   19.5950   14.6278   22.9915 C   0  0  0  0  0  0  0  0  0  0  0  0
   19.4483   14.5380   24.0758 H   0  0  0  0  0  0  0  0  0  0  0  0
   18.6072   14.6393   22.5126 H   0  0  0  0  0  0  0  0  0  0  0  0
   20.1256   13.7303   22.6478 H   0  0  0  0  0  0  0  0  0  0  0  0
   20.3953   15.9008   22.6435 C   0  0  0  0  0  0  0  0  0  0  0  0
   20.5552   15.9452   21.5571 H   0  0  0  0  0  0  0  0  0  0  0  0
   21.3896   15.8447   23.1083 H   0  0  0  0  0  0  0  0  0  0  0  0
   19.6697   17.1799   23.1167 C   0  0  0  0  0  0  0  0  0  0  0  0
   18.6756   17.2303   22.6513 H   0  0  0  0  0  0  0  0  0  0  0  0
   19.5101   17.1296   24.2027 H   0  0  0  0  0  0  0  0  0  0  0  0
   20.4682   18.4568   22.7700 C   0  0  0  0  0  0  0  0  0  0  0  0
   20.6283   18.5053   21.6839 H   0  0  0  0  0  0  0  0  0  0  0  0
   21.4621   18.4058   23.2359 H   0  0  0  0  0  0  0  0  0  0  0  0
   19.7417   19.7363   23.2428 C   0  0  0  0  0  0  0  0  0  0  0  0
   18.7490   19.7888   22.7745 H   0  0  0  0  0  0  0  0  0  0  0  0
   19.5800   19.6803   24.3276 H   0  0  0  0  0  0  0  0  0  0  0  0
   20.5430   21.0133   22.8957 C   0  0  0  0  0  0  0  0  0  0  0  0
   20.7318   21.0414   21.8142 H   0  0  0  0  0  0  0  0  0  0  0  0
   21.5259   20.9857   23.3847 H   0  0  0  0  0  0  0  0  0  0  0  0
   19.8058   22.3060   23.2954 C   0  0  0  0  0  0  0  0  0  0  0  0
   20.3785   23.1714   22.9509 H   0  0  0  0  0  0  0  0  0  0  0  0
   18.8241   22.3336   22.8147 H   0  0  0  0  0  0  0  0  0  0  0  0
   19.6021   22.4552   24.7904 N   0  3  0  0  0  0  0  0  0  0  0  0
   20.4930   22.4593   25.2975 H   0  0  0  0  0  0  0  0  0  0  0  0
   19.0377   21.6913   25.1749 H   0  0  0  0  0  0  0  0  0  0  0  0
   19.1208   23.3306   25.0235 H   0  0  0  0  0  0  0  0  0  0  0  0
  1  2  1  0  0  0  0
  1  3  1  0  0  0  0
  1  4  1  0  0  0  0
  1  5  1  0  0  0  0
  5  6  1  0  0  0  0
  5  7  1  0  0  0  0
  5  8  1  0  0  0  0
  8  9  1  0  0  0  0
  8 10  1  0  0  0  0
  8 11  1  0  0  0  0
 11 12  1  0  0  0  0
 11 13  1  0  0  0  0
 11 14  1  0  0  0  0
 14 15  1  0  0  0  0
 14 16  1  0  0  0  0
 14 17  1  0  0  0  0
 17 18  1  0  0  0  0
 17 19  1  0  0  0  0
 17 20  1  0  0  0  0
 20 21  1  0  0  0  0
 20 22  1  0  0  0  0
 20 23  1  0  0  0  0
 23 24  1  0  0  0  0
 23 25  1  0  0  0  0
 23 26  1  0  0  0  0
M  END
> <VConfSearch Rank>
603

> <Conf_Id>
19

> <Delta U+W>
0.162

> <U+W>
-5.391

> <U>
47.845

> <W>
-53.235

> <W(PB)>
-55.585

> <W(SA)>
2.349

> <Valence>
2.258

> <Coulomb>
44.893

> <VdW>
0.694

> <VdW6>
-6.285

> <VdW12>
6.979

> <Bond>
0.149

> <Angle>
0.434

> <Pdih>
1.675

> <Idih>
0.000

> <Tether>
0.000

$$$$
VeraChem MOL file


 26 25  0  0  0  0  0  0  0  0999 V2000     
   23.6567   17.6187   21.6861 C   0  0  0  0  0  0  0  0  0  0  0  0
   23.9679   18.1132   20.7566 H   0  0  0  0  0  0  0  0  0  0  0  0
   24.2946   17.9875   22.4998 H   0  0  0  0  0  0  0  0  0  0  0  0
   23.8424   16.5427   21.5734 H   0  0  0  0  0  0  0  0  0  0  0  0
   22.1663   17.8861   21.9854 C   0  0  0  0  0  0  0  0  0  0  0  0
   21.8836   17.3432   22.8970 H   0  0  0  0  0  0  0  0  0  0  0  0
   21.5525   17.4805   21.1690 H   0  0  0  0  0  0  0  0  0  0  0  0
   21.8808   19.3973   22.1527 C   0  0  0  0  0  0  0  0  0  0  0  0
   22.4549   19.7910   23.0028 H   0  0  0  0  0  0  0  0  0  0  0  0
   22.2444   19.9295   21.2628 H   0  0  0  0  0  0  0  0  0  0  0  0
   20.3799   19.7279   22.3422 C   0  0  0  0  0  0  0  0  0  0  0  0
   19.8086   19.3474   21.4842 H   0  0  0  0  0  0  0  0  0  0  0  0
   20.2610   20.8202   22.3317 H   0  0  0  0  0  0  0  0  0  0  0  0
   19.7839   19.1689   23.6567 C   0  0  0  0  0  0  0  0  0  0  0  0
   19.8247   18.0717   23.6510 H   0  0  0  0  0  0  0  0  0  0  0  0
   20.3903   19.5070   24.5084 H   0  0  0  0  0  0  0  0  0  0  0  0
   18.3194   19.6167   23.8582 C   0  0  0  0  0  0  0  0  0  0  0  0
   17.7097   19.2795   23.0093 H   0  0  0  0  0  0  0  0  0  0  0  0
   18.2668   20.7135   23.8777 H   0  0  0  0  0  0  0  0  0  0  0  0
   17.7332   19.0538   25.1649 C   0  0  0  0  0  0  0  0  0  0  0  0
   17.7680   17.9612   25.1435 H   0  0  0  0  0  0  0  0  0  0  0  0
   18.3278   19.4004   26.0145 H   0  0  0  0  0  0  0  0  0  0  0  0
   16.2957   19.4713   25.3988 N   0  3  0  0  0  0  0  0  0  0  0  0
   15.6774   19.1512   24.6462 H   0  0  0  0  0  0  0  0  0  0  0  0
   16.1983   20.4904   25.4566 H   0  0  0  0  0  0  0  0  0  0  0  0
   15.9247   19.0859   26.2742 H   0  0  0  0  0  0  0  0  0  0  0  0
  1  2  1  0  0  0  0
  1  3  1  0  0  0  0
  1  4  1  0  0  0  0
  1  5  1  0  0  0  0
  5  6  1  0  0  0  0
  5  7  1  0  0  0  0
  5  8  1  0  0  0  0
  8  9  1  0  0  0  0
  8 10  1  0  0  0  0
  8 11  1  0  0  0  0
 11 12  1  0  0  0  0
 11 13  1  0  0  0  0
 11 14  1  0  0  0  0
 14 15  1  0  0  0  0
 14 16  1  0  0  0  0
 14 17  1  0  0  0  0
 17 18  1  0  0  0  0
 17 19  1  0  0  0  0
 17 20  1  0  0  0  0
 20 21  1  0  0  0  0
 20 22  1  0  0  0  0
 20 23  1  0  0  0  0
 23 24  1  0  0  0  0
 23 25  1  0  0  0  0
 23 26  1  0  0  0  0
M  END
> <VConfSearch Rank>
604

> <Conf_Id>
37

> <Delta U+W>
0.565

> <U+W>
-4.988

> <U>
48.035

> <W>
-53.022

> <W(PB)>
-55.379

> <W(SA)>
2.357

> <Valence>
2.701

> <Coulomb>
44.622

> <VdW>
0.712

> <VdW6>
-6.418

> <VdW12>
7.129

> <Bond>
0.168

> <Angle>
0.659

> <Pdih>
1.875

> <Idih>
0.000

> <Tether>
0.000

$$$$
VeraChem MOL file


 26 25  0  0  0  0  0  0  0  0999 V2000     
   16.8085   16.9955   25.0071 C   0  0  0  0  0  0  0  0  0  0  0  0
   17.5367   16.1759   25.0630 H   0  0  0  0  0  0  0  0  0  0  0  0
   16.8616   17.5647   25.9443 H   0  0  0  0  0  0  0  0  0  0  0  0
   15.8066   16.5520   24.9386 H   0  0  0  0  0  0  0  0  0  0  0  0
   17.0868   17.9032   23.7902 C   0  0  0  0  0  0  0  0  0  0  0  0
   16.3225   18.6915   23.7416 H   0  0  0  0  0  0  0  0  0  0  0  0
   16.9940   17.3142   22.8670 H   0  0  0  0  0  0  0  0  0  0  0  0
   18.4917   18.5417   23.8620 C   0  0  0  0  0  0  0  0  0  0  0  0
   18.5788   19.1310   24.7853 H   0  0  0  0  0  0  0  0  0  0  0  0
   19.2442   17.7444   23.9194 H   0  0  0  0  0  0  0  0  0  0  0  0
   18.7732   19.4489   22.6401 C   0  0  0  0  0  0  0  0  0  0  0  0
   17.9683   20.1919   22.5537 H   0  0  0  0  0  0  0  0  0  0  0  0
   18.7407   18.8508   21.7189 H   0  0  0  0  0  0  0  0  0  0  0  0
   20.1252   20.1993   22.7238 C   0  0  0  0  0  0  0  0  0  0  0  0
   20.1868   20.9011   21.8804 H   0  0  0  0  0  0  0  0  0  0  0  0
   20.1511   20.8112   23.6362 H   0  0  0  0  0  0  0  0  0  0  0  0
   21.3564   19.2635   22.6885 C   0  0  0  0  0  0  0  0  0  0  0  0
   21.3040   18.6167   21.8026 H   0  0  0  0  0  0  0  0  0  0  0  0
   21.3591   18.6084   23.5687 H   0  0  0  0  0  0  0  0  0  0  0  0
   22.6689   20.0662   22.6582 C   0  0  0  0  0  0  0  0  0  0  0  0
   22.6865   20.7099   21.7745 H   0  0  0  0  0  0  0  0  0  0  0  0
   22.7333   20.7001   23.5468 H   0  0  0  0  0  0  0  0  0  0  0  0
   23.9021   19.1869   22.6206 N   0  3  0  0  0  0  0  0  0  0  0  0
   23.9161   18.5834   21.7918 H   0  0  0  0  0  0  0  0  0  0  0  0
   23.9604   18.5747   23.4409 H   0  0  0  0  0  0  0  0  0  0  0  0
   24.7649   19.7416   22.6003 H   0  0  0  0  0  0  0  0  0  0  0  0
  1  2  1  0  0  0  0
  1  3  1  0  0  0  0
  1  4  1  0  0  0  0
  1  5  1  0  0  0  0
  5  6  1  0  0  0  0
  5  7  1  0  0  0  0
  5  8  1  0  0  0  0
  8  9  1  0  0  0  0
  8 10  1  0  0  0  0
  8 11  1  0  0  0  0
 11 12  1  0  0  0  0
 11 13  1  0  0  0  0
 11 14  1  0  0  0  0
 14 15  1  0  0  0  0
 14 16  1  0  0  0  0
 14 17  1  0  0  0  0
 17 18  1  0  0  0  0
 17 19  1  0  0  0  0
 17 20  1  0  0  0  0
 20 21  1  0  0  0  0
 20 22  1  0  0  0  0
 20 23  1  0  0  0  0
 23 24  1  0  0  0  0
 23 25  1  0  0  0  0
 23 26  1  0  0  0  0
M  END
> <VConfSearch Rank>
605

> <Conf_Id>
35

> <Delta U+W>
0.587

> <U+W>
-4.965

> <U>
48.214

> <W>
-53.179

> <W(PB)>
-55.527

> <W(SA)>
2.348

> <Valence>
2.697

> <Coulomb>
44.819

> <VdW>
0.699

> <VdW6>
-6.437

> <VdW12>
7.136

> <Bond>
0.168

> <Angle>
0.657

> <Pdih>
1.872

> <Idih>
0.000

> <Tether>
0.000

$$$$
VeraChem MOL file


 26 25  0  0  0  0  0  0  0  0999 V2000     
   17.2863   21.8053   22.5596 C   0  0  0  0  0  0  0  0  0  0  0  0
   17.9721   22.6496   22.7081 H   0  0  0  0  0  0  0  0  0  0  0  0
   17.4124   21.4389   21.5324 H   0  0  0  0  0  0  0  0  0  0  0  0
   16.2604   22.1830   22.6590 H   0  0  0  0  0  0  0  0  0  0  0  0
   17.5561   20.6843   23.5857 C   0  0  0  0  0  0  0  0  0  0  0  0
   16.8345   19.8694   23.4338 H   0  0  0  0  0  0  0  0  0  0  0  0
   17.3882   21.0715   24.6005 H   0  0  0  0  0  0  0  0  0  0  0  0
   18.9951   20.1348   23.4678 C   0  0  0  0  0  0  0  0  0  0  0  0
   19.1523   19.7602   22.4480 H   0  0  0  0  0  0  0  0  0  0  0  0
   19.7126   20.9525   23.6224 H   0  0  0  0  0  0  0  0  0  0  0  0
   19.2653   19.0079   24.4937 C   0  0  0  0  0  0  0  0  0  0  0  0
   18.5850   18.1655   24.3069 H   0  0  0  0  0  0  0  0  0  0  0  0
   19.0286   19.3775   25.5011 H   0  0  0  0  0  0  0  0  0  0  0  0
   20.7293   18.5033   24.4888 C   0  0  0  0  0  0  0  0  0  0  0  0
   21.4089   19.3425   24.6930 H   0  0  0  0  0  0  0  0  0  0  0  0
   20.8563   17.7950   25.3194 H   0  0  0  0  0  0  0  0  0  0  0  0
   21.1406   17.8083   23.1696 C   0  0  0  0  0  0  0  0  0  0  0  0
   21.1009   18.5223   22.3374 H   0  0  0  0  0  0  0  0  0  0  0  0
   20.4315   17.0020   22.9397 H   0  0  0  0  0  0  0  0  0  0  0  0
   22.5625   17.2272   23.2628 C   0  0  0  0  0  0  0  0  0  0  0  0
   23.2746   18.0290   23.4757 H   0  0  0  0  0  0  0  0  0  0  0  0
   22.6101   16.4995   24.0775 H   0  0  0  0  0  0  0  0  0  0  0  0
   23.0053   16.5339   21.9905 N   0  3  0  0  0  0  0  0  0  0  0  0
   23.0096   17.1727   21.1886 H   0  0  0  0  0  0  0  0  0  0  0  0
   22.3905   15.7498   21.7486 H   0  0  0  0  0  0  0  0  0  0  0  0
   23.9545   16.1539   22.0744 H   0  0  0  0  0  0  0  0  0  0  0  0
  1  2  1  0  0  0  0
  1  3  1  0  0  0  0
  1  4  1  0  0  0  0
  1  5  1  0  0  0  0
  5  6  1  0  0  0  0
  5  7  1  0  0  0  0
  5  8  1  0  0  0  0
  8  9  1  0  0  0  0
  8 10  1  0  0  0  0
  8 11  1  0  0  0  0
 11 12  1  0  0  0  0
 11 13  1  0  0  0  0
 11 14  1  0  0  0  0
 14 15  1  0  0  0  0
 14 16  1  0  0  0  0
 14 17  1  0  0  0  0
 17 18  1  0  0  0  0
 17 19  1  0  0  0  0
 17 20  1  0  0  0  0
 20 21  1  0  0  0  0
 20 22  1  0  0  0  0
 20 23  1  0  0  0  0
 23 24  1  0  0  0  0
 23 25  1  0  0  0  0
 23 26  1  0  0  0  0
M  END
> <VConfSearch Rank>
606

> <Conf_Id>
36

> <Delta U+W>
0.565

> <U+W>
-4.987

> <U>
48.214

> <W>
-53.201

> <W(PB)>
-55.543

> <W(SA)>
2.342

> <Valence>
2.697

> <Coulomb>
44.819

> <VdW>
0.698

> <VdW6>
-6.437

> <VdW12>
7.136

> <Bond>
0.168

> <Angle>
0.657

> <Pdih>
1.872

> <Idih>
0.000

> <Tether>
0.000

$$$$
VeraChem MOL file


 26 25  0  0  0  0  0  0  0  0999 V2000     
   20.6723   17.7923   19.1820 C   0  0  0  0  0  0  0  0  0  0  0  0
   20.5657   18.7539   18.6633 H   0  0  0  0  0  0  0  0  0  0  0  0
   21.4699   17.2268   18.6829 H   0  0  0  0  0  0  0  0  0  0  0  0
   19.7357   17.2326   19.0607 H   0  0  0  0  0  0  0  0  0  0  0  0
   21.0044   18.0010   20.6748 C   0  0  0  0  0  0  0  0  0  0  0  0
   21.9620   18.5329   20.7642 H   0  0  0  0  0  0  0  0  0  0  0  0
   21.1385   17.0233   21.1585 H   0  0  0  0  0  0  0  0  0  0  0  0
   19.8967   18.7953   21.4017 C   0  0  0  0  0  0  0  0  0  0  0  0
   19.7647   19.7704   20.9126 H   0  0  0  0  0  0  0  0  0  0  0  0
   18.9412   18.2608   21.3079 H   0  0  0  0  0  0  0  0  0  0  0  0
   20.2258   19.0067   22.8968 C   0  0  0  0  0  0  0  0  0  0  0  0
   21.1801   19.5435   22.9891 H   0  0  0  0  0  0  0  0  0  0  0  0
   20.3625   18.0287   23.3774 H   0  0  0  0  0  0  0  0  0  0  0  0
   19.1137   19.8014   23.6225 C   0  0  0  0  0  0  0  0  0  0  0  0
   18.9537   20.7560   23.1022 H   0  0  0  0  0  0  0  0  0  0  0  0
   18.1643   19.2514   23.5611 H   0  0  0  0  0  0  0  0  0  0  0  0
   19.4450   20.0941   25.1048 C   0  0  0  0  0  0  0  0  0  0  0  0
   18.6573   20.7325   25.5266 H   0  0  0  0  0  0  0  0  0  0  0  0
   20.3805   20.6659   25.1679 H   0  0  0  0  0  0  0  0  0  0  0  0
   19.5624   18.8135   25.9525 C   0  0  0  0  0  0  0  0  0  0  0  0
   18.6308   18.2447   25.8906 H   0  0  0  0  0  0  0  0  0  0  0  0
   20.3736   18.1890   25.5696 H   0  0  0  0  0  0  0  0  0  0  0  0
   19.8429   19.0943   27.4146 N   0  3  0  0  0  0  0  0  0  0  0  0
   19.9173   18.2294   27.9613 H   0  0  0  0  0  0  0  0  0  0  0  0
   19.1011   19.6561   27.8450 H   0  0  0  0  0  0  0  0  0  0  0  0
   20.7222   19.6056   27.5438 H   0  0  0  0  0  0  0  0  0  0  0  0
  1  2  1  0  0  0  0
  1  3  1  0  0  0  0
  1  4  1  0  0  0  0
  1  5  1  0  0  0  0
  5  6  1  0  0  0  0
  5  7  1  0  0  0  0
  5  8  1  0  0  0  0
  8  9  1  0  0  0  0
  8 10  1  0  0  0  0
  8 11  1  0  0  0  0
 11 12  1  0  0  0  0
 11 13  1  0  0  0  0
 11 14  1  0  0  0  0
 14 15  1  0  0  0  0
 14 16  1  0  0  0  0
 14 17  1  0  0  0  0
 17 18  1  0  0  0  0
 17 19  1  0  0  0  0
 17 20  1  0  0  0  0
 20 21  1  0  0  0  0
 20 22  1  0  0  0  0
 20 23  1  0  0  0  0
 23 24  1  0  0  0  0
 23 25  1  0  0  0  0
 23 26  1  0  0  0  0
M  END
> <VConfSearch Rank>
607

> <Conf_Id>
44

> <Delta U+W>
0.371

> <U+W>
-5.181

> <U>
48.002

> <W>
-53.183

> <W(PB)>
-55.533

> <W(SA)>
2.350

> <Valence>
2.459

> <Coulomb>
44.901

> <VdW>
0.643

> <VdW6>
-6.362

> <VdW12>
7.005

> <Bond>
0.151

> <Angle>
0.519

> <Pdih>
1.789

> <Idih>
0.000

> <Tether>
0.000

$$$$
VeraChem MOL file


 26 25  0  0  0  0  0  0  0  0999 V2000     
   16.6196   20.8368   23.8456 C   0  0  0  0  0  0  0  0  0  0  0  0
   16.4172   20.3425   24.8046 H   0  0  0  0  0  0  0  0  0  0  0  0
   15.9277   21.6838   23.7523 H   0  0  0  0  0  0  0  0  0  0  0  0
   16.3863   20.1315   23.0386 H   0  0  0  0  0  0  0  0  0  0  0  0
   18.0843   21.3250   23.7700 C   0  0  0  0  0  0  0  0  0  0  0  0
   18.2289   22.1209   24.5139 H   0  0  0  0  0  0  0  0  0  0  0  0
   18.2715   21.7839   22.7891 H   0  0  0  0  0  0  0  0  0  0  0  0
   19.1231   20.2077   24.0325 C   0  0  0  0  0  0  0  0  0  0  0  0
   20.1138   20.6756   24.0945 H   0  0  0  0  0  0  0  0  0  0  0  0
   18.9323   19.7535   25.0145 H   0  0  0  0  0  0  0  0  0  0  0  0
   19.1352   19.1078   22.9403 C   0  0  0  0  0  0  0  0  0  0  0  0
   19.3299   19.5611   21.9586 H   0  0  0  0  0  0  0  0  0  0  0  0
   18.1406   18.6482   22.8762 H   0  0  0  0  0  0  0  0  0  0  0  0
   20.1643   17.9809   23.2050 C   0  0  0  0  0  0  0  0  0  0  0  0
   19.9782   17.5373   24.1929 H   0  0  0  0  0  0  0  0  0  0  0  0
   19.9905   17.1827   22.4713 H   0  0  0  0  0  0  0  0  0  0  0  0
   21.6382   18.4501   23.1115 C   0  0  0  0  0  0  0  0  0  0  0  0
   21.8353   19.2147   23.8728 H   0  0  0  0  0  0  0  0  0  0  0  0
   21.8227   18.9210   22.1369 H   0  0  0  0  0  0  0  0  0  0  0  0
   22.6419   17.3003   23.3247 C   0  0  0  0  0  0  0  0  0  0  0  0
   23.6572   17.7057   23.3464 H   0  0  0  0  0  0  0  0  0  0  0  0
   22.4481   16.8156   24.2854 H   0  0  0  0  0  0  0  0  0  0  0  0
   22.5958   16.2385   22.2433 N   0  3  0  0  0  0  0  0  0  0  0  0
   21.6773   15.7872   22.1926 H   0  0  0  0  0  0  0  0  0  0  0  0
   23.2856   15.4973   22.4079 H   0  0  0  0  0  0  0  0  0  0  0  0
   22.7928   16.6302   21.3165 H   0  0  0  0  0  0  0  0  0  0  0  0
  1  2  1  0  0  0  0
  1  3  1  0  0  0  0
  1  4  1  0  0  0  0
  1  5  1  0  0  0  0
  5  6  1  0  0  0  0
  5  7  1  0  0  0  0
  5  8  1  0  0  0  0
  8  9  1  0  0  0  0
  8 10  1  0  0  0  0
  8 11  1  0  0  0  0
 11 12  1  0  0  0  0
 11 13  1  0  0  0  0
 11 14  1  0  0  0  0
 14 15  1  0  0  0  0
 14 16  1  0  0  0  0
 14 17  1  0  0  0  0
 17 18  1  0  0  0  0
 17 19  1  0  0  0  0
 17 20  1  0  0  0  0
 20 21  1  0  0  0  0
 20 22  1  0  0  0  0
 20 23  1  0  0  0  0
 23 24  1  0  0  0  0
 23 25  1  0  0  0  0
 23 26  1  0  0  0  0
M  END
> <VConfSearch Rank>
608

> <Conf_Id>
112

> <Delta U+W>
1.422

> <U+W>
-4.130

> <U>
49.323

> <W>
-53.453

> <W(PB)>
-55.749

> <W(SA)>
2.296

> <Valence>
3.408

> <Coulomb>
44.893

> <VdW>
1.021

> <VdW6>
-7.481

> <VdW12>
8.503

> <Bond>
0.239

> <Angle>
1.013

> <Pdih>
2.156

> <Idih>
0.000

> <Tether>
0.000

$$$$
VeraChem MOL file


 26 25  0  0  0  0  0  0  0  0999 V2000     
   23.4155   19.0945   21.9394 C   0  0  0  0  0  0  0  0  0  0  0  0
   24.4841   18.9900   21.7112 H   0  0  0  0  0  0  0  0  0  0  0  0
   22.8680   18.4156   21.2738 H   0  0  0  0  0  0  0  0  0  0  0  0
   23.1200   20.1242   21.6996 H   0  0  0  0  0  0  0  0  0  0  0  0
   23.1456   18.7709   23.4264 C   0  0  0  0  0  0  0  0  0  0  0  0
   23.8008   19.3952   24.0499 H   0  0  0  0  0  0  0  0  0  0  0  0
   23.4255   17.7287   23.6343 H   0  0  0  0  0  0  0  0  0  0  0  0
   21.6769   19.0135   23.8500 C   0  0  0  0  0  0  0  0  0  0  0  0
   21.5961   18.8575   24.9346 H   0  0  0  0  0  0  0  0  0  0  0  0
   21.4209   20.0652   23.6666 H   0  0  0  0  0  0  0  0  0  0  0  0
   20.6688   18.0845   23.1272 C   0  0  0  0  0  0  0  0  0  0  0  0
   21.0155   17.0456   23.2136 H   0  0  0  0  0  0  0  0  0  0  0  0
   20.6463   18.3155   22.0540 H   0  0  0  0  0  0  0  0  0  0  0  0
   19.2312   18.1705   23.6963 C   0  0  0  0  0  0  0  0  0  0  0  0
   18.6237   17.3970   23.2083 H   0  0  0  0  0  0  0  0  0  0  0  0
   19.2438   17.9234   24.7669 H   0  0  0  0  0  0  0  0  0  0  0  0
   18.5668   19.5547   23.4882 C   0  0  0  0  0  0  0  0  0  0  0  0
   18.5728   19.8190   22.4224 H   0  0  0  0  0  0  0  0  0  0  0  0
   19.1474   20.3273   24.0072 H   0  0  0  0  0  0  0  0  0  0  0  0
   17.1223   19.6067   24.0226 C   0  0  0  0  0  0  0  0  0  0  0  0
   17.1103   19.3259   25.0792 H   0  0  0  0  0  0  0  0  0  0  0  0
   16.7414   20.6280   23.9371 H   0  0  0  0  0  0  0  0  0  0  0  0
   16.1624   18.6962   23.2820 N   0  3  0  0  0  0  0  0  0  0  0  0
   16.4401   17.7125   23.3533 H   0  0  0  0  0  0  0  0  0  0  0  0
   16.1130   18.9258   22.2841 H   0  0  0  0  0  0  0  0  0  0  0  0
   15.2086   18.7663   23.6530 H   0  0  0  0  0  0  0  0  0  0  0  0
  1  2  1  0  0  0  0
  1  3  1  0  0  0  0
  1  4  1  0  0  0  0
  1  5  1  0  0  0  0
  5  6  1  0  0  0  0
  5  7  1  0  0  0  0
  5  8  1  0  0  0  0
  8  9  1  0  0  0  0
  8 10  1  0  0  0  0
  8 11  1  0  0  0  0
 11 12  1  0  0  0  0
 11 13  1  0  0  0  0
 11 14  1  0  0  0  0
 14 15  1  0  0  0  0
 14 16  1  0  0  0  0
 14 17  1  0  0  0  0
 17 18  1  0  0  0  0
 17 19  1  0  0  0  0
 17 20  1  0  0  0  0
 20 21  1  0  0  0  0
 20 22  1  0  0  0  0
 20 23  1  0  0  0  0
 23 24  1  0  0  0  0
 23 25  1  0  0  0  0
 23 26  1  0  0  0  0
M  END
> <VConfSearch Rank>
609

> <Conf_Id>
130

> <Delta U+W>
1.282

> <U+W>
-4.270

> <U>
49.153

> <W>
-53.422

> <W(PB)>
-55.725

> <W(SA)>
2.303

> <Valence>
3.298

> <Coulomb>
44.907

> <VdW>
0.948

> <VdW6>
-7.574

> <VdW12>
8.522

> <Bond>
0.229

> <Angle>
0.912

> <Pdih>
2.157

> <Idih>
0.000

> <Tether>
0.000

$$$$
VeraChem MOL file


 26 25  0  0  0  0  0  0  0  0999 V2000     
   17.1886   18.0349   25.1046 C   0  0  0  0  0  0  0  0  0  0  0  0
   17.2978   16.9914   25.4272 H   0  0  0  0  0  0  0  0  0  0  0  0
   16.1879   18.3754   25.4007 H   0  0  0  0  0  0  0  0  0  0  0  0
   17.2364   18.0636   24.0089 H   0  0  0  0  0  0  0  0  0  0  0  0
   18.2755   18.9298   25.7419 C   0  0  0  0  0  0  0  0  0  0  0  0
   18.1126   18.9642   26.8282 H   0  0  0  0  0  0  0  0  0  0  0  0
   18.1588   19.9632   25.3892 H   0  0  0  0  0  0  0  0  0  0  0  0
   19.7191   18.4314   25.4762 C   0  0  0  0  0  0  0  0  0  0  0  0
   20.4246   19.1049   25.9819 H   0  0  0  0  0  0  0  0  0  0  0  0
   19.8473   17.4498   25.9530 H   0  0  0  0  0  0  0  0  0  0  0  0
   20.1185   18.3126   23.9824 C   0  0  0  0  0  0  0  0  0  0  0  0
   19.4886   17.5631   23.4854 H   0  0  0  0  0  0  0  0  0  0  0  0
   21.1437   17.9224   23.9377 H   0  0  0  0  0  0  0  0  0  0  0  0
   20.0421   19.6555   23.2125 C   0  0  0  0  0  0  0  0  0  0  0  0
   19.0109   20.0316   23.2309 H   0  0  0  0  0  0  0  0  0  0  0  0
   20.6592   20.4100   23.7197 H   0  0  0  0  0  0  0  0  0  0  0  0
   20.4851   19.5338   21.7354 C   0  0  0  0  0  0  0  0  0  0  0  0
   20.3041   20.4918   21.2301 H   0  0  0  0  0  0  0  0  0  0  0  0
   19.8638   18.7865   21.2241 H   0  0  0  0  0  0  0  0  0  0  0  0
   21.9724   19.1618   21.5865 C   0  0  0  0  0  0  0  0  0  0  0  0
   22.5904   19.9054   22.0968 H   0  0  0  0  0  0  0  0  0  0  0  0
   22.1585   18.1867   22.0437 H   0  0  0  0  0  0  0  0  0  0  0  0
   22.4236   19.0905   20.1419 N   0  3  0  0  0  0  0  0  0  0  0  0
   21.8976   18.3882   19.6115 H   0  0  0  0  0  0  0  0  0  0  0  0
   23.4158   18.8418   20.0645 H   0  0  0  0  0  0  0  0  0  0  0  0
   22.3021   19.9867   19.6591 H   0  0  0  0  0  0  0  0  0  0  0  0
  1  2  1  0  0  0  0
  1  3  1  0  0  0  0
  1  4  1  0  0  0  0
  1  5  1  0  0  0  0
  5  6  1  0  0  0  0
  5  7  1  0  0  0  0
  5  8  1  0  0  0  0
  8  9  1  0  0  0  0
  8 10  1  0  0  0  0
  8 11  1  0  0  0  0
 11 12  1  0  0  0  0
 11 13  1  0  0  0  0
 11 14  1  0  0  0  0
 14 15  1  0  0  0  0
 14 16  1  0  0  0  0
 14 17  1  0  0  0  0
 17 18  1  0  0  0  0
 17 19  1  0  0  0  0
 17 20  1  0  0  0  0
 20 21  1  0  0  0  0
 20 22  1  0  0  0  0
 20 23  1  0  0  0  0
 23 24  1  0  0  0  0
 23 25  1  0  0  0  0
 23 26  1  0  0  0  0
M  END
> <VConfSearch Rank>
610

> <Conf_Id>
111

> <Delta U+W>
1.290

> <U+W>
-4.262

> <U>
49.209

> <W>
-53.471

> <W(PB)>
-55.745

> <W(SA)>
2.274

> <Valence>
3.465

> <Coulomb>
44.958

> <VdW>
0.786

> <VdW6>
-7.903

> <VdW12>
8.689

> <Bond>
0.237

> <Angle>
1.212

> <Pdih>
2.015

> <Idih>
0.000

> <Tether>
0.000

$$$$
VeraChem MOL file


 26 25  0  0  0  0  0  0  0  0999 V2000     
   23.7477   18.9592   24.6166 C   0  0  0  0  0  0  0  0  0  0  0  0
   23.6599   19.9691   25.0382 H   0  0  0  0  0  0  0  0  0  0  0  0
   23.9840   18.2664   25.4347 H   0  0  0  0  0  0  0  0  0  0  0  0
   24.5952   18.9577   23.9189 H   0  0  0  0  0  0  0  0  0  0  0  0
   22.4475   18.5446   23.8956 C   0  0  0  0  0  0  0  0  0  0  0  0
   22.5760   17.5439   23.4599 H   0  0  0  0  0  0  0  0  0  0  0  0
   22.2677   19.2351   23.0610 H   0  0  0  0  0  0  0  0  0  0  0  0
   21.2370   18.5435   24.8590 C   0  0  0  0  0  0  0  0  0  0  0  0
   21.4713   17.9092   25.7252 H   0  0  0  0  0  0  0  0  0  0  0  0
   21.0767   19.5563   25.2536 H   0  0  0  0  0  0  0  0  0  0  0  0
   19.9293   18.0253   24.2115 C   0  0  0  0  0  0  0  0  0  0  0  0
   19.1611   17.9492   24.9934 H   0  0  0  0  0  0  0  0  0  0  0  0
   20.0859   17.0058   23.8329 H   0  0  0  0  0  0  0  0  0  0  0  0
   19.4010   18.9308   23.0730 C   0  0  0  0  0  0  0  0  0  0  0  0
   19.3053   19.9598   23.4443 H   0  0  0  0  0  0  0  0  0  0  0  0
   20.1231   18.9537   22.2464 H   0  0  0  0  0  0  0  0  0  0  0  0
   18.0368   18.4366   22.5362 C   0  0  0  0  0  0  0  0  0  0  0  0
   17.2901   18.4428   23.3414 H   0  0  0  0  0  0  0  0  0  0  0  0
   18.1326   17.3938   22.2057 H   0  0  0  0  0  0  0  0  0  0  0  0
   17.5226   19.2781   21.3522 C   0  0  0  0  0  0  0  0  0  0  0  0
   18.2660   19.2784   20.5504 H   0  0  0  0  0  0  0  0  0  0  0  0
   16.6024   18.8334   20.9637 H   0  0  0  0  0  0  0  0  0  0  0  0
   17.2197   20.7191   21.7136 N   0  3  0  0  0  0  0  0  0  0  0  0
   16.8680   21.2478   20.9079 H   0  0  0  0  0  0  0  0  0  0  0  0
   18.0534   21.2088   22.0529 H   0  0  0  0  0  0  0  0  0  0  0  0
   16.5084   20.7857   22.4488 H   0  0  0  0  0  0  0  0  0  0  0  0
  1  2  1  0  0  0  0
  1  3  1  0  0  0  0
  1  4  1  0  0  0  0
  1  5  1  0  0  0  0
  5  6  1  0  0  0  0
  5  7  1  0  0  0  0
  5  8  1  0  0  0  0
  8  9  1  0  0  0  0
  8 10  1  0  0  0  0
  8 11  1  0  0  0  0
 11 12  1  0  0  0  0
 11 13  1  0  0  0  0
 11 14  1  0  0  0  0
 14 15  1  0  0  0  0
 14 16  1  0  0  0  0
 14 17  1  0  0  0  0
 17 18  1  0  0  0  0
 17 19  1  0  0  0  0
 17 20  1  0  0  0  0
 20 21  1  0  0  0  0
 20 22  1  0  0  0  0
 20 23  1  0  0  0  0
 23 24  1  0  0  0  0
 23 25  1  0  0  0  0
 23 26  1  0  0  0  0
M  END
> <VConfSearch Rank>
611

> <Conf_Id>
105

> <Delta U+W>
0.736

> <U+W>
-4.817

> <U>
48.735

> <W>
-53.552

> <W(PB)>
-55.889

> <W(SA)>
2.337

> <Valence>
2.803

> <Coulomb>
45.123

> <VdW>
0.809

> <VdW6>
-6.953

> <VdW12>
7.761

> <Bond>
0.188

> <Angle>
0.699

> <Pdih>
1.917

> <Idih>
0.000

> <Tether>
0.000

$$$$
VeraChem MOL file


 26 25  0  0  0  0  0  0  0  0999 V2000     
   23.0143   17.0841   22.1736 C   0  0  0  0  0  0  0  0  0  0  0  0
   23.9733   17.5919   22.0074 H   0  0  0  0  0  0  0  0  0  0  0  0
   23.0342   16.6351   23.1752 H   0  0  0  0  0  0  0  0  0  0  0  0
   22.9327   16.2706   21.4411 H   0  0  0  0  0  0  0  0  0  0  0  0
   21.8332   18.0671   22.0301 C   0  0  0  0  0  0  0  0  0  0  0  0
   20.8929   17.5156   22.1631 H   0  0  0  0  0  0  0  0  0  0  0  0
   21.8215   18.4770   21.0106 H   0  0  0  0  0  0  0  0  0  0  0  0
   21.9239   19.2213   23.0559 C   0  0  0  0  0  0  0  0  0  0  0  0
   21.8939   18.8155   24.0757 H   0  0  0  0  0  0  0  0  0  0  0  0
   22.9029   19.7100   22.9564 H   0  0  0  0  0  0  0  0  0  0  0  0
   20.8224   20.2985   22.8791 C   0  0  0  0  0  0  0  0  0  0  0  0
   20.9522   20.7808   21.9004 H   0  0  0  0  0  0  0  0  0  0  0  0
   20.9798   21.0891   23.6257 H   0  0  0  0  0  0  0  0  0  0  0  0
   19.3628   19.7863   22.9904 C   0  0  0  0  0  0  0  0  0  0  0  0
   18.6916   20.6405   22.8313 H   0  0  0  0  0  0  0  0  0  0  0  0
   19.1494   19.0802   22.1770 H   0  0  0  0  0  0  0  0  0  0  0  0
   19.0403   19.1261   24.3543 C   0  0  0  0  0  0  0  0  0  0  0  0
   19.2702   19.8209   25.1729 H   0  0  0  0  0  0  0  0  0  0  0  0
   19.6784   18.2455   24.4999 H   0  0  0  0  0  0  0  0  0  0  0  0
   17.5720   18.6713   24.4621 C   0  0  0  0  0  0  0  0  0  0  0  0
   17.3348   17.9942   23.6370 H   0  0  0  0  0  0  0  0  0  0  0  0
   17.4292   18.1283   25.4003 H   0  0  0  0  0  0  0  0  0  0  0  0
   16.5742   19.8126   24.4369 N   0  3  0  0  0  0  0  0  0  0  0  0
   16.6275   20.3448   23.5629 H   0  0  0  0  0  0  0  0  0  0  0  0
   16.7324   20.4735   25.2045 H   0  0  0  0  0  0  0  0  0  0  0  0
   15.6090   19.4765   24.5252 H   0  0  0  0  0  0  0  0  0  0  0  0
  1  2  1  0  0  0  0
  1  3  1  0  0  0  0
  1  4  1  0  0  0  0
  1  5  1  0  0  0  0
  5  6  1  0  0  0  0
  5  7  1  0  0  0  0
  5  8  1  0  0  0  0
  8  9  1  0  0  0  0
  8 10  1  0  0  0  0
  8 11  1  0  0  0  0
 11 12  1  0  0  0  0
 11 13  1  0  0  0  0
 11 14  1  0  0  0  0
 14 15  1  0  0  0  0
 14 16  1  0  0  0  0
 14 17  1  0  0  0  0
 17 18  1  0  0  0  0
 17 19  1  0  0  0  0
 17 20  1  0  0  0  0
 20 21  1  0  0  0  0
 20 22  1  0  0  0  0
 20 23  1  0  0  0  0
 23 24  1  0  0  0  0
 23 25  1  0  0  0  0
 23 26  1  0  0  0  0
M  END
> <VConfSearch Rank>
612

> <Conf_Id>
144

> <Delta U+W>
1.073

> <U+W>
-4.479

> <U>
49.231

> <W>
-53.710

> <W(PB)>
-55.983

> <W(SA)>
2.273

> <Valence>
3.276

> <Coulomb>
45.175

> <VdW>
0.779

> <VdW6>
-7.944

> <VdW12>
8.723

> <Bond>
0.239

> <Angle>
1.155

> <Pdih>
1.883

> <Idih>
0.000

> <Tether>
0.000

$$$$
VeraChem MOL file


 26 25  0  0  0  0  0  0  0  0999 V2000     
   20.6569   19.7307   19.7797 C   0  0  0  0  0  0  0  0  0  0  0  0
   21.2065   18.7853   19.6952 H   0  0  0  0  0  0  0  0  0  0  0  0
   20.3148   20.0028   18.7728 H   0  0  0  0  0  0  0  0  0  0  0  0
   21.3563   20.5066   20.1171 H   0  0  0  0  0  0  0  0  0  0  0  0
   19.4547   19.6085   20.7437 C   0  0  0  0  0  0  0  0  0  0  0  0
   18.7873   18.8038   20.4048 H   0  0  0  0  0  0  0  0  0  0  0  0
   18.8678   20.5363   20.6915 H   0  0  0  0  0  0  0  0  0  0  0  0
   19.8644   19.3655   22.2166 C   0  0  0  0  0  0  0  0  0  0  0  0
   20.5479   20.1609   22.5439 H   0  0  0  0  0  0  0  0  0  0  0  0
   18.9600   19.4503   22.8320 H   0  0  0  0  0  0  0  0  0  0  0  0
   20.5127   17.9794   22.4569 C   0  0  0  0  0  0  0  0  0  0  0  0
   21.3583   17.8462   21.7704 H   0  0  0  0  0  0  0  0  0  0  0  0
   19.7893   17.1914   22.2064 H   0  0  0  0  0  0  0  0  0  0  0  0
   21.0388   17.7564   23.8988 C   0  0  0  0  0  0  0  0  0  0  0  0
   21.5065   16.7625   23.9299 H   0  0  0  0  0  0  0  0  0  0  0  0
   21.8442   18.4702   24.1210 H   0  0  0  0  0  0  0  0  0  0  0  0
   19.9573   17.8146   25.0070 C   0  0  0  0  0  0  0  0  0  0  0  0
   20.2755   17.1738   25.8401 H   0  0  0  0  0  0  0  0  0  0  0  0
   19.0129   17.3946   24.6361 H   0  0  0  0  0  0  0  0  0  0  0  0
   19.7337   19.2369   25.5572 C   0  0  0  0  0  0  0  0  0  0  0  0
   20.6703   19.6201   25.9711 H   0  0  0  0  0  0  0  0  0  0  0  0
   19.4160   19.9078   24.7570 H   0  0  0  0  0  0  0  0  0  0  0  0
   18.6856   19.2902   26.6499 N   0  3  0  0  0  0  0  0  0  0  0  0
   18.9400   18.7044   27.4519 H   0  0  0  0  0  0  0  0  0  0  0  0
   17.7709   18.9670   26.3183 H   0  0  0  0  0  0  0  0  0  0  0  0
   18.5547   20.2432   27.0063 H   0  0  0  0  0  0  0  0  0  0  0  0
  1  2  1  0  0  0  0
  1  3  1  0  0  0  0
  1  4  1  0  0  0  0
  1  5  1  0  0  0  0
  5  6  1  0  0  0  0
  5  7  1  0  0  0  0
  5  8  1  0  0  0  0
  8  9  1  0  0  0  0
  8 10  1  0  0  0  0
  8 11  1  0  0  0  0
 11 12  1  0  0  0  0
 11 13  1  0  0  0  0
 11 14  1  0  0  0  0
 14 15  1  0  0  0  0
 14 16  1  0  0  0  0
 14 17  1  0  0  0  0
 17 18  1  0  0  0  0
 17 19  1  0  0  0  0
 17 20  1  0  0  0  0
 20 21  1  0  0  0  0
 20 22  1  0  0  0  0
 20 23  1  0  0  0  0
 23 24  1  0  0  0  0
 23 25  1  0  0  0  0
 23 26  1  0  0  0  0
M  END
> <VConfSearch Rank>
613

> <Conf_Id>
93

> <Delta U+W>
3.253

> <U+W>
-2.300

> <U>
51.609

> <W>
-53.909

> <W(PB)>
-56.178

> <W(SA)>
2.270

> <Valence>
5.204

> <Coulomb>
45.645

> <VdW>
0.760

> <VdW6>
-7.997

> <VdW12>
8.758

> <Bond>
0.240

> <Angle>
1.456

> <Pdih>
3.507

> <Idih>
0.000

> <Tether>
0.000

$$$$
VeraChem MOL file


 26 25  0  0  0  0  0  0  0  0999 V2000     
   23.5940   19.8020   23.7416 C   0  0  0  0  0  0  0  0  0  0  0  0
   23.4467   20.6509   23.0630 H   0  0  0  0  0  0  0  0  0  0  0  0
   23.3687   20.1346   24.7632 H   0  0  0  0  0  0  0  0  0  0  0  0
   24.6574   19.5321   23.7041 H   0  0  0  0  0  0  0  0  0  0  0  0
   22.7161   18.5934   23.3441 C   0  0  0  0  0  0  0  0  0  0  0  0
   22.9962   17.7353   23.9710 H   0  0  0  0  0  0  0  0  0  0  0  0
   22.9347   18.3005   22.3076 H   0  0  0  0  0  0  0  0  0  0  0  0
   21.1983   18.8502   23.5080 C   0  0  0  0  0  0  0  0  0  0  0  0
   20.6805   17.8953   23.3534 H   0  0  0  0  0  0  0  0  0  0  0  0
   20.9879   19.1629   24.5400 H   0  0  0  0  0  0  0  0  0  0  0  0
   20.6380   19.8974   22.5136 C   0  0  0  0  0  0  0  0  0  0  0  0
   20.7775   19.5341   21.4862 H   0  0  0  0  0  0  0  0  0  0  0  0
   21.2200   20.8244   22.5908 H   0  0  0  0  0  0  0  0  0  0  0  0
   19.1461   20.2599   22.7338 C   0  0  0  0  0  0  0  0  0  0  0  0
   19.0134   20.7289   23.7187 H   0  0  0  0  0  0  0  0  0  0  0  0
   18.8820   21.0332   21.9991 H   0  0  0  0  0  0  0  0  0  0  0  0
   18.1543   19.0808   22.5694 C   0  0  0  0  0  0  0  0  0  0  0  0
   18.5014   18.4022   21.7789 H   0  0  0  0  0  0  0  0  0  0  0  0
   17.1885   19.4806   22.2326 H   0  0  0  0  0  0  0  0  0  0  0  0
   17.9186   18.3039   23.8795 C   0  0  0  0  0  0  0  0  0  0  0  0
   18.8583   17.8894   24.2493 H   0  0  0  0  0  0  0  0  0  0  0  0
   17.5228   18.9820   24.6404 H   0  0  0  0  0  0  0  0  0  0  0  0
   16.9385   17.1597   23.7205 N   0  3  0  0  0  0  0  0  0  0  0  0
   16.0188   17.4857   23.4057 H   0  0  0  0  0  0  0  0  0  0  0  0
   16.7912   16.6584   24.6033 H   0  0  0  0  0  0  0  0  0  0  0  0
   17.2644   16.4695   23.0359 H   0  0  0  0  0  0  0  0  0  0  0  0
  1  2  1  0  0  0  0
  1  3  1  0  0  0  0
  1  4  1  0  0  0  0
  1  5  1  0  0  0  0
  5  6  1  0  0  0  0
  5  7  1  0  0  0  0
  5  8  1  0  0  0  0
  8  9  1  0  0  0  0
  8 10  1  0  0  0  0
  8 11  1  0  0  0  0
 11 12  1  0  0  0  0
 11 13  1  0  0  0  0
 11 14  1  0  0  0  0
 14 15  1  0  0  0  0
 14 16  1  0  0  0  0
 14 17  1  0  0  0  0
 17 18  1  0  0  0  0
 17 19  1  0  0  0  0
 17 20  1  0  0  0  0
 20 21  1  0  0  0  0
 20 22  1  0  0  0  0
 20 23  1  0  0  0  0
 23 24  1  0  0  0  0
 23 25  1  0  0  0  0
 23 26  1  0  0  0  0
M  END
> <VConfSearch Rank>
614

> <Conf_Id>
94

> <Delta U+W>
3.247

> <U+W>
-2.305

> <U>
51.609

> <W>
-53.914

> <W(PB)>
-56.221

> <W(SA)>
2.307

> <Valence>
5.204

> <Coulomb>
45.645

> <VdW>
0.760

> <VdW6>
-7.997

> <VdW12>
8.757

> <Bond>
0.240

> <Angle>
1.456

> <Pdih>
3.508

> <Idih>
0.000

> <Tether>
0.000

$$$$
VeraChem MOL file


 26 25  0  0  0  0  0  0  0  0999 V2000     
   18.6928   22.1569   25.4180 C   0  0  0  0  0  0  0  0  0  0  0  0
   19.4671   22.2973   26.1835 H   0  0  0  0  0  0  0  0  0  0  0  0
   18.8961   22.8534   24.5941 H   0  0  0  0  0  0  0  0  0  0  0  0
   17.7269   22.4320   25.8613 H   0  0  0  0  0  0  0  0  0  0  0  0
   18.6665   20.6973   24.9169 C   0  0  0  0  0  0  0  0  0  0  0  0
   17.8610   20.5800   24.1784 H   0  0  0  0  0  0  0  0  0  0  0  0
   18.4276   20.0282   25.7555 H   0  0  0  0  0  0  0  0  0  0  0  0
   20.0154   20.2840   24.2878 C   0  0  0  0  0  0  0  0  0  0  0  0
   20.2508   20.9568   23.4515 H   0  0  0  0  0  0  0  0  0  0  0  0
   20.8174   20.4058   25.0290 H   0  0  0  0  0  0  0  0  0  0  0  0
   19.9931   18.8228   23.7852 C   0  0  0  0  0  0  0  0  0  0  0  0
   19.1848   18.7070   23.0509 H   0  0  0  0  0  0  0  0  0  0  0  0
   19.7610   18.1510   24.6231 H   0  0  0  0  0  0  0  0  0  0  0  0
   21.3449   18.4123   23.1537 C   0  0  0  0  0  0  0  0  0  0  0  0
   21.5698   19.0654   22.2999 H   0  0  0  0  0  0  0  0  0  0  0  0
   22.1486   18.5783   23.8843 H   0  0  0  0  0  0  0  0  0  0  0  0
   21.3840   16.9291   22.7076 C   0  0  0  0  0  0  0  0  0  0  0  0
   21.2451   16.2836   23.5850 H   0  0  0  0  0  0  0  0  0  0  0  0
   22.3809   16.6955   22.3109 H   0  0  0  0  0  0  0  0  0  0  0  0
   20.3221   16.5623   21.6509 C   0  0  0  0  0  0  0  0  0  0  0  0
   20.4004   15.4982   21.4121 H   0  0  0  0  0  0  0  0  0  0  0  0
   19.3221   16.7471   22.0516 H   0  0  0  0  0  0  0  0  0  0  0  0
   20.4602   17.3373   20.3555 N   0  3  0  0  0  0  0  0  0  0  0  0
   21.3724   17.1814   19.9145 H   0  0  0  0  0  0  0  0  0  0  0  0
   20.3651   18.3462   20.5074 H   0  0  0  0  0  0  0  0  0  0  0  0
   19.7459   17.0663   19.6711 H   0  0  0  0  0  0  0  0  0  0  0  0
  1  2  1  0  0  0  0
  1  3  1  0  0  0  0
  1  4  1  0  0  0  0
  1  5  1  0  0  0  0
  5  6  1  0  0  0  0
  5  7  1  0  0  0  0
  5  8  1  0  0  0  0
  8  9  1  0  0  0  0
  8 10  1  0  0  0  0
  8 11  1  0  0  0  0
 11 12  1  0  0  0  0
 11 13  1  0  0  0  0
 11 14  1  0  0  0  0
 14 15  1  0  0  0  0
 14 16  1  0  0  0  0
 14 17  1  0  0  0  0
 17 18  1  0  0  0  0
 17 19  1  0  0  0  0
 17 20  1  0  0  0  0
 20 21  1  0  0  0  0
 20 22  1  0  0  0  0
 20 23  1  0  0  0  0
 23 24  1  0  0  0  0
 23 25  1  0  0  0  0
 23 26  1  0  0  0  0
M  END
> <VConfSearch Rank>
615

> <Conf_Id>
83

> <Delta U+W>
0.559

> <U+W>
-4.994

> <U>
48.668

> <W>
-53.661

> <W(PB)>
-55.972

> <W(SA)>
2.311

> <Valence>
2.543

> <Coulomb>
45.478

> <VdW>
0.646

> <VdW6>
-7.096

> <VdW12>
7.742

> <Bond>
0.176

> <Angle>
0.630

> <Pdih>
1.738

> <Idih>
0.000

> <Tether>
0.000

$$$$
VeraChem MOL file


 26 25  0  0  0  0  0  0  0  0999 V2000     
   19.3499   17.6499   19.6354 C   0  0  0  0  0  0  0  0  0  0  0  0
   20.2062   17.3712   19.0075 H   0  0  0  0  0  0  0  0  0  0  0  0
   18.8344   16.7294   19.9389 H   0  0  0  0  0  0  0  0  0  0  0  0
   18.6569   18.2366   19.0185 H   0  0  0  0  0  0  0  0  0  0  0  0
   19.8048   18.4622   20.8665 C   0  0  0  0  0  0  0  0  0  0  0  0
   18.9194   18.7564   21.4453 H   0  0  0  0  0  0  0  0  0  0  0  0
   20.2900   19.3896   20.5318 H   0  0  0  0  0  0  0  0  0  0  0  0
   20.7798   17.6533   21.7544 C   0  0  0  0  0  0  0  0  0  0  0  0
   20.2762   16.7531   22.1330 H   0  0  0  0  0  0  0  0  0  0  0  0
   21.6163   17.3005   21.1354 H   0  0  0  0  0  0  0  0  0  0  0  0
   21.3566   18.4637   22.9412 C   0  0  0  0  0  0  0  0  0  0  0  0
   21.8725   19.3561   22.5608 H   0  0  0  0  0  0  0  0  0  0  0  0
   22.1230   17.8529   23.4381 H   0  0  0  0  0  0  0  0  0  0  0  0
   20.2905   18.8806   23.9829 C   0  0  0  0  0  0  0  0  0  0  0  0
   19.5584   19.5501   23.5147 H   0  0  0  0  0  0  0  0  0  0  0  0
   19.7415   17.9912   24.3221 H   0  0  0  0  0  0  0  0  0  0  0  0
   20.9285   19.5874   25.2024 C   0  0  0  0  0  0  0  0  0  0  0  0
   21.4573   20.4936   24.8779 H   0  0  0  0  0  0  0  0  0  0  0  0
   21.6831   18.9282   25.6516 H   0  0  0  0  0  0  0  0  0  0  0  0
   19.8961   19.9542   26.2860 C   0  0  0  0  0  0  0  0  0  0  0  0
   19.3623   19.0550   26.6052 H   0  0  0  0  0  0  0  0  0  0  0  0
   20.4145   20.3693   27.1547 H   0  0  0  0  0  0  0  0  0  0  0  0
   18.8704   20.9745   25.8324 N   0  3  0  0  0  0  0  0  0  0  0  0
   18.3191   20.6323   25.0395 H   0  0  0  0  0  0  0  0  0  0  0  0
   19.3108   21.8528   25.5396 H   0  0  0  0  0  0  0  0  0  0  0  0
   18.2081   21.2066   26.5806 H   0  0  0  0  0  0  0  0  0  0  0  0
  1  2  1  0  0  0  0
  1  3  1  0  0  0  0
  1  4  1  0  0  0  0
  1  5  1  0  0  0  0
  5  6  1  0  0  0  0
  5  7  1  0  0  0  0
  5  8  1  0  0  0  0
  8  9  1  0  0  0  0
  8 10  1  0  0  0  0
  8 11  1  0  0  0  0
 11 12  1  0  0  0  0
 11 13  1  0  0  0  0
 11 14  1  0  0  0  0
 14 15  1  0  0  0  0
 14 16  1  0  0  0  0
 14 17  1  0  0  0  0
 17 18  1  0  0  0  0
 17 19  1  0  0  0  0
 17 20  1  0  0  0  0
 20 21  1  0  0  0  0
 20 22  1  0  0  0  0
 20 23  1  0  0  0  0
 23 24  1  0  0  0  0
 23 25  1  0  0  0  0
 23 26  1  0  0  0  0
M  END
> <VConfSearch Rank>
616

> <Conf_Id>
18

> <Delta U+W>
0.759

> <U+W>
-4.793

> <U>
48.945

> <W>
-53.738

> <W(PB)>
-56.051

> <W(SA)>
2.313

> <Valence>
2.802

> <Coulomb>
45.335

> <VdW>
0.807

> <VdW6>
-6.962

> <VdW12>
7.769

> <Bond>
0.189

> <Angle>
0.696

> <Pdih>
1.917

> <Idih>
0.000

> <Tether>
0.000

$$$$
VeraChem MOL file


 26 25  0  0  0  0  0  0  0  0999 V2000     
   16.4777   18.9120   21.3768 C   0  0  0  0  0  0  0  0  0  0  0  0
   16.7634   18.2146   20.5785 H   0  0  0  0  0  0  0  0  0  0  0  0
   15.6041   18.4975   21.8966 H   0  0  0  0  0  0  0  0  0  0  0  0
   16.1731   19.8560   20.9067 H   0  0  0  0  0  0  0  0  0  0  0  0
   17.6483   19.1435   22.3558 C   0  0  0  0  0  0  0  0  0  0  0  0
   17.3423   19.8665   23.1247 H   0  0  0  0  0  0  0  0  0  0  0  0
   18.4857   19.5956   21.8081 H   0  0  0  0  0  0  0  0  0  0  0  0
   18.0984   17.8248   23.0280 C   0  0  0  0  0  0  0  0  0  0  0  0
   17.2271   17.3498   23.4997 H   0  0  0  0  0  0  0  0  0  0  0  0
   18.4554   17.1219   22.2627 H   0  0  0  0  0  0  0  0  0  0  0  0
   19.1934   18.0194   24.1055 C   0  0  0  0  0  0  0  0  0  0  0  0
   19.3604   17.0565   24.6079 H   0  0  0  0  0  0  0  0  0  0  0  0
   18.8301   18.7112   24.8781 H   0  0  0  0  0  0  0  0  0  0  0  0
   20.5386   18.5312   23.5364 C   0  0  0  0  0  0  0  0  0  0  0  0
   20.8722   17.8653   22.7285 H   0  0  0  0  0  0  0  0  0  0  0  0
   20.3987   19.5258   23.0951 H   0  0  0  0  0  0  0  0  0  0  0  0
   21.6317   18.6020   24.6290 C   0  0  0  0  0  0  0  0  0  0  0  0
   21.7491   17.6128   25.0912 H   0  0  0  0  0  0  0  0  0  0  0  0
   21.3203   19.2867   25.4291 H   0  0  0  0  0  0  0  0  0  0  0  0
   22.9997   19.0456   24.0755 C   0  0  0  0  0  0  0  0  0  0  0  0
   23.7471   18.9931   24.8719 H   0  0  0  0  0  0  0  0  0  0  0  0
   23.3087   18.3704   23.2731 H   0  0  0  0  0  0  0  0  0  0  0  0
   23.0086   20.4602   23.5300 N   0  3  0  0  0  0  0  0  0  0  0  0
   22.7469   21.1459   24.2458 H   0  0  0  0  0  0  0  0  0  0  0  0
   22.3534   20.5707   22.7500 H   0  0  0  0  0  0  0  0  0  0  0  0
   23.9360   20.7285   23.1832 H   0  0  0  0  0  0  0  0  0  0  0  0
  1  2  1  0  0  0  0
  1  3  1  0  0  0  0
  1  4  1  0  0  0  0
  1  5  1  0  0  0  0
  5  6  1  0  0  0  0
  5  7  1  0  0  0  0
  5  8  1  0  0  0  0
  8  9  1  0  0  0  0
  8 10  1  0  0  0  0
  8 11  1  0  0  0  0
 11 12  1  0  0  0  0
 11 13  1  0  0  0  0
 11 14  1  0  0  0  0
 14 15  1  0  0  0  0
 14 16  1  0  0  0  0
 14 17  1  0  0  0  0
 17 18  1  0  0  0  0
 17 19  1  0  0  0  0
 17 20  1  0  0  0  0
 20 21  1  0  0  0  0
 20 22  1  0  0  0  0
 20 23  1  0  0  0  0
 23 24  1  0  0  0  0
 23 25  1  0  0  0  0
 23 26  1  0  0  0  0
M  END
> <VConfSearch Rank>
617

> <Conf_Id>
17

> <Delta U+W>
0.843

> <U+W>
-4.709

> <U>
48.945

> <W>
-53.653

> <W(PB)>
-55.991

> <W(SA)>
2.338

> <Valence>
2.802

> <Coulomb>
45.335

> <VdW>
0.807

> <VdW6>
-6.962

> <VdW12>
7.769

> <Bond>
0.189

> <Angle>
0.696

> <Pdih>
1.917

> <Idih>
0.000

> <Tether>
0.000

$$$$
VeraChem MOL file


 26 25  0  0  0  0  0  0  0  0999 V2000     
   21.4747   15.7885   23.3164 C   0  0  0  0  0  0  0  0  0  0  0  0
   20.3907   15.8972   23.1874 H   0  0  0  0  0  0  0  0  0  0  0  0
   21.9557   15.9527   22.3434 H   0  0  0  0  0  0  0  0  0  0  0  0
   21.6684   14.7503   23.6155 H   0  0  0  0  0  0  0  0  0  0  0  0
   22.0215   16.7684   24.3792 C   0  0  0  0  0  0  0  0  0  0  0  0
   23.0805   16.5376   24.5616 H   0  0  0  0  0  0  0  0  0  0  0  0
   21.5027   16.6051   25.3342 H   0  0  0  0  0  0  0  0  0  0  0  0
   21.9018   18.2552   23.9658 C   0  0  0  0  0  0  0  0  0  0  0  0
   22.4121   18.8686   24.7212 H   0  0  0  0  0  0  0  0  0  0  0  0
   22.4392   18.4176   23.0213 H   0  0  0  0  0  0  0  0  0  0  0  0
   20.4390   18.7402   23.8240 C   0  0  0  0  0  0  0  0  0  0  0  0
   19.8924   18.5310   24.7538 H   0  0  0  0  0  0  0  0  0  0  0  0
   19.9409   18.1758   23.0259 H   0  0  0  0  0  0  0  0  0  0  0  0
   20.3662   20.2543   23.5115 C   0  0  0  0  0  0  0  0  0  0  0  0
   20.9034   20.8109   24.2918 H   0  0  0  0  0  0  0  0  0  0  0  0
   20.8869   20.4631   22.5666 H   0  0  0  0  0  0  0  0  0  0  0  0
   18.9169   20.7889   23.4308 C   0  0  0  0  0  0  0  0  0  0  0  0
   18.9461   21.8785   23.2973 H   0  0  0  0  0  0  0  0  0  0  0  0
   18.4013   20.6025   24.3824 H   0  0  0  0  0  0  0  0  0  0  0  0
   18.1143   20.1620   22.2753 C   0  0  0  0  0  0  0  0  0  0  0  0
   18.6272   20.3480   21.3278 H   0  0  0  0  0  0  0  0  0  0  0  0
   18.0390   19.0812   22.4201 H   0  0  0  0  0  0  0  0  0  0  0  0
   16.7081   20.7144   22.1623 N   0  3  0  0  0  0  0  0  0  0  0  0
   16.1909   20.2847   21.3875 H   0  0  0  0  0  0  0  0  0  0  0  0
   16.7072   21.7262   21.9965 H   0  0  0  0  0  0  0  0  0  0  0  0
   16.1624   20.5478   23.0142 H   0  0  0  0  0  0  0  0  0  0  0  0
  1  2  1  0  0  0  0
  1  3  1  0  0  0  0
  1  4  1  0  0  0  0
  1  5  1  0  0  0  0
  5  6  1  0  0  0  0
  5  7  1  0  0  0  0
  5  8  1  0  0  0  0
  8  9  1  0  0  0  0
  8 10  1  0  0  0  0
  8 11  1  0  0  0  0
 11 12  1  0  0  0  0
 11 13  1  0  0  0  0
 11 14  1  0  0  0  0
 14 15  1  0  0  0  0
 14 16  1  0  0  0  0
 14 17  1  0  0  0  0
 17 18  1  0  0  0  0
 17 19  1  0  0  0  0
 17 20  1  0  0  0  0
 20 21  1  0  0  0  0
 20 22  1  0  0  0  0
 20 23  1  0  0  0  0
 23 24  1  0  0  0  0
 23 25  1  0  0  0  0
 23 26  1  0  0  0  0
M  END
> <VConfSearch Rank>
618

> <Conf_Id>
96

> <Delta U+W>
0.912

> <U+W>
-4.640

> <U>
48.723

> <W>
-53.364

> <W(PB)>
-55.683

> <W(SA)>
2.320

> <Valence>
2.962

> <Coulomb>
44.993

> <VdW>
0.768

> <VdW6>
-7.008

> <VdW12>
7.776

> <Bond>
0.188

> <Angle>
0.757

> <Pdih>
2.018

> <Idih>
0.000

> <Tether>
0.000

$$$$
VeraChem MOL file


 26 25  0  0  0  0  0  0  0  0999 V2000     
   20.4656   16.1154   25.2124 C   0  0  0  0  0  0  0  0  0  0  0  0
   20.7948   15.0976   25.4588 H   0  0  0  0  0  0  0  0  0  0  0  0
   19.6581   16.3840   25.9057 H   0  0  0  0  0  0  0  0  0  0  0  0
   20.0531   16.0911   24.1962 H   0  0  0  0  0  0  0  0  0  0  0  0
   21.6460   17.1070   25.3230 C   0  0  0  0  0  0  0  0  0  0  0  0
   22.4261   16.8354   24.5981 H   0  0  0  0  0  0  0  0  0  0  0  0
   22.1019   17.0046   26.3177 H   0  0  0  0  0  0  0  0  0  0  0  0
   21.2311   18.5839   25.1169 C   0  0  0  0  0  0  0  0  0  0  0  0
   20.4659   18.8565   25.8568 H   0  0  0  0  0  0  0  0  0  0  0  0
   22.1016   19.2219   25.3231 H   0  0  0  0  0  0  0  0  0  0  0  0
   20.7094   18.8850   23.6914 C   0  0  0  0  0  0  0  0  0  0  0  0
   19.8015   18.2990   23.5014 H   0  0  0  0  0  0  0  0  0  0  0  0
   21.4575   18.5655   22.9529 H   0  0  0  0  0  0  0  0  0  0  0  0
   20.4045   20.3902   23.4999 C   0  0  0  0  0  0  0  0  0  0  0  0
   19.6349   20.7066   24.2177 H   0  0  0  0  0  0  0  0  0  0  0  0
   21.3055   20.9743   23.7329 H   0  0  0  0  0  0  0  0  0  0  0  0
   19.9457   20.7393   22.0645 C   0  0  0  0  0  0  0  0  0  0  0  0
   20.7233   20.4454   21.3468 H   0  0  0  0  0  0  0  0  0  0  0  0
   19.8361   21.8287   21.9807 H   0  0  0  0  0  0  0  0  0  0  0  0
   18.6116   20.0691   21.6861 C   0  0  0  0  0  0  0  0  0  0  0  0
   18.7198   18.9820   21.7218 H   0  0  0  0  0  0  0  0  0  0  0  0
   17.8372   20.3620   22.4001 H   0  0  0  0  0  0  0  0  0  0  0  0
   18.1333   20.4428   20.2979 N   0  3  0  0  0  0  0  0  0  0  0  0
   18.8071   20.1692   19.5751 H   0  0  0  0  0  0  0  0  0  0  0  0
   17.9839   21.4528   20.2043 H   0  0  0  0  0  0  0  0  0  0  0  0
   17.2443   19.9867   20.0654 H   0  0  0  0  0  0  0  0  0  0  0  0
  1  2  1  0  0  0  0
  1  3  1  0  0  0  0
  1  4  1  0  0  0  0
  1  5  1  0  0  0  0
  5  6  1  0  0  0  0
  5  7  1  0  0  0  0
  5  8  1  0  0  0  0
  8  9  1  0  0  0  0
  8 10  1  0  0  0  0
  8 11  1  0  0  0  0
 11 12  1  0  0  0  0
 11 13  1  0  0  0  0
 11 14  1  0  0  0  0
 14 15  1  0  0  0  0
 14 16  1  0  0  0  0
 14 17  1  0  0  0  0
 17 18  1  0  0  0  0
 17 19  1  0  0  0  0
 17 20  1  0  0  0  0
 20 21  1  0  0  0  0
 20 22  1  0  0  0  0
 20 23  1  0  0  0  0
 23 24  1  0  0  0  0
 23 25  1  0  0  0  0
 23 26  1  0  0  0  0
M  END
> <VConfSearch Rank>
619

> <Conf_Id>
133

> <Delta U+W>
0.844

> <U+W>
-4.708

> <U>
48.723

> <W>
-53.431

> <W(PB)>
-55.776

> <W(SA)>
2.344

> <Valence>
2.962

> <Coulomb>
44.993

> <VdW>
0.768

> <VdW6>
-7.008

> <VdW12>
7.776

> <Bond>
0.188

> <Angle>
0.756

> <Pdih>
2.018

> <Idih>
0.000

> <Tether>
0.000

$$$$
VeraChem MOL file


 26 25  0  0  0  0  0  0  0  0999 V2000     
   20.2688   17.1336   20.4891 C   0  0  0  0  0  0  0  0  0  0  0  0
   19.4430   16.4680   20.2063 H   0  0  0  0  0  0  0  0  0  0  0  0
   19.8676   18.1475   20.6104 H   0  0  0  0  0  0  0  0  0  0  0  0
   20.9817   17.1580   19.6549 H   0  0  0  0  0  0  0  0  0  0  0  0
   20.9619   16.6411   21.7795 C   0  0  0  0  0  0  0  0  0  0  0  0
   21.7701   17.3324   22.0533 H   0  0  0  0  0  0  0  0  0  0  0  0
   21.4486   15.6775   21.5737 H   0  0  0  0  0  0  0  0  0  0  0  0
   19.9876   16.4565   22.9708 C   0  0  0  0  0  0  0  0  0  0  0  0
   19.2628   15.6706   22.7176 H   0  0  0  0  0  0  0  0  0  0  0  0
   20.5520   16.0775   23.8339 H   0  0  0  0  0  0  0  0  0  0  0  0
   19.2114   17.7297   23.3962 C   0  0  0  0  0  0  0  0  0  0  0  0
   18.5463   17.4656   24.2299 H   0  0  0  0  0  0  0  0  0  0  0  0
   18.5551   18.0584   22.5795 H   0  0  0  0  0  0  0  0  0  0  0  0
   20.1288   18.8967   23.8336 C   0  0  0  0  0  0  0  0  0  0  0  0
   20.8143   18.5507   24.6196 H   0  0  0  0  0  0  0  0  0  0  0  0
   20.7497   19.2215   22.9881 H   0  0  0  0  0  0  0  0  0  0  0  0
   19.3152   20.1023   24.3534 C   0  0  0  0  0  0  0  0  0  0  0  0
   18.6980   19.7922   25.2072 H   0  0  0  0  0  0  0  0  0  0  0  0
   18.6297   20.4510   23.5695 H   0  0  0  0  0  0  0  0  0  0  0  0
   20.2349   21.2596   24.7811 C   0  0  0  0  0  0  0  0  0  0  0  0
   20.9085   20.9211   25.5729 H   0  0  0  0  0  0  0  0  0  0  0  0
   20.8397   21.5831   23.9296 H   0  0  0  0  0  0  0  0  0  0  0  0
   19.4732   22.4631   25.2977 N   0  3  0  0  0  0  0  0  0  0  0  0
   20.1043   23.2221   25.5771 H   0  0  0  0  0  0  0  0  0  0  0  0
   18.9036   22.2314   26.1182 H   0  0  0  0  0  0  0  0  0  0  0  0
   18.8396   22.8474   24.5892 H   0  0  0  0  0  0  0  0  0  0  0  0
  1  2  1  0  0  0  0
  1  3  1  0  0  0  0
  1  4  1  0  0  0  0
  1  5  1  0  0  0  0
  5  6  1  0  0  0  0
  5  7  1  0  0  0  0
  5  8  1  0  0  0  0
  8  9  1  0  0  0  0
  8 10  1  0  0  0  0
  8 11  1  0  0  0  0
 11 12  1  0  0  0  0
 11 13  1  0  0  0  0
 11 14  1  0  0  0  0
 14 15  1  0  0  0  0
 14 16  1  0  0  0  0
 14 17  1  0  0  0  0
 17 18  1  0  0  0  0
 17 19  1  0  0  0  0
 17 20  1  0  0  0  0
 20 21  1  0  0  0  0
 20 22  1  0  0  0  0
 20 23  1  0  0  0  0
 23 24  1  0  0  0  0
 23 25  1  0  0  0  0
 23 26  1  0  0  0  0
M  END
> <VConfSearch Rank>
620

> <Conf_Id>
106

> <Delta U+W>
0.767

> <U+W>
-4.785

> <U>
48.494

> <W>
-53.279

> <W(PB)>
-55.569

> <W(SA)>
2.290

> <Valence>
3.117

> <Coulomb>
44.693

> <VdW>
0.684

> <VdW6>
-7.347

> <VdW12>
8.030

> <Bond>
0.208

> <Angle>
1.039

> <Pdih>
1.870

> <Idih>
0.000

> <Tether>
0.000

$$$$
VeraChem MOL file


 26 25  0  0  0  0  0  0  0  0999 V2000     
   17.5810   19.7990   26.9726 C   0  0  0  0  0  0  0  0  0  0  0  0
   18.3420   19.4464   27.6809 H   0  0  0  0  0  0  0  0  0  0  0  0
   17.6671   20.8906   26.8935 H   0  0  0  0  0  0  0  0  0  0  0  0
   16.5945   19.5685   27.3954 H   0  0  0  0  0  0  0  0  0  0  0  0
   17.7532   19.1276   25.5935 C   0  0  0  0  0  0  0  0  0  0  0  0
   16.9587   19.4739   24.9177 H   0  0  0  0  0  0  0  0  0  0  0  0
   17.6282   18.0408   25.6991 H   0  0  0  0  0  0  0  0  0  0  0  0
   19.1349   19.4362   24.9755 C   0  0  0  0  0  0  0  0  0  0  0  0
   19.2561   20.5236   24.8743 H   0  0  0  0  0  0  0  0  0  0  0  0
   19.9257   19.0903   25.6556 H   0  0  0  0  0  0  0  0  0  0  0  0
   19.3111   18.7656   23.5943 C   0  0  0  0  0  0  0  0  0  0  0  0
   18.5198   19.1118   22.9150 H   0  0  0  0  0  0  0  0  0  0  0  0
   19.1892   17.6783   23.6964 H   0  0  0  0  0  0  0  0  0  0  0  0
   20.6937   19.0745   22.9766 C   0  0  0  0  0  0  0  0  0  0  0  0
   20.8159   20.1619   22.8743 H   0  0  0  0  0  0  0  0  0  0  0  0
   21.4854   18.7282   23.6556 H   0  0  0  0  0  0  0  0  0  0  0  0
   20.8704   18.4047   21.5961 C   0  0  0  0  0  0  0  0  0  0  0  0
   20.0841   18.7524   20.9127 H   0  0  0  0  0  0  0  0  0  0  0  0
   20.7541   17.3171   21.6949 H   0  0  0  0  0  0  0  0  0  0  0  0
   22.2499   18.7186   20.9905 C   0  0  0  0  0  0  0  0  0  0  0  0
   22.3638   19.7998   20.8748 H   0  0  0  0  0  0  0  0  0  0  0  0
   23.0362   18.3594   21.6600 H   0  0  0  0  0  0  0  0  0  0  0  0
   22.4622   18.0782   19.6339 N   0  3  0  0  0  0  0  0  0  0  0  0
   23.3868   18.2998   19.2486 H   0  0  0  0  0  0  0  0  0  0  0  0
   21.7693   18.3963   18.9484 H   0  0  0  0  0  0  0  0  0  0  0  0
   22.3950   17.0561   19.6789 H   0  0  0  0  0  0  0  0  0  0  0  0
  1  2  1  0  0  0  0
  1  3  1  0  0  0  0
  1  4  1  0  0  0  0
  1  5  1  0  0  0  0
  5  6  1  0  0  0  0
  5  7  1  0  0  0  0
  5  8  1  0  0  0  0
  8  9  1  0  0  0  0
  8 10  1  0  0  0  0
  8 11  1  0  0  0  0
 11 12  1  0  0  0  0
 11 13  1  0  0  0  0
 11 14  1  0  0  0  0
 14 15  1  0  0  0  0
 14 16  1  0  0  0  0
 14 17  1  0  0  0  0
 17 18  1  0  0  0  0
 17 19  1  0  0  0  0
 17 20  1  0  0  0  0
 20 21  1  0  0  0  0
 20 22  1  0  0  0  0
 20 23  1  0  0  0  0
 23 24  1  0  0  0  0
 23 25  1  0  0  0  0
 23 26  1  0  0  0  0
M  END
> <VConfSearch Rank>
621

> <Conf_Id>
25

> <Delta U+W>
0.000

> <U+W>
-5.552

> <U>
47.192

> <W>
-52.745

> <W(PB)>
-55.134

> <W(SA)>
2.389

> <Valence>
2.156

> <Coulomb>
44.449

> <VdW>
0.587

> <VdW6>
-5.761

> <VdW12>
6.348

> <Bond>
0.129

> <Angle>
0.393

> <Pdih>
1.634

> <Idih>
0.000

> <Tether>
0.000

$$$$
VeraChem MOL file


 26 25  0  0  0  0  0  0  0  0999 V2000     
   16.7085   18.1560   25.9096 C   0  0  0  0  0  0  0  0  0  0  0  0
   16.9852   18.9096   26.6585 H   0  0  0  0  0  0  0  0  0  0  0  0
   15.9976   18.6143   25.2097 H   0  0  0  0  0  0  0  0  0  0  0  0
   16.1909   17.3391   26.4290 H   0  0  0  0  0  0  0  0  0  0  0  0
   17.9546   17.6273   25.1680 C   0  0  0  0  0  0  0  0  0  0  0  0
   17.6503   16.8521   24.4508 H   0  0  0  0  0  0  0  0  0  0  0  0
   18.6302   17.1451   25.8884 H   0  0  0  0  0  0  0  0  0  0  0  0
   18.7025   18.7582   24.4277 C   0  0  0  0  0  0  0  0  0  0  0  0
   18.0225   19.2386   23.7107 H   0  0  0  0  0  0  0  0  0  0  0  0
   19.0026   19.5316   25.1483 H   0  0  0  0  0  0  0  0  0  0  0  0
   19.9510   18.2325   23.6838 C   0  0  0  0  0  0  0  0  0  0  0  0
   19.6501   17.4593   22.9633 H   0  0  0  0  0  0  0  0  0  0  0  0
   20.6297   17.7513   24.4017 H   0  0  0  0  0  0  0  0  0  0  0  0
   20.6994   19.3642   22.9438 C   0  0  0  0  0  0  0  0  0  0  0  0
   20.0152   19.8445   22.2316 H   0  0  0  0  0  0  0  0  0  0  0  0
   21.0028   20.1360   23.6649 H   0  0  0  0  0  0  0  0  0  0  0  0
   21.9482   18.8357   22.1991 C   0  0  0  0  0  0  0  0  0  0  0  0
   21.6526   18.0856   21.4535 H   0  0  0  0  0  0  0  0  0  0  0  0
   22.6081   18.3249   22.9129 H   0  0  0  0  0  0  0  0  0  0  0  0
   22.7499   19.9572   21.5106 C   0  0  0  0  0  0  0  0  0  0  0  0
   23.0404   20.7089   22.2495 H   0  0  0  0  0  0  0  0  0  0  0  0
   23.6607   19.5371   21.0754 H   0  0  0  0  0  0  0  0  0  0  0  0
   21.9906   20.6572   20.4006 N   0  3  0  0  0  0  0  0  0  0  0  0
   21.1385   21.1075   20.7487 H   0  0  0  0  0  0  0  0  0  0  0  0
   21.7089   20.0048   19.6617 H   0  0  0  0  0  0  0  0  0  0  0  0
   22.5559   21.3882   19.9551 H   0  0  0  0  0  0  0  0  0  0  0  0
  1  2  1  0  0  0  0
  1  3  1  0  0  0  0
  1  4  1  0  0  0  0
  1  5  1  0  0  0  0
  5  6  1  0  0  0  0
  5  7  1  0  0  0  0
  5  8  1  0  0  0  0
  8  9  1  0  0  0  0
  8 10  1  0  0  0  0
  8 11  1  0  0  0  0
 11 12  1  0  0  0  0
 11 13  1  0  0  0  0
 11 14  1  0  0  0  0
 14 15  1  0  0  0  0
 14 16  1  0  0  0  0
 14 17  1  0  0  0  0
 17 18  1  0  0  0  0
 17 19  1  0  0  0  0
 17 20  1  0  0  0  0
 20 21  1  0  0  0  0
 20 22  1  0  0  0  0
 20 23  1  0  0  0  0
 23 24  1  0  0  0  0
 23 25  1  0  0  0  0
 23 26  1  0  0  0  0
M  END
> <VConfSearch Rank>
622

> <Conf_Id>
20

> <Delta U+W>
0.150

> <U+W>
-5.403

> <U>
47.845

> <W>
-53.248

> <W(PB)>
-55.599

> <W(SA)>
2.351

> <Valence>
2.258

> <Coulomb>
44.893

> <VdW>
0.694

> <VdW6>
-6.285

> <VdW12>
6.979

> <Bond>
0.149

> <Angle>
0.434

> <Pdih>
1.675

> <Idih>
0.000

> <Tether>
0.000

$$$$
VeraChem MOL file


 26 25  0  0  0  0  0  0  0  0999 V2000     
   17.3509   21.1631   25.9049 C   0  0  0  0  0  0  0  0  0  0  0  0
   16.4824   20.5573   25.6149 H   0  0  0  0  0  0  0  0  0  0  0  0
   17.7653   20.7451   26.8316 H   0  0  0  0  0  0  0  0  0  0  0  0
   16.9957   22.1787   26.1226 H   0  0  0  0  0  0  0  0  0  0  0  0
   18.4111   21.1853   24.7835 C   0  0  0  0  0  0  0  0  0  0  0  0
   19.2508   21.8255   25.0884 H   0  0  0  0  0  0  0  0  0  0  0  0
   17.9779   21.6391   23.8811 H   0  0  0  0  0  0  0  0  0  0  0  0
   18.9285   19.7668   24.4571 C   0  0  0  0  0  0  0  0  0  0  0  0
   19.3585   19.3165   25.3625 H   0  0  0  0  0  0  0  0  0  0  0  0
   18.0853   19.1301   24.1552 H   0  0  0  0  0  0  0  0  0  0  0  0
   19.9904   19.7850   23.3344 C   0  0  0  0  0  0  0  0  0  0  0  0
   20.8325   20.4229   23.6369 H   0  0  0  0  0  0  0  0  0  0  0  0
   19.5596   20.2351   22.4293 H   0  0  0  0  0  0  0  0  0  0  0  0
   20.5083   18.3658   23.0087 C   0  0  0  0  0  0  0  0  0  0  0  0
   20.9419   17.9169   23.9132 H   0  0  0  0  0  0  0  0  0  0  0  0
   19.6623   17.7315   22.7119 H   0  0  0  0  0  0  0  0  0  0  0  0
   21.5705   18.3861   21.8841 C   0  0  0  0  0  0  0  0  0  0  0  0
   22.3944   19.0518   22.1740 H   0  0  0  0  0  0  0  0  0  0  0  0
   21.1382   18.8044   20.9653 H   0  0  0  0  0  0  0  0  0  0  0  0
   22.1526   16.9902   21.5895 C   0  0  0  0  0  0  0  0  0  0  0  0
   22.9533   17.0798   20.8503 H   0  0  0  0  0  0  0  0  0  0  0  0
   22.5786   16.5685   22.5039 H   0  0  0  0  0  0  0  0  0  0  0  0
   21.1345   16.0062   21.0473 N   0  3  0  0  0  0  0  0  0  0  0  0
   20.7137   16.3368   20.1729 H   0  0  0  0  0  0  0  0  0  0  0  0
   20.3699   15.8467   21.7106 H   0  0  0  0  0  0  0  0  0  0  0  0
   21.5562   15.0921   20.8499 H   0  0  0  0  0  0  0  0  0  0  0  0
  1  2  1  0  0  0  0
  1  3  1  0  0  0  0
  1  4  1  0  0  0  0
  1  5  1  0  0  0  0
  5  6  1  0  0  0  0
  5  7  1  0  0  0  0
  5  8  1  0  0  0  0
  8  9  1  0  0  0  0
  8 10  1  0  0  0  0
  8 11  1  0  0  0  0
 11 12  1  0  0  0  0
 11 13  1  0  0  0  0
 11 14  1  0  0  0  0
 14 15  1  0  0  0  0
 14 16  1  0  0  0  0
 14 17  1  0  0  0  0
 17 18  1  0  0  0  0
 17 19  1  0  0  0  0
 17 20  1  0  0  0  0
 20 21  1  0  0  0  0
 20 22  1  0  0  0  0
 20 23  1  0  0  0  0
 23 24  1  0  0  0  0
 23 25  1  0  0  0  0
 23 26  1  0  0  0  0
M  END
> <VConfSearch Rank>
623

> <Conf_Id>
19

> <Delta U+W>
0.162

> <U+W>
-5.391

> <U>
47.845

> <W>
-53.235

> <W(PB)>
-55.585

> <W(SA)>
2.349

> <Valence>
2.258

> <Coulomb>
44.893

> <VdW>
0.694

> <VdW6>
-6.285

> <VdW12>
6.979

> <Bond>
0.149

> <Angle>
0.434

> <Pdih>
1.675

> <Idih>
0.000

> <Tether>
0.000

$$$$
VeraChem MOL file


 26 25  0  0  0  0  0  0  0  0999 V2000     
   17.6717   22.0864   21.7847 C   0  0  0  0  0  0  0  0  0  0  0  0
   17.3137   21.9480   20.7562 H   0  0  0  0  0  0  0  0  0  0  0  0
   16.8225   21.9404   22.4650 H   0  0  0  0  0  0  0  0  0  0  0  0
   18.0101   23.1258   21.8863 H   0  0  0  0  0  0  0  0  0  0  0  0
   18.8181   21.1057   22.1106 C   0  0  0  0  0  0  0  0  0  0  0  0
   19.1756   21.3024   23.1300 H   0  0  0  0  0  0  0  0  0  0  0  0
   19.6630   21.2955   21.4340 H   0  0  0  0  0  0  0  0  0  0  0  0
   18.3633   19.6330   21.9783 C   0  0  0  0  0  0  0  0  0  0  0  0
   17.5536   19.4297   22.6926 H   0  0  0  0  0  0  0  0  0  0  0  0
   17.9363   19.4803   20.9774 H   0  0  0  0  0  0  0  0  0  0  0  0
   19.5069   18.6096   22.1845 C   0  0  0  0  0  0  0  0  0  0  0  0
   20.3093   18.8040   21.4595 H   0  0  0  0  0  0  0  0  0  0  0  0
   19.1208   17.6067   21.9552 H   0  0  0  0  0  0  0  0  0  0  0  0
   20.0871   18.6102   23.6194 C   0  0  0  0  0  0  0  0  0  0  0  0
   20.5466   19.5830   23.8385 H   0  0  0  0  0  0  0  0  0  0  0  0
   19.2738   18.4699   24.3449 H   0  0  0  0  0  0  0  0  0  0  0  0
   21.1440   17.5001   23.8109 C   0  0  0  0  0  0  0  0  0  0  0  0
   21.9594   17.6374   23.0881 H   0  0  0  0  0  0  0  0  0  0  0  0
   20.6931   16.5199   23.6060 H   0  0  0  0  0  0  0  0  0  0  0  0
   21.7185   17.5099   25.2384 C   0  0  0  0  0  0  0  0  0  0  0  0
   22.1836   18.4784   25.4415 H   0  0  0  0  0  0  0  0  0  0  0  0
   20.9121   17.3571   25.9609 H   0  0  0  0  0  0  0  0  0  0  0  0
   22.7605   16.4339   25.4662 N   0  3  0  0  0  0  0  0  0  0  0  0
   23.5613   16.5374   24.8344 H   0  0  0  0  0  0  0  0  0  0  0  0
   22.3783   15.4941   25.3176 H   0  0  0  0  0  0  0  0  0  0  0  0
   23.1301   16.4578   26.4229 H   0  0  0  0  0  0  0  0  0  0  0  0
  1  2  1  0  0  0  0
  1  3  1  0  0  0  0
  1  4  1  0  0  0  0
  1  5  1  0  0  0  0
  5  6  1  0  0  0  0
  5  7  1  0  0  0  0
  5  8  1  0  0  0  0
  8  9  1  0  0  0  0
  8 10  1  0  0  0  0
  8 11  1  0  0  0  0
 11 12  1  0  0  0  0
 11 13  1  0  0  0  0
 11 14  1  0  0  0  0
 14 15  1  0  0  0  0
 14 16  1  0  0  0  0
 14 17  1  0  0  0  0
 17 18  1  0  0  0  0
 17 19  1  0  0  0  0
 17 20  1  0  0  0  0
 20 21  1  0  0  0  0
 20 22  1  0  0  0  0
 20 23  1  0  0  0  0
 23 24  1  0  0  0  0
 23 25  1  0  0  0  0
 23 26  1  0  0  0  0
M  END
> <VConfSearch Rank>
624

> <Conf_Id>
37

> <Delta U+W>
0.565

> <U+W>
-4.988

> <U>
48.035

> <W>
-53.022

> <W(PB)>
-55.379

> <W(SA)>
2.357

> <Valence>
2.701

> <Coulomb>
44.622

> <VdW>
0.712

> <VdW6>
-6.418

> <VdW12>
7.129

> <Bond>
0.168

> <Angle>
0.659

> <Pdih>
1.875

> <Idih>
0.000

> <Tether>
0.000

$$$$
VeraChem MOL file


 26 25  0  0  0  0  0  0  0  0999 V2000     
   20.1660   22.5410   24.9940 C   0  0  0  0  0  0  0  0  0  0  0  0
   19.5792   22.8180   24.1086 H   0  0  0  0  0  0  0  0  0  0  0  0
   19.4673   22.3059   25.8075 H   0  0  0  0  0  0  0  0  0  0  0  0
   20.7531   23.4177   25.2970 H   0  0  0  0  0  0  0  0  0  0  0  0
   21.0915   21.3428   24.6939 C   0  0  0  0  0  0  0  0  0  0  0  0
   21.6897   21.1123   25.5866 H   0  0  0  0  0  0  0  0  0  0  0  0
   21.7998   21.6189   23.9002 H   0  0  0  0  0  0  0  0  0  0  0  0
   20.2897   20.0937   24.2655 C   0  0  0  0  0  0  0  0  0  0  0  0
   19.5847   19.8205   25.0628 H   0  0  0  0  0  0  0  0  0  0  0  0
   19.6903   20.3403   23.3795 H   0  0  0  0  0  0  0  0  0  0  0  0
   21.2172   18.8929   23.9604 C   0  0  0  0  0  0  0  0  0  0  0  0
   21.8633   18.7104   24.8302 H   0  0  0  0  0  0  0  0  0  0  0  0
   21.8870   19.1443   23.1264 H   0  0  0  0  0  0  0  0  0  0  0  0
   20.4525   17.5861   23.6357 C   0  0  0  0  0  0  0  0  0  0  0  0
   21.1815   16.7684   23.5489 H   0  0  0  0  0  0  0  0  0  0  0  0
   19.7955   17.3250   24.4770 H   0  0  0  0  0  0  0  0  0  0  0  0
   19.6246   17.6605   22.3312 C   0  0  0  0  0  0  0  0  0  0  0  0
   20.2715   17.9708   21.4998 H   0  0  0  0  0  0  0  0  0  0  0  0
   18.8347   18.4160   22.4270 H   0  0  0  0  0  0  0  0  0  0  0  0
   18.9810   16.3029   21.9985 C   0  0  0  0  0  0  0  0  0  0  0  0
   19.7601   15.5448   21.8820 H   0  0  0  0  0  0  0  0  0  0  0  0
   18.3231   15.9972   22.8166 H   0  0  0  0  0  0  0  0  0  0  0  0
   18.1614   16.3305   20.7246 N   0  3  0  0  0  0  0  0  0  0  0  0
   18.7295   16.5856   19.9101 H   0  0  0  0  0  0  0  0  0  0  0  0
   17.3919   17.0059   20.7795 H   0  0  0  0  0  0  0  0  0  0  0  0
   17.7422   15.4164   20.5215 H   0  0  0  0  0  0  0  0  0  0  0  0
  1  2  1  0  0  0  0
  1  3  1  0  0  0  0
  1  4  1  0  0  0  0
  1  5  1  0  0  0  0
  5  6  1  0  0  0  0
  5  7  1  0  0  0  0
  5  8  1  0  0  0  0
  8  9  1  0  0  0  0
  8 10  1  0  0  0  0
  8 11  1  0  0  0  0
 11 12  1  0  0  0  0
 11 13  1  0  0  0  0
 11 14  1  0  0  0  0
 14 15  1  0  0  0  0
 14 16  1  0  0  0  0
 14 17  1  0  0  0  0
 17 18  1  0  0  0  0
 17 19  1  0  0  0  0
 17 20  1  0  0  0  0
 20 21  1  0  0  0  0
 20 22  1  0  0  0  0
 20 23  1  0  0  0  0
 23 24  1  0  0  0  0
 23 25  1  0  0  0  0
 23 26  1  0  0  0  0
M  END
> <VConfSearch Rank>
625

> <Conf_Id>
35

> <Delta U+W>
0.587

> <U+W>
-4.965

> <U>
48.214

> <W>
-53.179

> <W(PB)>
-55.527

> <W(SA)>
2.348

> <Valence>
2.697

> <Coulomb>
44.819

> <VdW>
0.699

> <VdW6>
-6.437

> <VdW12>
7.136

> <Bond>
0.168

> <Angle>
0.657

> <Pdih>
1.872

> <Idih>
0.000

> <Tether>
0.000

$$$$
VeraChem MOL file


 26 25  0  0  0  0  0  0  0  0999 V2000     
   21.6261   18.0768   19.6788 C   0  0  0  0  0  0  0  0  0  0  0  0
   21.2856   17.0332   19.6917 H   0  0  0  0  0  0  0  0  0  0  0  0
   20.7921   18.7045   19.3389 H   0  0  0  0  0  0  0  0  0  0  0  0
   22.4329   18.1588   18.9388 H   0  0  0  0  0  0  0  0  0  0  0  0
   22.1193   18.5167   21.0736 C   0  0  0  0  0  0  0  0  0  0  0  0
   22.4838   19.5522   21.0216 H   0  0  0  0  0  0  0  0  0  0  0  0
   22.9748   17.8939   21.3704 H   0  0  0  0  0  0  0  0  0  0  0  0
   21.0023   18.4101   22.1354 C   0  0  0  0  0  0  0  0  0  0  0  0
   20.1512   19.0288   21.8223 H   0  0  0  0  0  0  0  0  0  0  0  0
   20.6427   17.3730   22.1850 H   0  0  0  0  0  0  0  0  0  0  0  0
   21.4947   18.8549   23.5336 C   0  0  0  0  0  0  0  0  0  0  0  0
   21.8042   19.9086   23.4998 H   0  0  0  0  0  0  0  0  0  0  0  0
   22.3925   18.2784   23.7963 H   0  0  0  0  0  0  0  0  0  0  0  0
   20.4423   18.6590   24.6525 C   0  0  0  0  0  0  0  0  0  0  0  0
   20.1455   17.6019   24.6981 H   0  0  0  0  0  0  0  0  0  0  0  0
   20.9140   18.8884   25.6182 H   0  0  0  0  0  0  0  0  0  0  0  0
   19.1866   19.5464   24.4842 C   0  0  0  0  0  0  0  0  0  0  0  0
   18.6528   19.2761   23.5645 H   0  0  0  0  0  0  0  0  0  0  0  0
   19.4872   20.5982   24.3879 H   0  0  0  0  0  0  0  0  0  0  0  0
   18.2304   19.3958   25.6804 C   0  0  0  0  0  0  0  0  0  0  0  0
   17.9153   18.3528   25.7707 H   0  0  0  0  0  0  0  0  0  0  0  0
   18.7456   19.6806   26.6018 H   0  0  0  0  0  0  0  0  0  0  0  0
   16.9860   20.2513   25.5573 N   0  3  0  0  0  0  0  0  0  0  0  0
   16.4396   20.0137   24.7229 H   0  0  0  0  0  0  0  0  0  0  0  0
   17.2129   21.2493   25.4957 H   0  0  0  0  0  0  0  0  0  0  0  0
   16.3633   20.1362   26.3645 H   0  0  0  0  0  0  0  0  0  0  0  0
  1  2  1  0  0  0  0
  1  3  1  0  0  0  0
  1  4  1  0  0  0  0
  1  5  1  0  0  0  0
  5  6  1  0  0  0  0
  5  7  1  0  0  0  0
  5  8  1  0  0  0  0
  8  9  1  0  0  0  0
  8 10  1  0  0  0  0
  8 11  1  0  0  0  0
 11 12  1  0  0  0  0
 11 13  1  0  0  0  0
 11 14  1  0  0  0  0
 14 15  1  0  0  0  0
 14 16  1  0  0  0  0
 14 17  1  0  0  0  0
 17 18  1  0  0  0  0
 17 19  1  0  0  0  0
 17 20  1  0  0  0  0
 20 21  1  0  0  0  0
 20 22  1  0  0  0  0
 20 23  1  0  0  0  0
 23 24  1  0  0  0  0
 23 25  1  0  0  0  0
 23 26  1  0  0  0  0
M  END
> <VConfSearch Rank>
626

> <Conf_Id>
36

> <Delta U+W>
0.565

> <U+W>
-4.987

> <U>
48.214

> <W>
-53.201

> <W(PB)>
-55.543

> <W(SA)>
2.342

> <Valence>
2.697

> <Coulomb>
44.819

> <VdW>
0.698

> <VdW6>
-6.437

> <VdW12>
7.136

> <Bond>
0.168

> <Angle>
0.657

> <Pdih>
1.872

> <Idih>
0.000

> <Tether>
0.000

$$$$
VeraChem MOL file


 26 25  0  0  0  0  0  0  0  0999 V2000     
   19.0292   14.9945   24.8266 C   0  0  0  0  0  0  0  0  0  0  0  0
   18.0619   15.1705   25.3152 H   0  0  0  0  0  0  0  0  0  0  0  0
   18.9994   13.9966   24.3701 H   0  0  0  0  0  0  0  0  0  0  0  0
   19.8072   14.9877   25.6010 H   0  0  0  0  0  0  0  0  0  0  0  0
   19.3167   16.0731   23.7607 C   0  0  0  0  0  0  0  0  0  0  0  0
   18.5412   16.0329   22.9829 H   0  0  0  0  0  0  0  0  0  0  0  0
   20.2731   15.8513   23.2666 H   0  0  0  0  0  0  0  0  0  0  0  0
   19.3640   17.4886   24.3774 C   0  0  0  0  0  0  0  0  0  0  0  0
   18.4069   17.7041   24.8725 H   0  0  0  0  0  0  0  0  0  0  0  0
   20.1391   17.5234   25.1555 H   0  0  0  0  0  0  0  0  0  0  0  0
   19.6514   18.5716   23.3131 C   0  0  0  0  0  0  0  0  0  0  0  0
   18.8742   18.5375   22.5371 H   0  0  0  0  0  0  0  0  0  0  0  0
   20.6057   18.3464   22.8185 H   0  0  0  0  0  0  0  0  0  0  0  0
   19.6994   19.9883   23.9342 C   0  0  0  0  0  0  0  0  0  0  0  0
   18.7580   20.1813   24.4669 H   0  0  0  0  0  0  0  0  0  0  0  0
   20.4980   20.0361   24.6876 H   0  0  0  0  0  0  0  0  0  0  0  0
   19.9130   21.1045   22.8849 C   0  0  0  0  0  0  0  0  0  0  0  0
   19.8476   22.0803   23.3844 H   0  0  0  0  0  0  0  0  0  0  0  0
   19.1023   21.0752   22.1447 H   0  0  0  0  0  0  0  0  0  0  0  0
   21.2723   20.9960   22.1688 C   0  0  0  0  0  0  0  0  0  0  0  0
   22.0797   21.0262   22.9055 H   0  0  0  0  0  0  0  0  0  0  0  0
   21.3326   20.0468   21.6303 H   0  0  0  0  0  0  0  0  0  0  0  0
   21.5075   22.1117   21.1711 N   0  3  0  0  0  0  0  0  0  0  0  0
   22.4172   22.0213   20.7057 H   0  0  0  0  0  0  0  0  0  0  0  0
   21.4918   23.0341   21.6186 H   0  0  0  0  0  0  0  0  0  0  0  0
   20.7948   22.1218   20.4341 H   0  0  0  0  0  0  0  0  0  0  0  0
  1  2  1  0  0  0  0
  1  3  1  0  0  0  0
  1  4  1  0  0  0  0
  1  5  1  0  0  0  0
  5  6  1  0  0  0  0
  5  7  1  0  0  0  0
  5  8  1  0  0  0  0
  8  9  1  0  0  0  0
  8 10  1  0  0  0  0
  8 11  1  0  0  0  0
 11 12  1  0  0  0  0
 11 13  1  0  0  0  0
 11 14  1  0  0  0  0
 14 15  1  0  0  0  0
 14 16  1  0  0  0  0
 14 17  1  0  0  0  0
 17 18  1  0  0  0  0
 17 19  1  0  0  0  0
 17 20  1  0  0  0  0
 20 21  1  0  0  0  0
 20 22  1  0  0  0  0
 20 23  1  0  0  0  0
 23 24  1  0  0  0  0
 23 25  1  0  0  0  0
 23 26  1  0  0  0  0
M  END
> <VConfSearch Rank>
627

> <Conf_Id>
44

> <Delta U+W>
0.371

> <U+W>
-5.181

> <U>
48.002

> <W>
-53.183

> <W(PB)>
-55.533

> <W(SA)>
2.350

> <Valence>
2.459

> <Coulomb>
44.901

> <VdW>
0.643

> <VdW6>
-6.362

> <VdW12>
7.005

> <Bond>
0.151

> <Angle>
0.519

> <Pdih>
1.789

> <Idih>
0.000

> <Tether>
0.000

$$$$
VeraChem MOL file


 26 25  0  0  0  0  0  0  0  0999 V2000     
   22.3885   21.7722   22.1955 C   0  0  0  0  0  0  0  0  0  0  0  0
   21.8620   22.5306   22.7894 H   0  0  0  0  0  0  0  0  0  0  0  0
   23.3436   22.2045   21.8703 H   0  0  0  0  0  0  0  0  0  0  0  0
   21.7965   21.5680   21.2949 H   0  0  0  0  0  0  0  0  0  0  0  0
   22.6301   20.4883   23.0217 C   0  0  0  0  0  0  0  0  0  0  0  0
   23.3308   20.7204   23.8359 H   0  0  0  0  0  0  0  0  0  0  0  0
   23.1260   19.7331   22.3959 H   0  0  0  0  0  0  0  0  0  0  0  0
   21.3384   19.8948   23.6346 C   0  0  0  0  0  0  0  0  0  0  0  0
   21.6284   19.0781   24.3077 H   0  0  0  0  0  0  0  0  0  0  0  0
   20.8477   20.6531   24.2601 H   0  0  0  0  0  0  0  0  0  0  0  0
   20.3398   19.3646   22.5742 C   0  0  0  0  0  0  0  0  0  0  0  0
   20.8289   18.6033   21.9510 H   0  0  0  0  0  0  0  0  0  0  0  0
   20.0587   20.1825   21.8985 H   0  0  0  0  0  0  0  0  0  0  0  0
   19.0400   18.7811   23.1819 C   0  0  0  0  0  0  0  0  0  0  0  0
   18.5586   19.5380   23.8166 H   0  0  0  0  0  0  0  0  0  0  0  0
   18.3412   18.5789   22.3596 H   0  0  0  0  0  0  0  0  0  0  0  0
   19.2629   17.4813   23.9957 C   0  0  0  0  0  0  0  0  0  0  0  0
   19.9227   17.6834   24.8482 H   0  0  0  0  0  0  0  0  0  0  0  0
   19.7705   16.7307   23.3754 H   0  0  0  0  0  0  0  0  0  0  0  0
   17.9489   16.8913   24.5436 C   0  0  0  0  0  0  0  0  0  0  0  0
   18.1766   16.0373   25.1875 H   0  0  0  0  0  0  0  0  0  0  0  0
   17.4304   17.6428   25.1451 H   0  0  0  0  0  0  0  0  0  0  0  0
   16.9966   16.4112   23.4659 N   0  3  0  0  0  0  0  0  0  0  0  0
   16.7099   17.1739   22.8446 H   0  0  0  0  0  0  0  0  0  0  0  0
   16.1403   16.0115   23.8651 H   0  0  0  0  0  0  0  0  0  0  0  0
   17.4204   15.6851   22.8791 H   0  0  0  0  0  0  0  0  0  0  0  0
  1  2  1  0  0  0  0
  1  3  1  0  0  0  0
  1  4  1  0  0  0  0
  1  5  1  0  0  0  0
  5  6  1  0  0  0  0
  5  7  1  0  0  0  0
  5  8  1  0  0  0  0
  8  9  1  0  0  0  0
  8 10  1  0  0  0  0
  8 11  1  0  0  0  0
 11 12  1  0  0  0  0
 11 13  1  0  0  0  0
 11 14  1  0  0  0  0
 14 15  1  0  0  0  0
 14 16  1  0  0  0  0
 14 17  1  0  0  0  0
 17 18  1  0  0  0  0
 17 19  1  0  0  0  0
 17 20  1  0  0  0  0
 20 21  1  0  0  0  0
 20 22  1  0  0  0  0
 20 23  1  0  0  0  0
 23 24  1  0  0  0  0
 23 25  1  0  0  0  0
 23 26  1  0  0  0  0
M  END
> <VConfSearch Rank>
628

> <Conf_Id>
112

> <Delta U+W>
1.422

> <U+W>
-4.130

> <U>
49.323

> <W>
-53.453

> <W(PB)>
-55.749

> <W(SA)>
2.296

> <Valence>
3.408

> <Coulomb>
44.893

> <VdW>
1.021

> <VdW6>
-7.481

> <VdW12>
8.503

> <Bond>
0.239

> <Angle>
1.013

> <Pdih>
2.156

> <Idih>
0.000

> <Tether>
0.000

$$$$
VeraChem MOL file


 26 25  0  0  0  0  0  0  0  0999 V2000     
   22.7781   18.1022   25.5946 C   0  0  0  0  0  0  0  0  0  0  0  0
   23.5461   18.0910   26.3789 H   0  0  0  0  0  0  0  0  0  0  0  0
   21.9114   17.5465   25.9736 H   0  0  0  0  0  0  0  0  0  0  0  0
   23.1783   17.5647   24.7251 H   0  0  0  0  0  0  0  0  0  0  0  0
   22.4030   19.5553   25.2254 C   0  0  0  0  0  0  0  0  0  0  0  0
   23.3193   20.1028   24.9639 H   0  0  0  0  0  0  0  0  0  0  0  0
   21.9820   20.0630   26.1045 H   0  0  0  0  0  0  0  0  0  0  0  0
   21.4115   19.6506   24.0407 C   0  0  0  0  0  0  0  0  0  0  0  0
   21.2784   20.7098   23.7811 H   0  0  0  0  0  0  0  0  0  0  0  0
   21.8576   19.1679   23.1613 H   0  0  0  0  0  0  0  0  0  0  0  0
   20.0271   19.0257   24.3481 C   0  0  0  0  0  0  0  0  0  0  0  0
   19.6576   19.4279   25.3014 H   0  0  0  0  0  0  0  0  0  0  0  0
   20.1257   17.9409   24.4869 H   0  0  0  0  0  0  0  0  0  0  0  0
   18.9666   19.3042   23.2545 C   0  0  0  0  0  0  0  0  0  0  0  0
   17.9986   18.9315   23.6145 H   0  0  0  0  0  0  0  0  0  0  0  0
   18.8500   20.3888   23.1226 H   0  0  0  0  0  0  0  0  0  0  0  0
   19.2976   18.6455   21.8917 C   0  0  0  0  0  0  0  0  0  0  0  0
   19.4396   17.5642   22.0205 H   0  0  0  0  0  0  0  0  0  0  0  0
   20.2448   19.0435   21.5070 H   0  0  0  0  0  0  0  0  0  0  0  0
   18.2099   18.8983   20.8298 C   0  0  0  0  0  0  0  0  0  0  0  0
   18.0528   19.9739   20.7126 H   0  0  0  0  0  0  0  0  0  0  0  0
   18.5417   18.4956   19.8689 H   0  0  0  0  0  0  0  0  0  0  0  0
   16.8742   18.2600   21.1575 N   0  3  0  0  0  0  0  0  0  0  0  0
   16.4845   18.6223   22.0331 H   0  0  0  0  0  0  0  0  0  0  0  0
   16.9529   17.2428   21.2586 H   0  0  0  0  0  0  0  0  0  0  0  0
   16.1785   18.4352   20.4243 H   0  0  0  0  0  0  0  0  0  0  0  0
  1  2  1  0  0  0  0
  1  3  1  0  0  0  0
  1  4  1  0  0  0  0
  1  5  1  0  0  0  0
  5  6  1  0  0  0  0
  5  7  1  0  0  0  0
  5  8  1  0  0  0  0
  8  9  1  0  0  0  0
  8 10  1  0  0  0  0
  8 11  1  0  0  0  0
 11 12  1  0  0  0  0
 11 13  1  0  0  0  0
 11 14  1  0  0  0  0
 14 15  1  0  0  0  0
 14 16  1  0  0  0  0
 14 17  1  0  0  0  0
 17 18  1  0  0  0  0
 17 19  1  0  0  0  0
 17 20  1  0  0  0  0
 20 21  1  0  0  0  0
 20 22  1  0  0  0  0
 20 23  1  0  0  0  0
 23 24  1  0  0  0  0
 23 25  1  0  0  0  0
 23 26  1  0  0  0  0
M  END
> <VConfSearch Rank>
629

> <Conf_Id>
130

> <Delta U+W>
1.282

> <U+W>
-4.270

> <U>
49.153

> <W>
-53.422

> <W(PB)>
-55.725

> <W(SA)>
2.303

> <Valence>
3.298

> <Coulomb>
44.907

> <VdW>
0.948

> <VdW6>
-7.574

> <VdW12>
8.522

> <Bond>
0.229

> <Angle>
0.912

> <Pdih>
2.157

> <Idih>
0.000

> <Tether>
0.000

$$$$
VeraChem MOL file


 26 25  0  0  0  0  0  0  0  0999 V2000     
   18.8391   20.6146   20.5917 C   0  0  0  0  0  0  0  0  0  0  0  0
   19.5622   20.4796   19.7769 H   0  0  0  0  0  0  0  0  0  0  0  0
   18.0735   21.3222   20.2481 H   0  0  0  0  0  0  0  0  0  0  0  0
   19.3588   21.0768   21.4403 H   0  0  0  0  0  0  0  0  0  0  0  0
   18.1927   19.2684   20.9893 C   0  0  0  0  0  0  0  0  0  0  0  0
   17.5866   18.9052   20.1476 H   0  0  0  0  0  0  0  0  0  0  0  0
   17.4898   19.4250   21.8183 H   0  0  0  0  0  0  0  0  0  0  0  0
   19.2256   18.1737   21.3606 C   0  0  0  0  0  0  0  0  0  0  0  0
   18.6873   17.2475   21.6042 H   0  0  0  0  0  0  0  0  0  0  0  0
   19.8314   17.9440   20.4732 H   0  0  0  0  0  0  0  0  0  0  0  0
   20.1778   18.5264   22.5328 C   0  0  0  0  0  0  0  0  0  0  0  0
   20.7995   19.3901   22.2626 H   0  0  0  0  0  0  0  0  0  0  0  0
   20.8714   17.6862   22.6680 H   0  0  0  0  0  0  0  0  0  0  0  0
   19.4402   18.8080   23.8664 C   0  0  0  0  0  0  0  0  0  0  0  0
   18.7685   19.6671   23.7406 H   0  0  0  0  0  0  0  0  0  0  0  0
   18.8052   17.9503   24.1278 H   0  0  0  0  0  0  0  0  0  0  0  0
   20.4020   19.1148   25.0385 C   0  0  0  0  0  0  0  0  0  0  0  0
   19.8104   19.4067   25.9164 H   0  0  0  0  0  0  0  0  0  0  0  0
   21.0318   19.9774   24.7829 H   0  0  0  0  0  0  0  0  0  0  0  0
   21.2924   17.9143   25.4106 C   0  0  0  0  0  0  0  0  0  0  0  0
   20.6649   17.0554   25.6637 H   0  0  0  0  0  0  0  0  0  0  0  0
   21.9225   17.6420   24.5601 H   0  0  0  0  0  0  0  0  0  0  0  0
   22.2008   18.1935   26.5904 N   0  3  0  0  0  0  0  0  0  0  0  0
   22.8368   18.9763   26.4061 H   0  0  0  0  0  0  0  0  0  0  0  0
   22.7847   17.3825   26.8221 H   0  0  0  0  0  0  0  0  0  0  0  0
   21.6690   18.4291   27.4348 H   0  0  0  0  0  0  0  0  0  0  0  0
  1  2  1  0  0  0  0
  1  3  1  0  0  0  0
  1  4  1  0  0  0  0
  1  5  1  0  0  0  0
  5  6  1  0  0  0  0
  5  7  1  0  0  0  0
  5  8  1  0  0  0  0
  8  9  1  0  0  0  0
  8 10  1  0  0  0  0
  8 11  1  0  0  0  0
 11 12  1  0  0  0  0
 11 13  1  0  0  0  0
 11 14  1  0  0  0  0
 14 15  1  0  0  0  0
 14 16  1  0  0  0  0
 14 17  1  0  0  0  0
 17 18  1  0  0  0  0
 17 19  1  0  0  0  0
 17 20  1  0  0  0  0
 20 21  1  0  0  0  0
 20 22  1  0  0  0  0
 20 23  1  0  0  0  0
 23 24  1  0  0  0  0
 23 25  1  0  0  0  0
 23 26  1  0  0  0  0
M  END
> <VConfSearch Rank>
630

> <Conf_Id>
111

> <Delta U+W>
1.290

> <U+W>
-4.262

> <U>
49.209

> <W>
-53.471

> <W(PB)>
-55.745

> <W(SA)>
2.274

> <Valence>
3.465

> <Coulomb>
44.958

> <VdW>
0.786

> <VdW6>
-7.903

> <VdW12>
8.689

> <Bond>
0.237

> <Angle>
1.212

> <Pdih>
2.015

> <Idih>
0.000

> <Tether>
0.000

$$$$
VeraChem MOL file


 26 25  0  0  0  0  0  0  0  0999 V2000     
   21.0342   22.8509   23.4136 C   0  0  0  0  0  0  0  0  0  0  0  0
   20.0308   23.1642   23.7300 H   0  0  0  0  0  0  0  0  0  0  0  0
   21.7476   23.1509   24.1923 H   0  0  0  0  0  0  0  0  0  0  0  0
   21.2855   23.4004   22.4971 H   0  0  0  0  0  0  0  0  0  0  0  0
   21.0878   21.3280   23.1681 C   0  0  0  0  0  0  0  0  0  0  0  0
   22.0941   21.0497   22.8250 H   0  0  0  0  0  0  0  0  0  0  0  0
   20.3927   21.0738   22.3570 H   0  0  0  0  0  0  0  0  0  0  0  0
   20.7327   20.5319   24.4461 C   0  0  0  0  0  0  0  0  0  0  0  0
   21.3882   20.8603   25.2645 H   0  0  0  0  0  0  0  0  0  0  0  0
   19.7068   20.7711   24.7585 H   0  0  0  0  0  0  0  0  0  0  0  0
   20.8821   18.9991   24.2837 C   0  0  0  0  0  0  0  0  0  0  0  0
   20.7254   18.5291   25.2644 H   0  0  0  0  0  0  0  0  0  0  0  0
   21.9130   18.7598   23.9883 H   0  0  0  0  0  0  0  0  0  0  0  0
   19.8904   18.3846   23.2667 C   0  0  0  0  0  0  0  0  0  0  0  0
   18.8674   18.6795   23.5358 H   0  0  0  0  0  0  0  0  0  0  0  0
   20.0864   18.7848   22.2632 H   0  0  0  0  0  0  0  0  0  0  0  0
   19.9987   16.8420   23.2235 C   0  0  0  0  0  0  0  0  0  0  0  0
   19.7685   16.4201   24.2109 H   0  0  0  0  0  0  0  0  0  0  0  0
   21.0341   16.5567   22.9945 H   0  0  0  0  0  0  0  0  0  0  0  0
   19.0734   16.2095   22.1661 C   0  0  0  0  0  0  0  0  0  0  0  0
   19.2964   16.6311   21.1823 H   0  0  0  0  0  0  0  0  0  0  0  0
   19.2540   15.1319   22.1241 H   0  0  0  0  0  0  0  0  0  0  0  0
   17.5975   16.4176   22.4437 N   0  3  0  0  0  0  0  0  0  0  0  0
   17.0096   15.9743   21.7295 H   0  0  0  0  0  0  0  0  0  0  0  0
   17.3508   17.4120   22.4604 H   0  0  0  0  0  0  0  0  0  0  0  0
   17.3206   16.0211   23.3476 H   0  0  0  0  0  0  0  0  0  0  0  0
  1  2  1  0  0  0  0
  1  3  1  0  0  0  0
  1  4  1  0  0  0  0
  1  5  1  0  0  0  0
  5  6  1  0  0  0  0
  5  7  1  0  0  0  0
  5  8  1  0  0  0  0
  8  9  1  0  0  0  0
  8 10  1  0  0  0  0
  8 11  1  0  0  0  0
 11 12  1  0  0  0  0
 11 13  1  0  0  0  0
 11 14  1  0  0  0  0
 14 15  1  0  0  0  0
 14 16  1  0  0  0  0
 14 17  1  0  0  0  0
 17 18  1  0  0  0  0
 17 19  1  0  0  0  0
 17 20  1  0  0  0  0
 20 21  1  0  0  0  0
 20 22  1  0  0  0  0
 20 23  1  0  0  0  0
 23 24  1  0  0  0  0
 23 25  1  0  0  0  0
 23 26  1  0  0  0  0
M  END
> <VConfSearch Rank>
631

> <Conf_Id>
105

> <Delta U+W>
0.736

> <U+W>
-4.817

> <U>
48.735

> <W>
-53.552

> <W(PB)>
-55.889

> <W(SA)>
2.337

> <Valence>
2.803

> <Coulomb>
45.123

> <VdW>
0.809

> <VdW6>
-6.953

> <VdW12>
7.761

> <Bond>
0.188

> <Angle>
0.699

> <Pdih>
1.917

> <Idih>
0.000

> <Tether>
0.000

$$$$
VeraChem MOL file


 26 25  0  0  0  0  0  0  0  0999 V2000     
   18.9636   15.5772   24.4444 C   0  0  0  0  0  0  0  0  0  0  0  0
   18.5804   14.8303   23.7370 H   0  0  0  0  0  0  0  0  0  0  0  0
   20.0290   15.3732   24.6135 H   0  0  0  0  0  0  0  0  0  0  0  0
   18.4382   15.4382   25.3982 H   0  0  0  0  0  0  0  0  0  0  0  0
   18.7515   17.0092   23.9091 C   0  0  0  0  0  0  0  0  0  0  0  0
   19.1097   17.7265   24.6595 H   0  0  0  0  0  0  0  0  0  0  0  0
   17.6762   17.1942   23.7782 H   0  0  0  0  0  0  0  0  0  0  0  0
   19.4867   17.2308   22.5663 C   0  0  0  0  0  0  0  0  0  0  0  0
   20.5662   17.0866   22.7053 H   0  0  0  0  0  0  0  0  0  0  0  0
   19.1700   16.4559   21.8547 H   0  0  0  0  0  0  0  0  0  0  0  0
   19.2127   18.6177   21.9288 C   0  0  0  0  0  0  0  0  0  0  0  0
   18.1448   18.6887   21.6801 H   0  0  0  0  0  0  0  0  0  0  0  0
   19.7477   18.6769   20.9709 H   0  0  0  0  0  0  0  0  0  0  0  0
   19.6024   19.8415   22.7980 C   0  0  0  0  0  0  0  0  0  0  0  0
   19.3430   20.7500   22.2387 H   0  0  0  0  0  0  0  0  0  0  0  0
   18.9910   19.8646   23.7098 H   0  0  0  0  0  0  0  0  0  0  0  0
   21.1047   19.8808   23.1744 C   0  0  0  0  0  0  0  0  0  0  0  0
   21.7217   19.8383   22.2670 H   0  0  0  0  0  0  0  0  0  0  0  0
   21.3605   18.9963   23.7711 H   0  0  0  0  0  0  0  0  0  0  0  0
   21.4796   21.1308   23.9938 C   0  0  0  0  0  0  0  0  0  0  0  0
   20.8535   21.1860   24.8884 H   0  0  0  0  0  0  0  0  0  0  0  0
   22.5229   21.0553   24.3122 H   0  0  0  0  0  0  0  0  0  0  0  0
   21.3266   22.4318   23.2304 N   0  3  0  0  0  0  0  0  0  0  0  0
   20.3585   22.5859   22.9324 H   0  0  0  0  0  0  0  0  0  0  0  0
   21.9098   22.4493   22.3875 H   0  0  0  0  0  0  0  0  0  0  0  0
   21.5980   23.2411   23.7992 H   0  0  0  0  0  0  0  0  0  0  0  0
  1  2  1  0  0  0  0
  1  3  1  0  0  0  0
  1  4  1  0  0  0  0
  1  5  1  0  0  0  0
  5  6  1  0  0  0  0
  5  7  1  0  0  0  0
  5  8  1  0  0  0  0
  8  9  1  0  0  0  0
  8 10  1  0  0  0  0
  8 11  1  0  0  0  0
 11 12  1  0  0  0  0
 11 13  1  0  0  0  0
 11 14  1  0  0  0  0
 14 15  1  0  0  0  0
 14 16  1  0  0  0  0
 14 17  1  0  0  0  0
 17 18  1  0  0  0  0
 17 19  1  0  0  0  0
 17 20  1  0  0  0  0
 20 21  1  0  0  0  0
 20 22  1  0  0  0  0
 20 23  1  0  0  0  0
 23 24  1  0  0  0  0
 23 25  1  0  0  0  0
 23 26  1  0  0  0  0
M  END
> <VConfSearch Rank>
632

> <Conf_Id>
144

> <Delta U+W>
1.073

> <U+W>
-4.479

> <U>
49.231

> <W>
-53.710

> <W(PB)>
-55.983

> <W(SA)>
2.273

> <Valence>
3.276

> <Coulomb>
45.175

> <VdW>
0.779

> <VdW6>
-7.944

> <VdW12>
8.723

> <Bond>
0.239

> <Angle>
1.155

> <Pdih>
1.883

> <Idih>
0.000

> <Tether>
0.000

$$$$
VeraChem MOL file


 26 25  0  0  0  0  0  0  0  0999 V2000     
   17.1892   19.7729   21.0518 C   0  0  0  0  0  0  0  0  0  0  0  0
   17.9245   20.1809   20.3478 H   0  0  0  0  0  0  0  0  0  0  0  0
   16.2994   19.4942   20.4726 H   0  0  0  0  0  0  0  0  0  0  0  0
   16.8995   20.5705   21.7481 H   0  0  0  0  0  0  0  0  0  0  0  0
   17.7447   18.5465   21.8114 C   0  0  0  0  0  0  0  0  0  0  0  0
   18.0594   17.7763   21.0934 H   0  0  0  0  0  0  0  0  0  0  0  0
   16.9313   18.1017   22.4017 H   0  0  0  0  0  0  0  0  0  0  0  0
   18.9169   18.8868   22.7636 C   0  0  0  0  0  0  0  0  0  0  0  0
   18.6040   19.6718   23.4656 H   0  0  0  0  0  0  0  0  0  0  0  0
   19.1303   17.9922   23.3617 H   0  0  0  0  0  0  0  0  0  0  0  0
   20.2068   19.3220   22.0246 C   0  0  0  0  0  0  0  0  0  0  0  0
   19.9777   20.1530   21.3456 H   0  0  0  0  0  0  0  0  0  0  0  0
   20.5578   18.4970   21.3896 H   0  0  0  0  0  0  0  0  0  0  0  0
   21.3585   19.7810   22.9565 C   0  0  0  0  0  0  0  0  0  0  0  0
   22.1940   20.0987   22.3174 H   0  0  0  0  0  0  0  0  0  0  0  0
   21.0561   20.6769   23.5165 H   0  0  0  0  0  0  0  0  0  0  0  0
   21.8832   18.6974   23.9319 C   0  0  0  0  0  0  0  0  0  0  0  0
   22.9406   18.9023   24.1462 H   0  0  0  0  0  0  0  0  0  0  0  0
   21.8498   17.7097   23.4532 H   0  0  0  0  0  0  0  0  0  0  0  0
   21.1210   18.6716   25.2713 C   0  0  0  0  0  0  0  0  0  0  0  0
   21.2088   19.6454   25.7606 H   0  0  0  0  0  0  0  0  0  0  0  0
   20.0617   18.4709   25.1013 H   0  0  0  0  0  0  0  0  0  0  0  0
   21.6438   17.6207   26.2291 N   0  3  0  0  0  0  0  0  0  0  0  0
   22.6315   17.7711   26.4590 H   0  0  0  0  0  0  0  0  0  0  0  0
   21.5653   16.6756   25.8396 H   0  0  0  0  0  0  0  0  0  0  0  0
   21.1276   17.6224   27.1156 H   0  0  0  0  0  0  0  0  0  0  0  0
  1  2  1  0  0  0  0
  1  3  1  0  0  0  0
  1  4  1  0  0  0  0
  1  5  1  0  0  0  0
  5  6  1  0  0  0  0
  5  7  1  0  0  0  0
  5  8  1  0  0  0  0
  8  9  1  0  0  0  0
  8 10  1  0  0  0  0
  8 11  1  0  0  0  0
 11 12  1  0  0  0  0
 11 13  1  0  0  0  0
 11 14  1  0  0  0  0
 14 15  1  0  0  0  0
 14 16  1  0  0  0  0
 14 17  1  0  0  0  0
 17 18  1  0  0  0  0
 17 19  1  0  0  0  0
 17 20  1  0  0  0  0
 20 21  1  0  0  0  0
 20 22  1  0  0  0  0
 20 23  1  0  0  0  0
 23 24  1  0  0  0  0
 23 25  1  0  0  0  0
 23 26  1  0  0  0  0
M  END
> <VConfSearch Rank>
633

> <Conf_Id>
93

> <Delta U+W>
3.253

> <U+W>
-2.300

> <U>
51.609

> <W>
-53.909

> <W(PB)>
-56.178

> <W(SA)>
2.270

> <Valence>
5.204

> <Coulomb>
45.645

> <VdW>
0.760

> <VdW6>
-7.997

> <VdW12>
8.758

> <Bond>
0.240

> <Angle>
1.456

> <Pdih>
3.507

> <Idih>
0.000

> <Tether>
0.000

$$$$
VeraChem MOL file


 26 25  0  0  0  0  0  0  0  0999 V2000     
   17.4976   16.7645   24.7406 C   0  0  0  0  0  0  0  0  0  0  0  0
   18.2046   15.9309   24.6506 H   0  0  0  0  0  0  0  0  0  0  0  0
   17.6568   17.2476   25.7133 H   0  0  0  0  0  0  0  0  0  0  0  0
   16.4859   16.3386   24.7396 H   0  0  0  0  0  0  0  0  0  0  0  0
   17.6581   17.7773   23.5839 C   0  0  0  0  0  0  0  0  0  0  0  0
   16.8471   18.5161   23.6497 H   0  0  0  0  0  0  0  0  0  0  0  0
   17.5285   17.2645   22.6206 H   0  0  0  0  0  0  0  0  0  0  0  0
   19.0121   18.5275   23.6013 C   0  0  0  0  0  0  0  0  0  0  0  0
   18.9624   19.3218   22.8460 H   0  0  0  0  0  0  0  0  0  0  0  0
   19.1464   19.0209   24.5737 H   0  0  0  0  0  0  0  0  0  0  0  0
   20.2274   17.6159   23.2988 C   0  0  0  0  0  0  0  0  0  0  0  0
   20.1237   17.1952   22.2892 H   0  0  0  0  0  0  0  0  0  0  0  0
   20.2249   16.7612   23.9869 H   0  0  0  0  0  0  0  0  0  0  0  0
   21.6050   18.3170   23.4259 C   0  0  0  0  0  0  0  0  0  0  0  0
   21.7676   18.6438   24.4624 H   0  0  0  0  0  0  0  0  0  0  0  0
   22.3792   17.5627   23.2278 H   0  0  0  0  0  0  0  0  0  0  0  0
   21.8286   19.5031   22.4541 C   0  0  0  0  0  0  0  0  0  0  0  0
   21.3395   19.3009   21.4920 H   0  0  0  0  0  0  0  0  0  0  0  0
   22.9034   19.5853   22.2442 H   0  0  0  0  0  0  0  0  0  0  0  0
   21.3498   20.8511   23.0278 C   0  0  0  0  0  0  0  0  0  0  0  0
   20.2822   20.8107   23.2515 H   0  0  0  0  0  0  0  0  0  0  0  0
   21.8847   21.0634   23.9574 H   0  0  0  0  0  0  0  0  0  0  0  0
   21.5812   22.0119   22.0821 N   0  3  0  0  0  0  0  0  0  0  0  0
   22.5744   22.1279   21.8560 H   0  0  0  0  0  0  0  0  0  0  0  0
   21.2609   22.9001   22.4833 H   0  0  0  0  0  0  0  0  0  0  0  0
   21.0824   21.8876   21.1951 H   0  0  0  0  0  0  0  0  0  0  0  0
  1  2  1  0  0  0  0
  1  3  1  0  0  0  0
  1  4  1  0  0  0  0
  1  5  1  0  0  0  0
  5  6  1  0  0  0  0
  5  7  1  0  0  0  0
  5  8  1  0  0  0  0
  8  9  1  0  0  0  0
  8 10  1  0  0  0  0
  8 11  1  0  0  0  0
 11 12  1  0  0  0  0
 11 13  1  0  0  0  0
 11 14  1  0  0  0  0
 14 15  1  0  0  0  0
 14 16  1  0  0  0  0
 14 17  1  0  0  0  0
 17 18  1  0  0  0  0
 17 19  1  0  0  0  0
 17 20  1  0  0  0  0
 20 21  1  0  0  0  0
 20 22  1  0  0  0  0
 20 23  1  0  0  0  0
 23 24  1  0  0  0  0
 23 25  1  0  0  0  0
 23 26  1  0  0  0  0
M  END
> <VConfSearch Rank>
634

> <Conf_Id>
94

> <Delta U+W>
3.247

> <U+W>
-2.305

> <U>
51.609

> <W>
-53.914

> <W(PB)>
-56.221

> <W(SA)>
2.307

> <Valence>
5.204

> <Coulomb>
45.645

> <VdW>
0.760

> <VdW6>
-7.997

> <VdW12>
8.757

> <Bond>
0.240

> <Angle>
1.456

> <Pdih>
3.508

> <Idih>
0.000

> <Tether>
0.000

$$$$
VeraChem MOL file


 26 25  0  0  0  0  0  0  0  0999 V2000     
   20.8641   22.1821   20.8509 C   0  0  0  0  0  0  0  0  0  0  0  0
   20.0665   22.1387   20.0978 H   0  0  0  0  0  0  0  0  0  0  0  0
   20.5591   22.8911   21.6316 H   0  0  0  0  0  0  0  0  0  0  0  0
   21.7641   22.5818   20.3658 H   0  0  0  0  0  0  0  0  0  0  0  0
   21.1409   20.7857   21.4470 C   0  0  0  0  0  0  0  0  0  0  0  0
   21.9651   20.8552   22.1708 H   0  0  0  0  0  0  0  0  0  0  0  0
   21.4762   20.1085   20.6489 H   0  0  0  0  0  0  0  0  0  0  0  0
   19.8890   20.1996   22.1365 C   0  0  0  0  0  0  0  0  0  0  0  0
   19.5564   20.8808   22.9320 H   0  0  0  0  0  0  0  0  0  0  0  0
   19.0675   20.1349   21.4096 H   0  0  0  0  0  0  0  0  0  0  0  0
   20.1621   18.8009   22.7343 C   0  0  0  0  0  0  0  0  0  0  0  0
   20.9888   18.8720   23.4537 H   0  0  0  0  0  0  0  0  0  0  0  0
   20.4911   18.1200   21.9372 H   0  0  0  0  0  0  0  0  0  0  0  0
   18.9069   18.2172   23.4262 C   0  0  0  0  0  0  0  0  0  0  0  0
   18.5883   18.8820   24.2402 H   0  0  0  0  0  0  0  0  0  0  0  0
   18.0765   18.1965   22.7069 H   0  0  0  0  0  0  0  0  0  0  0  0
   19.1224   16.7828   23.9706 C   0  0  0  0  0  0  0  0  0  0  0  0
   19.3546   16.1096   23.1347 H   0  0  0  0  0  0  0  0  0  0  0  0
   18.1842   16.4157   24.4074 H   0  0  0  0  0  0  0  0  0  0  0  0
   20.2455   16.6716   25.0217 C   0  0  0  0  0  0  0  0  0  0  0  0
   20.3494   15.6285   25.3326 H   0  0  0  0  0  0  0  0  0  0  0  0
   21.1948   16.9910   24.5842 H   0  0  0  0  0  0  0  0  0  0  0  0
   19.9983   17.5015   26.2659 N   0  3  0  0  0  0  0  0  0  0  0  0
   19.1313   17.2277   26.7396 H   0  0  0  0  0  0  0  0  0  0  0  0
   19.9215   18.4991   26.0450 H   0  0  0  0  0  0  0  0  0  0  0  0
   20.7575   17.4009   26.9483 H   0  0  0  0  0  0  0  0  0  0  0  0
  1  2  1  0  0  0  0
  1  3  1  0  0  0  0
  1  4  1  0  0  0  0
  1  5  1  0  0  0  0
  5  6  1  0  0  0  0
  5  7  1  0  0  0  0
  5  8  1  0  0  0  0
  8  9  1  0  0  0  0
  8 10  1  0  0  0  0
  8 11  1  0  0  0  0
 11 12  1  0  0  0  0
 11 13  1  0  0  0  0
 11 14  1  0  0  0  0
 14 15  1  0  0  0  0
 14 16  1  0  0  0  0
 14 17  1  0  0  0  0
 17 18  1  0  0  0  0
 17 19  1  0  0  0  0
 17 20  1  0  0  0  0
 20 21  1  0  0  0  0
 20 22  1  0  0  0  0
 20 23  1  0  0  0  0
 23 24  1  0  0  0  0
 23 25  1  0  0  0  0
 23 26  1  0  0  0  0
M  END
> <VConfSearch Rank>
635

> <Conf_Id>
83

> <Delta U+W>
0.559

> <U+W>
-4.994

> <U>
48.668

> <W>
-53.661

> <W(PB)>
-55.972

> <W(SA)>
2.311

> <Valence>
2.543

> <Coulomb>
45.478

> <VdW>
0.646

> <VdW6>
-7.096

> <VdW12>
7.742

> <Bond>
0.176

> <Angle>
0.630

> <Pdih>
1.738

> <Idih>
0.000

> <Tether>
0.000

$$$$
VeraChem MOL file


 26 25  0  0  0  0  0  0  0  0999 V2000     
   19.2059   18.8581   27.1063 C   0  0  0  0  0  0  0  0  0  0  0  0
   18.1460   18.8350   27.3914 H   0  0  0  0  0  0  0  0  0  0  0  0
   19.6347   17.8667   27.3027 H   0  0  0  0  0  0  0  0  0  0  0  0
   19.7142   19.5803   27.7582 H   0  0  0  0  0  0  0  0  0  0  0  0
   19.3737   19.2507   25.6230 C   0  0  0  0  0  0  0  0  0  0  0  0
   20.4450   19.3030   25.3881 H   0  0  0  0  0  0  0  0  0  0  0  0
   18.9624   20.2573   25.4641 H   0  0  0  0  0  0  0  0  0  0  0  0
   18.6686   18.2437   24.6837 C   0  0  0  0  0  0  0  0  0  0  0  0
   19.1172   17.2480   24.8041 H   0  0  0  0  0  0  0  0  0  0  0  0
   17.6177   18.1468   24.9896 H   0  0  0  0  0  0  0  0  0  0  0  0
   18.7083   18.6543   23.1911 C   0  0  0  0  0  0  0  0  0  0  0  0
   18.2464   19.6438   23.0696 H   0  0  0  0  0  0  0  0  0  0  0  0
   18.0850   17.9512   22.6215 H   0  0  0  0  0  0  0  0  0  0  0  0
   20.1342   18.6656   22.5894 C   0  0  0  0  0  0  0  0  0  0  0  0
   20.7464   19.4167   23.1040 H   0  0  0  0  0  0  0  0  0  0  0  0
   20.6119   17.6907   22.7593 H   0  0  0  0  0  0  0  0  0  0  0  0
   20.1124   18.9705   21.0728 C   0  0  0  0  0  0  0  0  0  0  0  0
   19.6614   19.9556   20.8934 H   0  0  0  0  0  0  0  0  0  0  0  0
   19.4744   18.2363   20.5630 H   0  0  0  0  0  0  0  0  0  0  0  0
   21.5143   18.9224   20.4350 C   0  0  0  0  0  0  0  0  0  0  0  0
   21.9692   17.9454   20.6190 H   0  0  0  0  0  0  0  0  0  0  0  0
   21.4255   19.0588   19.3538 H   0  0  0  0  0  0  0  0  0  0  0  0
   22.4595   19.9873   20.9561 N   0  3  0  0  0  0  0  0  0  0  0  0
   22.6184   19.8941   21.9640 H   0  0  0  0  0  0  0  0  0  0  0  0
   22.0964   20.9319   20.7920 H   0  0  0  0  0  0  0  0  0  0  0  0
   23.3777   19.9365   20.5015 H   0  0  0  0  0  0  0  0  0  0  0  0
  1  2  1  0  0  0  0
  1  3  1  0  0  0  0
  1  4  1  0  0  0  0
  1  5  1  0  0  0  0
  5  6  1  0  0  0  0
  5  7  1  0  0  0  0
  5  8  1  0  0  0  0
  8  9  1  0  0  0  0
  8 10  1  0  0  0  0
  8 11  1  0  0  0  0
 11 12  1  0  0  0  0
 11 13  1  0  0  0  0
 11 14  1  0  0  0  0
 14 15  1  0  0  0  0
 14 16  1  0  0  0  0
 14 17  1  0  0  0  0
 17 18  1  0  0  0  0
 17 19  1  0  0  0  0
 17 20  1  0  0  0  0
 20 21  1  0  0  0  0
 20 22  1  0  0  0  0
 20 23  1  0  0  0  0
 23 24  1  0  0  0  0
 23 25  1  0  0  0  0
 23 26  1  0  0  0  0
M  END
> <VConfSearch Rank>
636

> <Conf_Id>
18

> <Delta U+W>
0.759

> <U+W>
-4.793

> <U>
48.945

> <W>
-53.738

> <W(PB)>
-56.051

> <W(SA)>
2.313

> <Valence>
2.802

> <Coulomb>
45.335

> <VdW>
0.807

> <VdW6>
-6.962

> <VdW12>
7.769

> <Bond>
0.189

> <Angle>
0.696

> <Pdih>
1.917

> <Idih>
0.000

> <Tether>
0.000

$$$$
VeraChem MOL file


 26 25  0  0  0  0  0  0  0  0999 V2000     
   22.2554   21.4545   21.3956 C   0  0  0  0  0  0  0  0  0  0  0  0
   23.1101   21.3736   22.0798 H   0  0  0  0  0  0  0  0  0  0  0  0
   22.6002   21.1971   20.3857 H   0  0  0  0  0  0  0  0  0  0  0  0
   21.9314   22.5033   21.3836 H   0  0  0  0  0  0  0  0  0  0  0  0
   21.1002   20.5324   21.8401 C   0  0  0  0  0  0  0  0  0  0  0  0
   20.2505   20.6570   21.1545 H   0  0  0  0  0  0  0  0  0  0  0  0
   20.7567   20.8469   22.8344 H   0  0  0  0  0  0  0  0  0  0  0  0
   21.5350   19.0479   21.8691 C   0  0  0  0  0  0  0  0  0  0  0  0
   21.9505   18.7791   20.8881 H   0  0  0  0  0  0  0  0  0  0  0  0
   22.3488   18.9143   22.5951 H   0  0  0  0  0  0  0  0  0  0  0  0
   20.3807   18.0691   22.1970 C   0  0  0  0  0  0  0  0  0  0  0  0
   20.7522   17.0421   22.0763 H   0  0  0  0  0  0  0  0  0  0  0  0
   19.5735   18.1932   21.4618 H   0  0  0  0  0  0  0  0  0  0  0  0
   19.8147   18.2358   23.6278 C   0  0  0  0  0  0  0  0  0  0  0  0
   20.6335   18.1630   24.3570 H   0  0  0  0  0  0  0  0  0  0  0  0
   19.3755   19.2351   23.7374 H   0  0  0  0  0  0  0  0  0  0  0  0
   18.7444   17.1653   23.9476 C   0  0  0  0  0  0  0  0  0  0  0  0
   19.1764   16.1654   23.8076 H   0  0  0  0  0  0  0  0  0  0  0  0
   17.9078   17.2468   23.2410 H   0  0  0  0  0  0  0  0  0  0  0  0
   18.2118   17.2674   25.3899 C   0  0  0  0  0  0  0  0  0  0  0  0
   17.5274   16.4368   25.5831 H   0  0  0  0  0  0  0  0  0  0  0  0
   19.0437   17.1947   26.0957 H   0  0  0  0  0  0  0  0  0  0  0  0
   17.4636   18.5549   25.6753 N   0  3  0  0  0  0  0  0  0  0  0  0
   16.6544   18.6701   25.0564 H   0  0  0  0  0  0  0  0  0  0  0  0
   18.0614   19.3775   25.5497 H   0  0  0  0  0  0  0  0  0  0  0  0
   17.1107   18.5844   26.6381 H   0  0  0  0  0  0  0  0  0  0  0  0
  1  2  1  0  0  0  0
  1  3  1  0  0  0  0
  1  4  1  0  0  0  0
  1  5  1  0  0  0  0
  5  6  1  0  0  0  0
  5  7  1  0  0  0  0
  5  8  1  0  0  0  0
  8  9  1  0  0  0  0
  8 10  1  0  0  0  0
  8 11  1  0  0  0  0
 11 12  1  0  0  0  0
 11 13  1  0  0  0  0
 11 14  1  0  0  0  0
 14 15  1  0  0  0  0
 14 16  1  0  0  0  0
 14 17  1  0  0  0  0
 17 18  1  0  0  0  0
 17 19  1  0  0  0  0
 17 20  1  0  0  0  0
 20 21  1  0  0  0  0
 20 22  1  0  0  0  0
 20 23  1  0  0  0  0
 23 24  1  0  0  0  0
 23 25  1  0  0  0  0
 23 26  1  0  0  0  0
M  END
> <VConfSearch Rank>
637

> <Conf_Id>
17

> <Delta U+W>
0.843

> <U+W>
-4.709

> <U>
48.945

> <W>
-53.653

> <W(PB)>
-55.991

> <W(SA)>
2.338

> <Valence>
2.802

> <Coulomb>
45.335

> <VdW>
0.807

> <VdW6>
-6.962

> <VdW12>
7.769

> <Bond>
0.189

> <Angle>
0.696

> <Pdih>
1.917

> <Idih>
0.000

> <Tether>
0.000

$$$$
VeraChem MOL file


 26 25  0  0  0  0  0  0  0  0999 V2000     
   22.1586   18.3251   25.8962 C   0  0  0  0  0  0  0  0  0  0  0  0
   21.7876   17.5110   25.2613 H   0  0  0  0  0  0  0  0  0  0  0  0
   22.9896   18.8175   25.3747 H   0  0  0  0  0  0  0  0  0  0  0  0
   22.5589   17.8720   26.8124 H   0  0  0  0  0  0  0  0  0  0  0  0
   21.0395   19.3352   26.2370 C   0  0  0  0  0  0  0  0  0  0  0  0
   21.4258   20.0571   26.9701 H   0  0  0  0  0  0  0  0  0  0  0  0
   20.2073   18.8128   26.7292 H   0  0  0  0  0  0  0  0  0  0  0  0
   20.5147   20.1118   25.0051 C   0  0  0  0  0  0  0  0  0  0  0  0
   19.8097   20.8797   25.3522 H   0  0  0  0  0  0  0  0  0  0  0  0
   21.3464   20.6487   24.5284 H   0  0  0  0  0  0  0  0  0  0  0  0
   19.8093   19.2113   23.9628 C   0  0  0  0  0  0  0  0  0  0  0  0
   19.0101   18.6396   24.4543 H   0  0  0  0  0  0  0  0  0  0  0  0
   20.5252   18.4822   23.5631 H   0  0  0  0  0  0  0  0  0  0  0  0
   19.2114   20.0411   22.8012 C   0  0  0  0  0  0  0  0  0  0  0  0
   18.5279   20.7974   23.2114 H   0  0  0  0  0  0  0  0  0  0  0  0
   20.0124   20.5917   22.2885 H   0  0  0  0  0  0  0  0  0  0  0  0
   18.4384   19.1801   21.7746 C   0  0  0  0  0  0  0  0  0  0  0  0
   17.9699   19.8429   21.0348 H   0  0  0  0  0  0  0  0  0  0  0  0
   17.6224   18.6468   22.2802 H   0  0  0  0  0  0  0  0  0  0  0  0
   19.3426   18.1701   21.0434 C   0  0  0  0  0  0  0  0  0  0  0  0
   20.1548   18.7010   20.5394 H   0  0  0  0  0  0  0  0  0  0  0  0
   19.7805   17.4751   21.7645 H   0  0  0  0  0  0  0  0  0  0  0  0
   18.6009   17.3547   20.0040 N   0  3  0  0  0  0  0  0  0  0  0  0
   19.2201   16.6889   19.5289 H   0  0  0  0  0  0  0  0  0  0  0  0
   18.1869   17.9477   19.2773 H   0  0  0  0  0  0  0  0  0  0  0  0
   17.8384   16.8093   20.4190 H   0  0  0  0  0  0  0  0  0  0  0  0
  1  2  1  0  0  0  0
  1  3  1  0  0  0  0
  1  4  1  0  0  0  0
  1  5  1  0  0  0  0
  5  6  1  0  0  0  0
  5  7  1  0  0  0  0
  5  8  1  0  0  0  0
  8  9  1  0  0  0  0
  8 10  1  0  0  0  0
  8 11  1  0  0  0  0
 11 12  1  0  0  0  0
 11 13  1  0  0  0  0
 11 14  1  0  0  0  0
 14 15  1  0  0  0  0
 14 16  1  0  0  0  0
 14 17  1  0  0  0  0
 17 18  1  0  0  0  0
 17 19  1  0  0  0  0
 17 20  1  0  0  0  0
 20 21  1  0  0  0  0
 20 22  1  0  0  0  0
 20 23  1  0  0  0  0
 23 24  1  0  0  0  0
 23 25  1  0  0  0  0
 23 26  1  0  0  0  0
M  END
> <VConfSearch Rank>
638

> <Conf_Id>
96

> <Delta U+W>
0.912

> <U+W>
-4.640

> <U>
48.723

> <W>
-53.364

> <W(PB)>
-55.683

> <W(SA)>
2.320

> <Valence>
2.962

> <Coulomb>
44.993

> <VdW>
0.768

> <VdW6>
-7.008

> <VdW12>
7.776

> <Bond>
0.188

> <Angle>
0.757

> <Pdih>
2.018

> <Idih>
0.000

> <Tether>
0.000

$$$$
VeraChem MOL file


 26 25  0  0  0  0  0  0  0  0999 V2000     
   17.3572   17.5232   21.7621 C   0  0  0  0  0  0  0  0  0  0  0  0
   16.8097   16.8136   21.1284 H   0  0  0  0  0  0  0  0  0  0  0  0
   16.7105   18.3949   21.9262 H   0  0  0  0  0  0  0  0  0  0  0  0
   18.2413   17.8510   21.2014 H   0  0  0  0  0  0  0  0  0  0  0  0
   17.7480   16.8607   23.1028 C   0  0  0  0  0  0  0  0  0  0  0  0
   18.4196   16.0117   22.9136 H   0  0  0  0  0  0  0  0  0  0  0  0
   16.8444   16.4404   23.5662 H   0  0  0  0  0  0  0  0  0  0  0  0
   18.4096   17.8389   24.1033 C   0  0  0  0  0  0  0  0  0  0  0  0
   17.7263   18.6754   24.3048 H   0  0  0  0  0  0  0  0  0  0  0  0
   18.5493   17.3167   25.0599 H   0  0  0  0  0  0  0  0  0  0  0  0
   19.7750   18.3850   23.6209 C   0  0  0  0  0  0  0  0  0  0  0  0
   19.6341   18.9634   22.6993 H   0  0  0  0  0  0  0  0  0  0  0  0
   20.4385   17.5448   23.3739 H   0  0  0  0  0  0  0  0  0  0  0  0
   20.4465   19.2753   24.6941 C   0  0  0  0  0  0  0  0  0  0  0  0
   19.7985   20.1330   24.9225 H   0  0  0  0  0  0  0  0  0  0  0  0
   20.5460   18.7040   25.6274 H   0  0  0  0  0  0  0  0  0  0  0  0
   21.8456   19.7834   24.2733 C   0  0  0  0  0  0  0  0  0  0  0  0
   22.5024   18.9277   24.0671 H   0  0  0  0  0  0  0  0  0  0  0  0
   22.2943   20.3286   25.1143 H   0  0  0  0  0  0  0  0  0  0  0  0
   21.7980   20.7082   23.0425 C   0  0  0  0  0  0  0  0  0  0  0  0
   21.3946   20.1634   22.1851 H   0  0  0  0  0  0  0  0  0  0  0  0
   21.1446   21.5605   23.2478 H   0  0  0  0  0  0  0  0  0  0  0  0
   23.1595   21.2459   22.6522 N   0  3  0  0  0  0  0  0  0  0  0  0
   23.8156   20.4930   22.4201 H   0  0  0  0  0  0  0  0  0  0  0  0
   23.5845   21.7944   23.4070 H   0  0  0  0  0  0  0  0  0  0  0  0
   23.1062   21.8591   21.8314 H   0  0  0  0  0  0  0  0  0  0  0  0
  1  2  1  0  0  0  0
  1  3  1  0  0  0  0
  1  4  1  0  0  0  0
  1  5  1  0  0  0  0
  5  6  1  0  0  0  0
  5  7  1  0  0  0  0
  5  8  1  0  0  0  0
  8  9  1  0  0  0  0
  8 10  1  0  0  0  0
  8 11  1  0  0  0  0
 11 12  1  0  0  0  0
 11 13  1  0  0  0  0
 11 14  1  0  0  0  0
 14 15  1  0  0  0  0
 14 16  1  0  0  0  0
 14 17  1  0  0  0  0
 17 18  1  0  0  0  0
 17 19  1  0  0  0  0
 17 20  1  0  0  0  0
 20 21  1  0  0  0  0
 20 22  1  0  0  0  0
 20 23  1  0  0  0  0
 23 24  1  0  0  0  0
 23 25  1  0  0  0  0
 23 26  1  0  0  0  0
M  END
> <VConfSearch Rank>
639

> <Conf_Id>
133

> <Delta U+W>
0.844

> <U+W>
-4.708

> <U>
48.723

> <W>
-53.431

> <W(PB)>
-55.776

> <W(SA)>
2.344

> <Valence>
2.962

> <Coulomb>
44.993

> <VdW>
0.768

> <VdW6>
-7.008

> <VdW12>
7.776

> <Bond>
0.188

> <Angle>
0.756

> <Pdih>
2.018

> <Idih>
0.000

> <Tether>
0.000

$$$$
VeraChem MOL file


 26 25  0  0  0  0  0  0  0  0999 V2000     
   21.7661   18.4400   20.5416 C   0  0  0  0  0  0  0  0  0  0  0  0
   22.7678   18.0056   20.6552 H   0  0  0  0  0  0  0  0  0  0  0  0
   21.0401   17.7548   20.9966 H   0  0  0  0  0  0  0  0  0  0  0  0
   21.5425   18.4933   19.4683 H   0  0  0  0  0  0  0  0  0  0  0  0
   21.6948   19.8456   21.1800 C   0  0  0  0  0  0  0  0  0  0  0  0
   20.6798   20.2508   21.0719 H   0  0  0  0  0  0  0  0  0  0  0  0
   22.3501   20.5238   20.6159 H   0  0  0  0  0  0  0  0  0  0  0  0
   22.1258   19.8692   22.6688 C   0  0  0  0  0  0  0  0  0  0  0  0
   23.1829   19.5775   22.7365 H   0  0  0  0  0  0  0  0  0  0  0  0
   22.0758   20.9038   23.0351 H   0  0  0  0  0  0  0  0  0  0  0  0
   21.2980   18.9597   23.6133 C   0  0  0  0  0  0  0  0  0  0  0  0
   21.7105   19.0499   24.6277 H   0  0  0  0  0  0  0  0  0  0  0  0
   21.4273   17.9073   23.3279 H   0  0  0  0  0  0  0  0  0  0  0  0
   19.7916   19.3122   23.6488 C   0  0  0  0  0  0  0  0  0  0  0  0
   19.6688   20.3770   23.8907 H   0  0  0  0  0  0  0  0  0  0  0  0
   19.3476   19.1564   22.6566 H   0  0  0  0  0  0  0  0  0  0  0  0
   19.0265   18.4573   24.6828 C   0  0  0  0  0  0  0  0  0  0  0  0
   19.4547   18.6133   25.6820 H   0  0  0  0  0  0  0  0  0  0  0  0
   19.1466   17.3923   24.4430 H   0  0  0  0  0  0  0  0  0  0  0  0
   17.5290   18.8106   24.7076 C   0  0  0  0  0  0  0  0  0  0  0  0
   17.4041   19.8666   24.9617 H   0  0  0  0  0  0  0  0  0  0  0  0
   17.0942   18.6409   23.7188 H   0  0  0  0  0  0  0  0  0  0  0  0
   16.7425   17.9919   25.7110 N   0  3  0  0  0  0  0  0  0  0  0  0
   15.7479   18.2430   25.7114 H   0  0  0  0  0  0  0  0  0  0  0  0
   17.0850   18.1283   26.6677 H   0  0  0  0  0  0  0  0  0  0  0  0
   16.7967   16.9877   25.5113 H   0  0  0  0  0  0  0  0  0  0  0  0
  1  2  1  0  0  0  0
  1  3  1  0  0  0  0
  1  4  1  0  0  0  0
  1  5  1  0  0  0  0
  5  6  1  0  0  0  0
  5  7  1  0  0  0  0
  5  8  1  0  0  0  0
  8  9  1  0  0  0  0
  8 10  1  0  0  0  0
  8 11  1  0  0  0  0
 11 12  1  0  0  0  0
 11 13  1  0  0  0  0
 11 14  1  0  0  0  0
 14 15  1  0  0  0  0
 14 16  1  0  0  0  0
 14 17  1  0  0  0  0
 17 18  1  0  0  0  0
 17 19  1  0  0  0  0
 17 20  1  0  0  0  0
 20 21  1  0  0  0  0
 20 22  1  0  0  0  0
 20 23  1  0  0  0  0
 23 24  1  0  0  0  0
 23 25  1  0  0  0  0
 23 26  1  0  0  0  0
M  END
> <VConfSearch Rank>
640

> <Conf_Id>
106

> <Delta U+W>
0.767

> <U+W>
-4.785

> <U>
48.494

> <W>
-53.279

> <W(PB)>
-55.569

> <W(SA)>
2.290

> <Valence>
3.117

> <Coulomb>
44.693

> <VdW>
0.684

> <VdW6>
-7.347

> <VdW12>
8.030

> <Bond>
0.208

> <Angle>
1.039

> <Pdih>
1.870

> <Idih>
0.000

> <Tether>
0.000

$$$$
VeraChem MOL file


 26 25  0  0  0  0  0  0  0  0999 V2000     
   21.2664   16.4504   26.8256 C   0  0  0  0  0  0  0  0  0  0  0  0
   22.3130   16.7815   26.8130 H   0  0  0  0  0  0  0  0  0  0  0  0
   20.7262   17.0525   27.5679 H   0  0  0  0  0  0  0  0  0  0  0  0
   21.2475   15.4054   27.1612 H   0  0  0  0  0  0  0  0  0  0  0  0
   20.6248   16.5858   25.4284 C   0  0  0  0  0  0  0  0  0  0  0  0
   19.5905   16.2159   25.4649 H   0  0  0  0  0  0  0  0  0  0  0  0
   21.1650   15.9468   24.7158 H   0  0  0  0  0  0  0  0  0  0  0  0
   20.6385   18.0485   24.9318 C   0  0  0  0  0  0  0  0  0  0  0  0
   20.0995   18.6835   25.6485 H   0  0  0  0  0  0  0  0  0  0  0  0
   21.6741   18.4144   24.8992 H   0  0  0  0  0  0  0  0  0  0  0  0
   19.9966   18.1880   23.5329 C   0  0  0  0  0  0  0  0  0  0  0  0
   18.9612   17.8216   23.5664 H   0  0  0  0  0  0  0  0  0  0  0  0
   20.5359   17.5523   22.8170 H   0  0  0  0  0  0  0  0  0  0  0  0
   20.0108   19.6516   23.0365 C   0  0  0  0  0  0  0  0  0  0  0  0
   19.4715   20.2878   23.7522 H   0  0  0  0  0  0  0  0  0  0  0  0
   21.0462   20.0183   23.0027 H   0  0  0  0  0  0  0  0  0  0  0  0
   19.3694   19.7919   21.6384 C   0  0  0  0  0  0  0  0  0  0  0  0
   18.3325   19.4313   21.6692 H   0  0  0  0  0  0  0  0  0  0  0  0
   19.9088   19.1614   20.9189 H   0  0  0  0  0  0  0  0  0  0  0  0
   19.3889   21.2524   21.1540 C   0  0  0  0  0  0  0  0  0  0  0  0
   18.8387   21.8815   21.8589 H   0  0  0  0  0  0  0  0  0  0  0  0
   20.4208   21.6106   21.1061 H   0  0  0  0  0  0  0  0  0  0  0  0
   18.7676   21.4316   19.7838 N   0  3  0  0  0  0  0  0  0  0  0  0
   18.7909   22.4113   19.4802 H   0  0  0  0  0  0  0  0  0  0  0  0
   17.7855   21.1377   19.7680 H   0  0  0  0  0  0  0  0  0  0  0  0
   19.2576   20.8857   19.0675 H   0  0  0  0  0  0  0  0  0  0  0  0
  1  2  1  0  0  0  0
  1  3  1  0  0  0  0
  1  4  1  0  0  0  0
  1  5  1  0  0  0  0
  5  6  1  0  0  0  0
  5  7  1  0  0  0  0
  5  8  1  0  0  0  0
  8  9  1  0  0  0  0
  8 10  1  0  0  0  0
  8 11  1  0  0  0  0
 11 12  1  0  0  0  0
 11 13  1  0  0  0  0
 11 14  1  0  0  0  0
 14 15  1  0  0  0  0
 14 16  1  0  0  0  0
 14 17  1  0  0  0  0
 17 18  1  0  0  0  0
 17 19  1  0  0  0  0
 17 20  1  0  0  0  0
 20 21  1  0  0  0  0
 20 22  1  0  0  0  0
 20 23  1  0  0  0  0
 23 24  1  0  0  0  0
 23 25  1  0  0  0  0
 23 26  1  0  0  0  0
M  END
> <VConfSearch Rank>
641

> <Conf_Id>
25

> <Delta U+W>
0.000

> <U+W>
-5.552

> <U>
47.192

> <W>
-52.745

> <W(PB)>
-55.134

> <W(SA)>
2.389

> <Valence>
2.156

> <Coulomb>
44.449

> <VdW>
0.587

> <VdW6>
-5.761

> <VdW12>
6.348

> <Bond>
0.129

> <Angle>
0.393

> <Pdih>
1.634

> <Idih>
0.000

> <Tether>
0.000

$$$$
VeraChem MOL file


 26 25  0  0  0  0  0  0  0  0999 V2000     
   21.6912   16.9500   26.7078 C   0  0  0  0  0  0  0  0  0  0  0  0
   21.0979   16.0353   26.5788 H   0  0  0  0  0  0  0  0  0  0  0  0
   22.6536   16.8079   26.1991 H   0  0  0  0  0  0  0  0  0  0  0  0
   21.8917   17.0732   27.7800 H   0  0  0  0  0  0  0  0  0  0  0  0
   20.9442   18.1793   26.1483 C   0  0  0  0  0  0  0  0  0  0  0  0
   21.5465   19.0820   26.3221 H   0  0  0  0  0  0  0  0  0  0  0  0
   20.0028   18.3155   26.6989 H   0  0  0  0  0  0  0  0  0  0  0  0
   20.6492   18.0316   24.6392 C   0  0  0  0  0  0  0  0  0  0  0  0
   21.5929   17.8933   24.0935 H   0  0  0  0  0  0  0  0  0  0  0  0
   20.0489   17.1268   24.4703 H   0  0  0  0  0  0  0  0  0  0  0  0
   19.9012   19.2608   24.0753 C   0  0  0  0  0  0  0  0  0  0  0  0
   20.5022   20.1651   24.2445 H   0  0  0  0  0  0  0  0  0  0  0  0
   18.9583   19.3987   24.6225 H   0  0  0  0  0  0  0  0  0  0  0  0
   19.6057   19.1125   22.5656 C   0  0  0  0  0  0  0  0  0  0  0  0
   20.5508   18.9701   22.0246 H   0  0  0  0  0  0  0  0  0  0  0  0
   19.0023   18.2097   22.3969 H   0  0  0  0  0  0  0  0  0  0  0  0
   18.8579   20.3444   22.0031 C   0  0  0  0  0  0  0  0  0  0  0  0
   19.4662   21.2485   22.1385 H   0  0  0  0  0  0  0  0  0  0  0  0
   17.9331   20.5005   22.5744 H   0  0  0  0  0  0  0  0  0  0  0  0
   18.4908   20.1895   20.5145 C   0  0  0  0  0  0  0  0  0  0  0  0
   17.8900   19.2867   20.3755 H   0  0  0  0  0  0  0  0  0  0  0  0
   17.8936   21.0487   20.1971 H   0  0  0  0  0  0  0  0  0  0  0  0
   19.6933   20.1009   19.5953 N   0  3  0  0  0  0  0  0  0  0  0  0
   20.2806   19.2906   19.8155 H   0  0  0  0  0  0  0  0  0  0  0  0
   20.2872   20.9337   19.6639 H   0  0  0  0  0  0  0  0  0  0  0  0
   19.4150   20.0116   18.6120 H   0  0  0  0  0  0  0  0  0  0  0  0
  1  2  1  0  0  0  0
  1  3  1  0  0  0  0
  1  4  1  0  0  0  0
  1  5  1  0  0  0  0
  5  6  1  0  0  0  0
  5  7  1  0  0  0  0
  5  8  1  0  0  0  0
  8  9  1  0  0  0  0
  8 10  1  0  0  0  0
  8 11  1  0  0  0  0
 11 12  1  0  0  0  0
 11 13  1  0  0  0  0
 11 14  1  0  0  0  0
 14 15  1  0  0  0  0
 14 16  1  0  0  0  0
 14 17  1  0  0  0  0
 17 18  1  0  0  0  0
 17 19  1  0  0  0  0
 17 20  1  0  0  0  0
 20 21  1  0  0  0  0
 20 22  1  0  0  0  0
 20 23  1  0  0  0  0
 23 24  1  0  0  0  0
 23 25  1  0  0  0  0
 23 26  1  0  0  0  0
M  END
> <VConfSearch Rank>
642

> <Conf_Id>
20

> <Delta U+W>
0.150

> <U+W>
-5.403

> <U>
47.845

> <W>
-53.248

> <W(PB)>
-55.599

> <W(SA)>
2.351

> <Valence>
2.258

> <Coulomb>
44.893

> <VdW>
0.694

> <VdW6>
-6.285

> <VdW12>
6.979

> <Bond>
0.149

> <Angle>
0.434

> <Pdih>
1.675

> <Idih>
0.000

> <Tether>
0.000

$$$$
VeraChem MOL file


 26 25  0  0  0  0  0  0  0  0999 V2000     
   23.7322   19.8543   25.1447 C   0  0  0  0  0  0  0  0  0  0  0  0
   23.6019   20.9270   24.9512 H   0  0  0  0  0  0  0  0  0  0  0  0
   23.3902   19.6472   26.1671 H   0  0  0  0  0  0  0  0  0  0  0  0
   24.8060   19.6313   25.0970 H   0  0  0  0  0  0  0  0  0  0  0  0
   22.9534   19.0065   24.1167 C   0  0  0  0  0  0  0  0  0  0  0  0
   23.1303   17.9400   24.3149 H   0  0  0  0  0  0  0  0  0  0  0  0
   23.3403   19.2100   23.1084 H   0  0  0  0  0  0  0  0  0  0  0  0
   21.4377   19.3011   24.1631 C   0  0  0  0  0  0  0  0  0  0  0  0
   21.0560   19.0984   25.1734 H   0  0  0  0  0  0  0  0  0  0  0  0
   21.2661   20.3686   23.9669 H   0  0  0  0  0  0  0  0  0  0  0  0
   20.6543   18.4540   23.1350 C   0  0  0  0  0  0  0  0  0  0  0  0
   20.8277   17.3868   23.3314 H   0  0  0  0  0  0  0  0  0  0  0  0
   21.0363   18.6575   22.1249 H   0  0  0  0  0  0  0  0  0  0  0  0
   19.1379   18.7485   23.1821 C   0  0  0  0  0  0  0  0  0  0  0  0
   18.7554   18.5420   24.1915 H   0  0  0  0  0  0  0  0  0  0  0  0
   18.9709   19.8168   22.9901 H   0  0  0  0  0  0  0  0  0  0  0  0
   18.3558   17.9002   22.1516 C   0  0  0  0  0  0  0  0  0  0  0  0
   18.5585   16.8354   22.3283 H   0  0  0  0  0  0  0  0  0  0  0  0
   18.7089   18.1220   21.1357 H   0  0  0  0  0  0  0  0  0  0  0  0
   16.8333   18.1256   22.2276 C   0  0  0  0  0  0  0  0  0  0  0  0
   16.3306   17.4413   21.5387 H   0  0  0  0  0  0  0  0  0  0  0  0
   16.4795   17.9112   23.2397 H   0  0  0  0  0  0  0  0  0  0  0  0
   16.4063   19.5353   21.8685 N   0  3  0  0  0  0  0  0  0  0  0  0
   16.6911   19.7887   20.9168 H   0  0  0  0  0  0  0  0  0  0  0  0
   16.8151   20.2290   22.5022 H   0  0  0  0  0  0  0  0  0  0  0  0
   15.3878   19.6483   21.9164 H   0  0  0  0  0  0  0  0  0  0  0  0
  1  2  1  0  0  0  0
  1  3  1  0  0  0  0
  1  4  1  0  0  0  0
  1  5  1  0  0  0  0
  5  6  1  0  0  0  0
  5  7  1  0  0  0  0
  5  8  1  0  0  0  0
  8  9  1  0  0  0  0
  8 10  1  0  0  0  0
  8 11  1  0  0  0  0
 11 12  1  0  0  0  0
 11 13  1  0  0  0  0
 11 14  1  0  0  0  0
 14 15  1  0  0  0  0
 14 16  1  0  0  0  0
 14 17  1  0  0  0  0
 17 18  1  0  0  0  0
 17 19  1  0  0  0  0
 17 20  1  0  0  0  0
 20 21  1  0  0  0  0
 20 22  1  0  0  0  0
 20 23  1  0  0  0  0
 23 24  1  0  0  0  0
 23 25  1  0  0  0  0
 23 26  1  0  0  0  0
M  END
> <VConfSearch Rank>
643

> <Conf_Id>
19

> <Delta U+W>
0.162

> <U+W>
-5.391

> <U>
47.845

> <W>
-53.235

> <W(PB)>
-55.585

> <W(SA)>
2.349

> <Valence>
2.258

> <Coulomb>
44.893

> <VdW>
0.694

> <VdW6>
-6.285

> <VdW12>
6.979

> <Bond>
0.149

> <Angle>
0.434

> <Pdih>
1.675

> <Idih>
0.000

> <Tether>
0.000

$$$$
VeraChem MOL file


 26 25  0  0  0  0  0  0  0  0999 V2000     
   21.3799   22.8300   24.1866 C   0  0  0  0  0  0  0  0  0  0  0  0
   22.1033   22.8964   25.0098 H   0  0  0  0  0  0  0  0  0  0  0  0
   21.9194   22.9886   23.2437 H   0  0  0  0  0  0  0  0  0  0  0  0
   20.6594   23.6497   24.3047 H   0  0  0  0  0  0  0  0  0  0  0  0
   20.6585   21.4655   24.1898 C   0  0  0  0  0  0  0  0  0  0  0  0
   19.9167   21.4534   23.3803 H   0  0  0  0  0  0  0  0  0  0  0  0
   20.1048   21.3486   25.1318 H   0  0  0  0  0  0  0  0  0  0  0  0
   21.6543   20.2938   24.0201 C   0  0  0  0  0  0  0  0  0  0  0  0
   22.1697   20.3826   23.0538 H   0  0  0  0  0  0  0  0  0  0  0  0
   22.4322   20.3724   24.7922 H   0  0  0  0  0  0  0  0  0  0  0  0
   20.9940   18.8975   24.1301 C   0  0  0  0  0  0  0  0  0  0  0  0
   20.4920   18.8040   25.1031 H   0  0  0  0  0  0  0  0  0  0  0  0
   21.7867   18.1367   24.1180 H   0  0  0  0  0  0  0  0  0  0  0  0
   19.9892   18.5964   22.9921 C   0  0  0  0  0  0  0  0  0  0  0  0
   19.1489   19.3017   23.0363 H   0  0  0  0  0  0  0  0  0  0  0  0
   20.4797   18.7440   22.0199 H   0  0  0  0  0  0  0  0  0  0  0  0
   19.4411   17.1548   23.0777 C   0  0  0  0  0  0  0  0  0  0  0  0
   18.9489   17.0036   24.0478 H   0  0  0  0  0  0  0  0  0  0  0  0
   20.2718   16.4387   23.0224 H   0  0  0  0  0  0  0  0  0  0  0  0
   18.4402   16.8647   21.9454 C   0  0  0  0  0  0  0  0  0  0  0  0
   17.6025   17.5647   22.0061 H   0  0  0  0  0  0  0  0  0  0  0  0
   18.9307   16.9983   20.9774 H   0  0  0  0  0  0  0  0  0  0  0  0
   17.8790   15.4583   21.9952 N   0  3  0  0  0  0  0  0  0  0  0  0
   17.3799   15.2767   22.8722 H   0  0  0  0  0  0  0  0  0  0  0  0
   18.6158   14.7497   21.9150 H   0  0  0  0  0  0  0  0  0  0  0  0
   17.2149   15.2859   21.2326 H   0  0  0  0  0  0  0  0  0  0  0  0
  1  2  1  0  0  0  0
  1  3  1  0  0  0  0
  1  4  1  0  0  0  0
  1  5  1  0  0  0  0
  5  6  1  0  0  0  0
  5  7  1  0  0  0  0
  5  8  1  0  0  0  0
  8  9  1  0  0  0  0
  8 10  1  0  0  0  0
  8 11  1  0  0  0  0
 11 12  1  0  0  0  0
 11 13  1  0  0  0  0
 11 14  1  0  0  0  0
 14 15  1  0  0  0  0
 14 16  1  0  0  0  0
 14 17  1  0  0  0  0
 17 18  1  0  0  0  0
 17 19  1  0  0  0  0
 17 20  1  0  0  0  0
 20 21  1  0  0  0  0
 20 22  1  0  0  0  0
 20 23  1  0  0  0  0
 23 24  1  0  0  0  0
 23 25  1  0  0  0  0
 23 26  1  0  0  0  0
M  END
> <VConfSearch Rank>
644

> <Conf_Id>
37

> <Delta U+W>
0.565

> <U+W>
-4.988

> <U>
48.035

> <W>
-53.022

> <W(PB)>
-55.379

> <W(SA)>
2.357

> <Valence>
2.701

> <Coulomb>
44.622

> <VdW>
0.712

> <VdW6>
-6.418

> <VdW12>
7.129

> <Bond>
0.168

> <Angle>
0.659

> <Pdih>
1.875

> <Idih>
0.000

> <Tether>
0.000

$$$$
VeraChem MOL file


 26 25  0  0  0  0  0  0  0  0999 V2000     
   22.1888   16.8869   20.6029 C   0  0  0  0  0  0  0  0  0  0  0  0
   22.1879   16.1312   21.3992 H   0  0  0  0  0  0  0  0  0  0  0  0
   21.3519   16.6714   19.9259 H   0  0  0  0  0  0  0  0  0  0  0  0
   23.1205   16.7749   20.0333 H   0  0  0  0  0  0  0  0  0  0  0  0
   22.0761   18.3104   21.1886 C   0  0  0  0  0  0  0  0  0  0  0  0
   22.1149   19.0444   20.3715 H   0  0  0  0  0  0  0  0  0  0  0  0
   22.9429   18.5088   21.8345 H   0  0  0  0  0  0  0  0  0  0  0  0
   20.7718   18.4956   21.9955 C   0  0  0  0  0  0  0  0  0  0  0  0
   19.9084   18.2983   21.3452 H   0  0  0  0  0  0  0  0  0  0  0  0
   20.7414   17.7512   22.8017 H   0  0  0  0  0  0  0  0  0  0  0  0
   20.6598   19.9216   22.5866 C   0  0  0  0  0  0  0  0  0  0  0  0
   20.7700   20.6544   21.7752 H   0  0  0  0  0  0  0  0  0  0  0  0
   21.4929   20.1020   23.2799 H   0  0  0  0  0  0  0  0  0  0  0  0
   19.3165   20.1893   23.3090 C   0  0  0  0  0  0  0  0  0  0  0  0
   19.2783   21.2507   23.5910 H   0  0  0  0  0  0  0  0  0  0  0  0
   18.4838   20.0259   22.6108 H   0  0  0  0  0  0  0  0  0  0  0  0
   19.1117   19.3260   24.5760 C   0  0  0  0  0  0  0  0  0  0  0  0
   19.9688   19.4507   25.2511 H   0  0  0  0  0  0  0  0  0  0  0  0
   19.0633   18.2635   24.3062 H   0  0  0  0  0  0  0  0  0  0  0  0
   17.8187   19.7140   25.3147 C   0  0  0  0  0  0  0  0  0  0  0  0
   17.8629   20.7671   25.6057 H   0  0  0  0  0  0  0  0  0  0  0  0
   16.9604   19.5761   24.6516 H   0  0  0  0  0  0  0  0  0  0  0  0
   17.5802   18.8931   26.5656 N   0  3  0  0  0  0  0  0  0  0  0  0
   18.3412   19.0006   27.2441 H   0  0  0  0  0  0  0  0  0  0  0  0
   17.5007   17.8924   26.3568 H   0  0  0  0  0  0  0  0  0  0  0  0
   16.7144   19.1681   27.0422 H   0  0  0  0  0  0  0  0  0  0  0  0
  1  2  1  0  0  0  0
  1  3  1  0  0  0  0
  1  4  1  0  0  0  0
  1  5  1  0  0  0  0
  5  6  1  0  0  0  0
  5  7  1  0  0  0  0
  5  8  1  0  0  0  0
  8  9  1  0  0  0  0
  8 10  1  0  0  0  0
  8 11  1  0  0  0  0
 11 12  1  0  0  0  0
 11 13  1  0  0  0  0
 11 14  1  0  0  0  0
 14 15  1  0  0  0  0
 14 16  1  0  0  0  0
 14 17  1  0  0  0  0
 17 18  1  0  0  0  0
 17 19  1  0  0  0  0
 17 20  1  0  0  0  0
 20 21  1  0  0  0  0
 20 22  1  0  0  0  0
 20 23  1  0  0  0  0
 23 24  1  0  0  0  0
 23 25  1  0  0  0  0
 23 26  1  0  0  0  0
M  END
> <VConfSearch Rank>
645

> <Conf_Id>
35

> <Delta U+W>
0.587

> <U+W>
-4.965

> <U>
48.214

> <W>
-53.179

> <W(PB)>
-55.527

> <W(SA)>
2.348

> <Valence>
2.697

> <Coulomb>
44.819

> <VdW>
0.699

> <VdW6>
-6.437

> <VdW12>
7.136

> <Bond>
0.168

> <Angle>
0.657

> <Pdih>
1.872

> <Idih>
0.000

> <Tether>
0.000

$$$$
VeraChem MOL file


 26 25  0  0  0  0  0  0  0  0999 V2000     
   16.6329   17.3583   24.6510 C   0  0  0  0  0  0  0  0  0  0  0  0
   17.1092   16.4517   25.0466 H   0  0  0  0  0  0  0  0  0  0  0  0
   16.7368   18.1539   25.4003 H   0  0  0  0  0  0  0  0  0  0  0  0
   15.5622   17.1498   24.5274 H   0  0  0  0  0  0  0  0  0  0  0  0
   17.2655   17.7759   23.3066 C   0  0  0  0  0  0  0  0  0  0  0  0
   16.7471   18.6646   22.9200 H   0  0  0  0  0  0  0  0  0  0  0  0
   17.1149   16.9751   22.5690 H   0  0  0  0  0  0  0  0  0  0  0  0
   18.7741   18.0748   23.4524 C   0  0  0  0  0  0  0  0  0  0  0  0
   18.9108   18.8689   24.1978 H   0  0  0  0  0  0  0  0  0  0  0  0
   19.2881   17.1830   23.8370 H   0  0  0  0  0  0  0  0  0  0  0  0
   19.4086   18.4975   22.1055 C   0  0  0  0  0  0  0  0  0  0  0  0
   18.9331   19.4203   21.7451 H   0  0  0  0  0  0  0  0  0  0  0  0
   19.1950   17.7265   21.3523 H   0  0  0  0  0  0  0  0  0  0  0  0
   20.9422   18.6987   22.1789 C   0  0  0  0  0  0  0  0  0  0  0  0
   21.4195   17.7705   22.5226 H   0  0  0  0  0  0  0  0  0  0  0  0
   21.3187   18.8806   21.1626 H   0  0  0  0  0  0  0  0  0  0  0  0
   21.3700   19.8733   23.0899 C   0  0  0  0  0  0  0  0  0  0  0  0
   21.0764   19.6734   24.1280 H   0  0  0  0  0  0  0  0  0  0  0  0
   20.8538   20.7908   22.7774 H   0  0  0  0  0  0  0  0  0  0  0  0
   22.8913   20.0990   23.0348 C   0  0  0  0  0  0  0  0  0  0  0  0
   23.4098   19.1933   23.3607 H   0  0  0  0  0  0  0  0  0  0  0  0
   23.1940   20.3180   22.0073 H   0  0  0  0  0  0  0  0  0  0  0  0
   23.3539   21.2442   23.9124 N   0  3  0  0  0  0  0  0  0  0  0  0
   23.1237   21.0869   24.8991 H   0  0  0  0  0  0  0  0  0  0  0  0
   22.9222   22.1333   23.6396 H   0  0  0  0  0  0  0  0  0  0  0  0
   24.3697   21.3774   23.8605 H   0  0  0  0  0  0  0  0  0  0  0  0
  1  2  1  0  0  0  0
  1  3  1  0  0  0  0
  1  4  1  0  0  0  0
  1  5  1  0  0  0  0
  5  6  1  0  0  0  0
  5  7  1  0  0  0  0
  5  8  1  0  0  0  0
  8  9  1  0  0  0  0
  8 10  1  0  0  0  0
  8 11  1  0  0  0  0
 11 12  1  0  0  0  0
 11 13  1  0  0  0  0
 11 14  1  0  0  0  0
 14 15  1  0  0  0  0
 14 16  1  0  0  0  0
 14 17  1  0  0  0  0
 17 18  1  0  0  0  0
 17 19  1  0  0  0  0
 17 20  1  0  0  0  0
 20 21  1  0  0  0  0
 20 22  1  0  0  0  0
 20 23  1  0  0  0  0
 23 24  1  0  0  0  0
 23 25  1  0  0  0  0
 23 26  1  0  0  0  0
M  END
> <VConfSearch Rank>
646

> <Conf_Id>
36

> <Delta U+W>
0.565

> <U+W>
-4.987

> <U>
48.214

> <W>
-53.201

> <W(PB)>
-55.543

> <W(SA)>
2.342

> <Valence>
2.697

> <Coulomb>
44.819

> <VdW>
0.698

> <VdW6>
-6.437

> <VdW12>
7.136

> <Bond>
0.168

> <Angle>
0.657

> <Pdih>
1.872

> <Idih>
0.000

> <Tether>
0.000

$$$$
VeraChem MOL file


 26 25  0  0  0  0  0  0  0  0999 V2000     
   24.1460   18.9017   22.1789 C   0  0  0  0  0  0  0  0  0  0  0  0
   24.4054   17.8365   22.2366 H   0  0  0  0  0  0  0  0  0  0  0  0
   24.6922   19.3361   21.3316 H   0  0  0  0  0  0  0  0  0  0  0  0
   24.5018   19.3904   23.0954 H   0  0  0  0  0  0  0  0  0  0  0  0
   22.6247   19.0934   22.0028 C   0  0  0  0  0  0  0  0  0  0  0  0
   22.3046   18.6238   21.0621 H   0  0  0  0  0  0  0  0  0  0  0  0
   22.4004   20.1657   21.9142 H   0  0  0  0  0  0  0  0  0  0  0  0
   21.8316   18.4902   23.1832 C   0  0  0  0  0  0  0  0  0  0  0  0
   22.0616   17.4192   23.2692 H   0  0  0  0  0  0  0  0  0  0  0  0
   22.1563   18.9613   24.1214 H   0  0  0  0  0  0  0  0  0  0  0  0
   20.3076   18.6799   23.0103 C   0  0  0  0  0  0  0  0  0  0  0  0
   19.9839   18.2062   22.0732 H   0  0  0  0  0  0  0  0  0  0  0  0
   20.0861   19.7517   22.9188 H   0  0  0  0  0  0  0  0  0  0  0  0
   19.5160   18.0758   24.1949 C   0  0  0  0  0  0  0  0  0  0  0  0
   19.7840   17.0159   24.3055 H   0  0  0  0  0  0  0  0  0  0  0  0
   19.8130   18.5704   25.1302 H   0  0  0  0  0  0  0  0  0  0  0  0
   17.9830   18.1837   24.0189 C   0  0  0  0  0  0  0  0  0  0  0  0
   17.4913   17.6591   24.8489 H   0  0  0  0  0  0  0  0  0  0  0  0
   17.6801   17.6683   23.0977 H   0  0  0  0  0  0  0  0  0  0  0  0
   17.4893   19.6422   23.9827 C   0  0  0  0  0  0  0  0  0  0  0  0
   17.7898   20.1552   24.9002 H   0  0  0  0  0  0  0  0  0  0  0  0
   17.9377   20.1641   23.1334 H   0  0  0  0  0  0  0  0  0  0  0  0
   15.9839   19.7554   23.8551 N   0  3  0  0  0  0  0  0  0  0  0  0
   15.6758   20.7337   23.8328 H   0  0  0  0  0  0  0  0  0  0  0  0
   15.4992   19.3079   24.6399 H   0  0  0  0  0  0  0  0  0  0  0  0
   15.6389   19.3142   22.9963 H   0  0  0  0  0  0  0  0  0  0  0  0
  1  2  1  0  0  0  0
  1  3  1  0  0  0  0
  1  4  1  0  0  0  0
  1  5  1  0  0  0  0
  5  6  1  0  0  0  0
  5  7  1  0  0  0  0
  5  8  1  0  0  0  0
  8  9  1  0  0  0  0
  8 10  1  0  0  0  0
  8 11  1  0  0  0  0
 11 12  1  0  0  0  0
 11 13  1  0  0  0  0
 11 14  1  0  0  0  0
 14 15  1  0  0  0  0
 14 16  1  0  0  0  0
 14 17  1  0  0  0  0
 17 18  1  0  0  0  0
 17 19  1  0  0  0  0
 17 20  1  0  0  0  0
 20 21  1  0  0  0  0
 20 22  1  0  0  0  0
 20 23  1  0  0  0  0
 23 24  1  0  0  0  0
 23 25  1  0  0  0  0
 23 26  1  0  0  0  0
M  END
> <VConfSearch Rank>
647

> <Conf_Id>
44

> <Delta U+W>
0.371

> <U+W>
-5.181

> <U>
48.002

> <W>
-53.183

> <W(PB)>
-55.533

> <W(SA)>
2.350

> <Valence>
2.459

> <Coulomb>
44.901

> <VdW>
0.643

> <VdW6>
-6.362

> <VdW12>
7.005

> <Bond>
0.151

> <Angle>
0.519

> <Pdih>
1.789

> <Idih>
0.000

> <Tether>
0.000

$$$$
VeraChem MOL file


 26 25  0  0  0  0  0  0  0  0999 V2000     
   16.8428   20.8476   21.9812 C   0  0  0  0  0  0  0  0  0  0  0  0
   17.3688   21.2289   21.0963 H   0  0  0  0  0  0  0  0  0  0  0  0
   15.7708   21.0381   21.8419 H   0  0  0  0  0  0  0  0  0  0  0  0
   17.1692   21.4282   22.8527 H   0  0  0  0  0  0  0  0  0  0  0  0
   17.1023   19.3361   22.1739 C   0  0  0  0  0  0  0  0  0  0  0  0
   16.6432   18.7907   21.3374 H   0  0  0  0  0  0  0  0  0  0  0  0
   16.5948   18.9863   23.0838 H   0  0  0  0  0  0  0  0  0  0  0  0
   18.6050   18.9696   22.2383 C   0  0  0  0  0  0  0  0  0  0  0  0
   18.6860   17.8753   22.2357 H   0  0  0  0  0  0  0  0  0  0  0  0
   19.1069   19.3202   21.3260 H   0  0  0  0  0  0  0  0  0  0  0  0
   19.3263   19.5413   23.4855 C   0  0  0  0  0  0  0  0  0  0  0  0
   18.8270   19.1878   24.3981 H   0  0  0  0  0  0  0  0  0  0  0  0
   19.2358   20.6351   23.4883 H   0  0  0  0  0  0  0  0  0  0  0  0
   20.8330   19.1880   23.5481 C   0  0  0  0  0  0  0  0  0  0  0  0
   21.3294   19.5290   22.6289 H   0  0  0  0  0  0  0  0  0  0  0  0
   21.2823   19.7595   24.3709 H   0  0  0  0  0  0  0  0  0  0  0  0
   21.1095   17.6784   23.7625 C   0  0  0  0  0  0  0  0  0  0  0  0
   20.7057   17.1020   22.9212 H   0  0  0  0  0  0  0  0  0  0  0  0
   20.5917   17.3248   24.6639 H   0  0  0  0  0  0  0  0  0  0  0  0
   22.6131   17.3603   23.8756 C   0  0  0  0  0  0  0  0  0  0  0  0
   22.7509   16.2768   23.9259 H   0  0  0  0  0  0  0  0  0  0  0  0
   23.1353   17.7294   22.9888 H   0  0  0  0  0  0  0  0  0  0  0  0
   23.2765   17.9636   25.0983 N   0  3  0  0  0  0  0  0  0  0  0  0
   23.2178   18.9866   25.0968 H   0  0  0  0  0  0  0  0  0  0  0  0
   24.2717   17.7203   25.1504 H   0  0  0  0  0  0  0  0  0  0  0  0
   22.8425   17.6362   25.9675 H   0  0  0  0  0  0  0  0  0  0  0  0
  1  2  1  0  0  0  0
  1  3  1  0  0  0  0
  1  4  1  0  0  0  0
  1  5  1  0  0  0  0
  5  6  1  0  0  0  0
  5  7  1  0  0  0  0
  5  8  1  0  0  0  0
  8  9  1  0  0  0  0
  8 10  1  0  0  0  0
  8 11  1  0  0  0  0
 11 12  1  0  0  0  0
 11 13  1  0  0  0  0
 11 14  1  0  0  0  0
 14 15  1  0  0  0  0
 14 16  1  0  0  0  0
 14 17  1  0  0  0  0
 17 18  1  0  0  0  0
 17 19  1  0  0  0  0
 17 20  1  0  0  0  0
 20 21  1  0  0  0  0
 20 22  1  0  0  0  0
 20 23  1  0  0  0  0
 23 24  1  0  0  0  0
 23 25  1  0  0  0  0
 23 26  1  0  0  0  0
M  END
> <VConfSearch Rank>
648

> <Conf_Id>
112

> <Delta U+W>
1.422

> <U+W>
-4.130

> <U>
49.323

> <W>
-53.453

> <W(PB)>
-55.749

> <W(SA)>
2.296

> <Valence>
3.408

> <Coulomb>
44.893

> <VdW>
1.021

> <VdW6>
-7.481

> <VdW12>
8.503

> <Bond>
0.239

> <Angle>
1.013

> <Pdih>
2.156

> <Idih>
0.000

> <Tether>
0.000

$$$$
VeraChem MOL file


 26 25  0  0  0  0  0  0  0  0999 V2000     
   19.6808   20.6333   26.5387 C   0  0  0  0  0  0  0  0  0  0  0  0
   19.3506   21.0936   27.4789 H   0  0  0  0  0  0  0  0  0  0  0  0
   20.0388   19.6233   26.7738 H   0  0  0  0  0  0  0  0  0  0  0  0
   20.5275   21.2187   26.1575 H   0  0  0  0  0  0  0  0  0  0  0  0
   18.5224   20.6008   25.5161 C   0  0  0  0  0  0  0  0  0  0  0  0
   18.1218   21.6178   25.4014 H   0  0  0  0  0  0  0  0  0  0  0  0
   17.6989   19.9888   25.9100 H   0  0  0  0  0  0  0  0  0  0  0  0
   18.9475   20.0739   24.1244 C   0  0  0  0  0  0  0  0  0  0  0  0
   18.0971   20.1783   23.4367 H   0  0  0  0  0  0  0  0  0  0  0  0
   19.7480   20.7129   23.7292 H   0  0  0  0  0  0  0  0  0  0  0  0
   19.4061   18.5936   24.1430 C   0  0  0  0  0  0  0  0  0  0  0  0
   18.6464   17.9911   24.6598 H   0  0  0  0  0  0  0  0  0  0  0  0
   20.3309   18.4930   24.7264 H   0  0  0  0  0  0  0  0  0  0  0  0
   19.6277   17.9972   22.7312 C   0  0  0  0  0  0  0  0  0  0  0  0
   19.8292   16.9235   22.8416 H   0  0  0  0  0  0  0  0  0  0  0  0
   18.7004   18.0789   22.1475 H   0  0  0  0  0  0  0  0  0  0  0  0
   20.7925   18.6627   21.9560 C   0  0  0  0  0  0  0  0  0  0  0  0
   21.7177   18.6064   22.5448 H   0  0  0  0  0  0  0  0  0  0  0  0
   20.5788   19.7284   21.8072 H   0  0  0  0  0  0  0  0  0  0  0  0
   21.0246   18.0270   20.5716 C   0  0  0  0  0  0  0  0  0  0  0  0
   20.0999   18.0648   19.9894 H   0  0  0  0  0  0  0  0  0  0  0  0
   21.7884   18.5967   20.0352 H   0  0  0  0  0  0  0  0  0  0  0  0
   21.4860   16.5839   20.6301 N   0  3  0  0  0  0  0  0  0  0  0  0
   20.7955   15.9825   21.0897 H   0  0  0  0  0  0  0  0  0  0  0  0
   22.3657   16.4861   21.1475 H   0  0  0  0  0  0  0  0  0  0  0  0
   21.6449   16.1968   19.6935 H   0  0  0  0  0  0  0  0  0  0  0  0
  1  2  1  0  0  0  0
  1  3  1  0  0  0  0
  1  4  1  0  0  0  0
  1  5  1  0  0  0  0
  5  6  1  0  0  0  0
  5  7  1  0  0  0  0
  5  8  1  0  0  0  0
  8  9  1  0  0  0  0
  8 10  1  0  0  0  0
  8 11  1  0  0  0  0
 11 12  1  0  0  0  0
 11 13  1  0  0  0  0
 11 14  1  0  0  0  0
 14 15  1  0  0  0  0
 14 16  1  0  0  0  0
 14 17  1  0  0  0  0
 17 18  1  0  0  0  0
 17 19  1  0  0  0  0
 17 20  1  0  0  0  0
 20 21  1  0  0  0  0
 20 22  1  0  0  0  0
 20 23  1  0  0  0  0
 23 24  1  0  0  0  0
 23 25  1  0  0  0  0
 23 26  1  0  0  0  0
M  END
> <VConfSearch Rank>
649

> <Conf_Id>
130

> <Delta U+W>
1.282

> <U+W>
-4.270

> <U>
49.153

> <W>
-53.422

> <W(PB)>
-55.725

> <W(SA)>
2.303

> <Valence>
3.298

> <Coulomb>
44.907

> <VdW>
0.948

> <VdW6>
-7.574

> <VdW12>
8.522

> <Bond>
0.229

> <Angle>
0.912

> <Pdih>
2.157

> <Idih>
0.000

> <Tether>
0.000

$$$$
VeraChem MOL file


 26 25  0  0  0  0  0  0  0  0999 V2000     
   21.8580   17.6555   20.6756 C   0  0  0  0  0  0  0  0  0  0  0  0
   22.8449   18.1346   20.7145 H   0  0  0  0  0  0  0  0  0  0  0  0
   21.8154   17.0471   19.7630 H   0  0  0  0  0  0  0  0  0  0  0  0
   21.0973   18.4408   20.5847 H   0  0  0  0  0  0  0  0  0  0  0  0
   21.6177   16.7768   21.9239 C   0  0  0  0  0  0  0  0  0  0  0  0
   22.3266   15.9372   21.9068 H   0  0  0  0  0  0  0  0  0  0  0  0
   20.6181   16.3252   21.8728 H   0  0  0  0  0  0  0  0  0  0  0  0
   21.7935   17.5421   23.2605 C   0  0  0  0  0  0  0  0  0  0  0  0
   21.6312   16.8431   24.0924 H   0  0  0  0  0  0  0  0  0  0  0  0
   22.8384   17.8710   23.3445 H   0  0  0  0  0  0  0  0  0  0  0  0
   20.8698   18.7735   23.4495 C   0  0  0  0  0  0  0  0  0  0  0  0
   21.0934   19.5294   22.6852 H   0  0  0  0  0  0  0  0  0  0  0  0
   21.1185   19.2365   24.4134 H   0  0  0  0  0  0  0  0  0  0  0  0
   19.3599   18.4256   23.4170 C   0  0  0  0  0  0  0  0  0  0  0  0
   19.1040   17.9901   22.4424 H   0  0  0  0  0  0  0  0  0  0  0  0
   19.1396   17.6569   24.1705 H   0  0  0  0  0  0  0  0  0  0  0  0
   18.4493   19.6540   23.6509 C   0  0  0  0  0  0  0  0  0  0  0  0
   17.4029   19.3529   23.5086 H   0  0  0  0  0  0  0  0  0  0  0  0
   18.6615   20.4203   22.8934 H   0  0  0  0  0  0  0  0  0  0  0  0
   18.6101   20.2576   25.0589 C   0  0  0  0  0  0  0  0  0  0  0  0
   18.4000   19.4939   25.8125 H   0  0  0  0  0  0  0  0  0  0  0  0
   19.6367   20.6059   25.1981 H   0  0  0  0  0  0  0  0  0  0  0  0
   17.6842   21.4301   25.3102 N   0  3  0  0  0  0  0  0  0  0  0  0
   17.8495   22.1961   24.6491 H   0  0  0  0  0  0  0  0  0  0  0  0
   17.8066   21.8171   26.2524 H   0  0  0  0  0  0  0  0  0  0  0  0
   16.6980   21.1637   25.2231 H   0  0  0  0  0  0  0  0  0  0  0  0
  1  2  1  0  0  0  0
  1  3  1  0  0  0  0
  1  4  1  0  0  0  0
  1  5  1  0  0  0  0
  5  6  1  0  0  0  0
  5  7  1  0  0  0  0
  5  8  1  0  0  0  0
  8  9  1  0  0  0  0
  8 10  1  0  0  0  0
  8 11  1  0  0  0  0
 11 12  1  0  0  0  0
 11 13  1  0  0  0  0
 11 14  1  0  0  0  0
 14 15  1  0  0  0  0
 14 16  1  0  0  0  0
 14 17  1  0  0  0  0
 17 18  1  0  0  0  0
 17 19  1  0  0  0  0
 17 20  1  0  0  0  0
 20 21  1  0  0  0  0
 20 22  1  0  0  0  0
 20 23  1  0  0  0  0
 23 24  1  0  0  0  0
 23 25  1  0  0  0  0
 23 26  1  0  0  0  0
M  END
> <VConfSearch Rank>
650

> <Conf_Id>
111

> <Delta U+W>
1.290

> <U+W>
-4.262

> <U>
49.209

> <W>
-53.471

> <W(PB)>
-55.745

> <W(SA)>
2.274

> <Valence>
3.465

> <Coulomb>
44.958

> <VdW>
0.786

> <VdW6>
-7.903

> <VdW12>
8.689

> <Bond>
0.237

> <Angle>
1.212

> <Pdih>
2.015

> <Idih>
0.000

> <Tether>
0.000

$$$$
VeraChem MOL file


 26 25  0  0  0  0  0  0  0  0999 V2000     
   23.1552   16.7902   22.2545 C   0  0  0  0  0  0  0  0  0  0  0  0
   22.8677   16.7775   21.1951 H   0  0  0  0  0  0  0  0  0  0  0  0
   24.1437   17.2610   22.3350 H   0  0  0  0  0  0  0  0  0  0  0  0
   23.2497   15.7495   22.5907 H   0  0  0  0  0  0  0  0  0  0  0  0
   22.1099   17.5445   23.1035 C   0  0  0  0  0  0  0  0  0  0  0  0
   22.4095   17.5149   24.1605 H   0  0  0  0  0  0  0  0  0  0  0  0
   21.1474   17.0212   23.0301 H   0  0  0  0  0  0  0  0  0  0  0  0
   21.9562   19.0139   22.6449 C   0  0  0  0  0  0  0  0  0  0  0  0
   22.9443   19.4944   22.6502 H   0  0  0  0  0  0  0  0  0  0  0  0
   21.6057   19.0424   21.6040 H   0  0  0  0  0  0  0  0  0  0  0  0
   21.0021   19.8456   23.5371 C   0  0  0  0  0  0  0  0  0  0  0  0
   21.0464   20.8937   23.2102 H   0  0  0  0  0  0  0  0  0  0  0  0
   21.3633   19.8308   24.5747 H   0  0  0  0  0  0  0  0  0  0  0  0
   19.5319   19.3646   23.4881 C   0  0  0  0  0  0  0  0  0  0  0  0
   19.1991   19.3249   22.4424 H   0  0  0  0  0  0  0  0  0  0  0  0
   19.4576   18.3446   23.8875 H   0  0  0  0  0  0  0  0  0  0  0  0
   18.5994   20.2931   24.3016 C   0  0  0  0  0  0  0  0  0  0  0  0
   18.6312   21.3117   23.8925 H   0  0  0  0  0  0  0  0  0  0  0  0
   18.9642   20.3590   25.3353 H   0  0  0  0  0  0  0  0  0  0  0  0
   17.1412   19.7959   24.3298 C   0  0  0  0  0  0  0  0  0  0  0  0
   17.1063   18.7798   24.7320 H   0  0  0  0  0  0  0  0  0  0  0  0
   16.5503   20.4422   24.9847 H   0  0  0  0  0  0  0  0  0  0  0  0
   16.4731   19.7866   22.9689 N   0  3  0  0  0  0  0  0  0  0  0  0
   15.5011   19.4632   23.0241 H   0  0  0  0  0  0  0  0  0  0  0  0
   16.9583   19.1678   22.3119 H   0  0  0  0  0  0  0  0  0  0  0  0
   16.4541   20.7211   22.5477 H   0  0  0  0  0  0  0  0  0  0  0  0
  1  2  1  0  0  0  0
  1  3  1  0  0  0  0
  1  4  1  0  0  0  0
  1  5  1  0  0  0  0
  5  6  1  0  0  0  0
  5  7  1  0  0  0  0
  5  8  1  0  0  0  0
  8  9  1  0  0  0  0
  8 10  1  0  0  0  0
  8 11  1  0  0  0  0
 11 12  1  0  0  0  0
 11 13  1  0  0  0  0
 11 14  1  0  0  0  0
 14 15  1  0  0  0  0
 14 16  1  0  0  0  0
 14 17  1  0  0  0  0
 17 18  1  0  0  0  0
 17 19  1  0  0  0  0
 17 20  1  0  0  0  0
 20 21  1  0  0  0  0
 20 22  1  0  0  0  0
 20 23  1  0  0  0  0
 23 24  1  0  0  0  0
 23 25  1  0  0  0  0
 23 26  1  0  0  0  0
M  END
> <VConfSearch Rank>
651

> <Conf_Id>
105

> <Delta U+W>
0.736

> <U+W>
-4.817

> <U>
48.735

> <W>
-53.552

> <W(PB)>
-55.889

> <W(SA)>
2.337

> <Valence>
2.803

> <Coulomb>
45.123

> <VdW>
0.809

> <VdW6>
-6.953

> <VdW12>
7.761

> <Bond>
0.188

> <Angle>
0.699

> <Pdih>
1.917

> <Idih>
0.000

> <Tether>
0.000

$$$$
VeraChem MOL file


 26 25  0  0  0  0  0  0  0  0999 V2000     
   16.6901   17.7347   22.1154 C   0  0  0  0  0  0  0  0  0  0  0  0
   16.1518   16.9443   22.6545 H   0  0  0  0  0  0  0  0  0  0  0  0
   16.2827   18.7035   22.4327 H   0  0  0  0  0  0  0  0  0  0  0  0
   16.4799   17.6151   21.0446 H   0  0  0  0  0  0  0  0  0  0  0  0
   18.2077   17.6564   22.3848 C   0  0  0  0  0  0  0  0  0  0  0  0
   18.7140   18.4350   21.7988 H   0  0  0  0  0  0  0  0  0  0  0  0
   18.5918   16.6897   22.0305 H   0  0  0  0  0  0  0  0  0  0  0  0
   18.5296   17.8268   23.8881 C   0  0  0  0  0  0  0  0  0  0  0  0
   18.1831   18.8097   24.2334 H   0  0  0  0  0  0  0  0  0  0  0  0
   17.9537   17.0875   24.4617 H   0  0  0  0  0  0  0  0  0  0  0  0
   20.0316   17.6426   24.2273 C   0  0  0  0  0  0  0  0  0  0  0  0
   20.3240   16.6099   23.9921 H   0  0  0  0  0  0  0  0  0  0  0  0
   20.1635   17.7512   25.3127 H   0  0  0  0  0  0  0  0  0  0  0  0
   21.0037   18.6107   23.5041 C   0  0  0  0  0  0  0  0  0  0  0  0
   22.0254   18.3627   23.8201 H   0  0  0  0  0  0  0  0  0  0  0  0
   20.9726   18.4344   22.4207 H   0  0  0  0  0  0  0  0  0  0  0  0
   20.7228   20.1055   23.7991 C   0  0  0  0  0  0  0  0  0  0  0  0
   20.7334   20.2840   24.8825 H   0  0  0  0  0  0  0  0  0  0  0  0
   19.7185   20.3706   23.4459 H   0  0  0  0  0  0  0  0  0  0  0  0
   21.7313   21.0465   23.1122 C   0  0  0  0  0  0  0  0  0  0  0  0
   21.7368   20.8575   22.0354 H   0  0  0  0  0  0  0  0  0  0  0  0
   21.4267   22.0840   23.2746 H   0  0  0  0  0  0  0  0  0  0  0  0
   23.1511   20.9005   23.6236 N   0  3  0  0  0  0  0  0  0  0  0  0
   23.5158   19.9557   23.4681 H   0  0  0  0  0  0  0  0  0  0  0  0
   23.2146   21.0883   24.6295 H   0  0  0  0  0  0  0  0  0  0  0  0
   23.7927   21.5505   23.1565 H   0  0  0  0  0  0  0  0  0  0  0  0
  1  2  1  0  0  0  0
  1  3  1  0  0  0  0
  1  4  1  0  0  0  0
  1  5  1  0  0  0  0
  5  6  1  0  0  0  0
  5  7  1  0  0  0  0
  5  8  1  0  0  0  0
  8  9  1  0  0  0  0
  8 10  1  0  0  0  0
  8 11  1  0  0  0  0
 11 12  1  0  0  0  0
 11 13  1  0  0  0  0
 11 14  1  0  0  0  0
 14 15  1  0  0  0  0
 14 16  1  0  0  0  0
 14 17  1  0  0  0  0
 17 18  1  0  0  0  0
 17 19  1  0  0  0  0
 17 20  1  0  0  0  0
 20 21  1  0  0  0  0
 20 22  1  0  0  0  0
 20 23  1  0  0  0  0
 23 24  1  0  0  0  0
 23 25  1  0  0  0  0
 23 26  1  0  0  0  0
M  END
> <VConfSearch Rank>
652

> <Conf_Id>
144

> <Delta U+W>
1.073

> <U+W>
-4.479

> <U>
49.231

> <W>
-53.710

> <W(PB)>
-55.983

> <W(SA)>
2.273

> <Valence>
3.276

> <Coulomb>
45.175

> <VdW>
0.779

> <VdW6>
-7.944

> <VdW12>
8.723

> <Bond>
0.239

> <Angle>
1.155

> <Pdih>
1.883

> <Idih>
0.000

> <Tether>
0.000

$$$$
VeraChem MOL file


 26 25  0  0  0  0  0  0  0  0999 V2000     
   20.2373   22.4822   24.0057 C   0  0  0  0  0  0  0  0  0  0  0  0
   21.3189   22.4017   23.8424 H   0  0  0  0  0  0  0  0  0  0  0  0
   19.9525   23.5243   23.8110 H   0  0  0  0  0  0  0  0  0  0  0  0
   20.0320   22.2707   25.0631 H   0  0  0  0  0  0  0  0  0  0  0  0
   19.4473   21.5254   23.0837 C   0  0  0  0  0  0  0  0  0  0  0  0
   19.6949   21.7332   22.0333 H   0  0  0  0  0  0  0  0  0  0  0  0
   18.3748   21.7382   23.1941 H   0  0  0  0  0  0  0  0  0  0  0  0
   19.6881   20.0279   23.3936 C   0  0  0  0  0  0  0  0  0  0  0  0
   19.4593   19.8298   24.4497 H   0  0  0  0  0  0  0  0  0  0  0  0
   18.9731   19.4458   22.7988 H   0  0  0  0  0  0  0  0  0  0  0  0
   21.1254   19.5525   23.0659 C   0  0  0  0  0  0  0  0  0  0  0  0
   21.8506   20.1973   23.5782 H   0  0  0  0  0  0  0  0  0  0  0  0
   21.3130   19.6766   21.9905 H   0  0  0  0  0  0  0  0  0  0  0  0
   21.4278   18.0876   23.4759 C   0  0  0  0  0  0  0  0  0  0  0  0
   22.4796   17.8859   23.2297 H   0  0  0  0  0  0  0  0  0  0  0  0
   21.3523   17.9781   24.5668 H   0  0  0  0  0  0  0  0  0  0  0  0
   20.5550   17.0172   22.7734 C   0  0  0  0  0  0  0  0  0  0  0  0
   21.1320   16.0853   22.7051 H   0  0  0  0  0  0  0  0  0  0  0  0
   20.3382   17.3239   21.7415 H   0  0  0  0  0  0  0  0  0  0  0  0
   19.2468   16.7143   23.5302 C   0  0  0  0  0  0  0  0  0  0  0  0
   19.4811   16.3592   24.5373 H   0  0  0  0  0  0  0  0  0  0  0  0
   18.6425   17.6188   23.6206 H   0  0  0  0  0  0  0  0  0  0  0  0
   18.4007   15.6581   22.8492 N   0  3  0  0  0  0  0  0  0  0  0  0
   18.8998   14.7668   22.7621 H   0  0  0  0  0  0  0  0  0  0  0  0
   18.1228   15.9417   21.9040 H   0  0  0  0  0  0  0  0  0  0  0  0
   17.5377   15.4670   23.3699 H   0  0  0  0  0  0  0  0  0  0  0  0
  1  2  1  0  0  0  0
  1  3  1  0  0  0  0
  1  4  1  0  0  0  0
  1  5  1  0  0  0  0
  5  6  1  0  0  0  0
  5  7  1  0  0  0  0
  5  8  1  0  0  0  0
  8  9  1  0  0  0  0
  8 10  1  0  0  0  0
  8 11  1  0  0  0  0
 11 12  1  0  0  0  0
 11 13  1  0  0  0  0
 11 14  1  0  0  0  0
 14 15  1  0  0  0  0
 14 16  1  0  0  0  0
 14 17  1  0  0  0  0
 17 18  1  0  0  0  0
 17 19  1  0  0  0  0
 17 20  1  0  0  0  0
 20 21  1  0  0  0  0
 20 22  1  0  0  0  0
 20 23  1  0  0  0  0
 23 24  1  0  0  0  0
 23 25  1  0  0  0  0
 23 26  1  0  0  0  0
M  END
> <VConfSearch Rank>
653

> <Conf_Id>
93

> <Delta U+W>
3.253

> <U+W>
-2.300

> <U>
51.609

> <W>
-53.909

> <W(PB)>
-56.178

> <W(SA)>
2.270

> <Valence>
5.204

> <Coulomb>
45.645

> <VdW>
0.760

> <VdW6>
-7.997

> <VdW12>
8.758

> <Bond>
0.240

> <Angle>
1.456

> <Pdih>
3.507

> <Idih>
0.000

> <Tether>
0.000

$$$$
VeraChem MOL file


 26 25  0  0  0  0  0  0  0  0999 V2000     
   21.3499   19.7509   26.6246 C   0  0  0  0  0  0  0  0  0  0  0  0
   20.9265   20.7568   26.5157 H   0  0  0  0  0  0  0  0  0  0  0  0
   20.5823   19.0996   27.0623 H   0  0  0  0  0  0  0  0  0  0  0  0
   22.1792   19.8194   27.3405 H   0  0  0  0  0  0  0  0  0  0  0  0
   21.8488   19.1915   25.2726 C   0  0  0  0  0  0  0  0  0  0  0  0
   22.3768   18.2456   25.4579 H   0  0  0  0  0  0  0  0  0  0  0  0
   22.5900   19.8767   24.8380 H   0  0  0  0  0  0  0  0  0  0  0  0
   20.7130   18.9316   24.2533 C   0  0  0  0  0  0  0  0  0  0  0  0
   21.1477   18.3966   23.3997 H   0  0  0  0  0  0  0  0  0  0  0  0
   19.9642   18.2632   24.7000 H   0  0  0  0  0  0  0  0  0  0  0  0
   20.0303   20.2260   23.7456 C   0  0  0  0  0  0  0  0  0  0  0  0
   20.7717   20.8480   23.2255 H   0  0  0  0  0  0  0  0  0  0  0  0
   19.6832   20.8176   24.6021 H   0  0  0  0  0  0  0  0  0  0  0  0
   18.8127   19.9887   22.8146 C   0  0  0  0  0  0  0  0  0  0  0  0
   18.0170   19.4635   23.3610 H   0  0  0  0  0  0  0  0  0  0  0  0
   18.3964   20.9727   22.5576 H   0  0  0  0  0  0  0  0  0  0  0  0
   19.1327   19.2417   21.4952 C   0  0  0  0  0  0  0  0  0  0  0  0
   20.1268   19.5304   21.1289 H   0  0  0  0  0  0  0  0  0  0  0  0
   18.4147   19.5626   20.7288 H   0  0  0  0  0  0  0  0  0  0  0  0
   19.0336   17.7096   21.6305 C   0  0  0  0  0  0  0  0  0  0  0  0
   19.7338   17.3492   22.3863 H   0  0  0  0  0  0  0  0  0  0  0  0
   18.0229   17.4349   21.9441 H   0  0  0  0  0  0  0  0  0  0  0  0
   19.3336   16.9811   20.3364 N   0  3  0  0  0  0  0  0  0  0  0  0
   18.6864   17.2499   19.5881 H   0  0  0  0  0  0  0  0  0  0  0  0
   19.2578   15.9638   20.4452 H   0  0  0  0  0  0  0  0  0  0  0  0
   20.2821   17.1756   19.9992 H   0  0  0  0  0  0  0  0  0  0  0  0
  1  2  1  0  0  0  0
  1  3  1  0  0  0  0
  1  4  1  0  0  0  0
  1  5  1  0  0  0  0
  5  6  1  0  0  0  0
  5  7  1  0  0  0  0
  5  8  1  0  0  0  0
  8  9  1  0  0  0  0
  8 10  1  0  0  0  0
  8 11  1  0  0  0  0
 11 12  1  0  0  0  0
 11 13  1  0  0  0  0
 11 14  1  0  0  0  0
 14 15  1  0  0  0  0
 14 16  1  0  0  0  0
 14 17  1  0  0  0  0
 17 18  1  0  0  0  0
 17 19  1  0  0  0  0
 17 20  1  0  0  0  0
 20 21  1  0  0  0  0
 20 22  1  0  0  0  0
 20 23  1  0  0  0  0
 23 24  1  0  0  0  0
 23 25  1  0  0  0  0
 23 26  1  0  0  0  0
M  END
> <VConfSearch Rank>
654

> <Conf_Id>
94

> <Delta U+W>
3.247

> <U+W>
-2.305

> <U>
51.609

> <W>
-53.914

> <W(PB)>
-56.221

> <W(SA)>
2.307

> <Valence>
5.204

> <Coulomb>
45.645

> <VdW>
0.760

> <VdW6>
-7.997

> <VdW12>
8.757

> <Bond>
0.240

> <Angle>
1.456

> <Pdih>
3.508

> <Idih>
0.000

> <Tether>
0.000

$$$$
VeraChem MOL file


 26 25  0  0  0  0  0  0  0  0999 V2000     
   17.2961   20.3083   20.5600 C   0  0  0  0  0  0  0  0  0  0  0  0
   16.9205   21.2308   21.0216 H   0  0  0  0  0  0  0  0  0  0  0  0
   18.0742   20.5809   19.8352 H   0  0  0  0  0  0  0  0  0  0  0  0
   16.4677   19.8465   20.0073 H   0  0  0  0  0  0  0  0  0  0  0  0
   17.8471   19.3386   21.6269 C   0  0  0  0  0  0  0  0  0  0  0  0
   18.1835   18.4129   21.1391 H   0  0  0  0  0  0  0  0  0  0  0  0
   17.0387   19.0578   22.3165 H   0  0  0  0  0  0  0  0  0  0  0  0
   19.0154   19.9646   22.4202 C   0  0  0  0  0  0  0  0  0  0  0  0
   19.8200   20.2455   21.7266 H   0  0  0  0  0  0  0  0  0  0  0  0
   18.6747   20.8908   22.9034 H   0  0  0  0  0  0  0  0  0  0  0  0
   19.5694   18.9966   23.4899 C   0  0  0  0  0  0  0  0  0  0  0  0
   19.9007   18.0709   23.0008 H   0  0  0  0  0  0  0  0  0  0  0  0
   18.7647   18.7195   24.1848 H   0  0  0  0  0  0  0  0  0  0  0  0
   20.7409   19.6256   24.2816 C   0  0  0  0  0  0  0  0  0  0  0  0
   21.5584   19.8821   23.5946 H   0  0  0  0  0  0  0  0  0  0  0  0
   20.4073   20.5737   24.7256 H   0  0  0  0  0  0  0  0  0  0  0  0
   21.2715   18.7116   25.4145 C   0  0  0  0  0  0  0  0  0  0  0  0
   20.4683   18.5337   26.1419 H   0  0  0  0  0  0  0  0  0  0  0  0
   22.0679   19.2349   25.9601 H   0  0  0  0  0  0  0  0  0  0  0  0
   21.8059   17.3501   24.9253 C   0  0  0  0  0  0  0  0  0  0  0  0
   22.1343   16.7593   25.7847 H   0  0  0  0  0  0  0  0  0  0  0  0
   21.0083   16.7992   24.4202 H   0  0  0  0  0  0  0  0  0  0  0  0
   22.9768   17.4643   23.9693 N   0  3  0  0  0  0  0  0  0  0  0  0
   23.7716   17.9495   24.3978 H   0  0  0  0  0  0  0  0  0  0  0  0
   22.7239   17.9844   23.1234 H   0  0  0  0  0  0  0  0  0  0  0  0
   23.3142   16.5436   23.6681 H   0  0  0  0  0  0  0  0  0  0  0  0
  1  2  1  0  0  0  0
  1  3  1  0  0  0  0
  1  4  1  0  0  0  0
  1  5  1  0  0  0  0
  5  6  1  0  0  0  0
  5  7  1  0  0  0  0
  5  8  1  0  0  0  0
  8  9  1  0  0  0  0
  8 10  1  0  0  0  0
  8 11  1  0  0  0  0
 11 12  1  0  0  0  0
 11 13  1  0  0  0  0
 11 14  1  0  0  0  0
 14 15  1  0  0  0  0
 14 16  1  0  0  0  0
 14 17  1  0  0  0  0
 17 18  1  0  0  0  0
 17 19  1  0  0  0  0
 17 20  1  0  0  0  0
 20 21  1  0  0  0  0
 20 22  1  0  0  0  0
 20 23  1  0  0  0  0
 23 24  1  0  0  0  0
 23 25  1  0  0  0  0
 23 26  1  0  0  0  0
M  END
> <VConfSearch Rank>
655

> <Conf_Id>
83

> <Delta U+W>
0.559

> <U+W>
-4.994

> <U>
48.668

> <W>
-53.661

> <W(PB)>
-55.972

> <W(SA)>
2.311

> <Valence>
2.543

> <Coulomb>
45.478

> <VdW>
0.646

> <VdW6>
-7.096

> <VdW12>
7.742

> <Bond>
0.176

> <Angle>
0.630

> <Pdih>
1.738

> <Idih>
0.000

> <Tether>
0.000

$$$$
VeraChem MOL file


 26 25  0  0  0  0  0  0  0  0999 V2000     
   21.9198   19.2899   19.8006 C   0  0  0  0  0  0  0  0  0  0  0  0
   22.9540   18.9280   19.7323 H   0  0  0  0  0  0  0  0  0  0  0  0
   21.2756   18.5897   19.2529 H   0  0  0  0  0  0  0  0  0  0  0  0
   21.8692   20.2619   19.2931 H   0  0  0  0  0  0  0  0  0  0  0  0
   21.4726   19.4193   21.2722 C   0  0  0  0  0  0  0  0  0  0  0  0
   20.4514   19.8217   21.2994 H   0  0  0  0  0  0  0  0  0  0  0  0
   22.1164   20.1472   21.7856 H   0  0  0  0  0  0  0  0  0  0  0  0
   21.5316   18.0595   22.0075 C   0  0  0  0  0  0  0  0  0  0  0  0
   20.8465   17.3480   21.5262 H   0  0  0  0  0  0  0  0  0  0  0  0
   22.5403   17.6381   21.8971 H   0  0  0  0  0  0  0  0  0  0  0  0
   21.2035   18.1556   23.5178 C   0  0  0  0  0  0  0  0  0  0  0  0
   21.8984   18.8562   24.0011 H   0  0  0  0  0  0  0  0  0  0  0  0
   21.3877   17.1738   23.9757 H   0  0  0  0  0  0  0  0  0  0  0  0
   19.7444   18.5820   23.8090 C   0  0  0  0  0  0  0  0  0  0  0  0
   19.5699   19.5922   23.4186 H   0  0  0  0  0  0  0  0  0  0  0  0
   19.0536   17.9099   23.2813 H   0  0  0  0  0  0  0  0  0  0  0  0
   19.4323   18.5545   25.3240 C   0  0  0  0  0  0  0  0  0  0  0  0
   20.0995   19.2439   25.8583 H   0  0  0  0  0  0  0  0  0  0  0  0
   19.6369   17.5508   25.7198 H   0  0  0  0  0  0  0  0  0  0  0  0
   17.9662   18.9111   25.6370 C   0  0  0  0  0  0  0  0  0  0  0  0
   17.2992   18.2312   25.0999 H   0  0  0  0  0  0  0  0  0  0  0  0
   17.7847   18.7907   26.7085 H   0  0  0  0  0  0  0  0  0  0  0  0
   17.5899   20.3317   25.2643 N   0  3  0  0  0  0  0  0  0  0  0  0
   17.7007   20.5031   24.2602 H   0  0  0  0  0  0  0  0  0  0  0  0
   18.1691   21.0203   25.7557 H   0  0  0  0  0  0  0  0  0  0  0  0
   16.6132   20.5405   25.4984 H   0  0  0  0  0  0  0  0  0  0  0  0
  1  2  1  0  0  0  0
  1  3  1  0  0  0  0
  1  4  1  0  0  0  0
  1  5  1  0  0  0  0
  5  6  1  0  0  0  0
  5  7  1  0  0  0  0
  5  8  1  0  0  0  0
  8  9  1  0  0  0  0
  8 10  1  0  0  0  0
  8 11  1  0  0  0  0
 11 12  1  0  0  0  0
 11 13  1  0  0  0  0
 11 14  1  0  0  0  0
 14 15  1  0  0  0  0
 14 16  1  0  0  0  0
 14 17  1  0  0  0  0
 17 18  1  0  0  0  0
 17 19  1  0  0  0  0
 17 20  1  0  0  0  0
 20 21  1  0  0  0  0
 20 22  1  0  0  0  0
 20 23  1  0  0  0  0
 23 24  1  0  0  0  0
 23 25  1  0  0  0  0
 23 26  1  0  0  0  0
M  END
> <VConfSearch Rank>
656

> <Conf_Id>
18

> <Delta U+W>
0.759

> <U+W>
-4.793

> <U>
48.945

> <W>
-53.738

> <W(PB)>
-56.051

> <W(SA)>
2.313

> <Valence>
2.802

> <Coulomb>
45.335

> <VdW>
0.807

> <VdW6>
-6.962

> <VdW12>
7.769

> <Bond>
0.189

> <Angle>
0.696

> <Pdih>
1.917

> <Idih>
0.000

> <Tether>
0.000

$$$$
VeraChem MOL file


 26 25  0  0  0  0  0  0  0  0999 V2000     
   19.3959   22.7643   23.6344 C   0  0  0  0  0  0  0  0  0  0  0  0
   18.3296   22.7203   23.8917 H   0  0  0  0  0  0  0  0  0  0  0  0
   19.9227   23.2813   24.4470 H   0  0  0  0  0  0  0  0  0  0  0  0
   19.4988   23.3722   22.7262 H   0  0  0  0  0  0  0  0  0  0  0  0
   19.9711   21.3495   23.4112 C   0  0  0  0  0  0  0  0  0  0  0  0
   21.0298   21.4275   23.1272 H   0  0  0  0  0  0  0  0  0  0  0  0
   19.4478   20.8821   22.5666 H   0  0  0  0  0  0  0  0  0  0  0  0
   19.8331   20.4718   24.6777 C   0  0  0  0  0  0  0  0  0  0  0  0
   20.2923   20.9968   25.5268 H   0  0  0  0  0  0  0  0  0  0  0  0
   18.7706   20.3494   24.9297 H   0  0  0  0  0  0  0  0  0  0  0  0
   20.4988   19.0801   24.5443 C   0  0  0  0  0  0  0  0  0  0  0  0
   20.4570   18.5807   25.5222 H   0  0  0  0  0  0  0  0  0  0  0  0
   21.5645   19.2036   24.3067 H   0  0  0  0  0  0  0  0  0  0  0  0
   19.8289   18.1718   23.4852 C   0  0  0  0  0  0  0  0  0  0  0  0
   18.7535   18.0933   23.6966 H   0  0  0  0  0  0  0  0  0  0  0  0
   19.9281   18.6272   22.4920 H   0  0  0  0  0  0  0  0  0  0  0  0
   20.4544   16.7569   23.4675 C   0  0  0  0  0  0  0  0  0  0  0  0
   20.3821   16.3143   24.4699 H   0  0  0  0  0  0  0  0  0  0  0  0
   21.5246   16.8214   23.2299 H   0  0  0  0  0  0  0  0  0  0  0  0
   19.7613   15.8114   22.4673 C   0  0  0  0  0  0  0  0  0  0  0  0
   20.1870   14.8087   22.5618 H   0  0  0  0  0  0  0  0  0  0  0  0
   18.6939   15.7515   22.6964 H   0  0  0  0  0  0  0  0  0  0  0  0
   19.9088   16.2384   21.0200 N   0  3  0  0  0  0  0  0  0  0  0  0
   20.8928   16.2920   20.7373 H   0  0  0  0  0  0  0  0  0  0  0  0
   19.4941   17.1601   20.8517 H   0  0  0  0  0  0  0  0  0  0  0  0
   19.4490   15.5810   20.3806 H   0  0  0  0  0  0  0  0  0  0  0  0
  1  2  1  0  0  0  0
  1  3  1  0  0  0  0
  1  4  1  0  0  0  0
  1  5  1  0  0  0  0
  5  6  1  0  0  0  0
  5  7  1  0  0  0  0
  5  8  1  0  0  0  0
  8  9  1  0  0  0  0
  8 10  1  0  0  0  0
  8 11  1  0  0  0  0
 11 12  1  0  0  0  0
 11 13  1  0  0  0  0
 11 14  1  0  0  0  0
 14 15  1  0  0  0  0
 14 16  1  0  0  0  0
 14 17  1  0  0  0  0
 17 18  1  0  0  0  0
 17 19  1  0  0  0  0
 17 20  1  0  0  0  0
 20 21  1  0  0  0  0
 20 22  1  0  0  0  0
 20 23  1  0  0  0  0
 23 24  1  0  0  0  0
 23 25  1  0  0  0  0
 23 26  1  0  0  0  0
M  END
> <VConfSearch Rank>
657

> <Conf_Id>
17

> <Delta U+W>
0.843

> <U+W>
-4.709

> <U>
48.945

> <W>
-53.653

> <W(PB)>
-55.991

> <W(SA)>
2.338

> <Valence>
2.802

> <Coulomb>
45.335

> <VdW>
0.807

> <VdW6>
-6.962

> <VdW12>
7.769

> <Bond>
0.189

> <Angle>
0.696

> <Pdih>
1.917

> <Idih>
0.000

> <Tether>
0.000

$$$$
VeraChem MOL file


 26 25  0  0  0  0  0  0  0  0999 V2000     
   23.1876   19.7479   22.5455 C   0  0  0  0  0  0  0  0  0  0  0  0
   22.7305   18.8195   22.1814 H   0  0  0  0  0  0  0  0  0  0  0  0
   22.8852   20.5656   21.8785 H   0  0  0  0  0  0  0  0  0  0  0  0
   24.2762   19.6332   22.4636 H   0  0  0  0  0  0  0  0  0  0  0  0
   22.7839   20.0448   24.0076 C   0  0  0  0  0  0  0  0  0  0  0  0
   23.3605   20.9093   24.3652 H   0  0  0  0  0  0  0  0  0  0  0  0
   23.0688   19.1989   24.6488 H   0  0  0  0  0  0  0  0  0  0  0  0
   21.2759   20.3482   24.1806 C   0  0  0  0  0  0  0  0  0  0  0  0
   21.0999   20.6559   25.2206 H   0  0  0  0  0  0  0  0  0  0  0  0
   21.0003   21.2072   23.5534 H   0  0  0  0  0  0  0  0  0  0  0  0
   20.3622   19.1444   23.8476 C   0  0  0  0  0  0  0  0  0  0  0  0
   20.6730   18.2738   24.4415 H   0  0  0  0  0  0  0  0  0  0  0  0
   20.4843   18.8718   22.7919 H   0  0  0  0  0  0  0  0  0  0  0  0
   18.8741   19.4596   24.1329 C   0  0  0  0  0  0  0  0  0  0  0  0
   18.7651   19.7729   25.1804 H   0  0  0  0  0  0  0  0  0  0  0  0
   18.5514   20.3118   23.5186 H   0  0  0  0  0  0  0  0  0  0  0  0
   17.9379   18.2551   23.8765 C   0  0  0  0  0  0  0  0  0  0  0  0
   16.9188   18.5243   24.1845 H   0  0  0  0  0  0  0  0  0  0  0  0
   18.2438   17.4093   24.5066 H   0  0  0  0  0  0  0  0  0  0  0  0
   17.9184   17.8199   22.3991 C   0  0  0  0  0  0  0  0  0  0  0  0
   17.6133   18.6617   21.7717 H   0  0  0  0  0  0  0  0  0  0  0  0
   18.9193   17.5062   22.0921 H   0  0  0  0  0  0  0  0  0  0  0  0
   16.9690   16.6697   22.1327 N   0  3  0  0  0  0  0  0  0  0  0  0
   16.9706   16.3954   21.1441 H   0  0  0  0  0  0  0  0  0  0  0  0
   16.0017   16.9089   22.3742 H   0  0  0  0  0  0  0  0  0  0  0  0
   17.2178   15.8355   22.6743 H   0  0  0  0  0  0  0  0  0  0  0  0
  1  2  1  0  0  0  0
  1  3  1  0  0  0  0
  1  4  1  0  0  0  0
  1  5  1  0  0  0  0
  5  6  1  0  0  0  0
  5  7  1  0  0  0  0
  5  8  1  0  0  0  0
  8  9  1  0  0  0  0
  8 10  1  0  0  0  0
  8 11  1  0  0  0  0
 11 12  1  0  0  0  0
 11 13  1  0  0  0  0
 11 14  1  0  0  0  0
 14 15  1  0  0  0  0
 14 16  1  0  0  0  0
 14 17  1  0  0  0  0
 17 18  1  0  0  0  0
 17 19  1  0  0  0  0
 17 20  1  0  0  0  0
 20 21  1  0  0  0  0
 20 22  1  0  0  0  0
 20 23  1  0  0  0  0
 23 24  1  0  0  0  0
 23 25  1  0  0  0  0
 23 26  1  0  0  0  0
M  END
> <VConfSearch Rank>
658

> <Conf_Id>
96

> <Delta U+W>
0.912

> <U+W>
-4.640

> <U>
48.723

> <W>
-53.364

> <W(PB)>
-55.683

> <W(SA)>
2.320

> <Valence>
2.962

> <Coulomb>
44.993

> <VdW>
0.768

> <VdW6>
-7.008

> <VdW12>
7.776

> <Bond>
0.188

> <Angle>
0.757

> <Pdih>
2.018

> <Idih>
0.000

> <Tether>
0.000

$$$$
VeraChem MOL file


 26 25  0  0  0  0  0  0  0  0999 V2000     
   19.5942   21.1376   25.9816 C   0  0  0  0  0  0  0  0  0  0  0  0
   19.5061   21.4532   27.0292 H   0  0  0  0  0  0  0  0  0  0  0  0
   19.1332   21.9139   25.3573 H   0  0  0  0  0  0  0  0  0  0  0  0
   19.0144   20.2135   25.8662 H   0  0  0  0  0  0  0  0  0  0  0  0
   21.0781   20.9284   25.6030 C   0  0  0  0  0  0  0  0  0  0  0  0
   21.5073   20.1261   26.2192 H   0  0  0  0  0  0  0  0  0  0  0  0
   21.6386   21.8403   25.8520 H   0  0  0  0  0  0  0  0  0  0  0  0
   21.2920   20.6084   24.1037 C   0  0  0  0  0  0  0  0  0  0  0  0
   20.8794   21.4229   23.4924 H   0  0  0  0  0  0  0  0  0  0  0  0
   22.3720   20.5878   23.9029 H   0  0  0  0  0  0  0  0  0  0  0  0
   20.6701   19.2606   23.6658 C   0  0  0  0  0  0  0  0  0  0  0  0
   19.5822   19.2966   23.8027 H   0  0  0  0  0  0  0  0  0  0  0  0
   21.0481   18.4562   24.3116 H   0  0  0  0  0  0  0  0  0  0  0  0
   20.9961   18.9334   22.1886 C   0  0  0  0  0  0  0  0  0  0  0  0
   20.5937   19.7214   21.5370 H   0  0  0  0  0  0  0  0  0  0  0  0
   22.0859   18.9409   22.0485 H   0  0  0  0  0  0  0  0  0  0  0  0
   20.4482   17.5596   21.7355 C   0  0  0  0  0  0  0  0  0  0  0  0
   20.8672   16.7676   22.3704 H   0  0  0  0  0  0  0  0  0  0  0  0
   20.7934   17.3583   20.7127 H   0  0  0  0  0  0  0  0  0  0  0  0
   18.9098   17.4913   21.7697 C   0  0  0  0  0  0  0  0  0  0  0  0
   18.5547   17.6455   22.7918 H   0  0  0  0  0  0  0  0  0  0  0  0
   18.4925   18.2794   21.1371 H   0  0  0  0  0  0  0  0  0  0  0  0
   18.3646   16.1638   21.2839 N   0  3  0  0  0  0  0  0  0  0  0  0
   18.6993   15.3811   21.8553 H   0  0  0  0  0  0  0  0  0  0  0  0
   18.6391   15.9694   20.3154 H   0  0  0  0  0  0  0  0  0  0  0  0
   17.3395   16.1388   21.3143 H   0  0  0  0  0  0  0  0  0  0  0  0
  1  2  1  0  0  0  0
  1  3  1  0  0  0  0
  1  4  1  0  0  0  0
  1  5  1  0  0  0  0
  5  6  1  0  0  0  0
  5  7  1  0  0  0  0
  5  8  1  0  0  0  0
  8  9  1  0  0  0  0
  8 10  1  0  0  0  0
  8 11  1  0  0  0  0
 11 12  1  0  0  0  0
 11 13  1  0  0  0  0
 11 14  1  0  0  0  0
 14 15  1  0  0  0  0
 14 16  1  0  0  0  0
 14 17  1  0  0  0  0
 17 18  1  0  0  0  0
 17 19  1  0  0  0  0
 17 20  1  0  0  0  0
 20 21  1  0  0  0  0
 20 22  1  0  0  0  0
 20 23  1  0  0  0  0
 23 24  1  0  0  0  0
 23 25  1  0  0  0  0
 23 26  1  0  0  0  0
M  END
> <VConfSearch Rank>
659

> <Conf_Id>
133

> <Delta U+W>
0.844

> <U+W>
-4.708

> <U>
48.723

> <W>
-53.431

> <W(PB)>
-55.776

> <W(SA)>
2.344

> <Valence>
2.962

> <Coulomb>
44.993

> <VdW>
0.768

> <VdW6>
-7.008

> <VdW12>
7.776

> <Bond>
0.188

> <Angle>
0.756

> <Pdih>
2.018

> <Idih>
0.000

> <Tether>
0.000

$$$$
VeraChem MOL file


 26 25  0  0  0  0  0  0  0  0999 V2000     
   22.6016   19.9758   25.0866 C   0  0  0  0  0  0  0  0  0  0  0  0
   22.4094   20.5458   26.0048 H   0  0  0  0  0  0  0  0  0  0  0  0
   22.0831   19.0121   25.1646 H   0  0  0  0  0  0  0  0  0  0  0  0
   23.6785   19.7686   25.0387 H   0  0  0  0  0  0  0  0  0  0  0  0
   22.1459   20.7641   23.8379 C   0  0  0  0  0  0  0  0  0  0  0  0
   22.3295   20.1668   22.9349 H   0  0  0  0  0  0  0  0  0  0  0  0
   22.7737   21.6605   23.7372 H   0  0  0  0  0  0  0  0  0  0  0  0
   20.6614   21.2063   23.8958 C   0  0  0  0  0  0  0  0  0  0  0  0
   20.5310   21.9016   24.7365 H   0  0  0  0  0  0  0  0  0  0  0  0
   20.4286   21.7833   22.9902 H   0  0  0  0  0  0  0  0  0  0  0  0
   19.6318   20.0557   24.0386 C   0  0  0  0  0  0  0  0  0  0  0  0
   18.6266   20.4965   24.0873 H   0  0  0  0  0  0  0  0  0  0  0  0
   19.7801   19.5371   24.9951 H   0  0  0  0  0  0  0  0  0  0  0  0
   19.6787   19.0352   22.8762 C   0  0  0  0  0  0  0  0  0  0  0  0
   19.5750   19.5639   21.9185 H   0  0  0  0  0  0  0  0  0  0  0  0
   20.6545   18.5319   22.8595 H   0  0  0  0  0  0  0  0  0  0  0  0
   18.5656   17.9717   23.0009 C   0  0  0  0  0  0  0  0  0  0  0  0
   17.5833   18.4627   23.0074 H   0  0  0  0  0  0  0  0  0  0  0  0
   18.6673   17.4409   23.9569 H   0  0  0  0  0  0  0  0  0  0  0  0
   18.6230   16.9585   21.8442 C   0  0  0  0  0  0  0  0  0  0  0  0
   18.5061   17.4810   20.8910 H   0  0  0  0  0  0  0  0  0  0  0  0
   19.5935   16.4548   21.8438 H   0  0  0  0  0  0  0  0  0  0  0  0
   17.5454   15.8971   21.9310 N   0  3  0  0  0  0  0  0  0  0  0  0
   17.6014   15.2327   21.1513 H   0  0  0  0  0  0  0  0  0  0  0  0
   16.6048   16.3047   21.9085 H   0  0  0  0  0  0  0  0  0  0  0  0
   17.6166   15.3498   22.7950 H   0  0  0  0  0  0  0  0  0  0  0  0
  1  2  1  0  0  0  0
  1  3  1  0  0  0  0
  1  4  1  0  0  0  0
  1  5  1  0  0  0  0
  5  6  1  0  0  0  0
  5  7  1  0  0  0  0
  5  8  1  0  0  0  0
  8  9  1  0  0  0  0
  8 10  1  0  0  0  0
  8 11  1  0  0  0  0
 11 12  1  0  0  0  0
 11 13  1  0  0  0  0
 11 14  1  0  0  0  0
 14 15  1  0  0  0  0
 14 16  1  0  0  0  0
 14 17  1  0  0  0  0
 17 18  1  0  0  0  0
 17 19  1  0  0  0  0
 17 20  1  0  0  0  0
 20 21  1  0  0  0  0
 20 22  1  0  0  0  0
 20 23  1  0  0  0  0
 23 24  1  0  0  0  0
 23 25  1  0  0  0  0
 23 26  1  0  0  0  0
M  END
> <VConfSearch Rank>
660

> <Conf_Id>
106

> <Delta U+W>
0.767

> <U+W>
-4.785

> <U>
48.494

> <W>
-53.279

> <W(PB)>
-55.569

> <W(SA)>
2.290

> <Valence>
3.117

> <Coulomb>
44.693

> <VdW>
0.684

> <VdW6>
-7.347

> <VdW12>
8.030

> <Bond>
0.208

> <Angle>
1.039

> <Pdih>
1.870

> <Idih>
0.000

> <Tether>
0.000

$$$$
VeraChem MOL file


 26 25  0  0  0  0  0  0  0  0999 V2000     
   19.5244   16.5692   27.0878 C   0  0  0  0  0  0  0  0  0  0  0  0
   19.7200   17.4164   27.7581 H   0  0  0  0  0  0  0  0  0  0  0  0
   18.4369   16.4510   26.9946 H   0  0  0  0  0  0  0  0  0  0  0  0
   19.9222   15.6637   27.5641 H   0  0  0  0  0  0  0  0  0  0  0  0
   20.1785   16.7912   25.7076 C   0  0  0  0  0  0  0  0  0  0  0  0
   19.9946   15.9139   25.0717 H   0  0  0  0  0  0  0  0  0  0  0  0
   21.2679   16.8717   25.8292 H   0  0  0  0  0  0  0  0  0  0  0  0
   19.6358   18.0607   25.0147 C   0  0  0  0  0  0  0  0  0  0  0  0
   18.5464   17.9766   24.8976 H   0  0  0  0  0  0  0  0  0  0  0  0
   19.8199   18.9345   25.6551 H   0  0  0  0  0  0  0  0  0  0  0  0
   20.2884   18.2864   23.6322 C   0  0  0  0  0  0  0  0  0  0  0  0
   20.1040   17.4120   22.9926 H   0  0  0  0  0  0  0  0  0  0  0  0
   21.3777   18.3698   23.7502 H   0  0  0  0  0  0  0  0  0  0  0  0
   19.7452   19.5567   22.9395 C   0  0  0  0  0  0  0  0  0  0  0  0
   18.6557   19.4736   22.8213 H   0  0  0  0  0  0  0  0  0  0  0  0
   19.9296   20.4313   23.5788 H   0  0  0  0  0  0  0  0  0  0  0  0
   20.3970   19.7828   21.5576 C   0  0  0  0  0  0  0  0  0  0  0  0
   20.2103   18.9129   20.9137 H   0  0  0  0  0  0  0  0  0  0  0  0
   21.4856   19.8715   21.6721 H   0  0  0  0  0  0  0  0  0  0  0  0
   19.8492   21.0497   20.8773 C   0  0  0  0  0  0  0  0  0  0  0  0
   18.7675   20.9589   20.7462 H   0  0  0  0  0  0  0  0  0  0  0  0
   20.0474   21.9210   21.5074 H   0  0  0  0  0  0  0  0  0  0  0  0
   20.4652   21.3066   19.5171 N   0  3  0  0  0  0  0  0  0  0  0  0
   20.0867   22.1547   19.0815 H   0  0  0  0  0  0  0  0  0  0  0  0
   20.2907   20.5337   18.8663 H   0  0  0  0  0  0  0  0  0  0  0  0
   21.4815   21.4290   19.5747 H   0  0  0  0  0  0  0  0  0  0  0  0
  1  2  1  0  0  0  0
  1  3  1  0  0  0  0
  1  4  1  0  0  0  0
  1  5  1  0  0  0  0
  5  6  1  0  0  0  0
  5  7  1  0  0  0  0
  5  8  1  0  0  0  0
  8  9  1  0  0  0  0
  8 10  1  0  0  0  0
  8 11  1  0  0  0  0
 11 12  1  0  0  0  0
 11 13  1  0  0  0  0
 11 14  1  0  0  0  0
 14 15  1  0  0  0  0
 14 16  1  0  0  0  0
 14 17  1  0  0  0  0
 17 18  1  0  0  0  0
 17 19  1  0  0  0  0
 17 20  1  0  0  0  0
 20 21  1  0  0  0  0
 20 22  1  0  0  0  0
 20 23  1  0  0  0  0
 23 24  1  0  0  0  0
 23 25  1  0  0  0  0
 23 26  1  0  0  0  0
M  END
> <VConfSearch Rank>
661

> <Conf_Id>
25

> <Delta U+W>
0.000

> <U+W>
-5.552

> <U>
47.192

> <W>
-52.745

> <W(PB)>
-55.134

> <W(SA)>
2.389

> <Valence>
2.156

> <Coulomb>
44.449

> <VdW>
0.587

> <VdW6>
-5.761

> <VdW12>
6.348

> <Bond>
0.129

> <Angle>
0.393

> <Pdih>
1.634

> <Idih>
0.000

> <Tether>
0.000

$$$$
VeraChem MOL file


 26 25  0  0  0  0  0  0  0  0999 V2000     
   22.3397   19.7285   19.6915 C   0  0  0  0  0  0  0  0  0  0  0  0
   22.7280   20.7003   20.0232 H   0  0  0  0  0  0  0  0  0  0  0  0
   23.0714   18.9568   19.9641 H   0  0  0  0  0  0  0  0  0  0  0  0
   22.2659   19.7511   18.5965 H   0  0  0  0  0  0  0  0  0  0  0  0
   20.9629   19.4359   20.3246 C   0  0  0  0  0  0  0  0  0  0  0  0
   20.5855   18.4747   19.9482 H   0  0  0  0  0  0  0  0  0  0  0  0
   20.2447   20.2048   20.0068 H   0  0  0  0  0  0  0  0  0  0  0  0
   21.0387   19.3985   21.8671 C   0  0  0  0  0  0  0  0  0  0  0  0
   21.7594   18.6302   22.1797 H   0  0  0  0  0  0  0  0  0  0  0  0
   21.4184   20.3604   22.2384 H   0  0  0  0  0  0  0  0  0  0  0  0
   19.6617   19.1056   22.5046 C   0  0  0  0  0  0  0  0  0  0  0  0
   19.2826   18.1435   22.1329 H   0  0  0  0  0  0  0  0  0  0  0  0
   18.9416   19.8738   22.1904 H   0  0  0  0  0  0  0  0  0  0  0  0
   19.7377   19.0689   24.0478 C   0  0  0  0  0  0  0  0  0  0  0  0
   20.4621   18.3031   24.3559 H   0  0  0  0  0  0  0  0  0  0  0  0
   20.1140   20.0321   24.4195 H   0  0  0  0  0  0  0  0  0  0  0  0
   18.3585   18.7747   24.6839 C   0  0  0  0  0  0  0  0  0  0  0  0
   17.9870   17.7990   24.3431 H   0  0  0  0  0  0  0  0  0  0  0  0
   17.6325   19.5237   24.3407 H   0  0  0  0  0  0  0  0  0  0  0  0
   18.3953   18.8016   26.2241 C   0  0  0  0  0  0  0  0  0  0  0  0
   18.7706   19.7698   26.5665 H   0  0  0  0  0  0  0  0  0  0  0  0
   17.3817   18.6718   26.6134 H   0  0  0  0  0  0  0  0  0  0  0  0
   19.2636   17.7182   26.8331 N   0  3  0  0  0  0  0  0  0  0  0  0
   20.2409   17.8035   26.5370 H   0  0  0  0  0  0  0  0  0  0  0  0
   18.9464   16.7807   26.5656 H   0  0  0  0  0  0  0  0  0  0  0  0
   19.2561   17.7557   27.8582 H   0  0  0  0  0  0  0  0  0  0  0  0
  1  2  1  0  0  0  0
  1  3  1  0  0  0  0
  1  4  1  0  0  0  0
  1  5  1  0  0  0  0
  5  6  1  0  0  0  0
  5  7  1  0  0  0  0
  5  8  1  0  0  0  0
  8  9  1  0  0  0  0
  8 10  1  0  0  0  0
  8 11  1  0  0  0  0
 11 12  1  0  0  0  0
 11 13  1  0  0  0  0
 11 14  1  0  0  0  0
 14 15  1  0  0  0  0
 14 16  1  0  0  0  0
 14 17  1  0  0  0  0
 17 18  1  0  0  0  0
 17 19  1  0  0  0  0
 17 20  1  0  0  0  0
 20 21  1  0  0  0  0
 20 22  1  0  0  0  0
 20 23  1  0  0  0  0
 23 24  1  0  0  0  0
 23 25  1  0  0  0  0
 23 26  1  0  0  0  0
M  END
> <VConfSearch Rank>
662

> <Conf_Id>
20

> <Delta U+W>
0.150

> <U+W>
-5.403

> <U>
47.845

> <W>
-53.248

> <W(PB)>
-55.599

> <W(SA)>
2.351

> <Valence>
2.258

> <Coulomb>
44.893

> <VdW>
0.694

> <VdW6>
-6.285

> <VdW12>
6.979

> <Bond>
0.149

> <Angle>
0.434

> <Pdih>
1.675

> <Idih>
0.000

> <Tether>
0.000

$$$$
VeraChem MOL file


 26 25  0  0  0  0  0  0  0  0999 V2000     
   15.9517   19.3464   21.6739 C   0  0  0  0  0  0  0  0  0  0  0  0
   15.9948   20.4394   21.7664 H   0  0  0  0  0  0  0  0  0  0  0  0
   16.2261   19.0792   20.6450 H   0  0  0  0  0  0  0  0  0  0  0  0
   14.9117   19.0351   21.8368 H   0  0  0  0  0  0  0  0  0  0  0  0
   16.8902   18.6659   22.6929 C   0  0  0  0  0  0  0  0  0  0  0  0
   16.7999   17.5746   22.5994 H   0  0  0  0  0  0  0  0  0  0  0  0
   16.5704   18.9243   23.7121 H   0  0  0  0  0  0  0  0  0  0  0  0
   18.3618   19.0872   22.4853 C   0  0  0  0  0  0  0  0  0  0  0  0
   18.6762   18.8289   21.4646 H   0  0  0  0  0  0  0  0  0  0  0  0
   18.4466   20.1789   22.5772 H   0  0  0  0  0  0  0  0  0  0  0  0
   19.3047   18.4078   23.5040 C   0  0  0  0  0  0  0  0  0  0  0  0
   19.2182   17.3162   23.4119 H   0  0  0  0  0  0  0  0  0  0  0  0
   18.9900   18.6667   24.5245 H   0  0  0  0  0  0  0  0  0  0  0  0
   20.7771   18.8288   23.2956 C   0  0  0  0  0  0  0  0  0  0  0  0
   21.0926   18.5671   22.2760 H   0  0  0  0  0  0  0  0  0  0  0  0
   20.8568   19.9206   23.3837 H   0  0  0  0  0  0  0  0  0  0  0  0
   21.7191   18.1484   24.3169 C   0  0  0  0  0  0  0  0  0  0  0  0
   21.6049   17.0584   24.2469 H   0  0  0  0  0  0  0  0  0  0  0  0
   21.4317   18.4286   25.3391 H   0  0  0  0  0  0  0  0  0  0  0  0
   23.2016   18.4989   24.0850 C   0  0  0  0  0  0  0  0  0  0  0  0
   23.8225   17.9260   24.7791 H   0  0  0  0  0  0  0  0  0  0  0  0
   23.4892   18.2265   23.0659 H   0  0  0  0  0  0  0  0  0  0  0  0
   23.5206   19.9672   24.2875 N   0  3  0  0  0  0  0  0  0  0  0  0
   23.2927   20.2789   25.2372 H   0  0  0  0  0  0  0  0  0  0  0  0
   22.9965   20.5627   23.6389 H   0  0  0  0  0  0  0  0  0  0  0  0
   24.5162   20.1645   24.1384 H   0  0  0  0  0  0  0  0  0  0  0  0
  1  2  1  0  0  0  0
  1  3  1  0  0  0  0
  1  4  1  0  0  0  0
  1  5  1  0  0  0  0
  5  6  1  0  0  0  0
  5  7  1  0  0  0  0
  5  8  1  0  0  0  0
  8  9  1  0  0  0  0
  8 10  1  0  0  0  0
  8 11  1  0  0  0  0
 11 12  1  0  0  0  0
 11 13  1  0  0  0  0
 11 14  1  0  0  0  0
 14 15  1  0  0  0  0
 14 16  1  0  0  0  0
 14 17  1  0  0  0  0
 17 18  1  0  0  0  0
 17 19  1  0  0  0  0
 17 20  1  0  0  0  0
 20 21  1  0  0  0  0
 20 22  1  0  0  0  0
 20 23  1  0  0  0  0
 23 24  1  0  0  0  0
 23 25  1  0  0  0  0
 23 26  1  0  0  0  0
M  END
> <VConfSearch Rank>
663

> <Conf_Id>
19

> <Delta U+W>
0.162

> <U+W>
-5.391

> <U>
47.845

> <W>
-53.235

> <W(PB)>
-55.585

> <W(SA)>
2.349

> <Valence>
2.258

> <Coulomb>
44.893

> <VdW>
0.694

> <VdW6>
-6.285

> <VdW12>
6.979

> <Bond>
0.149

> <Angle>
0.434

> <Pdih>
1.675

> <Idih>
0.000

> <Tether>
0.000

$$$$
VeraChem MOL file


 26 25  0  0  0  0  0  0  0  0999 V2000     
   18.4330   18.8881   19.4184 C   0  0  0  0  0  0  0  0  0  0  0  0
   17.4678   19.3970   19.2975 H   0  0  0  0  0  0  0  0  0  0  0  0
   19.2092   19.5128   18.9575 H   0  0  0  0  0  0  0  0  0  0  0  0
   18.3870   17.9427   18.8623 H   0  0  0  0  0  0  0  0  0  0  0  0
   18.7419   18.6294   20.9084 C   0  0  0  0  0  0  0  0  0  0  0  0
   19.6918   18.0841   20.9853 H   0  0  0  0  0  0  0  0  0  0  0  0
   17.9650   17.9787   21.3336 H   0  0  0  0  0  0  0  0  0  0  0  0
   18.8160   19.9489   21.7125 C   0  0  0  0  0  0  0  0  0  0  0  0
   19.6280   20.5767   21.3203 H   0  0  0  0  0  0  0  0  0  0  0  0
   17.8869   20.5143   21.5563 H   0  0  0  0  0  0  0  0  0  0  0  0
   19.0114   19.7380   23.2341 C   0  0  0  0  0  0  0  0  0  0  0  0
   18.1906   19.1230   23.6282 H   0  0  0  0  0  0  0  0  0  0  0  0
   18.9322   20.7140   23.7328 H   0  0  0  0  0  0  0  0  0  0  0  0
   20.3702   19.0938   23.6004 C   0  0  0  0  0  0  0  0  0  0  0  0
   20.4350   18.0846   23.1729 H   0  0  0  0  0  0  0  0  0  0  0  0
   21.1868   19.6814   23.1584 H   0  0  0  0  0  0  0  0  0  0  0  0
   20.5693   19.0061   25.1297 C   0  0  0  0  0  0  0  0  0  0  0  0
   19.7555   18.4184   25.5752 H   0  0  0  0  0  0  0  0  0  0  0  0
   20.5185   20.0116   25.5682 H   0  0  0  0  0  0  0  0  0  0  0  0
   21.9204   18.3611   25.4855 C   0  0  0  0  0  0  0  0  0  0  0  0
   21.9693   17.3530   25.0651 H   0  0  0  0  0  0  0  0  0  0  0  0
   22.7346   18.9522   25.0575 H   0  0  0  0  0  0  0  0  0  0  0  0
   22.1533   18.2568   26.9789 N   0  3  0  0  0  0  0  0  0  0  0  0
   21.4346   17.6886   27.4391 H   0  0  0  0  0  0  0  0  0  0  0  0
   22.1466   19.1766   27.4319 H   0  0  0  0  0  0  0  0  0  0  0  0
   23.0585   17.8247   27.1941 H   0  0  0  0  0  0  0  0  0  0  0  0
  1  2  1  0  0  0  0
  1  3  1  0  0  0  0
  1  4  1  0  0  0  0
  1  5  1  0  0  0  0
  5  6  1  0  0  0  0
  5  7  1  0  0  0  0
  5  8  1  0  0  0  0
  8  9  1  0  0  0  0
  8 10  1  0  0  0  0
  8 11  1  0  0  0  0
 11 12  1  0  0  0  0
 11 13  1  0  0  0  0
 11 14  1  0  0  0  0
 14 15  1  0  0  0  0
 14 16  1  0  0  0  0
 14 17  1  0  0  0  0
 17 18  1  0  0  0  0
 17 19  1  0  0  0  0
 17 20  1  0  0  0  0
 20 21  1  0  0  0  0
 20 22  1  0  0  0  0
 20 23  1  0  0  0  0
 23 24  1  0  0  0  0
 23 25  1  0  0  0  0
 23 26  1  0  0  0  0
M  END
> <VConfSearch Rank>
664

> <Conf_Id>
37

> <Delta U+W>
0.565

> <U+W>
-4.988

> <U>
48.035

> <W>
-53.022

> <W(PB)>
-55.379

> <W(SA)>
2.357

> <Valence>
2.701

> <Coulomb>
44.622

> <VdW>
0.712

> <VdW6>
-6.418

> <VdW12>
7.129

> <Bond>
0.168

> <Angle>
0.659

> <Pdih>
1.875

> <Idih>
0.000

> <Tether>
0.000

$$$$
VeraChem MOL file


 26 25  0  0  0  0  0  0  0  0999 V2000     
   16.1979   17.6160   24.1373 C   0  0  0  0  0  0  0  0  0  0  0  0
   16.7444   16.7197   24.4588 H   0  0  0  0  0  0  0  0  0  0  0  0
   16.0743   18.2721   25.0088 H   0  0  0  0  0  0  0  0  0  0  0  0
   15.1991   17.3015   23.8080 H   0  0  0  0  0  0  0  0  0  0  0  0
   16.9440   18.3419   22.9977 C   0  0  0  0  0  0  0  0  0  0  0  0
   16.3564   19.2127   22.6747 H   0  0  0  0  0  0  0  0  0  0  0  0
   17.0229   17.6729   22.1293 H   0  0  0  0  0  0  0  0  0  0  0  0
   18.3541   18.7965   23.4354 C   0  0  0  0  0  0  0  0  0  0  0  0
   18.2697   19.4664   24.3022 H   0  0  0  0  0  0  0  0  0  0  0  0
   18.9265   17.9192   23.7640 H   0  0  0  0  0  0  0  0  0  0  0  0
   19.1045   19.5209   22.2920 C   0  0  0  0  0  0  0  0  0  0  0  0
   18.4820   20.3483   21.9240 H   0  0  0  0  0  0  0  0  0  0  0  0
   19.2386   18.8354   21.4438 H   0  0  0  0  0  0  0  0  0  0  0  0
   20.4786   20.0939   22.7180 C   0  0  0  0  0  0  0  0  0  0  0  0
   20.8826   20.6858   21.8848 H   0  0  0  0  0  0  0  0  0  0  0  0
   20.3427   20.7930   23.5550 H   0  0  0  0  0  0  0  0  0  0  0  0
   21.5088   19.0079   23.1077 C   0  0  0  0  0  0  0  0  0  0  0  0
   21.6067   18.2808   22.2906 H   0  0  0  0  0  0  0  0  0  0  0  0
   21.1626   18.4578   23.9917 H   0  0  0  0  0  0  0  0  0  0  0  0
   22.8856   19.6252   23.4100 C   0  0  0  0  0  0  0  0  0  0  0  0
   23.2502   20.1610   22.5293 H   0  0  0  0  0  0  0  0  0  0  0  0
   22.7963   20.3383   24.2340 H   0  0  0  0  0  0  0  0  0  0  0  0
   23.9273   18.5943   23.7943 N   0  3  0  0  0  0  0  0  0  0  0  0
   24.0787   17.9075   23.0482 H   0  0  0  0  0  0  0  0  0  0  0  0
   23.6572   18.0727   24.6346 H   0  0  0  0  0  0  0  0  0  0  0  0
   24.8366   19.0267   23.9908 H   0  0  0  0  0  0  0  0  0  0  0  0
  1  2  1  0  0  0  0
  1  3  1  0  0  0  0
  1  4  1  0  0  0  0
  1  5  1  0  0  0  0
  5  6  1  0  0  0  0
  5  7  1  0  0  0  0
  5  8  1  0  0  0  0
  8  9  1  0  0  0  0
  8 10  1  0  0  0  0
  8 11  1  0  0  0  0
 11 12  1  0  0  0  0
 11 13  1  0  0  0  0
 11 14  1  0  0  0  0
 14 15  1  0  0  0  0
 14 16  1  0  0  0  0
 14 17  1  0  0  0  0
 17 18  1  0  0  0  0
 17 19  1  0  0  0  0
 17 20  1  0  0  0  0
 20 21  1  0  0  0  0
 20 22  1  0  0  0  0
 20 23  1  0  0  0  0
 23 24  1  0  0  0  0
 23 25  1  0  0  0  0
 23 26  1  0  0  0  0
M  END
> <VConfSearch Rank>
665

> <Conf_Id>
35

> <Delta U+W>
0.587

> <U+W>
-4.965

> <U>
48.214

> <W>
-53.179

> <W(PB)>
-55.527

> <W(SA)>
2.348

> <Valence>
2.697

> <Coulomb>
44.819

> <VdW>
0.699

> <VdW6>
-6.437

> <VdW12>
7.136

> <Bond>
0.168

> <Angle>
0.657

> <Pdih>
1.872

> <Idih>
0.000

> <Tether>
0.000

$$$$
VeraChem MOL file


 26 25  0  0  0  0  0  0  0  0999 V2000     
   18.8492   15.4547   21.7508 C   0  0  0  0  0  0  0  0  0  0  0  0
   17.7792   15.6840   21.8392 H   0  0  0  0  0  0  0  0  0  0  0  0
   19.2213   15.9107   20.8241 H   0  0  0  0  0  0  0  0  0  0  0  0
   18.9537   14.3660   21.6562 H   0  0  0  0  0  0  0  0  0  0  0  0
   19.6307   15.9725   22.9769 C   0  0  0  0  0  0  0  0  0  0  0  0
   20.6905   15.6996   22.8758 H   0  0  0  0  0  0  0  0  0  0  0  0
   19.2596   15.4728   23.8828 H   0  0  0  0  0  0  0  0  0  0  0  0
   19.4995   17.5037   23.1341 C   0  0  0  0  0  0  0  0  0  0  0  0
   19.8646   17.9895   22.2198 H   0  0  0  0  0  0  0  0  0  0  0  0
   18.4389   17.7713   23.2369 H   0  0  0  0  0  0  0  0  0  0  0  0
   20.2862   18.0244   24.3610 C   0  0  0  0  0  0  0  0  0  0  0  0
   21.3558   17.8063   24.2356 H   0  0  0  0  0  0  0  0  0  0  0  0
   19.9619   17.4724   25.2540 H   0  0  0  0  0  0  0  0  0  0  0  0
   20.0930   19.5382   24.6242 C   0  0  0  0  0  0  0  0  0  0  0  0
   19.0250   19.7539   24.7671 H   0  0  0  0  0  0  0  0  0  0  0  0
   20.5881   19.7929   25.5717 H   0  0  0  0  0  0  0  0  0  0  0  0
   20.6616   20.4395   23.5031 C   0  0  0  0  0  0  0  0  0  0  0  0
   20.1231   20.2603   22.5640 H   0  0  0  0  0  0  0  0  0  0  0  0
   21.7158   20.1886   23.3258 H   0  0  0  0  0  0  0  0  0  0  0  0
   20.5456   21.9295   23.8699 C   0  0  0  0  0  0  0  0  0  0  0  0
   19.4956   22.1881   24.0316 H   0  0  0  0  0  0  0  0  0  0  0  0
   21.0945   22.1247   24.7951 H   0  0  0  0  0  0  0  0  0  0  0  0
   21.0941   22.8493   22.7981 N   0  3  0  0  0  0  0  0  0  0  0  0
   20.6004   22.7351   21.9068 H   0  0  0  0  0  0  0  0  0  0  0  0
   22.0882   22.6752   22.6172 H   0  0  0  0  0  0  0  0  0  0  0  0
   21.0075   23.8367   23.0629 H   0  0  0  0  0  0  0  0  0  0  0  0
  1  2  1  0  0  0  0
  1  3  1  0  0  0  0
  1  4  1  0  0  0  0
  1  5  1  0  0  0  0
  5  6  1  0  0  0  0
  5  7  1  0  0  0  0
  5  8  1  0  0  0  0
  8  9  1  0  0  0  0
  8 10  1  0  0  0  0
  8 11  1  0  0  0  0
 11 12  1  0  0  0  0
 11 13  1  0  0  0  0
 11 14  1  0  0  0  0
 14 15  1  0  0  0  0
 14 16  1  0  0  0  0
 14 17  1  0  0  0  0
 17 18  1  0  0  0  0
 17 19  1  0  0  0  0
 17 20  1  0  0  0  0
 20 21  1  0  0  0  0
 20 22  1  0  0  0  0
 20 23  1  0  0  0  0
 23 24  1  0  0  0  0
 23 25  1  0  0  0  0
 23 26  1  0  0  0  0
M  END
> <VConfSearch Rank>
666

> <Conf_Id>
36

> <Delta U+W>
0.565

> <U+W>
-4.987

> <U>
48.214

> <W>
-53.201

> <W(PB)>
-55.543

> <W(SA)>
2.342

> <Valence>
2.697

> <Coulomb>
44.819

> <VdW>
0.698

> <VdW6>
-6.437

> <VdW12>
7.136

> <Bond>
0.168

> <Angle>
0.657

> <Pdih>
1.872

> <Idih>
0.000

> <Tether>
0.000

$$$$
VeraChem MOL file


 26 25  0  0  0  0  0  0  0  0999 V2000     
   23.4984   16.4030   23.3036 C   0  0  0  0  0  0  0  0  0  0  0  0
   23.3228   15.7604   24.1762 H   0  0  0  0  0  0  0  0  0  0  0  0
   23.9880   15.7959   22.5311 H   0  0  0  0  0  0  0  0  0  0  0  0
   24.1953   17.1981   23.5993 H   0  0  0  0  0  0  0  0  0  0  0  0
   22.1745   16.9940   22.7744 C   0  0  0  0  0  0  0  0  0  0  0  0
   21.5123   16.1770   22.4554 H   0  0  0  0  0  0  0  0  0  0  0  0
   22.3781   17.6036   21.8828 H   0  0  0  0  0  0  0  0  0  0  0  0
   21.4642   17.8539   23.8433 C   0  0  0  0  0  0  0  0  0  0  0  0
   21.2656   17.2409   24.7333 H   0  0  0  0  0  0  0  0  0  0  0  0
   22.1306   18.6681   24.1604 H   0  0  0  0  0  0  0  0  0  0  0  0
   20.1378   18.4474   23.3172 C   0  0  0  0  0  0  0  0  0  0  0  0
   19.4714   17.6322   23.0029 H   0  0  0  0  0  0  0  0  0  0  0  0
   20.3431   19.0533   22.4246 H   0  0  0  0  0  0  0  0  0  0  0  0
   19.4293   19.3093   24.3897 C   0  0  0  0  0  0  0  0  0  0  0  0
   19.2742   18.7049   25.2942 H   0  0  0  0  0  0  0  0  0  0  0  0
   20.0796   20.1453   24.6826 H   0  0  0  0  0  0  0  0  0  0  0  0
   18.0619   19.8595   23.9206 C   0  0  0  0  0  0  0  0  0  0  0  0
   17.5820   20.3828   24.7584 H   0  0  0  0  0  0  0  0  0  0  0  0
   17.4010   19.0249   23.6511 H   0  0  0  0  0  0  0  0  0  0  0  0
   18.1869   20.8269   22.7286 C   0  0  0  0  0  0  0  0  0  0  0  0
   18.8440   21.6585   22.9970 H   0  0  0  0  0  0  0  0  0  0  0  0
   18.6230   20.3055   21.8726 H   0  0  0  0  0  0  0  0  0  0  0  0
   16.8561   21.4044   22.2919 N   0  3  0  0  0  0  0  0  0  0  0  0
   16.9610   22.0454   21.4978 H   0  0  0  0  0  0  0  0  0  0  0  0
   16.4037   21.9336   23.0446 H   0  0  0  0  0  0  0  0  0  0  0  0
   16.1993   20.6731   22.0003 H   0  0  0  0  0  0  0  0  0  0  0  0
  1  2  1  0  0  0  0
  1  3  1  0  0  0  0
  1  4  1  0  0  0  0
  1  5  1  0  0  0  0
  5  6  1  0  0  0  0
  5  7  1  0  0  0  0
  5  8  1  0  0  0  0
  8  9  1  0  0  0  0
  8 10  1  0  0  0  0
  8 11  1  0  0  0  0
 11 12  1  0  0  0  0
 11 13  1  0  0  0  0
 11 14  1  0  0  0  0
 14 15  1  0  0  0  0
 14 16  1  0  0  0  0
 14 17  1  0  0  0  0
 17 18  1  0  0  0  0
 17 19  1  0  0  0  0
 17 20  1  0  0  0  0
 20 21  1  0  0  0  0
 20 22  1  0  0  0  0
 20 23  1  0  0  0  0
 23 24  1  0  0  0  0
 23 25  1  0  0  0  0
 23 26  1  0  0  0  0
M  END
> <VConfSearch Rank>
667

> <Conf_Id>
44

> <Delta U+W>
0.371

> <U+W>
-5.181

> <U>
48.002

> <W>
-53.183

> <W(PB)>
-55.533

> <W(SA)>
2.350

> <Valence>
2.459

> <Coulomb>
44.901

> <VdW>
0.643

> <VdW6>
-6.362

> <VdW12>
7.005

> <Bond>
0.151

> <Angle>
0.519

> <Pdih>
1.789

> <Idih>
0.000

> <Tether>
0.000

$$$$
VeraChem MOL file


 26 25  0  0  0  0  0  0  0  0999 V2000     
   21.0940   16.7496   26.3545 C   0  0  0  0  0  0  0  0  0  0  0  0
   21.8581   16.2110   25.7792 H   0  0  0  0  0  0  0  0  0  0  0  0
   21.2635   16.5376   27.4181 H   0  0  0  0  0  0  0  0  0  0  0  0
   20.1114   16.3399   26.0903 H   0  0  0  0  0  0  0  0  0  0  0  0
   21.1673   18.2706   26.0886 C   0  0  0  0  0  0  0  0  0  0  0  0
   22.1174   18.6523   26.4878 H   0  0  0  0  0  0  0  0  0  0  0  0
   20.3716   18.7829   26.6472 H   0  0  0  0  0  0  0  0  0  0  0  0
   21.0763   18.6414   24.5883 C   0  0  0  0  0  0  0  0  0  0  0  0
   21.2754   19.7163   24.4936 H   0  0  0  0  0  0  0  0  0  0  0  0
   21.8745   18.1278   24.0350 H   0  0  0  0  0  0  0  0  0  0  0  0
   19.7018   18.3095   23.9532 C   0  0  0  0  0  0  0  0  0  0  0  0
   18.9036   18.8260   24.5038 H   0  0  0  0  0  0  0  0  0  0  0  0
   19.5031   17.2351   24.0574 H   0  0  0  0  0  0  0  0  0  0  0  0
   19.6100   18.6670   22.4490 C   0  0  0  0  0  0  0  0  0  0  0  0
   20.4171   18.1616   21.9007 H   0  0  0  0  0  0  0  0  0  0  0  0
   18.6690   18.2571   22.0590 H   0  0  0  0  0  0  0  0  0  0  0  0
   19.6605   20.1900   22.1675 C   0  0  0  0  0  0  0  0  0  0  0  0
   20.6175   20.6013   22.5109 H   0  0  0  0  0  0  0  0  0  0  0  0
   18.8744   20.7046   22.7359 H   0  0  0  0  0  0  0  0  0  0  0  0
   19.5127   20.5223   20.6700 C   0  0  0  0  0  0  0  0  0  0  0  0
   19.6545   21.5963   20.5220 H   0  0  0  0  0  0  0  0  0  0  0  0
   20.2814   19.9953   20.0983 H   0  0  0  0  0  0  0  0  0  0  0  0
   18.1601   20.1548   20.0916 N   0  3  0  0  0  0  0  0  0  0  0  0
   17.9767   19.1493   20.1629 H   0  0  0  0  0  0  0  0  0  0  0  0
   18.0908   20.4027   19.0986 H   0  0  0  0  0  0  0  0  0  0  0  0
   17.3956   20.6376   20.5747 H   0  0  0  0  0  0  0  0  0  0  0  0
  1  2  1  0  0  0  0
  1  3  1  0  0  0  0
  1  4  1  0  0  0  0
  1  5  1  0  0  0  0
  5  6  1  0  0  0  0
  5  7  1  0  0  0  0
  5  8  1  0  0  0  0
  8  9  1  0  0  0  0
  8 10  1  0  0  0  0
  8 11  1  0  0  0  0
 11 12  1  0  0  0  0
 11 13  1  0  0  0  0
 11 14  1  0  0  0  0
 14 15  1  0  0  0  0
 14 16  1  0  0  0  0
 14 17  1  0  0  0  0
 17 18  1  0  0  0  0
 17 19  1  0  0  0  0
 17 20  1  0  0  0  0
 20 21  1  0  0  0  0
 20 22  1  0  0  0  0
 20 23  1  0  0  0  0
 23 24  1  0  0  0  0
 23 25  1  0  0  0  0
 23 26  1  0  0  0  0
M  END
> <VConfSearch Rank>
668

> <Conf_Id>
112

> <Delta U+W>
1.422

> <U+W>
-4.130

> <U>
49.323

> <W>
-53.453

> <W(PB)>
-55.749

> <W(SA)>
2.296

> <Valence>
3.408

> <Coulomb>
44.893

> <VdW>
1.021

> <VdW6>
-7.481

> <VdW12>
8.503

> <Bond>
0.239

> <Angle>
1.013

> <Pdih>
2.156

> <Idih>
0.000

> <Tether>
0.000

$$$$
VeraChem MOL file


 26 25  0  0  0  0  0  0  0  0999 V2000     
   22.3401   19.5567   20.5320 C   0  0  0  0  0  0  0  0  0  0  0  0
   23.2122   19.7232   19.8865 H   0  0  0  0  0  0  0  0  0  0  0  0
   22.0535   18.5023   20.4339 H   0  0  0  0  0  0  0  0  0  0  0  0
   21.5169   20.1742   20.1499 H   0  0  0  0  0  0  0  0  0  0  0  0
   22.6738   19.9199   21.9967 C   0  0  0  0  0  0  0  0  0  0  0  0
   23.0654   20.9463   22.0273 H   0  0  0  0  0  0  0  0  0  0  0  0
   23.4821   19.2717   22.3631 H   0  0  0  0  0  0  0  0  0  0  0  0
   21.4547   19.8242   22.9453 C   0  0  0  0  0  0  0  0  0  0  0  0
   21.7534   20.1929   23.9362 H   0  0  0  0  0  0  0  0  0  0  0  0
   20.6677   20.4999   22.5856 H   0  0  0  0  0  0  0  0  0  0  0  0
   20.8989   18.3844   23.0861 C   0  0  0  0  0  0  0  0  0  0  0  0
   21.7284   17.7028   23.3195 H   0  0  0  0  0  0  0  0  0  0  0  0
   20.4804   18.0467   22.1288 H   0  0  0  0  0  0  0  0  0  0  0  0
   19.8224   18.2425   24.1902 C   0  0  0  0  0  0  0  0  0  0  0  0
   19.5808   17.1767   24.2969 H   0  0  0  0  0  0  0  0  0  0  0  0
   20.2401   18.5624   25.1549 H   0  0  0  0  0  0  0  0  0  0  0  0
   18.5258   19.0373   23.8938 C   0  0  0  0  0  0  0  0  0  0  0  0
   18.1161   18.7399   22.9194 H   0  0  0  0  0  0  0  0  0  0  0  0
   18.7539   20.1082   23.8255 H   0  0  0  0  0  0  0  0  0  0  0  0
   17.4515   18.8489   24.9824 C   0  0  0  0  0  0  0  0  0  0  0  0
   17.8622   19.1265   25.9569 H   0  0  0  0  0  0  0  0  0  0  0  0
   16.6029   19.5051   24.7708 H   0  0  0  0  0  0  0  0  0  0  0  0
   16.9215   17.4317   25.0808 N   0  3  0  0  0  0  0  0  0  0  0  0
   17.6625   16.7643   25.3160 H   0  0  0  0  0  0  0  0  0  0  0  0
   16.5015   17.1203   24.1990 H   0  0  0  0  0  0  0  0  0  0  0  0
   16.1990   17.3450   25.8038 H   0  0  0  0  0  0  0  0  0  0  0  0
  1  2  1  0  0  0  0
  1  3  1  0  0  0  0
  1  4  1  0  0  0  0
  1  5  1  0  0  0  0
  5  6  1  0  0  0  0
  5  7  1  0  0  0  0
  5  8  1  0  0  0  0
  8  9  1  0  0  0  0
  8 10  1  0  0  0  0
  8 11  1  0  0  0  0
 11 12  1  0  0  0  0
 11 13  1  0  0  0  0
 11 14  1  0  0  0  0
 14 15  1  0  0  0  0
 14 16  1  0  0  0  0
 14 17  1  0  0  0  0
 17 18  1  0  0  0  0
 17 19  1  0  0  0  0
 17 20  1  0  0  0  0
 20 21  1  0  0  0  0
 20 22  1  0  0  0  0
 20 23  1  0  0  0  0
 23 24  1  0  0  0  0
 23 25  1  0  0  0  0
 23 26  1  0  0  0  0
M  END
> <VConfSearch Rank>
669

> <Conf_Id>
130

> <Delta U+W>
1.282

> <U+W>
-4.270

> <U>
49.153

> <W>
-53.422

> <W(PB)>
-55.725

> <W(SA)>
2.303

> <Valence>
3.298

> <Coulomb>
44.907

> <VdW>
0.948

> <VdW6>
-7.574

> <VdW12>
8.522

> <Bond>
0.229

> <Angle>
0.912

> <Pdih>
2.157

> <Idih>
0.000

> <Tether>
0.000

$$$$
VeraChem MOL file


 26 25  0  0  0  0  0  0  0  0999 V2000     
   18.9345   21.4748   25.2942 C   0  0  0  0  0  0  0  0  0  0  0  0
   18.2099   22.0554   24.7086 H   0  0  0  0  0  0  0  0  0  0  0  0
   19.0974   22.0004   26.2440 H   0  0  0  0  0  0  0  0  0  0  0  0
   19.8886   21.4681   24.7526 H   0  0  0  0  0  0  0  0  0  0  0  0
   18.4193   20.0405   25.5505 C   0  0  0  0  0  0  0  0  0  0  0  0
   17.5313   20.0941   26.1957 H   0  0  0  0  0  0  0  0  0  0  0  0
   19.1683   19.4735   26.1191 H   0  0  0  0  0  0  0  0  0  0  0  0
   18.0404   19.2800   24.2539 C   0  0  0  0  0  0  0  0  0  0  0  0
   17.6622   18.2848   24.5252 H   0  0  0  0  0  0  0  0  0  0  0  0
   17.2003   19.7992   23.7725 H   0  0  0  0  0  0  0  0  0  0  0  0
   19.1830   19.1196   23.2177 C   0  0  0  0  0  0  0  0  0  0  0  0
   19.5020   20.1064   22.8570 H   0  0  0  0  0  0  0  0  0  0  0  0
   18.7740   18.5967   22.3433 H   0  0  0  0  0  0  0  0  0  0  0  0
   20.4068   18.3394   23.7613 C   0  0  0  0  0  0  0  0  0  0  0  0
   20.8349   18.8771   24.6172 H   0  0  0  0  0  0  0  0  0  0  0  0
   20.0846   17.3586   24.1376 H   0  0  0  0  0  0  0  0  0  0  0  0
   21.5212   18.1469   22.7058 C   0  0  0  0  0  0  0  0  0  0  0  0
   22.3922   17.6844   23.1889 H   0  0  0  0  0  0  0  0  0  0  0  0
   21.8510   19.1264   22.3346 H   0  0  0  0  0  0  0  0  0  0  0  0
   21.0777   17.2661   21.5226 C   0  0  0  0  0  0  0  0  0  0  0  0
   20.7483   16.2915   21.8928 H   0  0  0  0  0  0  0  0  0  0  0  0
   20.2405   17.7380   21.0021 H   0  0  0  0  0  0  0  0  0  0  0  0
   22.1812   17.0334   20.5109 N   0  3  0  0  0  0  0  0  0  0  0  0
   22.5181   17.9121   20.1041 H   0  0  0  0  0  0  0  0  0  0  0  0
   21.8661   16.4450   19.7319 H   0  0  0  0  0  0  0  0  0  0  0  0
   22.9911   16.5647   20.9300 H   0  0  0  0  0  0  0  0  0  0  0  0
  1  2  1  0  0  0  0
  1  3  1  0  0  0  0
  1  4  1  0  0  0  0
  1  5  1  0  0  0  0
  5  6  1  0  0  0  0
  5  7  1  0  0  0  0
  5  8  1  0  0  0  0
  8  9  1  0  0  0  0
  8 10  1  0  0  0  0
  8 11  1  0  0  0  0
 11 12  1  0  0  0  0
 11 13  1  0  0  0  0
 11 14  1  0  0  0  0
 14 15  1  0  0  0  0
 14 16  1  0  0  0  0
 14 17  1  0  0  0  0
 17 18  1  0  0  0  0
 17 19  1  0  0  0  0
 17 20  1  0  0  0  0
 20 21  1  0  0  0  0
 20 22  1  0  0  0  0
 20 23  1  0  0  0  0
 23 24  1  0  0  0  0
 23 25  1  0  0  0  0
 23 26  1  0  0  0  0
M  END
> <VConfSearch Rank>
670

> <Conf_Id>
111

> <Delta U+W>
1.290

> <U+W>
-4.262

> <U>
49.209

> <W>
-53.471

> <W(PB)>
-55.745

> <W(SA)>
2.274

> <Valence>
3.465

> <Coulomb>
44.958

> <VdW>
0.786

> <VdW6>
-7.903

> <VdW12>
8.689

> <Bond>
0.237

> <Angle>
1.212

> <Pdih>
2.015

> <Idih>
0.000

> <Tether>
0.000

$$$$
VeraChem MOL file


 26 25  0  0  0  0  0  0  0  0999 V2000     
   20.4392   19.4874   27.2147 C   0  0  0  0  0  0  0  0  0  0  0  0
   21.2283   20.2386   27.0799 H   0  0  0  0  0  0  0  0  0  0  0  0
   19.6115   19.9554   27.7634 H   0  0  0  0  0  0  0  0  0  0  0  0
   20.8444   18.6813   27.8400 H   0  0  0  0  0  0  0  0  0  0  0  0
   19.9620   18.9347   25.8549 C   0  0  0  0  0  0  0  0  0  0  0  0
   19.1951   18.1657   26.0232 H   0  0  0  0  0  0  0  0  0  0  0  0
   20.8057   18.4397   25.3561 H   0  0  0  0  0  0  0  0  0  0  0  0
   19.3900   20.0544   24.9535 C   0  0  0  0  0  0  0  0  0  0  0  0
   18.6019   20.5871   25.5034 H   0  0  0  0  0  0  0  0  0  0  0  0
   20.1728   20.7959   24.7422 H   0  0  0  0  0  0  0  0  0  0  0  0
   18.7935   19.5352   23.6222 C   0  0  0  0  0  0  0  0  0  0  0  0
   18.3102   20.3766   23.1066 H   0  0  0  0  0  0  0  0  0  0  0  0
   17.9988   18.8068   23.8352 H   0  0  0  0  0  0  0  0  0  0  0  0
   19.8439   18.9024   22.6780 C   0  0  0  0  0  0  0  0  0  0  0  0
   20.6638   19.6155   22.5196 H   0  0  0  0  0  0  0  0  0  0  0  0
   20.2802   18.0105   23.1466 H   0  0  0  0  0  0  0  0  0  0  0  0
   19.2234   18.5041   21.3180 C   0  0  0  0  0  0  0  0  0  0  0  0
   18.8145   19.3910   20.8158 H   0  0  0  0  0  0  0  0  0  0  0  0
   18.3787   17.8237   21.4894 H   0  0  0  0  0  0  0  0  0  0  0  0
   20.2315   17.8048   20.3856 C   0  0  0  0  0  0  0  0  0  0  0  0
   20.6445   16.9239   20.8845 H   0  0  0  0  0  0  0  0  0  0  0  0
   19.7176   17.4736   19.4791 H   0  0  0  0  0  0  0  0  0  0  0  0
   21.3867   18.6905   19.9616 N   0  3  0  0  0  0  0  0  0  0  0  0
   22.0315   18.1998   19.3325 H   0  0  0  0  0  0  0  0  0  0  0  0
   21.9362   19.0087   20.7658 H   0  0  0  0  0  0  0  0  0  0  0  0
   21.0627   19.5270   19.4653 H   0  0  0  0  0  0  0  0  0  0  0  0
  1  2  1  0  0  0  0
  1  3  1  0  0  0  0
  1  4  1  0  0  0  0
  1  5  1  0  0  0  0
  5  6  1  0  0  0  0
  5  7  1  0  0  0  0
  5  8  1  0  0  0  0
  8  9  1  0  0  0  0
  8 10  1  0  0  0  0
  8 11  1  0  0  0  0
 11 12  1  0  0  0  0
 11 13  1  0  0  0  0
 11 14  1  0  0  0  0
 14 15  1  0  0  0  0
 14 16  1  0  0  0  0
 14 17  1  0  0  0  0
 17 18  1  0  0  0  0
 17 19  1  0  0  0  0
 17 20  1  0  0  0  0
 20 21  1  0  0  0  0
 20 22  1  0  0  0  0
 20 23  1  0  0  0  0
 23 24  1  0  0  0  0
 23 25  1  0  0  0  0
 23 26  1  0  0  0  0
M  END
> <VConfSearch Rank>
671

> <Conf_Id>
105

> <Delta U+W>
0.736

> <U+W>
-4.817

> <U>
48.735

> <W>
-53.552

> <W(PB)>
-55.889

> <W(SA)>
2.337

> <Valence>
2.803

> <Coulomb>
45.123

> <VdW>
0.809

> <VdW6>
-6.953

> <VdW12>
7.761

> <Bond>
0.188

> <Angle>
0.699

> <Pdih>
1.917

> <Idih>
0.000

> <Tether>
0.000

$$$$
VeraChem MOL file


 26 25  0  0  0  0  0  0  0  0999 V2000     
   21.4401   22.4013   23.1313 C   0  0  0  0  0  0  0  0  0  0  0  0
   21.0437   23.2148   23.7529 H   0  0  0  0  0  0  0  0  0  0  0  0
   22.3268   21.9899   23.6311 H   0  0  0  0  0  0  0  0  0  0  0  0
   21.7625   22.8344   22.1755 H   0  0  0  0  0  0  0  0  0  0  0  0
   20.3754   21.3077   22.9025 C   0  0  0  0  0  0  0  0  0  0  0  0
   20.7950   20.5341   22.2458 H   0  0  0  0  0  0  0  0  0  0  0  0
   19.5143   21.7415   22.3753 H   0  0  0  0  0  0  0  0  0  0  0  0
   19.9081   20.6788   24.2362 C   0  0  0  0  0  0  0  0  0  0  0  0
   20.7603   20.2088   24.7443 H   0  0  0  0  0  0  0  0  0  0  0  0
   19.5638   21.4788   24.9060 H   0  0  0  0  0  0  0  0  0  0  0  0
   18.7560   19.6539   24.0706 C   0  0  0  0  0  0  0  0  0  0  0  0
   17.8712   20.1753   23.6800 H   0  0  0  0  0  0  0  0  0  0  0  0
   18.4699   19.2819   25.0641 H   0  0  0  0  0  0  0  0  0  0  0  0
   19.0652   18.4438   23.1512 C   0  0  0  0  0  0  0  0  0  0  0  0
   18.1679   17.8123   23.1103 H   0  0  0  0  0  0  0  0  0  0  0  0
   19.2383   18.7878   22.1229 H   0  0  0  0  0  0  0  0  0  0  0  0
   20.2700   17.5949   23.6288 C   0  0  0  0  0  0  0  0  0  0  0  0
   20.1112   17.2642   24.6638 H   0  0  0  0  0  0  0  0  0  0  0  0
   21.1789   18.2094   23.6303 H   0  0  0  0  0  0  0  0  0  0  0  0
   20.5270   16.3697   22.7304 C   0  0  0  0  0  0  0  0  0  0  0  0
   20.6665   16.6945   21.6958 H   0  0  0  0  0  0  0  0  0  0  0  0
   21.4420   15.8676   23.0562 H   0  0  0  0  0  0  0  0  0  0  0  0
   19.4087   15.3462   22.7564 N   0  3  0  0  0  0  0  0  0  0  0  0
   18.5236   15.7418   22.4249 H   0  0  0  0  0  0  0  0  0  0  0  0
   19.2445   14.9858   23.7020 H   0  0  0  0  0  0  0  0  0  0  0  0
   19.6182   14.5382   22.1601 H   0  0  0  0  0  0  0  0  0  0  0  0
  1  2  1  0  0  0  0
  1  3  1  0  0  0  0
  1  4  1  0  0  0  0
  1  5  1  0  0  0  0
  5  6  1  0  0  0  0
  5  7  1  0  0  0  0
  5  8  1  0  0  0  0
  8  9  1  0  0  0  0
  8 10  1  0  0  0  0
  8 11  1  0  0  0  0
 11 12  1  0  0  0  0
 11 13  1  0  0  0  0
 11 14  1  0  0  0  0
 14 15  1  0  0  0  0
 14 16  1  0  0  0  0
 14 17  1  0  0  0  0
 17 18  1  0  0  0  0
 17 19  1  0  0  0  0
 17 20  1  0  0  0  0
 20 21  1  0  0  0  0
 20 22  1  0  0  0  0
 20 23  1  0  0  0  0
 23 24  1  0  0  0  0
 23 25  1  0  0  0  0
 23 26  1  0  0  0  0
M  END
> <VConfSearch Rank>
672

> <Conf_Id>
144

> <Delta U+W>
1.073

> <U+W>
-4.479

> <U>
49.231

> <W>
-53.710

> <W(PB)>
-55.983

> <W(SA)>
2.273

> <Valence>
3.276

> <Coulomb>
45.175

> <VdW>
0.779

> <VdW6>
-7.944

> <VdW12>
8.723

> <Bond>
0.239

> <Angle>
1.155

> <Pdih>
1.883

> <Idih>
0.000

> <Tether>
0.000

$$$$
VeraChem MOL file


 26 25  0  0  0  0  0  0  0  0999 V2000     
   23.3451   20.0126   22.4004 C   0  0  0  0  0  0  0  0  0  0  0  0
   23.7310   19.0757   22.8202 H   0  0  0  0  0  0  0  0  0  0  0  0
   24.0759   20.3673   21.6621 H   0  0  0  0  0  0  0  0  0  0  0  0
   23.2951   20.7563   23.2063 H   0  0  0  0  0  0  0  0  0  0  0  0
   21.9619   19.8155   21.7391 C   0  0  0  0  0  0  0  0  0  0  0  0
   22.0293   19.0432   20.9602 H   0  0  0  0  0  0  0  0  0  0  0  0
   21.6831   20.7461   21.2252 H   0  0  0  0  0  0  0  0  0  0  0  0
   20.8416   19.4516   22.7437 C   0  0  0  0  0  0  0  0  0  0  0  0
   20.7922   20.2155   23.5316 H   0  0  0  0  0  0  0  0  0  0  0  0
   19.8866   19.4884   22.2049 H   0  0  0  0  0  0  0  0  0  0  0  0
   21.0122   18.0485   23.3775 C   0  0  0  0  0  0  0  0  0  0  0  0
   22.0085   17.9695   23.8305 H   0  0  0  0  0  0  0  0  0  0  0  0
   20.9747   17.2858   22.5877 H   0  0  0  0  0  0  0  0  0  0  0  0
   19.9695   17.7067   24.4737 C   0  0  0  0  0  0  0  0  0  0  0  0
   20.2193   16.7123   24.8689 H   0  0  0  0  0  0  0  0  0  0  0  0
   20.0738   18.3976   25.3219 H   0  0  0  0  0  0  0  0  0  0  0  0
   18.4973   17.6772   23.9911 C   0  0  0  0  0  0  0  0  0  0  0  0
   17.9382   16.9694   24.6175 H   0  0  0  0  0  0  0  0  0  0  0  0
   18.4437   17.2917   22.9643 H   0  0  0  0  0  0  0  0  0  0  0  0
   17.8038   19.0503   24.0867 C   0  0  0  0  0  0  0  0  0  0  0  0
   17.8181   19.3957   25.1239 H   0  0  0  0  0  0  0  0  0  0  0  0
   18.3316   19.7854   23.4763 H   0  0  0  0  0  0  0  0  0  0  0  0
   16.3606   19.0172   23.6270 N   0  3  0  0  0  0  0  0  0  0  0  0
   15.7972   18.3669   24.1846 H   0  0  0  0  0  0  0  0  0  0  0  0
   16.2778   18.7248   22.6478 H   0  0  0  0  0  0  0  0  0  0  0  0
   15.9152   19.9382   23.7026 H   0  0  0  0  0  0  0  0  0  0  0  0
  1  2  1  0  0  0  0
  1  3  1  0  0  0  0
  1  4  1  0  0  0  0
  1  5  1  0  0  0  0
  5  6  1  0  0  0  0
  5  7  1  0  0  0  0
  5  8  1  0  0  0  0
  8  9  1  0  0  0  0
  8 10  1  0  0  0  0
  8 11  1  0  0  0  0
 11 12  1  0  0  0  0
 11 13  1  0  0  0  0
 11 14  1  0  0  0  0
 14 15  1  0  0  0  0
 14 16  1  0  0  0  0
 14 17  1  0  0  0  0
 17 18  1  0  0  0  0
 17 19  1  0  0  0  0
 17 20  1  0  0  0  0
 20 21  1  0  0  0  0
 20 22  1  0  0  0  0
 20 23  1  0  0  0  0
 23 24  1  0  0  0  0
 23 25  1  0  0  0  0
 23 26  1  0  0  0  0
M  END
> <VConfSearch Rank>
673

> <Conf_Id>
93

> <Delta U+W>
3.253

> <U+W>
-2.300

> <U>
51.609

> <W>
-53.909

> <W(PB)>
-56.178

> <W(SA)>
2.270

> <Valence>
5.204

> <Coulomb>
45.645

> <VdW>
0.760

> <VdW6>
-7.997

> <VdW12>
8.758

> <Bond>
0.240

> <Angle>
1.456

> <Pdih>
3.507

> <Idih>
0.000

> <Tether>
0.000

$$$$
VeraChem MOL file


 26 25  0  0  0  0  0  0  0  0999 V2000     
   21.1422   16.1606   21.1756 C   0  0  0  0  0  0  0  0  0  0  0  0
   22.0274   16.0618   21.8156 H   0  0  0  0  0  0  0  0  0  0  0  0
   20.3391   15.5451   21.6011 H   0  0  0  0  0  0  0  0  0  0  0  0
   21.3991   15.7439   20.1931 H   0  0  0  0  0  0  0  0  0  0  0  0
   20.6988   17.6350   21.0373 C   0  0  0  0  0  0  0  0  0  0  0  0
   19.8960   17.6910   20.2888 H   0  0  0  0  0  0  0  0  0  0  0  0
   21.5291   18.2370   20.6423 H   0  0  0  0  0  0  0  0  0  0  0  0
   20.1847   18.2536   22.3600 C   0  0  0  0  0  0  0  0  0  0  0  0
   19.7543   19.2347   22.1236 H   0  0  0  0  0  0  0  0  0  0  0  0
   19.3692   17.6366   22.7616 H   0  0  0  0  0  0  0  0  0  0  0  0
   21.2905   18.4299   23.4303 C   0  0  0  0  0  0  0  0  0  0  0  0
   22.0586   19.1170   23.0495 H   0  0  0  0  0  0  0  0  0  0  0  0
   21.7957   17.4702   23.5972 H   0  0  0  0  0  0  0  0  0  0  0  0
   20.7809   18.9373   24.8045 C   0  0  0  0  0  0  0  0  0  0  0  0
   20.0951   18.2017   25.2474 H   0  0  0  0  0  0  0  0  0  0  0  0
   21.6452   18.9823   25.4815 H   0  0  0  0  0  0  0  0  0  0  0  0
   20.1149   20.3363   24.7803 C   0  0  0  0  0  0  0  0  0  0  0  0
   20.6156   20.9807   24.0455 H   0  0  0  0  0  0  0  0  0  0  0  0
   20.2620   20.8106   25.7598 H   0  0  0  0  0  0  0  0  0  0  0  0
   18.6003   20.2784   24.5007 C   0  0  0  0  0  0  0  0  0  0  0  0
   18.4106   19.8110   23.5326 H   0  0  0  0  0  0  0  0  0  0  0  0
   18.1091   19.6776   25.2709 H   0  0  0  0  0  0  0  0  0  0  0  0
   17.9481   21.6457   24.4905 N   0  3  0  0  0  0  0  0  0  0  0  0
   18.0603   22.1290   25.3878 H   0  0  0  0  0  0  0  0  0  0  0  0
   16.9404   21.5861   24.3080 H   0  0  0  0  0  0  0  0  0  0  0  0
   18.3470   22.2543   23.7683 H   0  0  0  0  0  0  0  0  0  0  0  0
  1  2  1  0  0  0  0
  1  3  1  0  0  0  0
  1  4  1  0  0  0  0
  1  5  1  0  0  0  0
  5  6  1  0  0  0  0
  5  7  1  0  0  0  0
  5  8  1  0  0  0  0
  8  9  1  0  0  0  0
  8 10  1  0  0  0  0
  8 11  1  0  0  0  0
 11 12  1  0  0  0  0
 11 13  1  0  0  0  0
 11 14  1  0  0  0  0
 14 15  1  0  0  0  0
 14 16  1  0  0  0  0
 14 17  1  0  0  0  0
 17 18  1  0  0  0  0
 17 19  1  0  0  0  0
 17 20  1  0  0  0  0
 20 21  1  0  0  0  0
 20 22  1  0  0  0  0
 20 23  1  0  0  0  0
 23 24  1  0  0  0  0
 23 25  1  0  0  0  0
 23 26  1  0  0  0  0
M  END
> <VConfSearch Rank>
674

> <Conf_Id>
94

> <Delta U+W>
3.247

> <U+W>
-2.305

> <U>
51.609

> <W>
-53.914

> <W(PB)>
-56.221

> <W(SA)>
2.307

> <Valence>
5.204

> <Coulomb>
45.645

> <VdW>
0.760

> <VdW6>
-7.997

> <VdW12>
8.757

> <Bond>
0.240

> <Angle>
1.456

> <Pdih>
3.508

> <Idih>
0.000

> <Tether>
0.000

$$$$
VeraChem MOL file


 26 25  0  0  0  0  0  0  0  0999 V2000     
   20.4111   23.0384   23.0262 C   0  0  0  0  0  0  0  0  0  0  0  0
   21.3031   23.1833   22.4028 H   0  0  0  0  0  0  0  0  0  0  0  0
   19.5265   23.1158   22.3807 H   0  0  0  0  0  0  0  0  0  0  0  0
   20.3709   23.8600   23.7531 H   0  0  0  0  0  0  0  0  0  0  0  0
   20.4540   21.6745   23.7474 C   0  0  0  0  0  0  0  0  0  0  0  0
   19.5670   21.5731   24.3884 H   0  0  0  0  0  0  0  0  0  0  0  0
   21.3299   21.6400   24.4103 H   0  0  0  0  0  0  0  0  0  0  0  0
   20.5112   20.4995   22.7462 C   0  0  0  0  0  0  0  0  0  0  0  0
   19.6348   20.5393   22.0844 H   0  0  0  0  0  0  0  0  0  0  0  0
   21.3978   20.6071   22.1061 H   0  0  0  0  0  0  0  0  0  0  0  0
   20.5547   19.1320   23.4646 C   0  0  0  0  0  0  0  0  0  0  0  0
   19.6700   19.0349   24.1079 H   0  0  0  0  0  0  0  0  0  0  0  0
   21.4333   19.0923   24.1232 H   0  0  0  0  0  0  0  0  0  0  0  0
   20.6098   17.9568   22.4593 C   0  0  0  0  0  0  0  0  0  0  0  0
   19.7211   17.9775   21.8144 H   0  0  0  0  0  0  0  0  0  0  0  0
   21.4729   18.0933   21.7931 H   0  0  0  0  0  0  0  0  0  0  0  0
   20.7315   16.5729   23.1451 C   0  0  0  0  0  0  0  0  0  0  0  0
   21.6683   16.5336   23.7168 H   0  0  0  0  0  0  0  0  0  0  0  0
   20.8093   15.7925   22.3765 H   0  0  0  0  0  0  0  0  0  0  0  0
   19.5608   16.2348   24.0904 C   0  0  0  0  0  0  0  0  0  0  0  0
   19.7367   15.2588   24.5510 H   0  0  0  0  0  0  0  0  0  0  0  0
   19.5018   16.9801   24.8877 H   0  0  0  0  0  0  0  0  0  0  0  0
   18.2144   16.1813   23.3961 N   0  3  0  0  0  0  0  0  0  0  0  0
   18.1979   15.4762   22.6522 H   0  0  0  0  0  0  0  0  0  0  0  0
   17.9751   17.0806   22.9672 H   0  0  0  0  0  0  0  0  0  0  0  0
   17.4581   15.9471   24.0483 H   0  0  0  0  0  0  0  0  0  0  0  0
  1  2  1  0  0  0  0
  1  3  1  0  0  0  0
  1  4  1  0  0  0  0
  1  5  1  0  0  0  0
  5  6  1  0  0  0  0
  5  7  1  0  0  0  0
  5  8  1  0  0  0  0
  8  9  1  0  0  0  0
  8 10  1  0  0  0  0
  8 11  1  0  0  0  0
 11 12  1  0  0  0  0
 11 13  1  0  0  0  0
 11 14  1  0  0  0  0
 14 15  1  0  0  0  0
 14 16  1  0  0  0  0
 14 17  1  0  0  0  0
 17 18  1  0  0  0  0
 17 19  1  0  0  0  0
 17 20  1  0  0  0  0
 20 21  1  0  0  0  0
 20 22  1  0  0  0  0
 20 23  1  0  0  0  0
 23 24  1  0  0  0  0
 23 25  1  0  0  0  0
 23 26  1  0  0  0  0
M  END
> <VConfSearch Rank>
675

> <Conf_Id>
83

> <Delta U+W>
0.559

> <U+W>
-4.994

> <U>
48.668

> <W>
-53.661

> <W(PB)>
-55.972

> <W(SA)>
2.311

> <Valence>
2.543

> <Coulomb>
45.478

> <VdW>
0.646

> <VdW6>
-7.096

> <VdW12>
7.742

> <Bond>
0.176

> <Angle>
0.630

> <Pdih>
1.738

> <Idih>
0.000

> <Tether>
0.000

$$$$
VeraChem MOL file


 26 25  0  0  0  0  0  0  0  0999 V2000     
   23.3149   21.0367   22.3650 C   0  0  0  0  0  0  0  0  0  0  0  0
   24.2235   20.4786   22.1037 H   0  0  0  0  0  0  0  0  0  0  0  0
   22.9205   21.4961   21.4492 H   0  0  0  0  0  0  0  0  0  0  0  0
   23.6017   21.8445   23.0508 H   0  0  0  0  0  0  0  0  0  0  0  0
   22.2648   20.1137   23.0189 C   0  0  0  0  0  0  0  0  0  0  0  0
   21.3906   20.7146   23.3024 H   0  0  0  0  0  0  0  0  0  0  0  0
   22.6773   19.6928   23.9465 H   0  0  0  0  0  0  0  0  0  0  0  0
   21.8416   18.9688   22.0684 C   0  0  0  0  0  0  0  0  0  0  0  0
   21.3797   19.3893   21.1645 H   0  0  0  0  0  0  0  0  0  0  0  0
   22.7406   18.4328   21.7338 H   0  0  0  0  0  0  0  0  0  0  0  0
   20.8759   17.9475   22.7181 C   0  0  0  0  0  0  0  0  0  0  0  0
   21.3444   17.5168   23.6138 H   0  0  0  0  0  0  0  0  0  0  0  0
   20.7288   17.1147   22.0165 H   0  0  0  0  0  0  0  0  0  0  0  0
   19.4969   18.5462   23.0861 C   0  0  0  0  0  0  0  0  0  0  0  0
   19.6248   19.3317   23.8412 H   0  0  0  0  0  0  0  0  0  0  0  0
   19.0550   19.0217   22.1996 H   0  0  0  0  0  0  0  0  0  0  0  0
   18.5302   17.4657   23.6261 C   0  0  0  0  0  0  0  0  0  0  0  0
   18.9500   17.0024   24.5289 H   0  0  0  0  0  0  0  0  0  0  0  0
   18.4271   16.6647   22.8819 H   0  0  0  0  0  0  0  0  0  0  0  0
   17.1278   18.0230   23.9381 C   0  0  0  0  0  0  0  0  0  0  0  0
   16.7105   18.4921   23.0430 H   0  0  0  0  0  0  0  0  0  0  0  0
   16.4684   17.2015   24.2312 H   0  0  0  0  0  0  0  0  0  0  0  0
   17.1119   19.0462   25.0568 N   0  3  0  0  0  0  0  0  0  0  0  0
   17.6835   19.8658   24.8301 H   0  0  0  0  0  0  0  0  0  0  0  0
   17.4732   18.6571   25.9338 H   0  0  0  0  0  0  0  0  0  0  0  0
   16.1630   19.3857   25.2484 H   0  0  0  0  0  0  0  0  0  0  0  0
  1  2  1  0  0  0  0
  1  3  1  0  0  0  0
  1  4  1  0  0  0  0
  1  5  1  0  0  0  0
  5  6  1  0  0  0  0
  5  7  1  0  0  0  0
  5  8  1  0  0  0  0
  8  9  1  0  0  0  0
  8 10  1  0  0  0  0
  8 11  1  0  0  0  0
 11 12  1  0  0  0  0
 11 13  1  0  0  0  0
 11 14  1  0  0  0  0
 14 15  1  0  0  0  0
 14 16  1  0  0  0  0
 14 17  1  0  0  0  0
 17 18  1  0  0  0  0
 17 19  1  0  0  0  0
 17 20  1  0  0  0  0
 20 21  1  0  0  0  0
 20 22  1  0  0  0  0
 20 23  1  0  0  0  0
 23 24  1  0  0  0  0
 23 25  1  0  0  0  0
 23 26  1  0  0  0  0
M  END
> <VConfSearch Rank>
676

> <Conf_Id>
18

> <Delta U+W>
0.759

> <U+W>
-4.793

> <U>
48.945

> <W>
-53.738

> <W(PB)>
-56.051

> <W(SA)>
2.313

> <Valence>
2.802

> <Coulomb>
45.335

> <VdW>
0.807

> <VdW6>
-6.962

> <VdW12>
7.769

> <Bond>
0.189

> <Angle>
0.696

> <Pdih>
1.917

> <Idih>
0.000

> <Tether>
0.000

$$$$
VeraChem MOL file


 26 25  0  0  0  0  0  0  0  0999 V2000     
   21.7207   21.1897   25.9063 C   0  0  0  0  0  0  0  0  0  0  0  0
   20.8488   21.8153   26.1380 H   0  0  0  0  0  0  0  0  0  0  0  0
   22.0689   20.7290   26.8400 H   0  0  0  0  0  0  0  0  0  0  0  0
   22.5187   21.8471   25.5374 H   0  0  0  0  0  0  0  0  0  0  0  0
   21.3691   20.1163   24.8545 C   0  0  0  0  0  0  0  0  0  0  0  0
   22.2668   19.5264   24.6222 H   0  0  0  0  0  0  0  0  0  0  0  0
   21.0659   20.6154   23.9247 H   0  0  0  0  0  0  0  0  0  0  0  0
   20.2423   19.1796   25.3509 C   0  0  0  0  0  0  0  0  0  0  0  0
   20.5334   18.7553   26.3217 H   0  0  0  0  0  0  0  0  0  0  0  0
   19.3286   19.7625   25.5312 H   0  0  0  0  0  0  0  0  0  0  0  0
   19.9314   18.0137   24.3803 C   0  0  0  0  0  0  0  0  0  0  0  0
   19.2125   17.3400   24.8668 H   0  0  0  0  0  0  0  0  0  0  0  0
   20.8423   17.4227   24.2119 H   0  0  0  0  0  0  0  0  0  0  0  0
   19.3500   18.4762   23.0225 C   0  0  0  0  0  0  0  0  0  0  0  0
   18.4696   19.1100   23.1973 H   0  0  0  0  0  0  0  0  0  0  0  0
   20.0888   19.0919   22.4947 H   0  0  0  0  0  0  0  0  0  0  0  0
   18.9508   17.2752   22.1327 C   0  0  0  0  0  0  0  0  0  0  0  0
   18.2347   16.6429   22.6743 H   0  0  0  0  0  0  0  0  0  0  0  0
   19.8298   16.6492   21.9289 H   0  0  0  0  0  0  0  0  0  0  0  0
   18.3073   17.7080   20.8011 C   0  0  0  0  0  0  0  0  0  0  0  0
   17.9693   16.8218   20.2570 H   0  0  0  0  0  0  0  0  0  0  0  0
   17.4365   18.3382   21.0007 H   0  0  0  0  0  0  0  0  0  0  0  0
   19.2453   18.4759   19.8903 N   0  3  0  0  0  0  0  0  0  0  0  0
   20.0758   17.9258   19.6481 H   0  0  0  0  0  0  0  0  0  0  0  0
   19.5724   19.3435   20.3263 H   0  0  0  0  0  0  0  0  0  0  0  0
   18.7907   18.7361   19.0082 H   0  0  0  0  0  0  0  0  0  0  0  0
  1  2  1  0  0  0  0
  1  3  1  0  0  0  0
  1  4  1  0  0  0  0
  1  5  1  0  0  0  0
  5  6  1  0  0  0  0
  5  7  1  0  0  0  0
  5  8  1  0  0  0  0
  8  9  1  0  0  0  0
  8 10  1  0  0  0  0
  8 11  1  0  0  0  0
 11 12  1  0  0  0  0
 11 13  1  0  0  0  0
 11 14  1  0  0  0  0
 14 15  1  0  0  0  0
 14 16  1  0  0  0  0
 14 17  1  0  0  0  0
 17 18  1  0  0  0  0
 17 19  1  0  0  0  0
 17 20  1  0  0  0  0
 20 21  1  0  0  0  0
 20 22  1  0  0  0  0
 20 23  1  0  0  0  0
 23 24  1  0  0  0  0
 23 25  1  0  0  0  0
 23 26  1  0  0  0  0
M  END
> <VConfSearch Rank>
677

> <Conf_Id>
17

> <Delta U+W>
0.843

> <U+W>
-4.709

> <U>
48.945

> <W>
-53.653

> <W(PB)>
-55.991

> <W(SA)>
2.338

> <Valence>
2.802

> <Coulomb>
45.335

> <VdW>
0.807

> <VdW6>
-6.962

> <VdW12>
7.769

> <Bond>
0.189

> <Angle>
0.696

> <Pdih>
1.917

> <Idih>
0.000

> <Tether>
0.000

$$$$
VeraChem MOL file


 26 25  0  0  0  0  0  0  0  0999 V2000     
   17.1099   20.5512   22.1923 C   0  0  0  0  0  0  0  0  0  0  0  0
   17.0739   19.8465   23.0322 H   0  0  0  0  0  0  0  0  0  0  0  0
   17.4520   21.5228   22.5719 H   0  0  0  0  0  0  0  0  0  0  0  0
   16.0837   20.6774   21.8238 H   0  0  0  0  0  0  0  0  0  0  0  0
   18.0314   20.0407   21.0613 C   0  0  0  0  0  0  0  0  0  0  0  0
   17.9377   20.7139   20.1976 H   0  0  0  0  0  0  0  0  0  0  0  0
   17.6869   19.0543   20.7207 H   0  0  0  0  0  0  0  0  0  0  0  0
   19.5223   19.9622   21.4697 C   0  0  0  0  0  0  0  0  0  0  0  0
   20.1134   19.7012   20.5810 H   0  0  0  0  0  0  0  0  0  0  0  0
   19.8676   20.9549   21.7899 H   0  0  0  0  0  0  0  0  0  0  0  0
   19.8026   18.9272   22.5856 C   0  0  0  0  0  0  0  0  0  0  0  0
   19.4117   17.9464   22.2816 H   0  0  0  0  0  0  0  0  0  0  0  0
   19.2665   19.2167   23.4980 H   0  0  0  0  0  0  0  0  0  0  0  0
   21.3156   18.8087   22.8890 C   0  0  0  0  0  0  0  0  0  0  0  0
   21.8519   18.5604   21.9626 H   0  0  0  0  0  0  0  0  0  0  0  0
   21.7042   19.7813   23.2217 H   0  0  0  0  0  0  0  0  0  0  0  0
   21.6397   17.7328   23.9521 C   0  0  0  0  0  0  0  0  0  0  0  0
   22.7300   17.6438   24.0479 H   0  0  0  0  0  0  0  0  0  0  0  0
   21.2732   16.7552   23.6114 H   0  0  0  0  0  0  0  0  0  0  0  0
   21.0385   18.0591   25.3322 C   0  0  0  0  0  0  0  0  0  0  0  0
   21.4038   19.0320   25.6718 H   0  0  0  0  0  0  0  0  0  0  0  0
   19.9489   18.1060   25.2599 H   0  0  0  0  0  0  0  0  0  0  0  0
   21.3900   17.0325   26.3894 N   0  3  0  0  0  0  0  0  0  0  0  0
   20.9807   17.2679   27.3002 H   0  0  0  0  0  0  0  0  0  0  0  0
   22.4031   16.9582   26.5280 H   0  0  0  0  0  0  0  0  0  0  0  0
   21.0500   16.0974   26.1421 H   0  0  0  0  0  0  0  0  0  0  0  0
  1  2  1  0  0  0  0
  1  3  1  0  0  0  0
  1  4  1  0  0  0  0
  1  5  1  0  0  0  0
  5  6  1  0  0  0  0
  5  7  1  0  0  0  0
  5  8  1  0  0  0  0
  8  9  1  0  0  0  0
  8 10  1  0  0  0  0
  8 11  1  0  0  0  0
 11 12  1  0  0  0  0
 11 13  1  0  0  0  0
 11 14  1  0  0  0  0
 14 15  1  0  0  0  0
 14 16  1  0  0  0  0
 14 17  1  0  0  0  0
 17 18  1  0  0  0  0
 17 19  1  0  0  0  0
 17 20  1  0  0  0  0
 20 21  1  0  0  0  0
 20 22  1  0  0  0  0
 20 23  1  0  0  0  0
 23 24  1  0  0  0  0
 23 25  1  0  0  0  0
 23 26  1  0  0  0  0
M  END
> <VConfSearch Rank>
678

> <Conf_Id>
96

> <Delta U+W>
0.912

> <U+W>
-4.640

> <U>
48.723

> <W>
-53.364

> <W(PB)>
-55.683

> <W(SA)>
2.320

> <Valence>
2.962

> <Coulomb>
44.993

> <VdW>
0.768

> <VdW6>
-7.008

> <VdW12>
7.776

> <Bond>
0.188

> <Angle>
0.757

> <Pdih>
2.018

> <Idih>
0.000

> <Tether>
0.000

$$$$
VeraChem MOL file


 26 25  0  0  0  0  0  0  0  0999 V2000     
   22.7938   17.1639   22.1788 C   0  0  0  0  0  0  0  0  0  0  0  0
   23.3630   16.4920   21.5234 H   0  0  0  0  0  0  0  0  0  0  0  0
   23.3225   17.2235   23.1389 H   0  0  0  0  0  0  0  0  0  0  0  0
   21.8142   16.7019   22.3531 H   0  0  0  0  0  0  0  0  0  0  0  0
   22.6562   18.5610   21.5322 C   0  0  0  0  0  0  0  0  0  0  0  0
   22.0969   18.4787   20.5898 H   0  0  0  0  0  0  0  0  0  0  0  0
   23.6572   18.9271   21.2645 H   0  0  0  0  0  0  0  0  0  0  0  0
   21.9774   19.6023   22.4546 C   0  0  0  0  0  0  0  0  0  0  0  0
   22.5513   19.6958   23.3869 H   0  0  0  0  0  0  0  0  0  0  0  0
   22.0230   20.5842   21.9638 H   0  0  0  0  0  0  0  0  0  0  0  0
   20.5020   19.2681   22.7813 C   0  0  0  0  0  0  0  0  0  0  0  0
   20.4533   18.3190   23.3296 H   0  0  0  0  0  0  0  0  0  0  0  0
   19.9430   19.1272   21.8460 H   0  0  0  0  0  0  0  0  0  0  0  0
   19.8344   20.3854   23.6188 C   0  0  0  0  0  0  0  0  0  0  0  0
   20.3735   20.5091   24.5684 H   0  0  0  0  0  0  0  0  0  0  0  0
   19.9241   21.3410   23.0839 H   0  0  0  0  0  0  0  0  0  0  0  0
   18.3382   20.1175   23.9061 C   0  0  0  0  0  0  0  0  0  0  0  0
   17.7927   20.0167   22.9584 H   0  0  0  0  0  0  0  0  0  0  0  0
   17.9132   20.9885   24.4225 H   0  0  0  0  0  0  0  0  0  0  0  0
   18.1131   18.8619   24.7694 C   0  0  0  0  0  0  0  0  0  0  0  0
   18.4917   17.9800   24.2464 H   0  0  0  0  0  0  0  0  0  0  0  0
   18.6557   18.9623   25.7133 H   0  0  0  0  0  0  0  0  0  0  0  0
   16.6530   18.6190   25.0928 N   0  3  0  0  0  0  0  0  0  0  0  0
   16.0904   18.4893   24.2455 H   0  0  0  0  0  0  0  0  0  0  0  0
   16.2413   19.4016   25.6116 H   0  0  0  0  0  0  0  0  0  0  0  0
   16.5247   17.7792   25.6679 H   0  0  0  0  0  0  0  0  0  0  0  0
  1  2  1  0  0  0  0
  1  3  1  0  0  0  0
  1  4  1  0  0  0  0
  1  5  1  0  0  0  0
  5  6  1  0  0  0  0
  5  7  1  0  0  0  0
  5  8  1  0  0  0  0
  8  9  1  0  0  0  0
  8 10  1  0  0  0  0
  8 11  1  0  0  0  0
 11 12  1  0  0  0  0
 11 13  1  0  0  0  0
 11 14  1  0  0  0  0
 14 15  1  0  0  0  0
 14 16  1  0  0  0  0
 14 17  1  0  0  0  0
 17 18  1  0  0  0  0
 17 19  1  0  0  0  0
 17 20  1  0  0  0  0
 20 21  1  0  0  0  0
 20 22  1  0  0  0  0
 20 23  1  0  0  0  0
 23 24  1  0  0  0  0
 23 25  1  0  0  0  0
 23 26  1  0  0  0  0
M  END
> <VConfSearch Rank>
679

> <Conf_Id>
133

> <Delta U+W>
0.844

> <U+W>
-4.708

> <U>
48.723

> <W>
-53.431

> <W(PB)>
-55.776

> <W(SA)>
2.344

> <Valence>
2.962

> <Coulomb>
44.993

> <VdW>
0.768

> <VdW6>
-7.008

> <VdW12>
7.776

> <Bond>
0.188

> <Angle>
0.756

> <Pdih>
2.018

> <Idih>
0.000

> <Tether>
0.000

$$$$
VeraChem MOL file


 26 25  0  0  0  0  0  0  0  0999 V2000     
   22.3914   18.0468   21.1900 C   0  0  0  0  0  0  0  0  0  0  0  0
   22.7723   18.8226   20.5133 H   0  0  0  0  0  0  0  0  0  0  0  0
   22.4905   18.4098   22.2206 H   0  0  0  0  0  0  0  0  0  0  0  0
   23.0364   17.1646   21.0870 H   0  0  0  0  0  0  0  0  0  0  0  0
   20.9260   17.6882   20.8548 C   0  0  0  0  0  0  0  0  0  0  0  0
   20.5610   16.9261   21.5562 H   0  0  0  0  0  0  0  0  0  0  0  0
   20.8950   17.2204   19.8609 H   0  0  0  0  0  0  0  0  0  0  0  0
   19.9765   18.9135   20.8525 C   0  0  0  0  0  0  0  0  0  0  0  0
   20.2910   19.6042   20.0580 H   0  0  0  0  0  0  0  0  0  0  0  0
   18.9672   18.5782   20.5766 H   0  0  0  0  0  0  0  0  0  0  0  0
   19.8999   19.6957   22.1892 C   0  0  0  0  0  0  0  0  0  0  0  0
   19.2151   20.5440   22.0534 H   0  0  0  0  0  0  0  0  0  0  0  0
   20.8793   20.1334   22.4234 H   0  0  0  0  0  0  0  0  0  0  0  0
   19.4102   18.8384   23.3808 C   0  0  0  0  0  0  0  0  0  0  0  0
   18.4515   18.3663   23.1246 H   0  0  0  0  0  0  0  0  0  0  0  0
   20.1240   18.0272   23.5763 H   0  0  0  0  0  0  0  0  0  0  0  0
   19.2426   19.6818   24.6638 C   0  0  0  0  0  0  0  0  0  0  0  0
   18.5218   20.4906   24.4839 H   0  0  0  0  0  0  0  0  0  0  0  0
   20.1996   20.1542   24.9230 H   0  0  0  0  0  0  0  0  0  0  0  0
   18.7606   18.8207   25.8445 C   0  0  0  0  0  0  0  0  0  0  0  0
   17.8000   18.3610   25.5969 H   0  0  0  0  0  0  0  0  0  0  0  0
   19.4836   18.0237   26.0383 H   0  0  0  0  0  0  0  0  0  0  0  0
   18.5839   19.6130   27.1238 N   0  3  0  0  0  0  0  0  0  0  0  0
   18.2624   19.0208   27.8973 H   0  0  0  0  0  0  0  0  0  0  0  0
   17.8939   20.3637   27.0161 H   0  0  0  0  0  0  0  0  0  0  0  0
   19.4605   20.0499   27.4269 H   0  0  0  0  0  0  0  0  0  0  0  0
  1  2  1  0  0  0  0
  1  3  1  0  0  0  0
  1  4  1  0  0  0  0
  1  5  1  0  0  0  0
  5  6  1  0  0  0  0
  5  7  1  0  0  0  0
  5  8  1  0  0  0  0
  8  9  1  0  0  0  0
  8 10  1  0  0  0  0
  8 11  1  0  0  0  0
 11 12  1  0  0  0  0
 11 13  1  0  0  0  0
 11 14  1  0  0  0  0
 14 15  1  0  0  0  0
 14 16  1  0  0  0  0
 14 17  1  0  0  0  0
 17 18  1  0  0  0  0
 17 19  1  0  0  0  0
 17 20  1  0  0  0  0
 20 21  1  0  0  0  0
 20 22  1  0  0  0  0
 20 23  1  0  0  0  0
 23 24  1  0  0  0  0
 23 25  1  0  0  0  0
 23 26  1  0  0  0  0
M  END
> <VConfSearch Rank>
680

> <Conf_Id>
106

> <Delta U+W>
0.767

> <U+W>
-4.785

> <U>
48.494

> <W>
-53.279

> <W(PB)>
-55.569

> <W(SA)>
2.290

> <Valence>
3.117

> <Coulomb>
44.693

> <VdW>
0.684

> <VdW6>
-7.347

> <VdW12>
8.030

> <Bond>
0.208

> <Angle>
1.039

> <Pdih>
1.870

> <Idih>
0.000

> <Tether>
0.000

$$$$
VeraChem MOL file


 26 25  0  0  0  0  0  0  0  0999 V2000     
   23.0033   21.8978   24.8428 C   0  0  0  0  0  0  0  0  0  0  0  0
   23.2059   21.3581   25.7771 H   0  0  0  0  0  0  0  0  0  0  0  0
   23.7874   21.6367   24.1201 H   0  0  0  0  0  0  0  0  0  0  0  0
   23.0813   22.9728   25.0509 H   0  0  0  0  0  0  0  0  0  0  0  0
   21.6038   21.5493   24.2931 C   0  0  0  0  0  0  0  0  0  0  0  0
   21.4167   22.1290   23.3783 H   0  0  0  0  0  0  0  0  0  0  0  0
   20.8397   21.8527   25.0225 H   0  0  0  0  0  0  0  0  0  0  0  0
   21.4671   20.0404   23.9915 C   0  0  0  0  0  0  0  0  0  0  0  0
   22.2343   19.7414   23.2640 H   0  0  0  0  0  0  0  0  0  0  0  0
   21.6571   19.4651   24.9083 H   0  0  0  0  0  0  0  0  0  0  0  0
   20.0669   19.6875   23.4407 C   0  0  0  0  0  0  0  0  0  0  0  0
   19.8776   20.2634   22.5242 H   0  0  0  0  0  0  0  0  0  0  0  0
   19.3003   19.9873   24.1687 H   0  0  0  0  0  0  0  0  0  0  0  0
   19.9306   18.1778   23.1394 C   0  0  0  0  0  0  0  0  0  0  0  0
   20.6972   17.8776   22.4113 H   0  0  0  0  0  0  0  0  0  0  0  0
   20.1198   17.6015   24.0558 H   0  0  0  0  0  0  0  0  0  0  0  0
   18.5315   17.8243   22.5887 C   0  0  0  0  0  0  0  0  0  0  0  0
   18.3408   18.3943   21.6696 H   0  0  0  0  0  0  0  0  0  0  0  0
   17.7627   18.1181   23.3158 H   0  0  0  0  0  0  0  0  0  0  0  0
   18.4068   16.3194   22.2924 C   0  0  0  0  0  0  0  0  0  0  0  0
   19.1599   16.0254   21.5563 H   0  0  0  0  0  0  0  0  0  0  0  0
   18.5798   15.7482   23.2086 H   0  0  0  0  0  0  0  0  0  0  0  0
   17.0463   15.9321   21.7498 N   0  3  0  0  0  0  0  0  0  0  0  0
   16.9845   14.9259   21.5593 H   0  0  0  0  0  0  0  0  0  0  0  0
   16.8333   16.4156   20.8711 H   0  0  0  0  0  0  0  0  0  0  0  0
   16.2936   16.1577   22.4085 H   0  0  0  0  0  0  0  0  0  0  0  0
  1  2  1  0  0  0  0
  1  3  1  0  0  0  0
  1  4  1  0  0  0  0
  1  5  1  0  0  0  0
  5  6  1  0  0  0  0
  5  7  1  0  0  0  0
  5  8  1  0  0  0  0
  8  9  1  0  0  0  0
  8 10  1  0  0  0  0
  8 11  1  0  0  0  0
 11 12  1  0  0  0  0
 11 13  1  0  0  0  0
 11 14  1  0  0  0  0
 14 15  1  0  0  0  0
 14 16  1  0  0  0  0
 14 17  1  0  0  0  0
 17 18  1  0  0  0  0
 17 19  1  0  0  0  0
 17 20  1  0  0  0  0
 20 21  1  0  0  0  0
 20 22  1  0  0  0  0
 20 23  1  0  0  0  0
 23 24  1  0  0  0  0
 23 25  1  0  0  0  0
 23 26  1  0  0  0  0
M  END
> <VConfSearch Rank>
681

> <Conf_Id>
25

> <Delta U+W>
0.000

> <U+W>
-5.552

> <U>
47.192

> <W>
-52.745

> <W(PB)>
-55.134

> <W(SA)>
2.389

> <Valence>
2.156

> <Coulomb>
44.449

> <VdW>
0.587

> <VdW6>
-5.761

> <VdW12>
6.348

> <Bond>
0.129

> <Angle>
0.393

> <Pdih>
1.634

> <Idih>
0.000

> <Tether>
0.000

$$$$
VeraChem MOL file


 26 25  0  0  0  0  0  0  0  0999 V2000     
   22.3755   15.5978   24.5916 C   0  0  0  0  0  0  0  0  0  0  0  0
   21.6325   15.2381   25.3153 H   0  0  0  0  0  0  0  0  0  0  0  0
   22.2101   15.0725   23.6419 H   0  0  0  0  0  0  0  0  0  0  0  0
   23.3701   15.3182   24.9626 H   0  0  0  0  0  0  0  0  0  0  0  0
   22.2733   17.1265   24.4051 C   0  0  0  0  0  0  0  0  0  0  0  0
   23.0498   17.4608   23.7028 H   0  0  0  0  0  0  0  0  0  0  0  0
   22.4767   17.6251   25.3632 H   0  0  0  0  0  0  0  0  0  0  0  0
   20.8817   17.5475   23.8831 C   0  0  0  0  0  0  0  0  0  0  0  0
   20.6821   17.0448   22.9266 H   0  0  0  0  0  0  0  0  0  0  0  0
   20.1089   17.2093   24.5872 H   0  0  0  0  0  0  0  0  0  0  0  0
   20.7757   19.0778   23.6950 C   0  0  0  0  0  0  0  0  0  0  0  0
   21.5487   19.4152   22.9907 H   0  0  0  0  0  0  0  0  0  0  0  0
   20.9766   19.5793   24.6518 H   0  0  0  0  0  0  0  0  0  0  0  0
   19.3831   19.4987   23.1733 C   0  0  0  0  0  0  0  0  0  0  0  0
   19.1857   18.9909   22.2198 H   0  0  0  0  0  0  0  0  0  0  0  0
   18.6103   19.1638   23.8792 H   0  0  0  0  0  0  0  0  0  0  0  0
   19.2794   21.0307   22.9849 C   0  0  0  0  0  0  0  0  0  0  0  0
   20.0275   21.3721   22.2570 H   0  0  0  0  0  0  0  0  0  0  0  0
   19.5147   21.5306   23.9339 H   0  0  0  0  0  0  0  0  0  0  0  0
   17.8774   21.4813   22.5313 C   0  0  0  0  0  0  0  0  0  0  0  0
   17.1295   21.1375   23.2509 H   0  0  0  0  0  0  0  0  0  0  0  0
   17.8409   22.5735   22.4972 H   0  0  0  0  0  0  0  0  0  0  0  0
   17.4840   20.9653   21.1610 N   0  3  0  0  0  0  0  0  0  0  0  0
   17.4620   19.9413   21.1327 H   0  0  0  0  0  0  0  0  0  0  0  0
   18.1385   21.2749   20.4352 H   0  0  0  0  0  0  0  0  0  0  0  0
   16.5523   21.2933   20.8838 H   0  0  0  0  0  0  0  0  0  0  0  0
  1  2  1  0  0  0  0
  1  3  1  0  0  0  0
  1  4  1  0  0  0  0
  1  5  1  0  0  0  0
  5  6  1  0  0  0  0
  5  7  1  0  0  0  0
  5  8  1  0  0  0  0
  8  9  1  0  0  0  0
  8 10  1  0  0  0  0
  8 11  1  0  0  0  0
 11 12  1  0  0  0  0
 11 13  1  0  0  0  0
 11 14  1  0  0  0  0
 14 15  1  0  0  0  0
 14 16  1  0  0  0  0
 14 17  1  0  0  0  0
 17 18  1  0  0  0  0
 17 19  1  0  0  0  0
 17 20  1  0  0  0  0
 20 21  1  0  0  0  0
 20 22  1  0  0  0  0
 20 23  1  0  0  0  0
 23 24  1  0  0  0  0
 23 25  1  0  0  0  0
 23 26  1  0  0  0  0
M  END
> <VConfSearch Rank>
682

> <Conf_Id>
20

> <Delta U+W>
0.150

> <U+W>
-5.403

> <U>
47.845

> <W>
-53.248

> <W(PB)>
-55.599

> <W(SA)>
2.351

> <Valence>
2.258

> <Coulomb>
44.893

> <VdW>
0.694

> <VdW6>
-6.285

> <VdW12>
6.979

> <Bond>
0.149

> <Angle>
0.434

> <Pdih>
1.675

> <Idih>
0.000

> <Tether>
0.000

$$$$
VeraChem MOL file


 26 25  0  0  0  0  0  0  0  0999 V2000     
   21.0442   14.8065   23.9806 C   0  0  0  0  0  0  0  0  0  0  0  0
   21.8575   14.8623   23.2453 H   0  0  0  0  0  0  0  0  0  0  0  0
   21.4703   14.9869   24.9762 H   0  0  0  0  0  0  0  0  0  0  0  0
   20.6455   13.7839   23.9650 H   0  0  0  0  0  0  0  0  0  0  0  0
   19.9341   15.8293   23.6586 C   0  0  0  0  0  0  0  0  0  0  0  0
   19.1203   15.7264   24.3901 H   0  0  0  0  0  0  0  0  0  0  0  0
   19.5046   15.6028   22.6726 H   0  0  0  0  0  0  0  0  0  0  0  0
   20.4692   17.2783   23.6741 C   0  0  0  0  0  0  0  0  0  0  0  0
   20.8994   17.4993   24.6608 H   0  0  0  0  0  0  0  0  0  0  0  0
   21.2839   17.3756   22.9432 H   0  0  0  0  0  0  0  0  0  0  0  0
   19.3603   18.3055   23.3521 C   0  0  0  0  0  0  0  0  0  0  0  0
   18.5457   18.2064   24.0829 H   0  0  0  0  0  0  0  0  0  0  0  0
   18.9307   18.0841   22.3652 H   0  0  0  0  0  0  0  0  0  0  0  0
   19.8958   19.7551   23.3684 C   0  0  0  0  0  0  0  0  0  0  0  0
   20.3226   19.9774   24.3564 H   0  0  0  0  0  0  0  0  0  0  0  0
   20.7126   19.8470   22.6401 H   0  0  0  0  0  0  0  0  0  0  0  0
   18.7845   20.7816   23.0449 C   0  0  0  0  0  0  0  0  0  0  0  0
   17.9563   20.6569   23.7552 H   0  0  0  0  0  0  0  0  0  0  0  0
   18.3721   20.5877   22.0457 H   0  0  0  0  0  0  0  0  0  0  0  0
   19.2787   22.2389   23.1235 C   0  0  0  0  0  0  0  0  0  0  0  0
   18.4348   22.9169   22.9694 H   0  0  0  0  0  0  0  0  0  0  0  0
   19.6954   22.4333   24.1155 H   0  0  0  0  0  0  0  0  0  0  0  0
   20.3371   22.5810   22.0932 N   0  3  0  0  0  0  0  0  0  0  0  0
   19.9968   22.4401   21.1364 H   0  0  0  0  0  0  0  0  0  0  0  0
   21.1763   22.0037   22.2047 H   0  0  0  0  0  0  0  0  0  0  0  0
   20.6348   23.5602   22.1639 H   0  0  0  0  0  0  0  0  0  0  0  0
  1  2  1  0  0  0  0
  1  3  1  0  0  0  0
  1  4  1  0  0  0  0
  1  5  1  0  0  0  0
  5  6  1  0  0  0  0
  5  7  1  0  0  0  0
  5  8  1  0  0  0  0
  8  9  1  0  0  0  0
  8 10  1  0  0  0  0
  8 11  1  0  0  0  0
 11 12  1  0  0  0  0
 11 13  1  0  0  0  0
 11 14  1  0  0  0  0
 14 15  1  0  0  0  0
 14 16  1  0  0  0  0
 14 17  1  0  0  0  0
 17 18  1  0  0  0  0
 17 19  1  0  0  0  0
 17 20  1  0  0  0  0
 20 21  1  0  0  0  0
 20 22  1  0  0  0  0
 20 23  1  0  0  0  0
 23 24  1  0  0  0  0
 23 25  1  0  0  0  0
 23 26  1  0  0  0  0
M  END
> <VConfSearch Rank>
683

> <Conf_Id>
19

> <Delta U+W>
0.162

> <U+W>
-5.391

> <U>
47.845

> <W>
-53.235

> <W(PB)>
-55.585

> <W(SA)>
2.349

> <Valence>
2.258

> <Coulomb>
44.893

> <VdW>
0.694

> <VdW6>
-6.285

> <VdW12>
6.979

> <Bond>
0.149

> <Angle>
0.434

> <Pdih>
1.675

> <Idih>
0.000

> <Tether>
0.000

$$$$
VeraChem MOL file


 26 25  0  0  0  0  0  0  0  0999 V2000     
   16.8113   16.6907   21.8389 C   0  0  0  0  0  0  0  0  0  0  0  0
   16.7017   16.6820   20.7466 H   0  0  0  0  0  0  0  0  0  0  0  0
   17.2012   15.7131   22.1513 H   0  0  0  0  0  0  0  0  0  0  0  0
   15.8117   16.8104   22.2765 H   0  0  0  0  0  0  0  0  0  0  0  0
   17.7459   17.8314   22.2944 C   0  0  0  0  0  0  0  0  0  0  0  0
   17.7971   17.8328   23.3912 H   0  0  0  0  0  0  0  0  0  0  0  0
   17.3154   18.7968   21.9938 H   0  0  0  0  0  0  0  0  0  0  0  0
   19.1634   17.6815   21.6930 C   0  0  0  0  0  0  0  0  0  0  0  0
   19.6140   16.7402   22.0368 H   0  0  0  0  0  0  0  0  0  0  0  0
   19.0804   17.6020   20.6003 H   0  0  0  0  0  0  0  0  0  0  0  0
   20.1076   18.8621   22.0282 C   0  0  0  0  0  0  0  0  0  0  0  0
   19.6632   19.8012   21.6703 H   0  0  0  0  0  0  0  0  0  0  0  0
   21.0423   18.7295   21.4660 H   0  0  0  0  0  0  0  0  0  0  0  0
   20.4388   18.9814   23.5354 C   0  0  0  0  0  0  0  0  0  0  0  0
   19.5243   19.1909   24.1057 H   0  0  0  0  0  0  0  0  0  0  0  0
   20.8321   18.0232   23.9024 H   0  0  0  0  0  0  0  0  0  0  0  0
   21.4695   20.0989   23.8092 C   0  0  0  0  0  0  0  0  0  0  0  0
   21.0796   21.0587   23.4447 H   0  0  0  0  0  0  0  0  0  0  0  0
   22.3942   19.8944   23.2531 H   0  0  0  0  0  0  0  0  0  0  0  0
   21.7905   20.2135   25.3098 C   0  0  0  0  0  0  0  0  0  0  0  0
   20.8754   20.4338   25.8663 H   0  0  0  0  0  0  0  0  0  0  0  0
   22.1944   19.2648   25.6734 H   0  0  0  0  0  0  0  0  0  0  0  0
   22.7992   21.3007   25.6196 N   0  3  0  0  0  0  0  0  0  0  0  0
   22.4670   22.2252   25.3262 H   0  0  0  0  0  0  0  0  0  0  0  0
   23.6943   21.1375   25.1467 H   0  0  0  0  0  0  0  0  0  0  0  0
   22.9989   21.3601   26.6241 H   0  0  0  0  0  0  0  0  0  0  0  0
  1  2  1  0  0  0  0
  1  3  1  0  0  0  0
  1  4  1  0  0  0  0
  1  5  1  0  0  0  0
  5  6  1  0  0  0  0
  5  7  1  0  0  0  0
  5  8  1  0  0  0  0
  8  9  1  0  0  0  0
  8 10  1  0  0  0  0
  8 11  1  0  0  0  0
 11 12  1  0  0  0  0
 11 13  1  0  0  0  0
 11 14  1  0  0  0  0
 14 15  1  0  0  0  0
 14 16  1  0  0  0  0
 14 17  1  0  0  0  0
 17 18  1  0  0  0  0
 17 19  1  0  0  0  0
 17 20  1  0  0  0  0
 20 21  1  0  0  0  0
 20 22  1  0  0  0  0
 20 23  1  0  0  0  0
 23 24  1  0  0  0  0
 23 25  1  0  0  0  0
 23 26  1  0  0  0  0
M  END
> <VConfSearch Rank>
684

> <Conf_Id>
37

> <Delta U+W>
0.565

> <U+W>
-4.988

> <U>
48.035

> <W>
-53.022

> <W(PB)>
-55.379

> <W(SA)>
2.357

> <Valence>
2.701

> <Coulomb>
44.622

> <VdW>
0.712

> <VdW6>
-6.418

> <VdW12>
7.129

> <Bond>
0.168

> <Angle>
0.659

> <Pdih>
1.875

> <Idih>
0.000

> <Tether>
0.000

$$$$
VeraChem MOL file


 26 25  0  0  0  0  0  0  0  0999 V2000     
   20.3947   15.6261   25.6272 C   0  0  0  0  0  0  0  0  0  0  0  0
   19.9593   15.1300   24.7500 H   0  0  0  0  0  0  0  0  0  0  0  0
   21.4878   15.5975   25.5289 H   0  0  0  0  0  0  0  0  0  0  0  0
   20.1209   15.0418   26.5152 H   0  0  0  0  0  0  0  0  0  0  0  0
   19.8868   17.0782   25.7524 C   0  0  0  0  0  0  0  0  0  0  0  0
   20.3117   17.5358   26.6568 H   0  0  0  0  0  0  0  0  0  0  0  0
   18.7955   17.0729   25.8825 H   0  0  0  0  0  0  0  0  0  0  0  0
   20.2600   17.9238   24.5146 C   0  0  0  0  0  0  0  0  0  0  0  0
   21.3517   17.9277   24.3900 H   0  0  0  0  0  0  0  0  0  0  0  0
   19.8377   17.4511   23.6183 H   0  0  0  0  0  0  0  0  0  0  0  0
   19.7475   19.3790   24.6375 C   0  0  0  0  0  0  0  0  0  0  0  0
   20.1171   19.8097   25.5784 H   0  0  0  0  0  0  0  0  0  0  0  0
   18.6510   19.3813   24.7074 H   0  0  0  0  0  0  0  0  0  0  0  0
   20.1949   20.2941   23.4711 C   0  0  0  0  0  0  0  0  0  0  0  0
   19.8877   21.3243   23.6993 H   0  0  0  0  0  0  0  0  0  0  0  0
   21.2921   20.3059   23.4121 H   0  0  0  0  0  0  0  0  0  0  0  0
   19.6033   19.8860   22.1015 C   0  0  0  0  0  0  0  0  0  0  0  0
   18.5093   19.8251   22.1745 H   0  0  0  0  0  0  0  0  0  0  0  0
   19.9652   18.8907   21.8145 H   0  0  0  0  0  0  0  0  0  0  0  0
   19.9869   20.8936   21.0035 C   0  0  0  0  0  0  0  0  0  0  0  0
   19.6151   21.8869   21.2692 H   0  0  0  0  0  0  0  0  0  0  0  0
   21.0755   20.9458   20.9158 H   0  0  0  0  0  0  0  0  0  0  0  0
   19.4249   20.5326   19.6435 N   0  3  0  0  0  0  0  0  0  0  0  0
   18.4004   20.4935   19.6515 H   0  0  0  0  0  0  0  0  0  0  0  0
   19.7595   19.6183   19.3220 H   0  0  0  0  0  0  0  0  0  0  0  0
   19.6918   21.2168   18.9273 H   0  0  0  0  0  0  0  0  0  0  0  0
  1  2  1  0  0  0  0
  1  3  1  0  0  0  0
  1  4  1  0  0  0  0
  1  5  1  0  0  0  0
  5  6  1  0  0  0  0
  5  7  1  0  0  0  0
  5  8  1  0  0  0  0
  8  9  1  0  0  0  0
  8 10  1  0  0  0  0
  8 11  1  0  0  0  0
 11 12  1  0  0  0  0
 11 13  1  0  0  0  0
 11 14  1  0  0  0  0
 14 15  1  0  0  0  0
 14 16  1  0  0  0  0
 14 17  1  0  0  0  0
 17 18  1  0  0  0  0
 17 19  1  0  0  0  0
 17 20  1  0  0  0  0
 20 21  1  0  0  0  0
 20 22  1  0  0  0  0
 20 23  1  0  0  0  0
 23 24  1  0  0  0  0
 23 25  1  0  0  0  0
 23 26  1  0  0  0  0
M  END
> <VConfSearch Rank>
685

> <Conf_Id>
35

> <Delta U+W>
0.587

> <U+W>
-4.965

> <U>
48.214

> <W>
-53.179

> <W(PB)>
-55.527

> <W(SA)>
2.348

> <Valence>
2.697

> <Coulomb>
44.819

> <VdW>
0.699

> <VdW6>
-6.437

> <VdW12>
7.136

> <Bond>
0.168

> <Angle>
0.657

> <Pdih>
1.872

> <Idih>
0.000

> <Tether>
0.000

$$$$
VeraChem MOL file


 26 25  0  0  0  0  0  0  0  0999 V2000     
   23.0816   19.3973   25.9569 C   0  0  0  0  0  0  0  0  0  0  0  0
   22.4293   19.7121   26.7819 H   0  0  0  0  0  0  0  0  0  0  0  0
   23.0670   18.3006   25.9087 H   0  0  0  0  0  0  0  0  0  0  0  0
   24.1056   19.7103   26.1986 H   0  0  0  0  0  0  0  0  0  0  0  0
   22.6235   20.0176   24.6199 C   0  0  0  0  0  0  0  0  0  0  0  0
   23.3134   19.7120   23.8207 H   0  0  0  0  0  0  0  0  0  0  0  0
   22.6823   21.1130   24.6877 H   0  0  0  0  0  0  0  0  0  0  0  0
   21.1834   19.5933   24.2558 C   0  0  0  0  0  0  0  0  0  0  0  0
   21.1367   18.4979   24.2004 H   0  0  0  0  0  0  0  0  0  0  0  0
   20.4975   19.9027   25.0564 H   0  0  0  0  0  0  0  0  0  0  0  0
   20.7247   20.2116   22.9132 C   0  0  0  0  0  0  0  0  0  0  0  0
   21.3765   19.8604   22.1013 H   0  0  0  0  0  0  0  0  0  0  0  0
   20.8515   21.3021   22.9602 H   0  0  0  0  0  0  0  0  0  0  0  0
   19.2479   19.9052   22.5622 C   0  0  0  0  0  0  0  0  0  0  0  0
   18.5945   20.2720   23.3660 H   0  0  0  0  0  0  0  0  0  0  0  0
   18.9784   20.4750   21.6620 H   0  0  0  0  0  0  0  0  0  0  0  0
   18.9700   18.4049   22.3081 C   0  0  0  0  0  0  0  0  0  0  0  0
   19.1536   17.8260   23.2219 H   0  0  0  0  0  0  0  0  0  0  0  0
   19.6578   18.0263   21.5403 H   0  0  0  0  0  0  0  0  0  0  0  0
   17.5184   18.1738   21.8525 C   0  0  0  0  0  0  0  0  0  0  0  0
   16.8296   18.5346   22.6211 H   0  0  0  0  0  0  0  0  0  0  0  0
   17.3285   18.7313   20.9313 H   0  0  0  0  0  0  0  0  0  0  0  0
   17.2035   16.7153   21.5895 N   0  3  0  0  0  0  0  0  0  0  0  0
   17.3356   16.1387   22.4269 H   0  0  0  0  0  0  0  0  0  0  0  0
   17.8006   16.3219   20.8547 H   0  0  0  0  0  0  0  0  0  0  0  0
   16.2321   16.5840   21.2869 H   0  0  0  0  0  0  0  0  0  0  0  0
  1  2  1  0  0  0  0
  1  3  1  0  0  0  0
  1  4  1  0  0  0  0
  1  5  1  0  0  0  0
  5  6  1  0  0  0  0
  5  7  1  0  0  0  0
  5  8  1  0  0  0  0
  8  9  1  0  0  0  0
  8 10  1  0  0  0  0
  8 11  1  0  0  0  0
 11 12  1  0  0  0  0
 11 13  1  0  0  0  0
 11 14  1  0  0  0  0
 14 15  1  0  0  0  0
 14 16  1  0  0  0  0
 14 17  1  0  0  0  0
 17 18  1  0  0  0  0
 17 19  1  0  0  0  0
 17 20  1  0  0  0  0
 20 21  1  0  0  0  0
 20 22  1  0  0  0  0
 20 23  1  0  0  0  0
 23 24  1  0  0  0  0
 23 25  1  0  0  0  0
 23 26  1  0  0  0  0
M  END
> <VConfSearch Rank>
686

> <Conf_Id>
36

> <Delta U+W>
0.565

> <U+W>
-4.987

> <U>
48.214

> <W>
-53.201

> <W(PB)>
-55.543

> <W(SA)>
2.342

> <Valence>
2.697

> <Coulomb>
44.819

> <VdW>
0.698

> <VdW6>
-6.437

> <VdW12>
7.136

> <Bond>
0.168

> <Angle>
0.657

> <Pdih>
1.872

> <Idih>
0.000

> <Tether>
0.000

$$$$
VeraChem MOL file


 26 25  0  0  0  0  0  0  0  0999 V2000     
   23.3293   21.2301   21.9209 C   0  0  0  0  0  0  0  0  0  0  0  0
   24.1764   20.7378   22.4162 H   0  0  0  0  0  0  0  0  0  0  0  0
   23.6607   21.5489   20.9241 H   0  0  0  0  0  0  0  0  0  0  0  0
   23.0738   22.1303   22.4949 H   0  0  0  0  0  0  0  0  0  0  0  0
   22.1192   20.2780   21.8143 C   0  0  0  0  0  0  0  0  0  0  0  0
   22.3951   19.4045   21.2071 H   0  0  0  0  0  0  0  0  0  0  0  0
   21.3011   20.7864   21.2851 H   0  0  0  0  0  0  0  0  0  0  0  0
   21.6323   19.8138   23.2049 C   0  0  0  0  0  0  0  0  0  0  0  0
   22.4545   19.3090   23.7308 H   0  0  0  0  0  0  0  0  0  0  0  0
   21.3596   20.6904   23.8088 H   0  0  0  0  0  0  0  0  0  0  0  0
   20.4207   18.8599   23.1024 C   0  0  0  0  0  0  0  0  0  0  0  0
   20.6956   17.9827   22.5005 H   0  0  0  0  0  0  0  0  0  0  0  0
   19.6056   19.3686   22.5705 H   0  0  0  0  0  0  0  0  0  0  0  0
   19.9345   18.3977   24.4970 C   0  0  0  0  0  0  0  0  0  0  0  0
   20.7723   17.9347   25.0365 H   0  0  0  0  0  0  0  0  0  0  0  0
   19.6271   19.2700   25.0905 H   0  0  0  0  0  0  0  0  0  0  0  0
   18.7682   17.3839   24.4283 C   0  0  0  0  0  0  0  0  0  0  0  0
   18.5378   17.0365   25.4442 H   0  0  0  0  0  0  0  0  0  0  0  0
   19.0810   16.4997   23.8570 H   0  0  0  0  0  0  0  0  0  0  0  0
   17.4955   17.9825   23.8005 C   0  0  0  0  0  0  0  0  0  0  0  0
   17.1833   18.8622   24.3698 H   0  0  0  0  0  0  0  0  0  0  0  0
   17.6999   18.2921   22.7724 H   0  0  0  0  0  0  0  0  0  0  0  0
   16.3351   17.0089   23.7704 N   0  3  0  0  0  0  0  0  0  0  0  0
   15.4981   17.4264   23.3492 H   0  0  0  0  0  0  0  0  0  0  0  0
   16.0721   16.6986   24.7116 H   0  0  0  0  0  0  0  0  0  0  0  0
   16.5555   16.1684   23.2262 H   0  0  0  0  0  0  0  0  0  0  0  0
  1  2  1  0  0  0  0
  1  3  1  0  0  0  0
  1  4  1  0  0  0  0
  1  5  1  0  0  0  0
  5  6  1  0  0  0  0
  5  7  1  0  0  0  0
  5  8  1  0  0  0  0
  8  9  1  0  0  0  0
  8 10  1  0  0  0  0
  8 11  1  0  0  0  0
 11 12  1  0  0  0  0
 11 13  1  0  0  0  0
 11 14  1  0  0  0  0
 14 15  1  0  0  0  0
 14 16  1  0  0  0  0
 14 17  1  0  0  0  0
 17 18  1  0  0  0  0
 17 19  1  0  0  0  0
 17 20  1  0  0  0  0
 20 21  1  0  0  0  0
 20 22  1  0  0  0  0
 20 23  1  0  0  0  0
 23 24  1  0  0  0  0
 23 25  1  0  0  0  0
 23 26  1  0  0  0  0
M  END
> <VConfSearch Rank>
687

> <Conf_Id>
44

> <Delta U+W>
0.371

> <U+W>
-5.181

> <U>
48.002

> <W>
-53.183

> <W(PB)>
-55.533

> <W(SA)>
2.350

> <Valence>
2.459

> <Coulomb>
44.901

> <VdW>
0.643

> <VdW6>
-6.362

> <VdW12>
7.005

> <Bond>
0.151

> <Angle>
0.519

> <Pdih>
1.789

> <Idih>
0.000

> <Tether>
0.000

$$$$
VeraChem MOL file


 26 25  0  0  0  0  0  0  0  0999 V2000     
   23.5118   17.8032   22.0498 C   0  0  0  0  0  0  0  0  0  0  0  0
   23.2262   17.8462   20.9908 H   0  0  0  0  0  0  0  0  0  0  0  0
   24.6049   17.7154   22.0991 H   0  0  0  0  0  0  0  0  0  0  0  0
   23.0889   16.8889   22.4838 H   0  0  0  0  0  0  0  0  0  0  0  0
   23.0368   19.0651   22.8056 C   0  0  0  0  0  0  0  0  0  0  0  0
   23.5858   19.9349   22.4183 H   0  0  0  0  0  0  0  0  0  0  0  0
   23.3031   18.9824   23.8686 H   0  0  0  0  0  0  0  0  0  0  0  0
   21.5190   19.3356   22.6652 C   0  0  0  0  0  0  0  0  0  0  0  0
   21.3076   20.3145   23.1136 H   0  0  0  0  0  0  0  0  0  0  0  0
   21.2586   19.4188   21.6011 H   0  0  0  0  0  0  0  0  0  0  0  0
   20.6351   18.2541   23.3376 C   0  0  0  0  0  0  0  0  0  0  0  0
   20.8925   18.1734   24.4026 H   0  0  0  0  0  0  0  0  0  0  0  0
   20.8555   17.2757   22.8918 H   0  0  0  0  0  0  0  0  0  0  0  0
   19.1154   18.5135   23.1890 C   0  0  0  0  0  0  0  0  0  0  0  0
   18.8607   18.6085   22.1244 H   0  0  0  0  0  0  0  0  0  0  0  0
   18.5817   17.6267   23.5555 H   0  0  0  0  0  0  0  0  0  0  0  0
   18.6197   19.7637   23.9588 C   0  0  0  0  0  0  0  0  0  0  0  0
   19.1122   20.6623   23.5677 H   0  0  0  0  0  0  0  0  0  0  0  0
   18.8972   19.6884   25.0186 H   0  0  0  0  0  0  0  0  0  0  0  0
   17.0970   19.9691   23.8400 C   0  0  0  0  0  0  0  0  0  0  0  0
   16.8210   20.9138   24.3165 H   0  0  0  0  0  0  0  0  0  0  0  0
   16.8140   20.0241   22.7854 H   0  0  0  0  0  0  0  0  0  0  0  0
   16.2782   18.8715   24.4911 N   0  3  0  0  0  0  0  0  0  0  0  0
   16.4600   17.9578   24.0646 H   0  0  0  0  0  0  0  0  0  0  0  0
   15.2710   19.0469   24.4066 H   0  0  0  0  0  0  0  0  0  0  0  0
   16.4841   18.7855   25.4917 H   0  0  0  0  0  0  0  0  0  0  0  0
  1  2  1  0  0  0  0
  1  3  1  0  0  0  0
  1  4  1  0  0  0  0
  1  5  1  0  0  0  0
  5  6  1  0  0  0  0
  5  7  1  0  0  0  0
  5  8  1  0  0  0  0
  8  9  1  0  0  0  0
  8 10  1  0  0  0  0
  8 11  1  0  0  0  0
 11 12  1  0  0  0  0
 11 13  1  0  0  0  0
 11 14  1  0  0  0  0
 14 15  1  0  0  0  0
 14 16  1  0  0  0  0
 14 17  1  0  0  0  0
 17 18  1  0  0  0  0
 17 19  1  0  0  0  0
 17 20  1  0  0  0  0
 20 21  1  0  0  0  0
 20 22  1  0  0  0  0
 20 23  1  0  0  0  0
 23 24  1  0  0  0  0
 23 25  1  0  0  0  0
 23 26  1  0  0  0  0
M  END
> <VConfSearch Rank>
688

> <Conf_Id>
112

> <Delta U+W>
1.422

> <U+W>
-4.130

> <U>
49.323

> <W>
-53.453

> <W(PB)>
-55.749

> <W(SA)>
2.296

> <Valence>
3.408

> <Coulomb>
44.893

> <VdW>
1.021

> <VdW6>
-7.481

> <VdW12>
8.503

> <Bond>
0.239

> <Angle>
1.013

> <Pdih>
2.156

> <Idih>
0.000

> <Tether>
0.000

$$$$
VeraChem MOL file


 26 25  0  0  0  0  0  0  0  0999 V2000     
   21.1523   18.4532   19.8162 C   0  0  0  0  0  0  0  0  0  0  0  0
   21.2600   18.2743   18.7385 H   0  0  0  0  0  0  0  0  0  0  0  0
   21.0055   19.5310   19.9586 H   0  0  0  0  0  0  0  0  0  0  0  0
   22.0953   18.1672   20.2999 H   0  0  0  0  0  0  0  0  0  0  0  0
   19.9674   17.6394   20.3839 C   0  0  0  0  0  0  0  0  0  0  0  0
   20.1022   16.5822   20.1158 H   0  0  0  0  0  0  0  0  0  0  0  0
   19.0335   17.9617   19.9025 H   0  0  0  0  0  0  0  0  0  0  0  0
   19.8291   17.7488   21.9215 C   0  0  0  0  0  0  0  0  0  0  0  0
   19.0329   17.0666   22.2499 H   0  0  0  0  0  0  0  0  0  0  0  0
   20.7563   17.3941   22.3902 H   0  0  0  0  0  0  0  0  0  0  0  0
   19.5003   19.1834   22.4070 C   0  0  0  0  0  0  0  0  0  0  0  0
   18.6471   19.5682   21.8316 H   0  0  0  0  0  0  0  0  0  0  0  0
   20.3435   19.8546   22.1973 H   0  0  0  0  0  0  0  0  0  0  0  0
   19.1506   19.2612   23.9136 C   0  0  0  0  0  0  0  0  0  0  0  0
   18.8170   20.2837   24.1345 H   0  0  0  0  0  0  0  0  0  0  0  0
   18.2958   18.6047   24.1274 H   0  0  0  0  0  0  0  0  0  0  0  0
   20.3355   18.8941   24.8419 C   0  0  0  0  0  0  0  0  0  0  0  0
   21.2017   19.5303   24.6168 H   0  0  0  0  0  0  0  0  0  0  0  0
   20.6479   17.8594   24.6541 H   0  0  0  0  0  0  0  0  0  0  0  0
   19.9803   19.0191   26.3362 C   0  0  0  0  0  0  0  0  0  0  0  0
   19.1065   18.4010   26.5599 H   0  0  0  0  0  0  0  0  0  0  0  0
   20.8175   18.6564   26.9388 H   0  0  0  0  0  0  0  0  0  0  0  0
   19.6791   20.4381   26.7774 N   0  3  0  0  0  0  0  0  0  0  0  0
   18.8755   20.8293   26.2764 H   0  0  0  0  0  0  0  0  0  0  0  0
   20.4736   21.0647   26.6126 H   0  0  0  0  0  0  0  0  0  0  0  0
   19.4614   20.4873   27.7786 H   0  0  0  0  0  0  0  0  0  0  0  0
  1  2  1  0  0  0  0
  1  3  1  0  0  0  0
  1  4  1  0  0  0  0
  1  5  1  0  0  0  0
  5  6  1  0  0  0  0
  5  7  1  0  0  0  0
  5  8  1  0  0  0  0
  8  9  1  0  0  0  0
  8 10  1  0  0  0  0
  8 11  1  0  0  0  0
 11 12  1  0  0  0  0
 11 13  1  0  0  0  0
 11 14  1  0  0  0  0
 14 15  1  0  0  0  0
 14 16  1  0  0  0  0
 14 17  1  0  0  0  0
 17 18  1  0  0  0  0
 17 19  1  0  0  0  0
 17 20  1  0  0  0  0
 20 21  1  0  0  0  0
 20 22  1  0  0  0  0
 20 23  1  0  0  0  0
 23 24  1  0  0  0  0
 23 25  1  0  0  0  0
 23 26  1  0  0  0  0
M  END
> <VConfSearch Rank>
689

> <Conf_Id>
130

> <Delta U+W>
1.282

> <U+W>
-4.270

> <U>
49.153

> <W>
-53.422

> <W(PB)>
-55.725

> <W(SA)>
2.303

> <Valence>
3.298

> <Coulomb>
44.907

> <VdW>
0.948

> <VdW6>
-7.574

> <VdW12>
8.522

> <Bond>
0.229

> <Angle>
0.912

> <Pdih>
2.157

> <Idih>
0.000

> <Tether>
0.000

$$$$
VeraChem MOL file


 26 25  0  0  0  0  0  0  0  0999 V2000     
   16.7854   20.0542   23.1185 C   0  0  0  0  0  0  0  0  0  0  0  0
   16.2643   19.7496   24.0353 H   0  0  0  0  0  0  0  0  0  0  0  0
   16.0527   20.5390   22.4605 H   0  0  0  0  0  0  0  0  0  0  0  0
   17.1407   19.1505   22.6078 H   0  0  0  0  0  0  0  0  0  0  0  0
   17.9498   21.0194   23.4361 C   0  0  0  0  0  0  0  0  0  0  0  0
   17.5342   21.9555   23.8344 H   0  0  0  0  0  0  0  0  0  0  0  0
   18.4681   21.2935   22.5076 H   0  0  0  0  0  0  0  0  0  0  0  0
   18.9588   20.4510   24.4666 C   0  0  0  0  0  0  0  0  0  0  0  0
   19.7356   21.2050   24.6540 H   0  0  0  0  0  0  0  0  0  0  0  0
   18.4418   20.3083   25.4255 H   0  0  0  0  0  0  0  0  0  0  0  0
   19.6386   19.1158   24.0667 C   0  0  0  0  0  0  0  0  0  0  0  0
   18.8834   18.3237   23.9776 H   0  0  0  0  0  0  0  0  0  0  0  0
   20.2974   18.8129   24.8911 H   0  0  0  0  0  0  0  0  0  0  0  0
   20.4596   19.2074   22.7555 C   0  0  0  0  0  0  0  0  0  0  0  0
   19.7962   19.4809   21.9248 H   0  0  0  0  0  0  0  0  0  0  0  0
   21.2040   20.0113   22.8388 H   0  0  0  0  0  0  0  0  0  0  0  0
   21.1693   17.8823   22.3902 C   0  0  0  0  0  0  0  0  0  0  0  0
   21.6390   17.9910   21.4036 H   0  0  0  0  0  0  0  0  0  0  0  0
   20.4262   17.0790   22.2977 H   0  0  0  0  0  0  0  0  0  0  0  0
   22.2451   17.4783   23.4158 C   0  0  0  0  0  0  0  0  0  0  0  0
   22.9840   18.2789   23.5084 H   0  0  0  0  0  0  0  0  0  0  0  0
   21.7842   17.3198   24.3940 H   0  0  0  0  0  0  0  0  0  0  0  0
   22.9776   16.2075   23.0367 N   0  3  0  0  0  0  0  0  0  0  0  0
   22.3406   15.4079   22.9590 H   0  0  0  0  0  0  0  0  0  0  0  0
   23.6892   15.9560   23.7316 H   0  0  0  0  0  0  0  0  0  0  0  0
   23.4592   16.2982   22.1361 H   0  0  0  0  0  0  0  0  0  0  0  0
  1  2  1  0  0  0  0
  1  3  1  0  0  0  0
  1  4  1  0  0  0  0
  1  5  1  0  0  0  0
  5  6  1  0  0  0  0
  5  7  1  0  0  0  0
  5  8  1  0  0  0  0
  8  9  1  0  0  0  0
  8 10  1  0  0  0  0
  8 11  1  0  0  0  0
 11 12  1  0  0  0  0
 11 13  1  0  0  0  0
 11 14  1  0  0  0  0
 14 15  1  0  0  0  0
 14 16  1  0  0  0  0
 14 17  1  0  0  0  0
 17 18  1  0  0  0  0
 17 19  1  0  0  0  0
 17 20  1  0  0  0  0
 20 21  1  0  0  0  0
 20 22  1  0  0  0  0
 20 23  1  0  0  0  0
 23 24  1  0  0  0  0
 23 25  1  0  0  0  0
 23 26  1  0  0  0  0
M  END
> <VConfSearch Rank>
690

> <Conf_Id>
111

> <Delta U+W>
1.290

> <U+W>
-4.262

> <U>
49.209

> <W>
-53.471

> <W(PB)>
-55.745

> <W(SA)>
2.274

> <Valence>
3.465

> <Coulomb>
44.958

> <VdW>
0.786

> <VdW6>
-7.903

> <VdW12>
8.689

> <Bond>
0.237

> <Angle>
1.212

> <Pdih>
2.015

> <Idih>
0.000

> <Tether>
0.000

$$$$
VeraChem MOL file


 26 25  0  0  0  0  0  0  0  0999 V2000     
   23.2490   16.9268   22.2643 C   0  0  0  0  0  0  0  0  0  0  0  0
   23.5652   16.8201   23.3102 H   0  0  0  0  0  0  0  0  0  0  0  0
   23.0998   15.9220   21.8480 H   0  0  0  0  0  0  0  0  0  0  0  0
   24.0694   17.4020   21.7110 H   0  0  0  0  0  0  0  0  0  0  0  0
   21.9601   17.7691   22.1580 C   0  0  0  0  0  0  0  0  0  0  0  0
   21.6857   17.8829   21.1000 H   0  0  0  0  0  0  0  0  0  0  0  0
   22.1606   18.7767   22.5455 H   0  0  0  0  0  0  0  0  0  0  0  0
   20.7897   17.1206   22.9345 C   0  0  0  0  0  0  0  0  0  0  0  0
   20.6596   16.0869   22.5855 H   0  0  0  0  0  0  0  0  0  0  0  0
   21.0440   17.0555   24.0015 H   0  0  0  0  0  0  0  0  0  0  0  0
   19.4439   17.8678   22.7660 C   0  0  0  0  0  0  0  0  0  0  0  0
   18.6550   17.2757   23.2503 H   0  0  0  0  0  0  0  0  0  0  0  0
   19.1820   17.9168   21.7000 H   0  0  0  0  0  0  0  0  0  0  0  0
   19.4467   19.2926   23.3702 C   0  0  0  0  0  0  0  0  0  0  0  0
   19.7681   19.2400   24.4189 H   0  0  0  0  0  0  0  0  0  0  0  0
   20.1751   19.9222   22.8424 H   0  0  0  0  0  0  0  0  0  0  0  0
   18.0511   19.9542   23.2804 C   0  0  0  0  0  0  0  0  0  0  0  0
   17.3147   19.3577   23.8354 H   0  0  0  0  0  0  0  0  0  0  0  0
   17.7207   19.9647   22.2332 H   0  0  0  0  0  0  0  0  0  0  0  0
   18.0433   21.4016   23.8088 C   0  0  0  0  0  0  0  0  0  0  0  0
   18.7791   21.9972   23.2618 H   0  0  0  0  0  0  0  0  0  0  0  0
   17.0566   21.8428   23.6433 H   0  0  0  0  0  0  0  0  0  0  0  0
   18.3540   21.5128   25.2886 N   0  3  0  0  0  0  0  0  0  0  0  0
   18.3283   22.4864   25.6108 H   0  0  0  0  0  0  0  0  0  0  0  0
   19.2859   21.1483   25.5093 H   0  0  0  0  0  0  0  0  0  0  0  0
   17.6810   20.9908   25.8592 H   0  0  0  0  0  0  0  0  0  0  0  0
  1  2  1  0  0  0  0
  1  3  1  0  0  0  0
  1  4  1  0  0  0  0
  1  5  1  0  0  0  0
  5  6  1  0  0  0  0
  5  7  1  0  0  0  0
  5  8  1  0  0  0  0
  8  9  1  0  0  0  0
  8 10  1  0  0  0  0
  8 11  1  0  0  0  0
 11 12  1  0  0  0  0
 11 13  1  0  0  0  0
 11 14  1  0  0  0  0
 14 15  1  0  0  0  0
 14 16  1  0  0  0  0
 14 17  1  0  0  0  0
 17 18  1  0  0  0  0
 17 19  1  0  0  0  0
 17 20  1  0  0  0  0
 20 21  1  0  0  0  0
 20 22  1  0  0  0  0
 20 23  1  0  0  0  0
 23 24  1  0  0  0  0
 23 25  1  0  0  0  0
 23 26  1  0  0  0  0
M  END
> <VConfSearch Rank>
691

> <Conf_Id>
105

> <Delta U+W>
0.736

> <U+W>
-4.817

> <U>
48.735

> <W>
-53.552

> <W(PB)>
-55.889

> <W(SA)>
2.337

> <Valence>
2.803

> <Coulomb>
45.123

> <VdW>
0.809

> <VdW6>
-6.953

> <VdW12>
7.761

> <Bond>
0.188

> <Angle>
0.699

> <Pdih>
1.917

> <Idih>
0.000

> <Tether>
0.000

$$$$
VeraChem MOL file


 26 25  0  0  0  0  0  0  0  0999 V2000     
   18.4791   16.4583   21.0021 C   0  0  0  0  0  0  0  0  0  0  0  0
   18.9096   15.4547   20.8903 H   0  0  0  0  0  0  0  0  0  0  0  0
   17.6482   16.3964   21.7169 H   0  0  0  0  0  0  0  0  0  0  0  0
   18.0659   16.7575   20.0301 H   0  0  0  0  0  0  0  0  0  0  0  0
   19.5440   17.4698   21.4762 C   0  0  0  0  0  0  0  0  0  0  0  0
   19.0864   18.4662   21.5372 H   0  0  0  0  0  0  0  0  0  0  0  0
   20.3465   17.5323   20.7280 H   0  0  0  0  0  0  0  0  0  0  0  0
   20.1385   17.0714   22.8475 C   0  0  0  0  0  0  0  0  0  0  0  0
   19.3439   17.0491   23.6048 H   0  0  0  0  0  0  0  0  0  0  0  0
   20.5216   16.0436   22.7845 H   0  0  0  0  0  0  0  0  0  0  0  0
   21.2944   17.9933   23.3158 C   0  0  0  0  0  0  0  0  0  0  0  0
   22.1303   17.9004   22.6088 H   0  0  0  0  0  0  0  0  0  0  0  0
   21.6733   17.6219   24.2779 H   0  0  0  0  0  0  0  0  0  0  0  0
   20.9338   19.4944   23.4638 C   0  0  0  0  0  0  0  0  0  0  0  0
   21.8378   20.0294   23.7828 H   0  0  0  0  0  0  0  0  0  0  0  0
   20.6649   19.9143   22.4855 H   0  0  0  0  0  0  0  0  0  0  0  0
   19.7938   19.7604   24.4786 C   0  0  0  0  0  0  0  0  0  0  0  0
   20.0486   19.3255   25.4541 H   0  0  0  0  0  0  0  0  0  0  0  0
   18.8750   19.2637   24.1424 H   0  0  0  0  0  0  0  0  0  0  0  0
   19.4872   21.2610   24.6480 C   0  0  0  0  0  0  0  0  0  0  0  0
   19.2518   21.7009   23.6752 H   0  0  0  0  0  0  0  0  0  0  0  0
   18.6151   21.3813   25.2964 H   0  0  0  0  0  0  0  0  0  0  0  0
   20.6260   22.0531   25.2603 N   0  3  0  0  0  0  0  0  0  0  0  0
   21.4702   22.0147   24.6809 H   0  0  0  0  0  0  0  0  0  0  0  0
   20.8792   21.6999   26.1888 H   0  0  0  0  0  0  0  0  0  0  0  0
   20.3837   23.0435   25.3724 H   0  0  0  0  0  0  0  0  0  0  0  0
  1  2  1  0  0  0  0
  1  3  1  0  0  0  0
  1  4  1  0  0  0  0
  1  5  1  0  0  0  0
  5  6  1  0  0  0  0
  5  7  1  0  0  0  0
  5  8  1  0  0  0  0
  8  9  1  0  0  0  0
  8 10  1  0  0  0  0
  8 11  1  0  0  0  0
 11 12  1  0  0  0  0
 11 13  1  0  0  0  0
 11 14  1  0  0  0  0
 14 15  1  0  0  0  0
 14 16  1  0  0  0  0
 14 17  1  0  0  0  0
 17 18  1  0  0  0  0
 17 19  1  0  0  0  0
 17 20  1  0  0  0  0
 20 21  1  0  0  0  0
 20 22  1  0  0  0  0
 20 23  1  0  0  0  0
 23 24  1  0  0  0  0
 23 25  1  0  0  0  0
 23 26  1  0  0  0  0
M  END
> <VConfSearch Rank>
692

> <Conf_Id>
144

> <Delta U+W>
1.073

> <U+W>
-4.479

> <U>
49.231

> <W>
-53.710

> <W(PB)>
-55.983

> <W(SA)>
2.273

> <Valence>
3.276

> <Coulomb>
45.175

> <VdW>
0.779

> <VdW6>
-7.944

> <VdW12>
8.723

> <Bond>
0.239

> <Angle>
1.155

> <Pdih>
1.883

> <Idih>
0.000

> <Tether>
0.000

$$$$
VeraChem MOL file


 26 25  0  0  0  0  0  0  0  0999 V2000     
   18.8025   20.7298   26.2402 C   0  0  0  0  0  0  0  0  0  0  0  0
   19.4137   21.5805   25.9151 H   0  0  0  0  0  0  0  0  0  0  0  0
   17.9925   21.1273   26.8653 H   0  0  0  0  0  0  0  0  0  0  0  0
   19.4239   20.0801   26.8701 H   0  0  0  0  0  0  0  0  0  0  0  0
   18.2234   19.9497   25.0379 C   0  0  0  0  0  0  0  0  0  0  0  0
   17.6344   20.6275   24.4043 H   0  0  0  0  0  0  0  0  0  0  0  0
   17.5202   19.1944   25.4160 H   0  0  0  0  0  0  0  0  0  0  0  0
   19.3012   19.2376   24.1848 C   0  0  0  0  0  0  0  0  0  0  0  0
   19.9006   18.5773   24.8264 H   0  0  0  0  0  0  0  0  0  0  0  0
   18.7829   18.5944   23.4627 H   0  0  0  0  0  0  0  0  0  0  0  0
   20.2280   20.2146   23.4193 C   0  0  0  0  0  0  0  0  0  0  0  0
   20.6715   20.9283   24.1250 H   0  0  0  0  0  0  0  0  0  0  0  0
   19.6278   20.8112   22.7186 H   0  0  0  0  0  0  0  0  0  0  0  0
   21.3890   19.5312   22.6508 C   0  0  0  0  0  0  0  0  0  0  0  0
   21.9911   20.3250   22.1874 H   0  0  0  0  0  0  0  0  0  0  0  0
   22.0609   19.0231   23.3566 H   0  0  0  0  0  0  0  0  0  0  0  0
   20.9483   18.5485   21.5367 C   0  0  0  0  0  0  0  0  0  0  0  0
   21.7249   18.5289   20.7605 H   0  0  0  0  0  0  0  0  0  0  0  0
   20.0336   18.9135   21.0508 H   0  0  0  0  0  0  0  0  0  0  0  0
   20.7475   17.1083   22.0476 C   0  0  0  0  0  0  0  0  0  0  0  0
   21.6819   16.7403   22.4800 H   0  0  0  0  0  0  0  0  0  0  0  0
   19.9810   17.0845   22.8243 H   0  0  0  0  0  0  0  0  0  0  0  0
   20.3295   16.1460   20.9548 N   0  3  0  0  0  0  0  0  0  0  0  0
   21.0264   16.0943   20.2045 H   0  0  0  0  0  0  0  0  0  0  0  0
   19.4411   16.4204   20.5229 H   0  0  0  0  0  0  0  0  0  0  0  0
   20.2058   15.1927   21.3131 H   0  0  0  0  0  0  0  0  0  0  0  0
  1  2  1  0  0  0  0
  1  3  1  0  0  0  0
  1  4  1  0  0  0  0
  1  5  1  0  0  0  0
  5  6  1  0  0  0  0
  5  7  1  0  0  0  0
  5  8  1  0  0  0  0
  8  9  1  0  0  0  0
  8 10  1  0  0  0  0
  8 11  1  0  0  0  0
 11 12  1  0  0  0  0
 11 13  1  0  0  0  0
 11 14  1  0  0  0  0
 14 15  1  0  0  0  0
 14 16  1  0  0  0  0
 14 17  1  0  0  0  0
 17 18  1  0  0  0  0
 17 19  1  0  0  0  0
 17 20  1  0  0  0  0
 20 21  1  0  0  0  0
 20 22  1  0  0  0  0
 20 23  1  0  0  0  0
 23 24  1  0  0  0  0
 23 25  1  0  0  0  0
 23 26  1  0  0  0  0
M  END
> <VConfSearch Rank>
693

> <Conf_Id>
93

> <Delta U+W>
3.253

> <U+W>
-2.300

> <U>
51.609

> <W>
-53.909

> <W(PB)>
-56.178

> <W(SA)>
2.270

> <Valence>
5.204

> <Coulomb>
45.645

> <VdW>
0.760

> <VdW6>
-7.997

> <VdW12>
8.758

> <Bond>
0.240

> <Angle>
1.456

> <Pdih>
3.507

> <Idih>
0.000

> <Tether>
0.000

$$$$
VeraChem MOL file


 26 25  0  0  0  0  0  0  0  0999 V2000     
   18.7174   21.9214   24.9806 C   0  0  0  0  0  0  0  0  0  0  0  0
   19.6170   21.9308   25.6080 H   0  0  0  0  0  0  0  0  0  0  0  0
   18.9210   22.5115   24.0777 H   0  0  0  0  0  0  0  0  0  0  0  0
   17.9213   22.4291   25.5404 H   0  0  0  0  0  0  0  0  0  0  0  0
   18.2884   20.4811   24.6184 C   0  0  0  0  0  0  0  0  0  0  0  0
   17.3182   20.5232   24.1039 H   0  0  0  0  0  0  0  0  0  0  0  0
   18.1237   19.9006   25.5369 H   0  0  0  0  0  0  0  0  0  0  0  0
   19.2996   19.7449   23.7063 C   0  0  0  0  0  0  0  0  0  0  0  0
   18.8344   18.8048   23.3844 H   0  0  0  0  0  0  0  0  0  0  0  0
   19.4768   20.3392   22.7994 H   0  0  0  0  0  0  0  0  0  0  0  0
   20.6463   19.4309   24.4042 C   0  0  0  0  0  0  0  0  0  0  0  0
   20.4659   18.7660   25.2600 H   0  0  0  0  0  0  0  0  0  0  0  0
   21.0682   20.3547   24.8196 H   0  0  0  0  0  0  0  0  0  0  0  0
   21.7189   18.7998   23.4785 C   0  0  0  0  0  0  0  0  0  0  0  0
   21.9897   19.5045   22.6800 H   0  0  0  0  0  0  0  0  0  0  0  0
   22.6314   18.6630   24.0753 H   0  0  0  0  0  0  0  0  0  0  0  0
   21.3328   17.4288   22.8681 C   0  0  0  0  0  0  0  0  0  0  0  0
   20.7372   16.8495   23.5862 H   0  0  0  0  0  0  0  0  0  0  0  0
   22.2514   16.8534   22.6918 H   0  0  0  0  0  0  0  0  0  0  0  0
   20.5839   17.5553   21.5270 C   0  0  0  0  0  0  0  0  0  0  0  0
   19.6615   18.1238   21.6595 H   0  0  0  0  0  0  0  0  0  0  0  0
   21.2113   18.0873   20.8068 H   0  0  0  0  0  0  0  0  0  0  0  0
   20.2187   16.2140   20.9248 N   0  3  0  0  0  0  0  0  0  0  0  0
   21.0477   15.6390   20.7423 H   0  0  0  0  0  0  0  0  0  0  0  0
   19.7259   16.3188   20.0312 H   0  0  0  0  0  0  0  0  0  0  0  0
   19.6056   15.6719   21.5423 H   0  0  0  0  0  0  0  0  0  0  0  0
  1  2  1  0  0  0  0
  1  3  1  0  0  0  0
  1  4  1  0  0  0  0
  1  5  1  0  0  0  0
  5  6  1  0  0  0  0
  5  7  1  0  0  0  0
  5  8  1  0  0  0  0
  8  9  1  0  0  0  0
  8 10  1  0  0  0  0
  8 11  1  0  0  0  0
 11 12  1  0  0  0  0
 11 13  1  0  0  0  0
 11 14  1  0  0  0  0
 14 15  1  0  0  0  0
 14 16  1  0  0  0  0
 14 17  1  0  0  0  0
 17 18  1  0  0  0  0
 17 19  1  0  0  0  0
 17 20  1  0  0  0  0
 20 21  1  0  0  0  0
 20 22  1  0  0  0  0
 20 23  1  0  0  0  0
 23 24  1  0  0  0  0
 23 25  1  0  0  0  0
 23 26  1  0  0  0  0
M  END
> <VConfSearch Rank>
694

> <Conf_Id>
94

> <Delta U+W>
3.247

> <U+W>
-2.305

> <U>
51.609

> <W>
-53.914

> <W(PB)>
-56.221

> <W(SA)>
2.307

> <Valence>
5.204

> <Coulomb>
45.645

> <VdW>
0.760

> <VdW6>
-7.997

> <VdW12>
8.757

> <Bond>
0.240

> <Angle>
1.456

> <Pdih>
3.508

> <Idih>
0.000

> <Tether>
0.000

$$$$
VeraChem MOL file


 26 25  0  0  0  0  0  0  0  0999 V2000     
   18.6624   19.2387   27.0906 C   0  0  0  0  0  0  0  0  0  0  0  0
   17.6103   18.9398   26.9963 H   0  0  0  0  0  0  0  0  0  0  0  0
   19.2402   18.3607   27.4076 H   0  0  0  0  0  0  0  0  0  0  0  0
   18.7288   19.9913   27.8870 H   0  0  0  0  0  0  0  0  0  0  0  0
   19.1996   19.8052   25.7592 C   0  0  0  0  0  0  0  0  0  0  0  0
   20.2420   20.1264   25.8940 H   0  0  0  0  0  0  0  0  0  0  0  0
   18.6246   20.7010   25.4858 H   0  0  0  0  0  0  0  0  0  0  0  0
   19.1174   18.7649   24.6202 C   0  0  0  0  0  0  0  0  0  0  0  0
   19.6918   17.8706   24.8989 H   0  0  0  0  0  0  0  0  0  0  0  0
   18.0740   18.4450   24.4915 H   0  0  0  0  0  0  0  0  0  0  0  0
   19.6540   19.3287   23.2852 C   0  0  0  0  0  0  0  0  0  0  0  0
   20.6940   19.6532   23.4235 H   0  0  0  0  0  0  0  0  0  0  0  0
   19.0764   20.2208   23.0060 H   0  0  0  0  0  0  0  0  0  0  0  0
   19.5723   18.2839   22.1465 C   0  0  0  0  0  0  0  0  0  0  0  0
   20.1683   17.3999   22.4099 H   0  0  0  0  0  0  0  0  0  0  0  0
   18.5347   17.9348   22.0522 H   0  0  0  0  0  0  0  0  0  0  0  0
   20.0312   18.8396   20.7750 C   0  0  0  0  0  0  0  0  0  0  0  0
   19.3723   19.6676   20.4814 H   0  0  0  0  0  0  0  0  0  0  0  0
   19.9066   18.0631   20.0087 H   0  0  0  0  0  0  0  0  0  0  0  0
   21.4905   19.3381   20.7552 C   0  0  0  0  0  0  0  0  0  0  0  0
   21.7245   19.7362   19.7641 H   0  0  0  0  0  0  0  0  0  0  0  0
   21.6161   20.1443   21.4825 H   0  0  0  0  0  0  0  0  0  0  0  0
   22.5064   18.2581   21.0704 N   0  3  0  0  0  0  0  0  0  0  0  0
   22.4570   17.4828   20.4015 H   0  0  0  0  0  0  0  0  0  0  0  0
   22.3598   17.8631   22.0044 H   0  0  0  0  0  0  0  0  0  0  0  0
   23.4666   18.6179   21.0420 H   0  0  0  0  0  0  0  0  0  0  0  0
  1  2  1  0  0  0  0
  1  3  1  0  0  0  0
  1  4  1  0  0  0  0
  1  5  1  0  0  0  0
  5  6  1  0  0  0  0
  5  7  1  0  0  0  0
  5  8  1  0  0  0  0
  8  9  1  0  0  0  0
  8 10  1  0  0  0  0
  8 11  1  0  0  0  0
 11 12  1  0  0  0  0
 11 13  1  0  0  0  0
 11 14  1  0  0  0  0
 14 15  1  0  0  0  0
 14 16  1  0  0  0  0
 14 17  1  0  0  0  0
 17 18  1  0  0  0  0
 17 19  1  0  0  0  0
 17 20  1  0  0  0  0
 20 21  1  0  0  0  0
 20 22  1  0  0  0  0
 20 23  1  0  0  0  0
 23 24  1  0  0  0  0
 23 25  1  0  0  0  0
 23 26  1  0  0  0  0
M  END
> <VConfSearch Rank>
695

> <Conf_Id>
83

> <Delta U+W>
0.559

> <U+W>
-4.994

> <U>
48.668

> <W>
-53.661

> <W(PB)>
-55.972

> <W(SA)>
2.311

> <Valence>
2.543

> <Coulomb>
45.478

> <VdW>
0.646

> <VdW6>
-7.096

> <VdW12>
7.742

> <Bond>
0.176

> <Angle>
0.630

> <Pdih>
1.738

> <Idih>
0.000

> <Tether>
0.000

$$$$
VeraChem MOL file


 26 25  0  0  0  0  0  0  0  0999 V2000     
   19.4731   21.3821   20.2097 C   0  0  0  0  0  0  0  0  0  0  0  0
   20.3361   21.9248   19.8024 H   0  0  0  0  0  0  0  0  0  0  0  0
   19.1892   20.6023   19.4910 H   0  0  0  0  0  0  0  0  0  0  0  0
   18.6371   22.0892   20.2878 H   0  0  0  0  0  0  0  0  0  0  0  0
   19.8013   20.7718   21.5889 C   0  0  0  0  0  0  0  0  0  0  0  0
   18.9040   20.2745   21.9803 H   0  0  0  0  0  0  0  0  0  0  0  0
   20.0527   21.5772   22.2930 H   0  0  0  0  0  0  0  0  0  0  0  0
   20.9750   19.7675   21.5030 C   0  0  0  0  0  0  0  0  0  0  0  0
   20.7019   18.9342   20.8410 H   0  0  0  0  0  0  0  0  0  0  0  0
   21.8354   20.2643   21.0337 H   0  0  0  0  0  0  0  0  0  0  0  0
   21.4200   19.2134   22.8789 C   0  0  0  0  0  0  0  0  0  0  0  0
   21.7066   20.0465   23.5355 H   0  0  0  0  0  0  0  0  0  0  0  0
   22.3266   18.6101   22.7328 H   0  0  0  0  0  0  0  0  0  0  0  0
   20.3437   18.3458   23.5748 C   0  0  0  0  0  0  0  0  0  0  0  0
   19.4590   18.9575   23.7909 H   0  0  0  0  0  0  0  0  0  0  0  0
   20.0220   17.5448   22.8948 H   0  0  0  0  0  0  0  0  0  0  0  0
   20.8727   17.7236   24.8888 C   0  0  0  0  0  0  0  0  0  0  0  0
   21.1718   18.5167   25.5871 H   0  0  0  0  0  0  0  0  0  0  0  0
   21.7761   17.1367   24.6758 H   0  0  0  0  0  0  0  0  0  0  0  0
   19.8425   16.8010   25.5685 C   0  0  0  0  0  0  0  0  0  0  0  0
   19.5367   16.0150   24.8727 H   0  0  0  0  0  0  0  0  0  0  0  0
   20.3010   16.3255   26.4397 H   0  0  0  0  0  0  0  0  0  0  0  0
   18.5954   17.5218   26.0419 N   0  3  0  0  0  0  0  0  0  0  0  0
   18.0926   17.9614   25.2648 H   0  0  0  0  0  0  0  0  0  0  0  0
   18.8161   18.2607   26.7175 H   0  0  0  0  0  0  0  0  0  0  0  0
   17.9379   16.8825   26.5016 H   0  0  0  0  0  0  0  0  0  0  0  0
  1  2  1  0  0  0  0
  1  3  1  0  0  0  0
  1  4  1  0  0  0  0
  1  5  1  0  0  0  0
  5  6  1  0  0  0  0
  5  7  1  0  0  0  0
  5  8  1  0  0  0  0
  8  9  1  0  0  0  0
  8 10  1  0  0  0  0
  8 11  1  0  0  0  0
 11 12  1  0  0  0  0
 11 13  1  0  0  0  0
 11 14  1  0  0  0  0
 14 15  1  0  0  0  0
 14 16  1  0  0  0  0
 14 17  1  0  0  0  0
 17 18  1  0  0  0  0
 17 19  1  0  0  0  0
 17 20  1  0  0  0  0
 20 21  1  0  0  0  0
 20 22  1  0  0  0  0
 20 23  1  0  0  0  0
 23 24  1  0  0  0  0
 23 25  1  0  0  0  0
 23 26  1  0  0  0  0
M  END
> <VConfSearch Rank>
696

> <Conf_Id>
18

> <Delta U+W>
0.759

> <U+W>
-4.793

> <U>
48.945

> <W>
-53.738

> <W(PB)>
-56.051

> <W(SA)>
2.313

> <Valence>
2.802

> <Coulomb>
45.335

> <VdW>
0.807

> <VdW6>
-6.962

> <VdW12>
7.769

> <Bond>
0.189

> <Angle>
0.696

> <Pdih>
1.917

> <Idih>
0.000

> <Tether>
0.000

$$$$
VeraChem MOL file


 26 25  0  0  0  0  0  0  0  0999 V2000     
   17.1654   19.7823   20.6125 C   0  0  0  0  0  0  0  0  0  0  0  0
   17.8489   20.1523   19.8371 H   0  0  0  0  0  0  0  0  0  0  0  0
   16.5758   18.9608   20.1850 H   0  0  0  0  0  0  0  0  0  0  0  0
   16.4738   20.5955   20.8682 H   0  0  0  0  0  0  0  0  0  0  0  0
   17.9440   19.3161   21.8611 C   0  0  0  0  0  0  0  0  0  0  0  0
   17.2332   18.9797   22.6287 H   0  0  0  0  0  0  0  0  0  0  0  0
   18.4865   20.1728   22.2822 H   0  0  0  0  0  0  0  0  0  0  0  0
   18.9294   18.1722   21.5240 C   0  0  0  0  0  0  0  0  0  0  0  0
   18.3776   17.3605   21.0299 H   0  0  0  0  0  0  0  0  0  0  0  0
   19.6731   18.5260   20.7966 H   0  0  0  0  0  0  0  0  0  0  0  0
   19.6518   17.5895   22.7636 C   0  0  0  0  0  0  0  0  0  0  0  0
   20.2321   16.7121   22.4460 H   0  0  0  0  0  0  0  0  0  0  0  0
   18.9077   17.2226   23.4840 H   0  0  0  0  0  0  0  0  0  0  0  0
   20.5998   18.5965   23.4584 C   0  0  0  0  0  0  0  0  0  0  0  0
   21.3091   19.0002   22.7226 H   0  0  0  0  0  0  0  0  0  0  0  0
   20.0201   19.4444   23.8436 H   0  0  0  0  0  0  0  0  0  0  0  0
   21.3821   17.9378   24.6193 C   0  0  0  0  0  0  0  0  0  0  0  0
   21.9377   17.0706   24.2382 H   0  0  0  0  0  0  0  0  0  0  0  0
   20.6830   17.5546   25.3745 H   0  0  0  0  0  0  0  0  0  0  0  0
   22.3826   18.9015   25.2861 C   0  0  0  0  0  0  0  0  0  0  0  0
   22.9638   18.3585   26.0365 H   0  0  0  0  0  0  0  0  0  0  0  0
   23.0751   19.2910   24.5350 H   0  0  0  0  0  0  0  0  0  0  0  0
   21.7269   20.0805   25.9781 N   0  3  0  0  0  0  0  0  0  0  0  0
   21.0787   19.7784   26.7126 H   0  0  0  0  0  0  0  0  0  0  0  0
   21.1933   20.6579   25.3210 H   0  0  0  0  0  0  0  0  0  0  0  0
   22.4188   20.6935   26.4229 H   0  0  0  0  0  0  0  0  0  0  0  0
  1  2  1  0  0  0  0
  1  3  1  0  0  0  0
  1  4  1  0  0  0  0
  1  5  1  0  0  0  0
  5  6  1  0  0  0  0
  5  7  1  0  0  0  0
  5  8  1  0  0  0  0
  8  9  1  0  0  0  0
  8 10  1  0  0  0  0
  8 11  1  0  0  0  0
 11 12  1  0  0  0  0
 11 13  1  0  0  0  0
 11 14  1  0  0  0  0
 14 15  1  0  0  0  0
 14 16  1  0  0  0  0
 14 17  1  0  0  0  0
 17 18  1  0  0  0  0
 17 19  1  0  0  0  0
 17 20  1  0  0  0  0
 20 21  1  0  0  0  0
 20 22  1  0  0  0  0
 20 23  1  0  0  0  0
 23 24  1  0  0  0  0
 23 25  1  0  0  0  0
 23 26  1  0  0  0  0
M  END
> <VConfSearch Rank>
697

> <Conf_Id>
17

> <Delta U+W>
0.843

> <U+W>
-4.709

> <U>
48.945

> <W>
-53.653

> <W(PB)>
-55.991

> <W(SA)>
2.338

> <Valence>
2.802

> <Coulomb>
45.335

> <VdW>
0.807

> <VdW6>
-6.962

> <VdW12>
7.769

> <Bond>
0.189

> <Angle>
0.696

> <Pdih>
1.917

> <Idih>
0.000

> <Tether>
0.000

$$$$
VeraChem MOL file


 26 25  0  0  0  0  0  0  0  0999 V2000     
   17.9702   18.1734   26.0763 C   0  0  0  0  0  0  0  0  0  0  0  0
   17.7255   17.7936   25.0767 H   0  0  0  0  0  0  0  0  0  0  0  0
   18.7224   17.5100   26.5224 H   0  0  0  0  0  0  0  0  0  0  0  0
   17.0599   18.1067   26.6861 H   0  0  0  0  0  0  0  0  0  0  0  0
   18.4783   19.6321   26.0212 C   0  0  0  0  0  0  0  0  0  0  0  0
   18.5904   20.0067   27.0483 H   0  0  0  0  0  0  0  0  0  0  0  0
   17.7214   20.2693   25.5427 H   0  0  0  0  0  0  0  0  0  0  0  0
   19.8320   19.7855   25.2867 C   0  0  0  0  0  0  0  0  0  0  0  0
   20.1697   20.8257   25.3928 H   0  0  0  0  0  0  0  0  0  0  0  0
   20.5902   19.1625   25.7810 H   0  0  0  0  0  0  0  0  0  0  0  0
   19.7620   19.4272   23.7827 C   0  0  0  0  0  0  0  0  0  0  0  0
   18.9693   20.0172   23.3026 H   0  0  0  0  0  0  0  0  0  0  0  0
   19.4882   18.3709   23.6694 H   0  0  0  0  0  0  0  0  0  0  0  0
   21.1088   19.6932   23.0680 C   0  0  0  0  0  0  0  0  0  0  0  0
   21.3986   20.7420   23.2212 H   0  0  0  0  0  0  0  0  0  0  0  0
   21.8987   19.0824   23.5268 H   0  0  0  0  0  0  0  0  0  0  0  0
   21.0559   19.4113   21.5480 C   0  0  0  0  0  0  0  0  0  0  0  0
   22.0129   19.7066   21.0975 H   0  0  0  0  0  0  0  0  0  0  0  0
   20.2830   20.0377   21.0831 H   0  0  0  0  0  0  0  0  0  0  0  0
   20.7846   17.9296   21.2262 C   0  0  0  0  0  0  0  0  0  0  0  0
   21.5544   17.3058   21.6885 H   0  0  0  0  0  0  0  0  0  0  0  0
   19.8130   17.6345   21.6307 H   0  0  0  0  0  0  0  0  0  0  0  0
   20.7766   17.6379   19.7395 N   0  3  0  0  0  0  0  0  0  0  0  0
   20.5946   16.6469   19.5466 H   0  0  0  0  0  0  0  0  0  0  0  0
   21.6742   17.8672   19.3003 H   0  0  0  0  0  0  0  0  0  0  0  0
   20.0545   18.1751   19.2485 H   0  0  0  0  0  0  0  0  0  0  0  0
  1  2  1  0  0  0  0
  1  3  1  0  0  0  0
  1  4  1  0  0  0  0
  1  5  1  0  0  0  0
  5  6  1  0  0  0  0
  5  7  1  0  0  0  0
  5  8  1  0  0  0  0
  8  9  1  0  0  0  0
  8 10  1  0  0  0  0
  8 11  1  0  0  0  0
 11 12  1  0  0  0  0
 11 13  1  0  0  0  0
 11 14  1  0  0  0  0
 14 15  1  0  0  0  0
 14 16  1  0  0  0  0
 14 17  1  0  0  0  0
 17 18  1  0  0  0  0
 17 19  1  0  0  0  0
 17 20  1  0  0  0  0
 20 21  1  0  0  0  0
 20 22  1  0  0  0  0
 20 23  1  0  0  0  0
 23 24  1  0  0  0  0
 23 25  1  0  0  0  0
 23 26  1  0  0  0  0
M  END
> <VConfSearch Rank>
698

> <Conf_Id>
96

> <Delta U+W>
0.912

> <U+W>
-4.640

> <U>
48.723

> <W>
-53.364

> <W(PB)>
-55.683

> <W(SA)>
2.320

> <Valence>
2.962

> <Coulomb>
44.993

> <VdW>
0.768

> <VdW6>
-7.008

> <VdW12>
7.776

> <Bond>
0.188

> <Angle>
0.757

> <Pdih>
2.018

> <Idih>
0.000

> <Tether>
0.000

$$$$
VeraChem MOL file


 26 25  0  0  0  0  0  0  0  0999 V2000     
   19.0711   16.5269   25.5336 C   0  0  0  0  0  0  0  0  0  0  0  0
   18.8787   15.5126   25.9066 H   0  0  0  0  0  0  0  0  0  0  0  0
   18.4944   17.2269   26.1520 H   0  0  0  0  0  0  0  0  0  0  0  0
   18.6880   16.5783   24.5069 H   0  0  0  0  0  0  0  0  0  0  0  0
   20.5819   16.8472   25.5930 C   0  0  0  0  0  0  0  0  0  0  0  0
   21.1327   16.1538   24.9422 H   0  0  0  0  0  0  0  0  0  0  0  0
   20.9429   16.6622   26.6144 H   0  0  0  0  0  0  0  0  0  0  0  0
   20.9176   18.3076   25.2052 C   0  0  0  0  0  0  0  0  0  0  0  0
   20.3806   18.9968   25.8715 H   0  0  0  0  0  0  0  0  0  0  0  0
   21.9885   18.4776   25.3829 H   0  0  0  0  0  0  0  0  0  0  0  0
   20.5896   18.6454   23.7309 C   0  0  0  0  0  0  0  0  0  0  0  0
   19.5107   18.5406   23.5616 H   0  0  0  0  0  0  0  0  0  0  0  0
   21.0894   17.9236   23.0703 H   0  0  0  0  0  0  0  0  0  0  0  0
   21.0356   20.0802   23.3599 C   0  0  0  0  0  0  0  0  0  0  0  0
   20.5154   20.8070   23.9993 H   0  0  0  0  0  0  0  0  0  0  0  0
   22.1080   20.1918   23.5718 H   0  0  0  0  0  0  0  0  0  0  0  0
   20.7858   20.4288   21.8737 C   0  0  0  0  0  0  0  0  0  0  0  0
   21.3238   19.7180   21.2324 H   0  0  0  0  0  0  0  0  0  0  0  0
   21.2068   21.4214   21.6651 H   0  0  0  0  0  0  0  0  0  0  0  0
   19.2902   20.4294   21.5054 C   0  0  0  0  0  0  0  0  0  0  0  0
   18.8688   19.4338   21.6659 H   0  0  0  0  0  0  0  0  0  0  0  0
   18.7545   21.1375   22.1434 H   0  0  0  0  0  0  0  0  0  0  0  0
   19.0354   20.8144   20.0624 N   0  3  0  0  0  0  0  0  0  0  0  0
   19.4917   20.1699   19.4086 H   0  0  0  0  0  0  0  0  0  0  0  0
   19.3834   21.7554   19.8509 H   0  0  0  0  0  0  0  0  0  0  0  0
   18.0345   20.8090   19.8376 H   0  0  0  0  0  0  0  0  0  0  0  0
  1  2  1  0  0  0  0
  1  3  1  0  0  0  0
  1  4  1  0  0  0  0
  1  5  1  0  0  0  0
  5  6  1  0  0  0  0
  5  7  1  0  0  0  0
  5  8  1  0  0  0  0
  8  9  1  0  0  0  0
  8 10  1  0  0  0  0
  8 11  1  0  0  0  0
 11 12  1  0  0  0  0
 11 13  1  0  0  0  0
 11 14  1  0  0  0  0
 14 15  1  0  0  0  0
 14 16  1  0  0  0  0
 14 17  1  0  0  0  0
 17 18  1  0  0  0  0
 17 19  1  0  0  0  0
 17 20  1  0  0  0  0
 20 21  1  0  0  0  0
 20 22  1  0  0  0  0
 20 23  1  0  0  0  0
 23 24  1  0  0  0  0
 23 25  1  0  0  0  0
 23 26  1  0  0  0  0
M  END
> <VConfSearch Rank>
699

> <Conf_Id>
133

> <Delta U+W>
0.844

> <U+W>
-4.708

> <U>
48.723

> <W>
-53.431

> <W(PB)>
-55.776

> <W(SA)>
2.344

> <Valence>
2.962

> <Coulomb>
44.993

> <VdW>
0.768

> <VdW6>
-7.008

> <VdW12>
7.776

> <Bond>
0.188

> <Angle>
0.756

> <Pdih>
2.018

> <Idih>
0.000

> <Tether>
0.000

$$$$
VeraChem MOL file


 26 25  0  0  0  0  0  0  0  0999 V2000     
   19.0080   15.7266   23.9000 C   0  0  0  0  0  0  0  0  0  0  0  0
   18.0772   15.5617   24.4580 H   0  0  0  0  0  0  0  0  0  0  0  0
   18.7803   16.3514   23.0274 H   0  0  0  0  0  0  0  0  0  0  0  0
   19.3542   14.7535   23.5284 H   0  0  0  0  0  0  0  0  0  0  0  0
   20.0849   16.3780   24.7968 C   0  0  0  0  0  0  0  0  0  0  0  0
   20.9985   16.5514   24.2126 H   0  0  0  0  0  0  0  0  0  0  0  0
   20.3645   15.6670   25.5867 H   0  0  0  0  0  0  0  0  0  0  0  0
   19.6167   17.6965   25.4639 C   0  0  0  0  0  0  0  0  0  0  0  0
   18.7786   17.4743   26.1387 H   0  0  0  0  0  0  0  0  0  0  0  0
   20.4252   18.0755   26.1041 H   0  0  0  0  0  0  0  0  0  0  0  0
   19.1822   18.8174   24.4845 C   0  0  0  0  0  0  0  0  0  0  0  0
   18.8571   19.6847   25.0754 H   0  0  0  0  0  0  0  0  0  0  0  0
   18.3016   18.4947   23.9133 H   0  0  0  0  0  0  0  0  0  0  0  0
   20.3032   19.2603   23.5140 C   0  0  0  0  0  0  0  0  0  0  0  0
   21.1975   19.5395   24.0883 H   0  0  0  0  0  0  0  0  0  0  0  0
   20.5888   18.4220   22.8648 H   0  0  0  0  0  0  0  0  0  0  0  0
   19.8632   20.4512   22.6344 C   0  0  0  0  0  0  0  0  0  0  0  0
   19.5855   21.3006   23.2728 H   0  0  0  0  0  0  0  0  0  0  0  0
   18.9700   20.1749   22.0583 H   0  0  0  0  0  0  0  0  0  0  0  0
   20.9818   20.8816   21.6692 C   0  0  0  0  0  0  0  0  0  0  0  0
   21.8681   21.1729   22.2393 H   0  0  0  0  0  0  0  0  0  0  0  0
   21.2503   20.0439   21.0199 H   0  0  0  0  0  0  0  0  0  0  0  0
   20.5882   22.0491   20.7875 N   0  3  0  0  0  0  0  0  0  0  0  0
   21.3472   22.3197   20.1525 H   0  0  0  0  0  0  0  0  0  0  0  0
   20.3494   22.8804   21.3381 H   0  0  0  0  0  0  0  0  0  0  0  0
   19.7745   21.8299   20.2035 H   0  0  0  0  0  0  0  0  0  0  0  0
  1  2  1  0  0  0  0
  1  3  1  0  0  0  0
  1  4  1  0  0  0  0
  1  5  1  0  0  0  0
  5  6  1  0  0  0  0
  5  7  1  0  0  0  0
  5  8  1  0  0  0  0
  8  9  1  0  0  0  0
  8 10  1  0  0  0  0
  8 11  1  0  0  0  0
 11 12  1  0  0  0  0
 11 13  1  0  0  0  0
 11 14  1  0  0  0  0
 14 15  1  0  0  0  0
 14 16  1  0  0  0  0
 14 17  1  0  0  0  0
 17 18  1  0  0  0  0
 17 19  1  0  0  0  0
 17 20  1  0  0  0  0
 20 21  1  0  0  0  0
 20 22  1  0  0  0  0
 20 23  1  0  0  0  0
 23 24  1  0  0  0  0
 23 25  1  0  0  0  0
 23 26  1  0  0  0  0
M  END
> <VConfSearch Rank>
700

> <Conf_Id>
106

> <Delta U+W>
0.767

> <U+W>
-4.785

> <U>
48.494

> <W>
-53.279

> <W(PB)>
-55.569

> <W(SA)>
2.290

> <Valence>
3.117

> <Coulomb>
44.693

> <VdW>
0.684

> <VdW6>
-7.347

> <VdW12>
8.030

> <Bond>
0.208

> <Angle>
1.039

> <Pdih>
1.870

> <Idih>
0.000

> <Tether>
0.000

$$$$
VeraChem MOL file


 26 25  0  0  0  0  0  0  0  0999 V2000     
   21.9388   22.9752   23.5798 C   0  0  0  0  0  0  0  0  0  0  0  0
   21.9959   22.9818   24.6761 H   0  0  0  0  0  0  0  0  0  0  0  0
   22.9119   22.6507   23.1886 H   0  0  0  0  0  0  0  0  0  0  0  0
   21.7681   24.0067   23.2451 H   0  0  0  0  0  0  0  0  0  0  0  0
   20.8065   22.0485   23.0888 C   0  0  0  0  0  0  0  0  0  0  0  0
   20.7521   22.0890   21.9919 H   0  0  0  0  0  0  0  0  0  0  0  0
   19.8431   22.4176   23.4678 H   0  0  0  0  0  0  0  0  0  0  0  0
   21.0225   20.5891   23.5468 C   0  0  0  0  0  0  0  0  0  0  0  0
   21.9876   20.2254   23.1677 H   0  0  0  0  0  0  0  0  0  0  0  0
   21.0784   20.5540   24.6437 H   0  0  0  0  0  0  0  0  0  0  0  0
   19.8906   19.6578   23.0569 C   0  0  0  0  0  0  0  0  0  0  0  0
   19.8352   19.6937   21.9601 H   0  0  0  0  0  0  0  0  0  0  0  0
   18.9259   20.0225   23.4361 H   0  0  0  0  0  0  0  0  0  0  0  0
   20.1072   18.1979   23.5156 C   0  0  0  0  0  0  0  0  0  0  0  0
   21.0719   17.8328   23.1366 H   0  0  0  0  0  0  0  0  0  0  0  0
   20.1625   18.1616   24.6126 H   0  0  0  0  0  0  0  0  0  0  0  0
   18.9763   17.2666   23.0263 C   0  0  0  0  0  0  0  0  0  0  0  0
   18.9213   17.2959   21.9298 H   0  0  0  0  0  0  0  0  0  0  0  0
   18.0107   17.6253   23.4073 H   0  0  0  0  0  0  0  0  0  0  0  0
   19.2017   15.8162   23.4885 C   0  0  0  0  0  0  0  0  0  0  0  0
   20.1546   15.4491   23.0976 H   0  0  0  0  0  0  0  0  0  0  0  0
   19.2409   15.7797   24.5806 H   0  0  0  0  0  0  0  0  0  0  0  0
   18.1117   14.8702   23.0278 N   0  3  0  0  0  0  0  0  0  0  0  0
   18.2811   13.9098   23.3463 H   0  0  0  0  0  0  0  0  0  0  0  0
   18.0410   14.8373   22.0054 H   0  0  0  0  0  0  0  0  0  0  0  0
   17.1908   15.1449   23.3853 H   0  0  0  0  0  0  0  0  0  0  0  0
  1  2  1  0  0  0  0
  1  3  1  0  0  0  0
  1  4  1  0  0  0  0
  1  5  1  0  0  0  0
  5  6  1  0  0  0  0
  5  7  1  0  0  0  0
  5  8  1  0  0  0  0
  8  9  1  0  0  0  0
  8 10  1  0  0  0  0
  8 11  1  0  0  0  0
 11 12  1  0  0  0  0
 11 13  1  0  0  0  0
 11 14  1  0  0  0  0
 14 15  1  0  0  0  0
 14 16  1  0  0  0  0
 14 17  1  0  0  0  0
 17 18  1  0  0  0  0
 17 19  1  0  0  0  0
 17 20  1  0  0  0  0
 20 21  1  0  0  0  0
 20 22  1  0  0  0  0
 20 23  1  0  0  0  0
 23 24  1  0  0  0  0
 23 25  1  0  0  0  0
 23 26  1  0  0  0  0
M  END
> <VConfSearch Rank>
701

> <Conf_Id>
25

> <Delta U+W>
0.000

> <U+W>
-5.552

> <U>
47.192

> <W>
-52.745

> <W(PB)>
-55.134

> <W(SA)>
2.389

> <Valence>
2.156

> <Coulomb>
44.449

> <VdW>
0.587

> <VdW6>
-5.761

> <VdW12>
6.348

> <Bond>
0.129

> <Angle>
0.393

> <Pdih>
1.634

> <Idih>
0.000

> <Tether>
0.000

$$$$
VeraChem MOL file


 26 25  0  0  0  0  0  0  0  0999 V2000     
   16.7451   16.1768   23.1737 C   0  0  0  0  0  0  0  0  0  0  0  0
   15.9656   16.9296   23.3495 H   0  0  0  0  0  0  0  0  0  0  0  0
   16.8513   16.0412   22.0895 H   0  0  0  0  0  0  0  0  0  0  0  0
   16.3980   15.2265   23.5997 H   0  0  0  0  0  0  0  0  0  0  0  0
   18.0833   16.6041   23.8131 C   0  0  0  0  0  0  0  0  0  0  0  0
   18.8329   15.8170   23.6501 H   0  0  0  0  0  0  0  0  0  0  0  0
   17.9541   16.6985   24.9004 H   0  0  0  0  0  0  0  0  0  0  0  0
   18.5948   17.9402   23.2306 C   0  0  0  0  0  0  0  0  0  0  0  0
   18.7201   17.8416   22.1434 H   0  0  0  0  0  0  0  0  0  0  0  0
   17.8414   18.7232   23.3940 H   0  0  0  0  0  0  0  0  0  0  0  0
   19.9349   18.3714   23.8685 C   0  0  0  0  0  0  0  0  0  0  0  0
   20.6879   17.5880   23.7046 H   0  0  0  0  0  0  0  0  0  0  0  0
   19.8086   18.4686   24.9557 H   0  0  0  0  0  0  0  0  0  0  0  0
   20.4461   19.7085   23.2860 C   0  0  0  0  0  0  0  0  0  0  0  0
   20.5656   19.6071   22.1990 H   0  0  0  0  0  0  0  0  0  0  0  0
   19.6942   20.4925   23.4525 H   0  0  0  0  0  0  0  0  0  0  0  0
   21.7879   20.1377   23.9251 C   0  0  0  0  0  0  0  0  0  0  0  0
   22.5554   19.3750   23.7376 H   0  0  0  0  0  0  0  0  0  0  0  0
   21.6681   20.2003   25.0149 H   0  0  0  0  0  0  0  0  0  0  0  0
   22.2830   21.5030   23.4101 C   0  0  0  0  0  0  0  0  0  0  0  0
   21.5183   22.2636   23.5899 H   0  0  0  0  0  0  0  0  0  0  0  0
   23.1854   21.7911   23.9562 H   0  0  0  0  0  0  0  0  0  0  0  0
   22.6179   21.5128   21.9314 N   0  3  0  0  0  0  0  0  0  0  0  0
   21.8014   21.2856   21.3556 H   0  0  0  0  0  0  0  0  0  0  0  0
   23.3496   20.8322   21.7022 H   0  0  0  0  0  0  0  0  0  0  0  0
   22.9561   22.4311   21.6238 H   0  0  0  0  0  0  0  0  0  0  0  0
  1  2  1  0  0  0  0
  1  3  1  0  0  0  0
  1  4  1  0  0  0  0
  1  5  1  0  0  0  0
  5  6  1  0  0  0  0
  5  7  1  0  0  0  0
  5  8  1  0  0  0  0
  8  9  1  0  0  0  0
  8 10  1  0  0  0  0
  8 11  1  0  0  0  0
 11 12  1  0  0  0  0
 11 13  1  0  0  0  0
 11 14  1  0  0  0  0
 14 15  1  0  0  0  0
 14 16  1  0  0  0  0
 14 17  1  0  0  0  0
 17 18  1  0  0  0  0
 17 19  1  0  0  0  0
 17 20  1  0  0  0  0
 20 21  1  0  0  0  0
 20 22  1  0  0  0  0
 20 23  1  0  0  0  0
 23 24  1  0  0  0  0
 23 25  1  0  0  0  0
 23 26  1  0  0  0  0
M  END
> <VConfSearch Rank>
702

> <Conf_Id>
20

> <Delta U+W>
0.150

> <U+W>
-5.403

> <U>
47.845

> <W>
-53.248

> <W(PB)>
-55.599

> <W(SA)>
2.351

> <Valence>
2.258

> <Coulomb>
44.893

> <VdW>
0.694

> <VdW6>
-6.285

> <VdW12>
6.979

> <Bond>
0.149

> <Angle>
0.434

> <Pdih>
1.675

> <Idih>
0.000

> <Tether>
0.000

$$$$
VeraChem MOL file


 26 25  0  0  0  0  0  0  0  0999 V2000     
   21.5508   15.1926   24.7429 C   0  0  0  0  0  0  0  0  0  0  0  0
   20.5442   14.7701   24.8597 H   0  0  0  0  0  0  0  0  0  0  0  0
   21.9488   14.8650   23.7736 H   0  0  0  0  0  0  0  0  0  0  0  0
   22.1878   14.7679   25.5296 H   0  0  0  0  0  0  0  0  0  0  0  0
   21.5205   16.7327   24.8383 C   0  0  0  0  0  0  0  0  0  0  0  0
   22.5442   17.1235   24.7522 H   0  0  0  0  0  0  0  0  0  0  0  0
   21.1504   17.0293   25.8298 H   0  0  0  0  0  0  0  0  0  0  0  0
   20.6300   17.3566   23.7411 C   0  0  0  0  0  0  0  0  0  0  0  0
   21.0025   17.0555   22.7521 H   0  0  0  0  0  0  0  0  0  0  0  0
   19.6086   16.9612   23.8298 H   0  0  0  0  0  0  0  0  0  0  0  0
   20.5972   18.8989   23.8335 C   0  0  0  0  0  0  0  0  0  0  0  0
   21.6192   19.2930   23.7458 H   0  0  0  0  0  0  0  0  0  0  0  0
   20.2243   19.1992   24.8226 H   0  0  0  0  0  0  0  0  0  0  0  0
   19.7068   19.5228   22.7351 C   0  0  0  0  0  0  0  0  0  0  0  0
   20.0815   19.2248   21.7459 H   0  0  0  0  0  0  0  0  0  0  0  0
   18.6883   19.1218   22.8243 H   0  0  0  0  0  0  0  0  0  0  0  0
   19.6745   21.0666   22.8299 C   0  0  0  0  0  0  0  0  0  0  0  0
   20.7001   21.4556   22.7772 H   0  0  0  0  0  0  0  0  0  0  0  0
   19.2718   21.3757   23.8037 H   0  0  0  0  0  0  0  0  0  0  0  0
   18.8486   21.7153   21.7024 C   0  0  0  0  0  0  0  0  0  0  0  0
   18.9318   22.8033   21.7719 H   0  0  0  0  0  0  0  0  0  0  0  0
   19.2435   21.4046   20.7313 H   0  0  0  0  0  0  0  0  0  0  0  0
   17.3745   21.3634   21.7454 N   0  3  0  0  0  0  0  0  0  0  0  0
   16.9398   21.6519   22.6279 H   0  0  0  0  0  0  0  0  0  0  0  0
   17.2218   20.3549   21.6475 H   0  0  0  0  0  0  0  0  0  0  0  0
   16.8518   21.8208   20.9905 H   0  0  0  0  0  0  0  0  0  0  0  0
  1  2  1  0  0  0  0
  1  3  1  0  0  0  0
  1  4  1  0  0  0  0
  1  5  1  0  0  0  0
  5  6  1  0  0  0  0
  5  7  1  0  0  0  0
  5  8  1  0  0  0  0
  8  9  1  0  0  0  0
  8 10  1  0  0  0  0
  8 11  1  0  0  0  0
 11 12  1  0  0  0  0
 11 13  1  0  0  0  0
 11 14  1  0  0  0  0
 14 15  1  0  0  0  0
 14 16  1  0  0  0  0
 14 17  1  0  0  0  0
 17 18  1  0  0  0  0
 17 19  1  0  0  0  0
 17 20  1  0  0  0  0
 20 21  1  0  0  0  0
 20 22  1  0  0  0  0
 20 23  1  0  0  0  0
 23 24  1  0  0  0  0
 23 25  1  0  0  0  0
 23 26  1  0  0  0  0
M  END
> <VConfSearch Rank>
703

> <Conf_Id>
19

> <Delta U+W>
0.162

> <U+W>
-5.391

> <U>
47.845

> <W>
-53.235

> <W(PB)>
-55.585

> <W(SA)>
2.349

> <Valence>
2.258

> <Coulomb>
44.893

> <VdW>
0.694

> <VdW6>
-6.285

> <VdW12>
6.979

> <Bond>
0.149

> <Angle>
0.434

> <Pdih>
1.675

> <Idih>
0.000

> <Tether>
0.000

$$$$
VeraChem MOL file


 26 25  0  0  0  0  0  0  0  0999 V2000     
   22.8438   19.6333   26.3327 C   0  0  0  0  0  0  0  0  0  0  0  0
   22.4451   20.0792   27.2533 H   0  0  0  0  0  0  0  0  0  0  0  0
   23.0629   18.5762   26.5318 H   0  0  0  0  0  0  0  0  0  0  0  0
   23.7913   20.1356   26.0983 H   0  0  0  0  0  0  0  0  0  0  0  0
   21.8448   19.7822   25.1656 C   0  0  0  0  0  0  0  0  0  0  0  0
   22.2950   19.3626   24.2562 H   0  0  0  0  0  0  0  0  0  0  0  0
   21.6684   20.8493   24.9712 H   0  0  0  0  0  0  0  0  0  0  0  0
   20.5018   19.0778   25.4715 C   0  0  0  0  0  0  0  0  0  0  0  0
   20.6719   18.0016   25.6136 H   0  0  0  0  0  0  0  0  0  0  0  0
   20.1100   19.4562   26.4257 H   0  0  0  0  0  0  0  0  0  0  0  0
   19.4253   19.2936   24.3795 C   0  0  0  0  0  0  0  0  0  0  0  0
   19.2448   20.3696   24.2490 H   0  0  0  0  0  0  0  0  0  0  0  0
   18.4789   18.8633   24.7353 H   0  0  0  0  0  0  0  0  0  0  0  0
   19.7884   18.6551   23.0172 C   0  0  0  0  0  0  0  0  0  0  0  0
   20.6916   19.1280   22.6094 H   0  0  0  0  0  0  0  0  0  0  0  0
   20.0215   17.5908   23.1604 H   0  0  0  0  0  0  0  0  0  0  0  0
   18.6405   18.7968   21.9934 C   0  0  0  0  0  0  0  0  0  0  0  0
   18.4052   19.8595   21.8466 H   0  0  0  0  0  0  0  0  0  0  0  0
   17.7336   18.3168   22.3849 H   0  0  0  0  0  0  0  0  0  0  0  0
   19.0108   18.1631   20.6409 C   0  0  0  0  0  0  0  0  0  0  0  0
   19.9039   18.6492   20.2388 H   0  0  0  0  0  0  0  0  0  0  0  0
   19.2301   17.1010   20.7797 H   0  0  0  0  0  0  0  0  0  0  0  0
   17.9086   18.2820   19.6082 N   0  3  0  0  0  0  0  0  0  0  0  0
   17.6732   19.2603   19.4113 H   0  0  0  0  0  0  0  0  0  0  0  0
   17.0463   17.8198   19.9147 H   0  0  0  0  0  0  0  0  0  0  0  0
   18.1756   17.8537   18.7150 H   0  0  0  0  0  0  0  0  0  0  0  0
  1  2  1  0  0  0  0
  1  3  1  0  0  0  0
  1  4  1  0  0  0  0
  1  5  1  0  0  0  0
  5  6  1  0  0  0  0
  5  7  1  0  0  0  0
  5  8  1  0  0  0  0
  8  9  1  0  0  0  0
  8 10  1  0  0  0  0
  8 11  1  0  0  0  0
 11 12  1  0  0  0  0
 11 13  1  0  0  0  0
 11 14  1  0  0  0  0
 14 15  1  0  0  0  0
 14 16  1  0  0  0  0
 14 17  1  0  0  0  0
 17 18  1  0  0  0  0
 17 19  1  0  0  0  0
 17 20  1  0  0  0  0
 20 21  1  0  0  0  0
 20 22  1  0  0  0  0
 20 23  1  0  0  0  0
 23 24  1  0  0  0  0
 23 25  1  0  0  0  0
 23 26  1  0  0  0  0
M  END
> <VConfSearch Rank>
704

> <Conf_Id>
37

> <Delta U+W>
0.565

> <U+W>
-4.988

> <U>
48.035

> <W>
-53.022

> <W(PB)>
-55.379

> <W(SA)>
2.357

> <Valence>
2.701

> <Coulomb>
44.622

> <VdW>
0.712

> <VdW6>
-6.418

> <VdW12>
7.129

> <Bond>
0.168

> <Angle>
0.659

> <Pdih>
1.875

> <Idih>
0.000

> <Tether>
0.000

$$$$
VeraChem MOL file


 26 25  0  0  0  0  0  0  0  0999 V2000     
   19.9404   15.1805   21.6899 C   0  0  0  0  0  0  0  0  0  0  0  0
   20.7448   15.6144   21.0817 H   0  0  0  0  0  0  0  0  0  0  0  0
   20.3948   14.7033   22.5679 H   0  0  0  0  0  0  0  0  0  0  0  0
   19.4533   14.3971   21.0948 H   0  0  0  0  0  0  0  0  0  0  0  0
   18.9195   16.2589   22.1108 C   0  0  0  0  0  0  0  0  0  0  0  0
   18.1102   15.7889   22.6871 H   0  0  0  0  0  0  0  0  0  0  0  0
   18.4581   16.6944   21.2134 H   0  0  0  0  0  0  0  0  0  0  0  0
   19.5794   17.3745   22.9513 C   0  0  0  0  0  0  0  0  0  0  0  0
   20.0372   16.9346   23.8480 H   0  0  0  0  0  0  0  0  0  0  0  0
   20.3910   17.8288   22.3681 H   0  0  0  0  0  0  0  0  0  0  0  0
   18.5572   18.4585   23.3704 C   0  0  0  0  0  0  0  0  0  0  0  0
   17.7148   17.9754   23.8846 H   0  0  0  0  0  0  0  0  0  0  0  0
   18.1377   18.9383   22.4754 H   0  0  0  0  0  0  0  0  0  0  0  0
   19.1492   19.5387   24.3088 C   0  0  0  0  0  0  0  0  0  0  0  0
   18.3328   20.1929   24.6454 H   0  0  0  0  0  0  0  0  0  0  0  0
   19.5532   19.0607   25.2121 H   0  0  0  0  0  0  0  0  0  0  0  0
   20.2442   20.4050   23.6431 C   0  0  0  0  0  0  0  0  0  0  0  0
   19.8558   20.8420   22.7135 H   0  0  0  0  0  0  0  0  0  0  0  0
   21.1069   19.7830   23.3735 H   0  0  0  0  0  0  0  0  0  0  0  0
   20.7131   21.5318   24.5804 C   0  0  0  0  0  0  0  0  0  0  0  0
   19.8649   22.1704   24.8416 H   0  0  0  0  0  0  0  0  0  0  0  0
   21.1158   21.1010   25.5011 H   0  0  0  0  0  0  0  0  0  0  0  0
   21.7858   22.4077   23.9657 N   0  3  0  0  0  0  0  0  0  0  0  0
   21.4603   22.8653   23.1079 H   0  0  0  0  0  0  0  0  0  0  0  0
   22.6246   21.8709   23.7221 H   0  0  0  0  0  0  0  0  0  0  0  0
   22.0832   23.1517   24.6064 H   0  0  0  0  0  0  0  0  0  0  0  0
  1  2  1  0  0  0  0
  1  3  1  0  0  0  0
  1  4  1  0  0  0  0
  1  5  1  0  0  0  0
  5  6  1  0  0  0  0
  5  7  1  0  0  0  0
  5  8  1  0  0  0  0
  8  9  1  0  0  0  0
  8 10  1  0  0  0  0
  8 11  1  0  0  0  0
 11 12  1  0  0  0  0
 11 13  1  0  0  0  0
 11 14  1  0  0  0  0
 14 15  1  0  0  0  0
 14 16  1  0  0  0  0
 14 17  1  0  0  0  0
 17 18  1  0  0  0  0
 17 19  1  0  0  0  0
 17 20  1  0  0  0  0
 20 21  1  0  0  0  0
 20 22  1  0  0  0  0
 20 23  1  0  0  0  0
 23 24  1  0  0  0  0
 23 25  1  0  0  0  0
 23 26  1  0  0  0  0
M  END
> <VConfSearch Rank>
705

> <Conf_Id>
35

> <Delta U+W>
0.587

> <U+W>
-4.965

> <U>
48.214

> <W>
-53.179

> <W(PB)>
-55.527

> <W(SA)>
2.348

> <Valence>
2.697

> <Coulomb>
44.819

> <VdW>
0.699

> <VdW6>
-6.437

> <VdW12>
7.136

> <Bond>
0.168

> <Angle>
0.657

> <Pdih>
1.872

> <Idih>
0.000

> <Tether>
0.000

$$$$
VeraChem MOL file


 26 25  0  0  0  0  0  0  0  0999 V2000     
   19.7860   22.9977   23.5527 C   0  0  0  0  0  0  0  0  0  0  0  0
   20.8544   23.1766   23.3746 H   0  0  0  0  0  0  0  0  0  0  0  0
   19.2943   22.8677   22.5798 H   0  0  0  0  0  0  0  0  0  0  0  0
   19.3678   23.8966   24.0240 H   0  0  0  0  0  0  0  0  0  0  0  0
   19.5729   21.7615   24.4519 C   0  0  0  0  0  0  0  0  0  0  0  0
   18.4982   21.6278   24.6393 H   0  0  0  0  0  0  0  0  0  0  0  0
   20.0457   21.9359   25.4286 H   0  0  0  0  0  0  0  0  0  0  0  0
   20.1536   20.4812   23.8116 C   0  0  0  0  0  0  0  0  0  0  0  0
   19.6800   20.3241   22.8338 H   0  0  0  0  0  0  0  0  0  0  0  0
   21.2281   20.6191   23.6282 H   0  0  0  0  0  0  0  0  0  0  0  0
   19.9368   19.2403   24.7109 C   0  0  0  0  0  0  0  0  0  0  0  0
   18.8607   19.0678   24.8514 H   0  0  0  0  0  0  0  0  0  0  0  0
   20.3488   19.4457   25.7086 H   0  0  0  0  0  0  0  0  0  0  0  0
   20.6011   17.9536   24.1621 C   0  0  0  0  0  0  0  0  0  0  0  0
   21.6801   18.1203   24.0379 H   0  0  0  0  0  0  0  0  0  0  0  0
   20.4967   17.1597   24.9147 H   0  0  0  0  0  0  0  0  0  0  0  0
   19.9922   17.4628   22.8276 C   0  0  0  0  0  0  0  0  0  0  0  0
   20.1592   18.2073   22.0391 H   0  0  0  0  0  0  0  0  0  0  0  0
   18.9060   17.3447   22.9378 H   0  0  0  0  0  0  0  0  0  0  0  0
   20.6100   16.1231   22.3897 C   0  0  0  0  0  0  0  0  0  0  0  0
   21.6897   16.2397   22.2628 H   0  0  0  0  0  0  0  0  0  0  0  0
   20.4337   15.3672   23.1598 H   0  0  0  0  0  0  0  0  0  0  0  0
   20.0391   15.6039   21.0858 N   0  3  0  0  0  0  0  0  0  0  0  0
   20.1968   16.2579   20.3121 H   0  0  0  0  0  0  0  0  0  0  0  0
   19.0278   15.4468   21.1471 H   0  0  0  0  0  0  0  0  0  0  0  0
   20.4639   14.7108   20.8130 H   0  0  0  0  0  0  0  0  0  0  0  0
  1  2  1  0  0  0  0
  1  3  1  0  0  0  0
  1  4  1  0  0  0  0
  1  5  1  0  0  0  0
  5  6  1  0  0  0  0
  5  7  1  0  0  0  0
  5  8  1  0  0  0  0
  8  9  1  0  0  0  0
  8 10  1  0  0  0  0
  8 11  1  0  0  0  0
 11 12  1  0  0  0  0
 11 13  1  0  0  0  0
 11 14  1  0  0  0  0
 14 15  1  0  0  0  0
 14 16  1  0  0  0  0
 14 17  1  0  0  0  0
 17 18  1  0  0  0  0
 17 19  1  0  0  0  0
 17 20  1  0  0  0  0
 20 21  1  0  0  0  0
 20 22  1  0  0  0  0
 20 23  1  0  0  0  0
 23 24  1  0  0  0  0
 23 25  1  0  0  0  0
 23 26  1  0  0  0  0
M  END
> <VConfSearch Rank>
706

> <Conf_Id>
36

> <Delta U+W>
0.565

> <U+W>
-4.987

> <U>
48.214

> <W>
-53.201

> <W(PB)>
-55.543

> <W(SA)>
2.342

> <Valence>
2.697

> <Coulomb>
44.819

> <VdW>
0.698

> <VdW6>
-6.437

> <VdW12>
7.136

> <Bond>
0.168

> <Angle>
0.657

> <Pdih>
1.872

> <Idih>
0.000

> <Tether>
0.000

$$$$
VeraChem MOL file


 26 25  0  0  0  0  0  0  0  0999 V2000     
   18.7706   14.7687   23.3880 C   0  0  0  0  0  0  0  0  0  0  0  0
   19.6130   14.2895   23.9038 H   0  0  0  0  0  0  0  0  0  0  0  0
   17.8483   14.2715   23.7153 H   0  0  0  0  0  0  0  0  0  0  0  0
   18.8843   14.5923   22.3104 H   0  0  0  0  0  0  0  0  0  0  0  0
   18.7157   16.2792   23.7002 C   0  0  0  0  0  0  0  0  0  0  0  0
   18.5677   16.4232   24.7796 H   0  0  0  0  0  0  0  0  0  0  0  0
   17.8446   16.7236   23.1986 H   0  0  0  0  0  0  0  0  0  0  0  0
   20.0033   17.0037   23.2490 C   0  0  0  0  0  0  0  0  0  0  0  0
   20.8712   16.5540   23.7509 H   0  0  0  0  0  0  0  0  0  0  0  0
   20.1481   16.8554   22.1699 H   0  0  0  0  0  0  0  0  0  0  0  0
   19.9524   18.5167   23.5602 C   0  0  0  0  0  0  0  0  0  0  0  0
   19.8102   18.6636   24.6398 H   0  0  0  0  0  0  0  0  0  0  0  0
   19.0795   18.9580   23.0608 H   0  0  0  0  0  0  0  0  0  0  0  0
   21.2430   19.2399   23.1059 C   0  0  0  0  0  0  0  0  0  0  0  0
   22.1117   18.7571   23.5748 H   0  0  0  0  0  0  0  0  0  0  0  0
   21.3711   19.1233   22.0208 H   0  0  0  0  0  0  0  0  0  0  0  0
   21.2561   20.7436   23.4681 C   0  0  0  0  0  0  0  0  0  0  0  0
   22.2321   21.1671   23.1962 H   0  0  0  0  0  0  0  0  0  0  0  0
   21.1536   20.8624   24.5551 H   0  0  0  0  0  0  0  0  0  0  0  0
   20.1465   21.5376   22.7535 C   0  0  0  0  0  0  0  0  0  0  0  0
   20.2490   21.4204   21.6713 H   0  0  0  0  0  0  0  0  0  0  0  0
   19.1669   21.1543   23.0504 H   0  0  0  0  0  0  0  0  0  0  0  0
   20.1807   23.0191   23.0688 N   0  3  0  0  0  0  0  0  0  0  0  0
   19.4346   23.5293   22.5836 H   0  0  0  0  0  0  0  0  0  0  0  0
   21.0678   23.4492   22.7876 H   0  0  0  0  0  0  0  0  0  0  0  0
   20.0624   23.1992   24.0712 H   0  0  0  0  0  0  0  0  0  0  0  0
  1  2  1  0  0  0  0
  1  3  1  0  0  0  0
  1  4  1  0  0  0  0
  1  5  1  0  0  0  0
  5  6  1  0  0  0  0
  5  7  1  0  0  0  0
  5  8  1  0  0  0  0
  8  9  1  0  0  0  0
  8 10  1  0  0  0  0
  8 11  1  0  0  0  0
 11 12  1  0  0  0  0
 11 13  1  0  0  0  0
 11 14  1  0  0  0  0
 14 15  1  0  0  0  0
 14 16  1  0  0  0  0
 14 17  1  0  0  0  0
 17 18  1  0  0  0  0
 17 19  1  0  0  0  0
 17 20  1  0  0  0  0
 20 21  1  0  0  0  0
 20 22  1  0  0  0  0
 20 23  1  0  0  0  0
 23 24  1  0  0  0  0
 23 25  1  0  0  0  0
 23 26  1  0  0  0  0
M  END
> <VConfSearch Rank>
707

> <Conf_Id>
44

> <Delta U+W>
0.371

> <U+W>
-5.181

> <U>
48.002

> <W>
-53.183

> <W(PB)>
-55.533

> <W(SA)>
2.350

> <Valence>
2.459

> <Coulomb>
44.901

> <VdW>
0.643

> <VdW6>
-6.362

> <VdW12>
7.005

> <Bond>
0.151

> <Angle>
0.519

> <Pdih>
1.789

> <Idih>
0.000

> <Tether>
0.000

$$$$
VeraChem MOL file


 26 25  0  0  0  0  0  0  0  0999 V2000     
   18.1059   17.6880   26.5045 C   0  0  0  0  0  0  0  0  0  0  0  0
   17.5904   16.8745   25.9776 H   0  0  0  0  0  0  0  0  0  0  0  0
   17.9745   17.5257   27.5822 H   0  0  0  0  0  0  0  0  0  0  0  0
   17.6083   18.6321   26.2514 H   0  0  0  0  0  0  0  0  0  0  0  0
   19.6082   17.7209   26.1425 C   0  0  0  0  0  0  0  0  0  0  0  0
   20.0841   16.8099   26.5316 H   0  0  0  0  0  0  0  0  0  0  0  0
   20.0941   18.5635   26.6540 H   0  0  0  0  0  0  0  0  0  0  0  0
   19.8760   17.8073   24.6202 C   0  0  0  0  0  0  0  0  0  0  0  0
   20.9546   17.6855   24.4596 H   0  0  0  0  0  0  0  0  0  0  0  0
   19.3895   16.9622   24.1141 H   0  0  0  0  0  0  0  0  0  0  0  0
   19.4032   19.1402   23.9855 C   0  0  0  0  0  0  0  0  0  0  0  0
   19.8926   19.9854   24.4887 H   0  0  0  0  0  0  0  0  0  0  0  0
   18.3257   19.2617   24.1554 H   0  0  0  0  0  0  0  0  0  0  0  0
   19.6574   19.2264   22.4601 C   0  0  0  0  0  0  0  0  0  0  0  0
   19.1800   18.3731   21.9587 H   0  0  0  0  0  0  0  0  0  0  0  0
   19.1548   20.1264   22.0821 H   0  0  0  0  0  0  0  0  0  0  0  0
   21.1592   19.2818   22.0820 C   0  0  0  0  0  0  0  0  0  0  0  0
   21.6615   18.3649   22.4137 H   0  0  0  0  0  0  0  0  0  0  0  0
   21.6486   20.1152   22.6032 H   0  0  0  0  0  0  0  0  0  0  0  0
   21.3845   19.4221   20.5640 C   0  0  0  0  0  0  0  0  0  0  0  0
   22.4546   19.3564   20.3494 H   0  0  0  0  0  0  0  0  0  0  0  0
   20.8812   18.6051   20.0399 H   0  0  0  0  0  0  0  0  0  0  0  0
   20.8816   20.7317   19.9885 N   0  3  0  0  0  0  0  0  0  0  0  0
   19.8717   20.8424   20.1215 H   0  0  0  0  0  0  0  0  0  0  0  0
   21.0606   20.7982   18.9806 H   0  0  0  0  0  0  0  0  0  0  0  0
   21.3356   21.5395   20.4270 H   0  0  0  0  0  0  0  0  0  0  0  0
  1  2  1  0  0  0  0
  1  3  1  0  0  0  0
  1  4  1  0  0  0  0
  1  5  1  0  0  0  0
  5  6  1  0  0  0  0
  5  7  1  0  0  0  0
  5  8  1  0  0  0  0
  8  9  1  0  0  0  0
  8 10  1  0  0  0  0
  8 11  1  0  0  0  0
 11 12  1  0  0  0  0
 11 13  1  0  0  0  0
 11 14  1  0  0  0  0
 14 15  1  0  0  0  0
 14 16  1  0  0  0  0
 14 17  1  0  0  0  0
 17 18  1  0  0  0  0
 17 19  1  0  0  0  0
 17 20  1  0  0  0  0
 20 21  1  0  0  0  0
 20 22  1  0  0  0  0
 20 23  1  0  0  0  0
 23 24  1  0  0  0  0
 23 25  1  0  0  0  0
 23 26  1  0  0  0  0
M  END
> <VConfSearch Rank>
708

> <Conf_Id>
112

> <Delta U+W>
1.422

> <U+W>
-4.130

> <U>
49.323

> <W>
-53.453

> <W(PB)>
-55.749

> <W(SA)>
2.296

> <Valence>
3.408

> <Coulomb>
44.893

> <VdW>
1.021

> <VdW6>
-7.481

> <VdW12>
8.503

> <Bond>
0.239

> <Angle>
1.013

> <Pdih>
2.156

> <Idih>
0.000

> <Tether>
0.000

$$$$
VeraChem MOL file


 26 25  0  0  0  0  0  0  0  0999 V2000     
   16.5374   19.4307   22.0773 C   0  0  0  0  0  0  0  0  0  0  0  0
   15.5308   19.3568   21.6458 H   0  0  0  0  0  0  0  0  0  0  0  0
   16.4502   19.2359   23.1534 H   0  0  0  0  0  0  0  0  0  0  0  0
   16.8860   20.4627   21.9415 H   0  0  0  0  0  0  0  0  0  0  0  0
   17.4937   18.4266   21.3948 C   0  0  0  0  0  0  0  0  0  0  0  0
   17.4585   18.5859   20.3080 H   0  0  0  0  0  0  0  0  0  0  0  0
   17.1372   17.4014   21.5668 H   0  0  0  0  0  0  0  0  0  0  0  0
   18.9610   18.5575   21.8694 C   0  0  0  0  0  0  0  0  0  0  0  0
   19.5845   17.8830   21.2666 H   0  0  0  0  0  0  0  0  0  0  0  0
   19.3142   19.5762   21.6627 H   0  0  0  0  0  0  0  0  0  0  0  0
   19.1525   18.2200   23.3698 C   0  0  0  0  0  0  0  0  0  0  0  0
   18.6763   17.2529   23.5818 H   0  0  0  0  0  0  0  0  0  0  0  0
   18.6358   18.9628   23.9920 H   0  0  0  0  0  0  0  0  0  0  0  0
   20.6377   18.1402   23.8008 C   0  0  0  0  0  0  0  0  0  0  0  0
   20.6738   17.7799   24.8374 H   0  0  0  0  0  0  0  0  0  0  0  0
   21.1571   17.3858   23.1937 H   0  0  0  0  0  0  0  0  0  0  0  0
   21.3833   19.4946   23.7000 C   0  0  0  0  0  0  0  0  0  0  0  0
   20.8557   20.2595   24.2851 H   0  0  0  0  0  0  0  0  0  0  0  0
   21.3857   19.8409   22.6591 H   0  0  0  0  0  0  0  0  0  0  0  0
   22.8469   19.4038   24.1737 C   0  0  0  0  0  0  0  0  0  0  0  0
   23.3703   18.6299   23.6057 H   0  0  0  0  0  0  0  0  0  0  0  0
   23.3469   20.3586   23.9894 H   0  0  0  0  0  0  0  0  0  0  0  0
   22.9944   19.0866   25.6490 N   0  3  0  0  0  0  0  0  0  0  0  0
   22.5783   18.1809   25.8865 H   0  0  0  0  0  0  0  0  0  0  0  0
   22.5403   19.7927   26.2375 H   0  0  0  0  0  0  0  0  0  0  0  0
   23.9793   19.0482   25.9334 H   0  0  0  0  0  0  0  0  0  0  0  0
  1  2  1  0  0  0  0
  1  3  1  0  0  0  0
  1  4  1  0  0  0  0
  1  5  1  0  0  0  0
  5  6  1  0  0  0  0
  5  7  1  0  0  0  0
  5  8  1  0  0  0  0
  8  9  1  0  0  0  0
  8 10  1  0  0  0  0
  8 11  1  0  0  0  0
 11 12  1  0  0  0  0
 11 13  1  0  0  0  0
 11 14  1  0  0  0  0
 14 15  1  0  0  0  0
 14 16  1  0  0  0  0
 14 17  1  0  0  0  0
 17 18  1  0  0  0  0
 17 19  1  0  0  0  0
 17 20  1  0  0  0  0
 20 21  1  0  0  0  0
 20 22  1  0  0  0  0
 20 23  1  0  0  0  0
 23 24  1  0  0  0  0
 23 25  1  0  0  0  0
 23 26  1  0  0  0  0
M  END
> <VConfSearch Rank>
709

> <Conf_Id>
130

> <Delta U+W>
1.282

> <U+W>
-4.270

> <U>
49.153

> <W>
-53.422

> <W(PB)>
-55.725

> <W(SA)>
2.303

> <Valence>
3.298

> <Coulomb>
44.907

> <VdW>
0.948

> <VdW6>
-7.574

> <VdW12>
8.522

> <Bond>
0.229

> <Angle>
0.912

> <Pdih>
2.157

> <Idih>
0.000

> <Tether>
0.000

$$$$
VeraChem MOL file


 26 25  0  0  0  0  0  0  0  0999 V2000     
   17.0259   17.1825   23.0049 C   0  0  0  0  0  0  0  0  0  0  0  0
   17.0964   16.5490   22.1113 H   0  0  0  0  0  0  0  0  0  0  0  0
   16.0042   17.0981   23.3971 H   0  0  0  0  0  0  0  0  0  0  0  0
   17.1776   18.2256   22.7005 H   0  0  0  0  0  0  0  0  0  0  0  0
   18.0539   16.7501   24.0747 C   0  0  0  0  0  0  0  0  0  0  0  0
   17.7889   15.7458   24.4338 H   0  0  0  0  0  0  0  0  0  0  0  0
   17.9788   17.4098   24.9493 H   0  0  0  0  0  0  0  0  0  0  0  0
   19.5125   16.7166   23.5509 C   0  0  0  0  0  0  0  0  0  0  0  0
   20.1718   16.3769   24.3615 H   0  0  0  0  0  0  0  0  0  0  0  0
   19.5878   15.9540   22.7636 H   0  0  0  0  0  0  0  0  0  0  0  0
   20.0509   18.0597   22.9929 C   0  0  0  0  0  0  0  0  0  0  0  0
   19.4656   18.3610   22.1142 H   0  0  0  0  0  0  0  0  0  0  0  0
   21.0729   17.8884   22.6302 H   0  0  0  0  0  0  0  0  0  0  0  0
   20.0577   19.2055   24.0365 C   0  0  0  0  0  0  0  0  0  0  0  0
   19.0323   19.3979   24.3777 H   0  0  0  0  0  0  0  0  0  0  0  0
   20.6294   18.8972   24.9228 H   0  0  0  0  0  0  0  0  0  0  0  0
   20.6380   20.5278   23.4818 C   0  0  0  0  0  0  0  0  0  0  0  0
   20.5127   21.3152   24.2369 H   0  0  0  0  0  0  0  0  0  0  0  0
   20.0626   20.8425   22.6010 H   0  0  0  0  0  0  0  0  0  0  0  0
   22.1299   20.4180   23.1148 C   0  0  0  0  0  0  0  0  0  0  0  0
   22.7022   20.1034   23.9917 H   0  0  0  0  0  0  0  0  0  0  0  0
   22.2647   19.6705   22.3290 H   0  0  0  0  0  0  0  0  0  0  0  0
   22.7156   21.7240   22.6181 N   0  3  0  0  0  0  0  0  0  0  0  0
   22.2371   22.0618   21.7766 H   0  0  0  0  0  0  0  0  0  0  0  0
   23.7088   21.6299   22.3795 H   0  0  0  0  0  0  0  0  0  0  0  0
   22.6470   22.4659   23.3225 H   0  0  0  0  0  0  0  0  0  0  0  0
  1  2  1  0  0  0  0
  1  3  1  0  0  0  0
  1  4  1  0  0  0  0
  1  5  1  0  0  0  0
  5  6  1  0  0  0  0
  5  7  1  0  0  0  0
  5  8  1  0  0  0  0
  8  9  1  0  0  0  0
  8 10  1  0  0  0  0
  8 11  1  0  0  0  0
 11 12  1  0  0  0  0
 11 13  1  0  0  0  0
 11 14  1  0  0  0  0
 14 15  1  0  0  0  0
 14 16  1  0  0  0  0
 14 17  1  0  0  0  0
 17 18  1  0  0  0  0
 17 19  1  0  0  0  0
 17 20  1  0  0  0  0
 20 21  1  0  0  0  0
 20 22  1  0  0  0  0
 20 23  1  0  0  0  0
 23 24  1  0  0  0  0
 23 25  1  0  0  0  0
 23 26  1  0  0  0  0
M  END
> <VConfSearch Rank>
710

> <Conf_Id>
111

> <Delta U+W>
1.290

> <U+W>
-4.262

> <U>
49.209

> <W>
-53.471

> <W(PB)>
-55.745

> <W(SA)>
2.274

> <Valence>
3.465

> <Coulomb>
44.958

> <VdW>
0.786

> <VdW6>
-7.903

> <VdW12>
8.689

> <Bond>
0.237

> <Angle>
1.212

> <Pdih>
2.015

> <Idih>
0.000

> <Tether>
0.000

$$$$
VeraChem MOL file


 26 25  0  0  0  0  0  0  0  0999 V2000     
   16.7799   20.8232   24.8162 C   0  0  0  0  0  0  0  0  0  0  0  0
   16.3768   19.8844   25.2180 H   0  0  0  0  0  0  0  0  0  0  0  0
   16.9470   21.5106   25.6557 H   0  0  0  0  0  0  0  0  0  0  0  0
   16.0157   21.2668   24.1649 H   0  0  0  0  0  0  0  0  0  0  0  0
   18.0864   20.5751   24.0329 C   0  0  0  0  0  0  0  0  0  0  0  0
   18.4491   21.5265   23.6191 H   0  0  0  0  0  0  0  0  0  0  0  0
   17.8707   19.9181   23.1800 H   0  0  0  0  0  0  0  0  0  0  0  0
   19.1782   19.9457   24.9301 C   0  0  0  0  0  0  0  0  0  0  0  0
   19.3202   20.5792   25.8166 H   0  0  0  0  0  0  0  0  0  0  0  0
   18.8357   18.9697   25.3009 H   0  0  0  0  0  0  0  0  0  0  0  0
   20.5451   19.7813   24.2212 C   0  0  0  0  0  0  0  0  0  0  0  0
   21.2818   19.4408   24.9620 H   0  0  0  0  0  0  0  0  0  0  0  0
   20.8948   20.7606   23.8662 H   0  0  0  0  0  0  0  0  0  0  0  0
   20.5150   18.7779   23.0432 C   0  0  0  0  0  0  0  0  0  0  0  0
   20.1073   17.8205   23.3940 H   0  0  0  0  0  0  0  0  0  0  0  0
   19.8427   19.1439   22.2560 H   0  0  0  0  0  0  0  0  0  0  0  0
   21.9236   18.5607   22.4414 C   0  0  0  0  0  0  0  0  0  0  0  0
   22.6020   18.1582   23.2054 H   0  0  0  0  0  0  0  0  0  0  0  0
   22.3395   19.5287   22.1315 H   0  0  0  0  0  0  0  0  0  0  0  0
   21.9107   17.6218   21.2196 C   0  0  0  0  0  0  0  0  0  0  0  0
   21.2322   18.0169   20.4588 H   0  0  0  0  0  0  0  0  0  0  0  0
   22.9146   17.5734   20.7890 H   0  0  0  0  0  0  0  0  0  0  0  0
   21.4806   16.2045   21.5435 N   0  3  0  0  0  0  0  0  0  0  0  0
   21.4951   15.6031   20.7127 H   0  0  0  0  0  0  0  0  0  0  0  0
   20.5281   16.1734   21.9198 H   0  0  0  0  0  0  0  0  0  0  0  0
   22.0958   15.7695   22.2387 H   0  0  0  0  0  0  0  0  0  0  0  0
  1  2  1  0  0  0  0
  1  3  1  0  0  0  0
  1  4  1  0  0  0  0
  1  5  1  0  0  0  0
  5  6  1  0  0  0  0
  5  7  1  0  0  0  0
  5  8  1  0  0  0  0
  8  9  1  0  0  0  0
  8 10  1  0  0  0  0
  8 11  1  0  0  0  0
 11 12  1  0  0  0  0
 11 13  1  0  0  0  0
 11 14  1  0  0  0  0
 14 15  1  0  0  0  0
 14 16  1  0  0  0  0
 14 17  1  0  0  0  0
 17 18  1  0  0  0  0
 17 19  1  0  0  0  0
 17 20  1  0  0  0  0
 20 21  1  0  0  0  0
 20 22  1  0  0  0  0
 20 23  1  0  0  0  0
 23 24  1  0  0  0  0
 23 25  1  0  0  0  0
 23 26  1  0  0  0  0
M  END
> <VConfSearch Rank>
711

> <Conf_Id>
105

> <Delta U+W>
0.736

> <U+W>
-4.817

> <U>
48.735

> <W>
-53.552

> <W(PB)>
-55.889

> <W(SA)>
2.337

> <Valence>
2.803

> <Coulomb>
45.123

> <VdW>
0.809

> <VdW6>
-6.953

> <VdW12>
7.761

> <Bond>
0.188

> <Angle>
0.699

> <Pdih>
1.917

> <Idih>
0.000

> <Tether>
0.000

$$$$
VeraChem MOL file


 26 25  0  0  0  0  0  0  0  0999 V2000     
   17.9713   22.0197   23.9675 C   0  0  0  0  0  0  0  0  0  0  0  0
   16.8800   21.9647   24.0741 H   0  0  0  0  0  0  0  0  0  0  0  0
   18.4135   22.0212   24.9723 H   0  0  0  0  0  0  0  0  0  0  0  0
   18.2151   22.9779   23.4905 H   0  0  0  0  0  0  0  0  0  0  0  0
   18.5074   20.8410   23.1277 C   0  0  0  0  0  0  0  0  0  0  0  0
   19.5935   20.9526   23.0100 H   0  0  0  0  0  0  0  0  0  0  0  0
   18.0710   20.8827   22.1200 H   0  0  0  0  0  0  0  0  0  0  0  0
   18.1794   19.4785   23.7825 C   0  0  0  0  0  0  0  0  0  0  0  0
   18.6497   19.4193   24.7729 H   0  0  0  0  0  0  0  0  0  0  0  0
   17.0968   19.4204   23.9608 H   0  0  0  0  0  0  0  0  0  0  0  0
   18.5966   18.2581   22.9214 C   0  0  0  0  0  0  0  0  0  0  0  0
   18.0172   18.2684   21.9878 H   0  0  0  0  0  0  0  0  0  0  0  0
   18.3017   17.3391   23.4465 H   0  0  0  0  0  0  0  0  0  0  0  0
   20.1045   18.1731   22.5689 C   0  0  0  0  0  0  0  0  0  0  0  0
   20.2571   17.2795   21.9495 H   0  0  0  0  0  0  0  0  0  0  0  0
   20.3923   19.0270   21.9415 H   0  0  0  0  0  0  0  0  0  0  0  0
   21.0279   18.1016   23.8109 C   0  0  0  0  0  0  0  0  0  0  0  0
   20.7322   17.2608   24.4523 H   0  0  0  0  0  0  0  0  0  0  0  0
   20.9119   19.0123   24.4118 H   0  0  0  0  0  0  0  0  0  0  0  0
   22.5167   17.9658   23.4376 C   0  0  0  0  0  0  0  0  0  0  0  0
   22.8090   18.7915   22.7832 H   0  0  0  0  0  0  0  0  0  0  0  0
   23.1238   18.0191   24.3454 H   0  0  0  0  0  0  0  0  0  0  0  0
   22.8555   16.6653   22.7355 N   0  3  0  0  0  0  0  0  0  0  0  0
   22.3465   16.5667   21.8518 H   0  0  0  0  0  0  0  0  0  0  0  0
   22.6233   15.8499   23.3119 H   0  0  0  0  0  0  0  0  0  0  0  0
   23.8552   16.6011   22.5148 H   0  0  0  0  0  0  0  0  0  0  0  0
  1  2  1  0  0  0  0
  1  3  1  0  0  0  0
  1  4  1  0  0  0  0
  1  5  1  0  0  0  0
  5  6  1  0  0  0  0
  5  7  1  0  0  0  0
  5  8  1  0  0  0  0
  8  9  1  0  0  0  0
  8 10  1  0  0  0  0
  8 11  1  0  0  0  0
 11 12  1  0  0  0  0
 11 13  1  0  0  0  0
 11 14  1  0  0  0  0
 14 15  1  0  0  0  0
 14 16  1  0  0  0  0
 14 17  1  0  0  0  0
 17 18  1  0  0  0  0
 17 19  1  0  0  0  0
 17 20  1  0  0  0  0
 20 21  1  0  0  0  0
 20 22  1  0  0  0  0
 20 23  1  0  0  0  0
 23 24  1  0  0  0  0
 23 25  1  0  0  0  0
 23 26  1  0  0  0  0
M  END
> <VConfSearch Rank>
712

> <Conf_Id>
144

> <Delta U+W>
1.073

> <U+W>
-4.479

> <U>
49.231

> <W>
-53.710

> <W(PB)>
-55.983

> <W(SA)>
2.273

> <Valence>
3.276

> <Coulomb>
45.175

> <VdW>
0.779

> <VdW6>
-7.944

> <VdW12>
8.723

> <Bond>
0.239

> <Angle>
1.155

> <Pdih>
1.883

> <Idih>
0.000

> <Tether>
0.000

$$$$
VeraChem MOL file


 26 25  0  0  0  0  0  0  0  0999 V2000     
   21.5999   21.6781   25.0277 C   0  0  0  0  0  0  0  0  0  0  0  0
   21.9828   20.9550   25.7579 H   0  0  0  0  0  0  0  0  0  0  0  0
   22.2788   22.5407   25.0327 H   0  0  0  0  0  0  0  0  0  0  0  0
   20.6158   22.0243   25.3692 H   0  0  0  0  0  0  0  0  0  0  0  0
   21.5135   21.0676   23.6101 C   0  0  0  0  0  0  0  0  0  0  0  0
   22.5021   20.6977   23.3042 H   0  0  0  0  0  0  0  0  0  0  0  0
   21.2510   21.8647   22.9005 H   0  0  0  0  0  0  0  0  0  0  0  0
   20.4674   19.9331   23.4875 C   0  0  0  0  0  0  0  0  0  0  0  0
   19.4854   20.3018   23.8143 H   0  0  0  0  0  0  0  0  0  0  0  0
   20.3741   19.6799   22.4240 H   0  0  0  0  0  0  0  0  0  0  0  0
   20.8439   18.6572   24.2811 C   0  0  0  0  0  0  0  0  0  0  0  0
   21.0394   18.9210   25.3281 H   0  0  0  0  0  0  0  0  0  0  0  0
   21.7853   18.2493   23.8882 H   0  0  0  0  0  0  0  0  0  0  0  0
   19.7584   17.5494   24.2709 C   0  0  0  0  0  0  0  0  0  0  0  0
   20.1245   16.7222   24.8947 H   0  0  0  0  0  0  0  0  0  0  0  0
   18.8455   17.9114   24.7642 H   0  0  0  0  0  0  0  0  0  0  0  0
   19.4153   16.9813   22.8706 C   0  0  0  0  0  0  0  0  0  0  0  0
   19.0834   15.9410   22.9871 H   0  0  0  0  0  0  0  0  0  0  0  0
   20.3165   16.9508   22.2439 H   0  0  0  0  0  0  0  0  0  0  0  0
   18.2931   17.7638   22.1608 C   0  0  0  0  0  0  0  0  0  0  0  0
   17.3872   17.7395   22.7724 H   0  0  0  0  0  0  0  0  0  0  0  0
   18.5845   18.8071   22.0261 H   0  0  0  0  0  0  0  0  0  0  0  0
   17.9496   17.1993   20.7975 N   0  3  0  0  0  0  0  0  0  0  0  0
   17.6337   16.2257   20.8560 H   0  0  0  0  0  0  0  0  0  0  0  0
   18.7542   17.2176   20.1623 H   0  0  0  0  0  0  0  0  0  0  0  0
   17.1982   17.7299   20.3435 H   0  0  0  0  0  0  0  0  0  0  0  0
  1  2  1  0  0  0  0
  1  3  1  0  0  0  0
  1  4  1  0  0  0  0
  1  5  1  0  0  0  0
  5  6  1  0  0  0  0
  5  7  1  0  0  0  0
  5  8  1  0  0  0  0
  8  9  1  0  0  0  0
  8 10  1  0  0  0  0
  8 11  1  0  0  0  0
 11 12  1  0  0  0  0
 11 13  1  0  0  0  0
 11 14  1  0  0  0  0
 14 15  1  0  0  0  0
 14 16  1  0  0  0  0
 14 17  1  0  0  0  0
 17 18  1  0  0  0  0
 17 19  1  0  0  0  0
 17 20  1  0  0  0  0
 20 21  1  0  0  0  0
 20 22  1  0  0  0  0
 20 23  1  0  0  0  0
 23 24  1  0  0  0  0
 23 25  1  0  0  0  0
 23 26  1  0  0  0  0
M  END
> <VConfSearch Rank>
713

> <Conf_Id>
93

> <Delta U+W>
3.253

> <U+W>
-2.300

> <U>
51.609

> <W>
-53.909

> <W(PB)>
-56.178

> <W(SA)>
2.270

> <Valence>
5.204

> <Coulomb>
45.645

> <VdW>
0.760

> <VdW6>
-7.997

> <VdW12>
8.758

> <Bond>
0.240

> <Angle>
1.456

> <Pdih>
3.507

> <Idih>
0.000

> <Tether>
0.000

$$$$
VeraChem MOL file


 26 25  0  0  0  0  0  0  0  0999 V2000     
   16.5649   19.4542   22.2732 C   0  0  0  0  0  0  0  0  0  0  0  0
   16.3858   19.9410   23.2396 H   0  0  0  0  0  0  0  0  0  0  0  0
   16.8964   20.2187   21.5586 H   0  0  0  0  0  0  0  0  0  0  0  0
   15.6028   19.0606   21.9205 H   0  0  0  0  0  0  0  0  0  0  0  0
   17.6036   18.3154   22.3908 C   0  0  0  0  0  0  0  0  0  0  0  0
   17.6481   17.7811   21.4314 H   0  0  0  0  0  0  0  0  0  0  0  0
   17.2667   17.5810   23.1357 H   0  0  0  0  0  0  0  0  0  0  0  0
   19.0266   18.8098   22.7472 C   0  0  0  0  0  0  0  0  0  0  0  0
   19.7091   17.9559   22.6526 H   0  0  0  0  0  0  0  0  0  0  0  0
   19.3503   19.5590   22.0118 H   0  0  0  0  0  0  0  0  0  0  0  0
   19.1380   19.3914   24.1786 C   0  0  0  0  0  0  0  0  0  0  0  0
   18.8944   18.6079   24.9092 H   0  0  0  0  0  0  0  0  0  0  0  0
   18.3860   20.1789   24.3139 H   0  0  0  0  0  0  0  0  0  0  0  0
   20.5229   20.0011   24.5193 C   0  0  0  0  0  0  0  0  0  0  0  0
   20.7281   20.8599   23.8651 H   0  0  0  0  0  0  0  0  0  0  0  0
   20.4620   20.4113   25.5369 H   0  0  0  0  0  0  0  0  0  0  0  0
   21.7074   19.0033   24.4723 C   0  0  0  0  0  0  0  0  0  0  0  0
   21.3814   18.0129   24.8170 H   0  0  0  0  0  0  0  0  0  0  0  0
   22.4766   19.3400   25.1802 H   0  0  0  0  0  0  0  0  0  0  0  0
   22.3546   18.9007   23.0773 C   0  0  0  0  0  0  0  0  0  0  0  0
   21.6199   18.5684   22.3416 H   0  0  0  0  0  0  0  0  0  0  0  0
   22.7218   19.8842   22.7715 H   0  0  0  0  0  0  0  0  0  0  0  0
   23.5210   17.9349   23.0360 N   0  3  0  0  0  0  0  0  0  0  0  0
   24.2670   18.2092   23.6836 H   0  0  0  0  0  0  0  0  0  0  0  0
   23.9411   17.8842   22.1015 H   0  0  0  0  0  0  0  0  0  0  0  0
   23.2378   16.9824   23.2882 H   0  0  0  0  0  0  0  0  0  0  0  0
  1  2  1  0  0  0  0
  1  3  1  0  0  0  0
  1  4  1  0  0  0  0
  1  5  1  0  0  0  0
  5  6  1  0  0  0  0
  5  7  1  0  0  0  0
  5  8  1  0  0  0  0
  8  9  1  0  0  0  0
  8 10  1  0  0  0  0
  8 11  1  0  0  0  0
 11 12  1  0  0  0  0
 11 13  1  0  0  0  0
 11 14  1  0  0  0  0
 14 15  1  0  0  0  0
 14 16  1  0  0  0  0
 14 17  1  0  0  0  0
 17 18  1  0  0  0  0
 17 19  1  0  0  0  0
 17 20  1  0  0  0  0
 20 21  1  0  0  0  0
 20 22  1  0  0  0  0
 20 23  1  0  0  0  0
 23 24  1  0  0  0  0
 23 25  1  0  0  0  0
 23 26  1  0  0  0  0
M  END
> <VConfSearch Rank>
714

> <Conf_Id>
94

> <Delta U+W>
3.247

> <U+W>
-2.305

> <U>
51.609

> <W>
-53.914

> <W(PB)>
-56.221

> <W(SA)>
2.307

> <Valence>
5.204

> <Coulomb>
45.645

> <VdW>
0.760

> <VdW6>
-7.997

> <VdW12>
8.757

> <Bond>
0.240

> <Angle>
1.456

> <Pdih>
3.508

> <Idih>
0.000

> <Tether>
0.000

$$$$
VeraChem MOL file


 26 25  0  0  0  0  0  0  0  0999 V2000     
   24.0874   19.6992   22.9604 C   0  0  0  0  0  0  0  0  0  0  0  0
   24.2704   19.6760   21.8782 H   0  0  0  0  0  0  0  0  0  0  0  0
   23.9583   20.7466   23.2630 H   0  0  0  0  0  0  0  0  0  0  0  0
   24.9835   19.3115   23.4621 H   0  0  0  0  0  0  0  0  0  0  0  0
   22.8479   18.8577   23.3315 C   0  0  0  0  0  0  0  0  0  0  0  0
   22.7107   18.8723   24.4219 H   0  0  0  0  0  0  0  0  0  0  0  0
   23.0203   17.8100   23.0477 H   0  0  0  0  0  0  0  0  0  0  0  0
   21.5714   19.3827   22.6379 C   0  0  0  0  0  0  0  0  0  0  0  0
   21.4044   20.4307   22.9229 H   0  0  0  0  0  0  0  0  0  0  0  0
   21.7148   19.3687   21.5485 H   0  0  0  0  0  0  0  0  0  0  0  0
   20.3282   18.5422   23.0068 C   0  0  0  0  0  0  0  0  0  0  0  0
   20.1957   18.5545   24.0968 H   0  0  0  0  0  0  0  0  0  0  0  0
   20.4952   17.4953   22.7180 H   0  0  0  0  0  0  0  0  0  0  0  0
   19.0506   19.0716   22.3122 C   0  0  0  0  0  0  0  0  0  0  0  0
   18.8653   20.1103   22.6168 H   0  0  0  0  0  0  0  0  0  0  0  0
   19.2158   19.0974   21.2262 H   0  0  0  0  0  0  0  0  0  0  0  0
   17.7977   18.2065   22.5989 C   0  0  0  0  0  0  0  0  0  0  0  0
   17.9617   17.1924   22.2109 H   0  0  0  0  0  0  0  0  0  0  0  0
   16.9418   18.6119   22.0431 H   0  0  0  0  0  0  0  0  0  0  0  0
   17.4288   18.1104   24.0933 C   0  0  0  0  0  0  0  0  0  0  0  0
   16.5545   17.4643   24.2103 H   0  0  0  0  0  0  0  0  0  0  0  0
   18.2565   17.6649   24.6510 H   0  0  0  0  0  0  0  0  0  0  0  0
   17.1017   19.4485   24.7262 N   0  3  0  0  0  0  0  0  0  0  0  0
   16.3099   19.9052   24.2620 H   0  0  0  0  0  0  0  0  0  0  0  0
   17.8961   20.0937   24.6764 H   0  0  0  0  0  0  0  0  0  0  0  0
   16.8533   19.3512   25.7166 H   0  0  0  0  0  0  0  0  0  0  0  0
  1  2  1  0  0  0  0
  1  3  1  0  0  0  0
  1  4  1  0  0  0  0
  1  5  1  0  0  0  0
  5  6  1  0  0  0  0
  5  7  1  0  0  0  0
  5  8  1  0  0  0  0
  8  9  1  0  0  0  0
  8 10  1  0  0  0  0
  8 11  1  0  0  0  0
 11 12  1  0  0  0  0
 11 13  1  0  0  0  0
 11 14  1  0  0  0  0
 14 15  1  0  0  0  0
 14 16  1  0  0  0  0
 14 17  1  0  0  0  0
 17 18  1  0  0  0  0
 17 19  1  0  0  0  0
 17 20  1  0  0  0  0
 20 21  1  0  0  0  0
 20 22  1  0  0  0  0
 20 23  1  0  0  0  0
 23 24  1  0  0  0  0
 23 25  1  0  0  0  0
 23 26  1  0  0  0  0
M  END
> <VConfSearch Rank>
715

> <Conf_Id>
83

> <Delta U+W>
0.559

> <U+W>
-4.994

> <U>
48.668

> <W>
-53.661

> <W(PB)>
-55.972

> <W(SA)>
2.311

> <Valence>
2.543

> <Coulomb>
45.478

> <VdW>
0.646

> <VdW6>
-7.096

> <VdW12>
7.742

> <Bond>
0.176

> <Angle>
0.630

> <Pdih>
1.738

> <Idih>
0.000

> <Tether>
0.000

$$$$
VeraChem MOL file


 26 25  0  0  0  0  0  0  0  0999 V2000     
   17.1225   18.1492   25.7307 C   0  0  0  0  0  0  0  0  0  0  0  0
   16.1990   18.7361   25.6411 H   0  0  0  0  0  0  0  0  0  0  0  0
   16.9231   17.1381   25.3525 H   0  0  0  0  0  0  0  0  0  0  0  0
   17.3674   18.0678   26.7977 H   0  0  0  0  0  0  0  0  0  0  0  0
   18.2800   18.8130   24.9550 C   0  0  0  0  0  0  0  0  0  0  0  0
   19.1926   18.2206   25.1025 H   0  0  0  0  0  0  0  0  0  0  0  0
   18.4751   19.8098   25.3747 H   0  0  0  0  0  0  0  0  0  0  0  0
   17.9592   18.9347   23.4465 C   0  0  0  0  0  0  0  0  0  0  0  0
   17.8177   17.9338   23.0158 H   0  0  0  0  0  0  0  0  0  0  0  0
   17.0012   19.4594   23.3271 H   0  0  0  0  0  0  0  0  0  0  0  0
   19.0394   19.6984   22.6416 C   0  0  0  0  0  0  0  0  0  0  0  0
   19.1700   20.7043   23.0639 H   0  0  0  0  0  0  0  0  0  0  0  0
   18.6719   19.8401   21.6159 H   0  0  0  0  0  0  0  0  0  0  0  0
   20.4048   18.9711   22.5920 C   0  0  0  0  0  0  0  0  0  0  0  0
   20.8160   18.8877   23.6057 H   0  0  0  0  0  0  0  0  0  0  0  0
   20.2619   17.9478   22.2181 H   0  0  0  0  0  0  0  0  0  0  0  0
   21.4154   19.7135   21.6859 C   0  0  0  0  0  0  0  0  0  0  0  0
   21.5865   20.7293   22.0665 H   0  0  0  0  0  0  0  0  0  0  0  0
   20.9897   19.8236   20.6796 H   0  0  0  0  0  0  0  0  0  0  0  0
   22.7626   18.9751   21.5660 C   0  0  0  0  0  0  0  0  0  0  0  0
   22.5945   17.9605   21.1949 H   0  0  0  0  0  0  0  0  0  0  0  0
   23.4004   19.4990   20.8488 H   0  0  0  0  0  0  0  0  0  0  0  0
   23.5247   18.8780   22.8731 N   0  3  0  0  0  0  0  0  0  0  0  0
   22.9965   18.3619   23.5833 H   0  0  0  0  0  0  0  0  0  0  0  0
   23.7327   19.8035   23.2621 H   0  0  0  0  0  0  0  0  0  0  0  0
   24.4216   18.3942   22.7555 H   0  0  0  0  0  0  0  0  0  0  0  0
  1  2  1  0  0  0  0
  1  3  1  0  0  0  0
  1  4  1  0  0  0  0
  1  5  1  0  0  0  0
  5  6  1  0  0  0  0
  5  7  1  0  0  0  0
  5  8  1  0  0  0  0
  8  9  1  0  0  0  0
  8 10  1  0  0  0  0
  8 11  1  0  0  0  0
 11 12  1  0  0  0  0
 11 13  1  0  0  0  0
 11 14  1  0  0  0  0
 14 15  1  0  0  0  0
 14 16  1  0  0  0  0
 14 17  1  0  0  0  0
 17 18  1  0  0  0  0
 17 19  1  0  0  0  0
 17 20  1  0  0  0  0
 20 21  1  0  0  0  0
 20 22  1  0  0  0  0
 20 23  1  0  0  0  0
 23 24  1  0  0  0  0
 23 25  1  0  0  0  0
 23 26  1  0  0  0  0
M  END
> <VConfSearch Rank>
716

> <Conf_Id>
18

> <Delta U+W>
0.759

> <U+W>
-4.793

> <U>
48.945

> <W>
-53.738

> <W(PB)>
-56.051

> <W(SA)>
2.313

> <Valence>
2.802

> <Coulomb>
45.335

> <VdW>
0.807

> <VdW6>
-6.962

> <VdW12>
7.769

> <Bond>
0.189

> <Angle>
0.696

> <Pdih>
1.917

> <Idih>
0.000

> <Tether>
0.000

$$$$
VeraChem MOL file


 26 25  0  0  0  0  0  0  0  0999 V2000     
   23.7875   19.2922   23.9590 C   0  0  0  0  0  0  0  0  0  0  0  0
   24.1198   18.4603   23.3244 H   0  0  0  0  0  0  0  0  0  0  0  0
   24.2788   20.2086   23.6067 H   0  0  0  0  0  0  0  0  0  0  0  0
   24.1350   19.0958   24.9816 H   0  0  0  0  0  0  0  0  0  0  0  0
   22.2512   19.4368   23.9239 C   0  0  0  0  0  0  0  0  0  0  0  0
   21.9474   20.2566   24.5897 H   0  0  0  0  0  0  0  0  0  0  0  0
   21.7985   18.5188   24.3211 H   0  0  0  0  0  0  0  0  0  0  0  0
   21.7372   19.7100   22.4905 C   0  0  0  0  0  0  0  0  0  0  0  0
   22.2637   20.5844   22.0837 H   0  0  0  0  0  0  0  0  0  0  0  0
   21.9942   18.8646   21.8373 H   0  0  0  0  0  0  0  0  0  0  0  0
   20.2137   19.9780   22.4178 C   0  0  0  0  0  0  0  0  0  0  0  0
   19.9633   20.2788   21.3910 H   0  0  0  0  0  0  0  0  0  0  0  0
   19.9597   20.8326   23.0599 H   0  0  0  0  0  0  0  0  0  0  0  0
   19.3501   18.7548   22.8097 C   0  0  0  0  0  0  0  0  0  0  0  0
   19.6435   17.8884   22.2009 H   0  0  0  0  0  0  0  0  0  0  0  0
   19.5391   18.4895   23.8573 H   0  0  0  0  0  0  0  0  0  0  0  0
   17.8410   19.0340   22.6136 C   0  0  0  0  0  0  0  0  0  0  0  0
   17.6578   19.3295   21.5720 H   0  0  0  0  0  0  0  0  0  0  0  0
   17.5308   19.8818   23.2389 H   0  0  0  0  0  0  0  0  0  0  0  0
   16.9619   17.8096   22.9337 C   0  0  0  0  0  0  0  0  0  0  0  0
   15.9200   18.0392   22.6947 H   0  0  0  0  0  0  0  0  0  0  0  0
   17.2739   16.9614   22.3183 H   0  0  0  0  0  0  0  0  0  0  0  0
   17.0161   17.3816   24.3872 N   0  3  0  0  0  0  0  0  0  0  0  0
   16.7122   18.1318   25.0165 H   0  0  0  0  0  0  0  0  0  0  0  0
   17.9641   17.1142   24.6694 H   0  0  0  0  0  0  0  0  0  0  0  0
   16.4098   16.5744   24.5690 H   0  0  0  0  0  0  0  0  0  0  0  0
  1  2  1  0  0  0  0
  1  3  1  0  0  0  0
  1  4  1  0  0  0  0
  1  5  1  0  0  0  0
  5  6  1  0  0  0  0
  5  7  1  0  0  0  0
  5  8  1  0  0  0  0
  8  9  1  0  0  0  0
  8 10  1  0  0  0  0
  8 11  1  0  0  0  0
 11 12  1  0  0  0  0
 11 13  1  0  0  0  0
 11 14  1  0  0  0  0
 14 15  1  0  0  0  0
 14 16  1  0  0  0  0
 14 17  1  0  0  0  0
 17 18  1  0  0  0  0
 17 19  1  0  0  0  0
 17 20  1  0  0  0  0
 20 21  1  0  0  0  0
 20 22  1  0  0  0  0
 20 23  1  0  0  0  0
 23 24  1  0  0  0  0
 23 25  1  0  0  0  0
 23 26  1  0  0  0  0
M  END
> <VConfSearch Rank>
717

> <Conf_Id>
17

> <Delta U+W>
0.843

> <U+W>
-4.709

> <U>
48.945

> <W>
-53.653

> <W(PB)>
-55.991

> <W(SA)>
2.338

> <Valence>
2.802

> <Coulomb>
45.335

> <VdW>
0.807

> <VdW6>
-6.962

> <VdW12>
7.769

> <Bond>
0.189

> <Angle>
0.696

> <Pdih>
1.917

> <Idih>
0.000

> <Tether>
0.000

$$$$
VeraChem MOL file


 26 25  0  0  0  0  0  0  0  0999 V2000     
   19.9423   15.8758   21.6006 C   0  0  0  0  0  0  0  0  0  0  0  0
   20.8619   16.3278   21.9923 H   0  0  0  0  0  0  0  0  0  0  0  0
   19.4511   15.3311   22.4173 H   0  0  0  0  0  0  0  0  0  0  0  0
   20.2345   15.1435   20.8369 H   0  0  0  0  0  0  0  0  0  0  0  0
   18.9988   16.9402   20.9959 C   0  0  0  0  0  0  0  0  0  0  0  0
   18.1559   16.4301   20.5089 H   0  0  0  0  0  0  0  0  0  0  0  0
   19.5235   17.4919   20.2034 H   0  0  0  0  0  0  0  0  0  0  0  0
   18.4394   17.9335   22.0430 C   0  0  0  0  0  0  0  0  0  0  0  0
   17.6978   18.5775   21.5504 H   0  0  0  0  0  0  0  0  0  0  0  0
   17.8983   17.3791   22.8221 H   0  0  0  0  0  0  0  0  0  0  0  0
   19.5272   18.8211   22.6941 C   0  0  0  0  0  0  0  0  0  0  0  0
   20.0978   19.3358   21.9089 H   0  0  0  0  0  0  0  0  0  0  0  0
   20.2364   18.1892   23.2432 H   0  0  0  0  0  0  0  0  0  0  0  0
   18.9125   19.8666   23.6555 C   0  0  0  0  0  0  0  0  0  0  0  0
   18.1722   20.4682   23.1102 H   0  0  0  0  0  0  0  0  0  0  0  0
   18.3653   19.3544   24.4592 H   0  0  0  0  0  0  0  0  0  0  0  0
   19.9652   20.8173   24.2727 C   0  0  0  0  0  0  0  0  0  0  0  0
   19.4488   21.5823   24.8677 H   0  0  0  0  0  0  0  0  0  0  0  0
   20.4975   21.3480   23.4721 H   0  0  0  0  0  0  0  0  0  0  0  0
   20.9786   20.0819   25.1697 C   0  0  0  0  0  0  0  0  0  0  0  0
   20.4488   19.5540   25.9671 H   0  0  0  0  0  0  0  0  0  0  0  0
   21.5319   19.3476   24.5786 H   0  0  0  0  0  0  0  0  0  0  0  0
   21.9852   21.0133   25.8137 N   0  3  0  0  0  0  0  0  0  0  0  0
   22.6503   20.5046   26.4064 H   0  0  0  0  0  0  0  0  0  0  0  0
   21.5312   21.7141   26.4085 H   0  0  0  0  0  0  0  0  0  0  0  0
   22.5366   21.5221   25.1150 H   0  0  0  0  0  0  0  0  0  0  0  0
  1  2  1  0  0  0  0
  1  3  1  0  0  0  0
  1  4  1  0  0  0  0
  1  5  1  0  0  0  0
  5  6  1  0  0  0  0
  5  7  1  0  0  0  0
  5  8  1  0  0  0  0
  8  9  1  0  0  0  0
  8 10  1  0  0  0  0
  8 11  1  0  0  0  0
 11 12  1  0  0  0  0
 11 13  1  0  0  0  0
 11 14  1  0  0  0  0
 14 15  1  0  0  0  0
 14 16  1  0  0  0  0
 14 17  1  0  0  0  0
 17 18  1  0  0  0  0
 17 19  1  0  0  0  0
 17 20  1  0  0  0  0
 20 21  1  0  0  0  0
 20 22  1  0  0  0  0
 20 23  1  0  0  0  0
 23 24  1  0  0  0  0
 23 25  1  0  0  0  0
 23 26  1  0  0  0  0
M  END
> <VConfSearch Rank>
718

> <Conf_Id>
96

> <Delta U+W>
0.912

> <U+W>
-4.640

> <U>
48.723

> <W>
-53.364

> <W(PB)>
-55.683

> <W(SA)>
2.320

> <Valence>
2.962

> <Coulomb>
44.993

> <VdW>
0.768

> <VdW6>
-7.008

> <VdW12>
7.776

> <Bond>
0.188

> <Angle>
0.757

> <Pdih>
2.018

> <Idih>
0.000

> <Tether>
0.000

$$$$
VeraChem MOL file


 26 25  0  0  0  0  0  0  0  0999 V2000     
   16.9886   17.4566   23.5920 C   0  0  0  0  0  0  0  0  0  0  0  0
   16.1984   16.7206   23.3949 H   0  0  0  0  0  0  0  0  0  0  0  0
   16.5215   18.3337   24.0584 H   0  0  0  0  0  0  0  0  0  0  0  0
   17.4034   17.7617   22.6233 H   0  0  0  0  0  0  0  0  0  0  0  0
   18.0746   16.8511   24.5100 C   0  0  0  0  0  0  0  0  0  0  0  0
   18.5480   15.9957   24.0081 H   0  0  0  0  0  0  0  0  0  0  0  0
   17.5919   16.4496   25.4119 H   0  0  0  0  0  0  0  0  0  0  0  0
   19.1571   17.8710   24.9389 C   0  0  0  0  0  0  0  0  0  0  0  0
   18.6813   18.7144   25.4580 H   0  0  0  0  0  0  0  0  0  0  0  0
   19.8177   17.3893   25.6730 H   0  0  0  0  0  0  0  0  0  0  0  0
   20.0100   18.3979   23.7600 C   0  0  0  0  0  0  0  0  0  0  0  0
   19.3666   18.9371   23.0536 H   0  0  0  0  0  0  0  0  0  0  0  0
   20.4442   17.5488   23.2142 H   0  0  0  0  0  0  0  0  0  0  0  0
   21.1432   19.3329   24.2467 C   0  0  0  0  0  0  0  0  0  0  0  0
   20.7112   20.1987   24.7677 H   0  0  0  0  0  0  0  0  0  0  0  0
   21.7586   18.8011   24.9856 H   0  0  0  0  0  0  0  0  0  0  0  0
   22.0593   19.8245   23.1014 C   0  0  0  0  0  0  0  0  0  0  0  0
   22.5110   18.9617   22.5939 H   0  0  0  0  0  0  0  0  0  0  0  0
   22.8866   20.4048   23.5312 H   0  0  0  0  0  0  0  0  0  0  0  0
   21.3131   20.6971   22.0746 C   0  0  0  0  0  0  0  0  0  0  0  0
   20.5143   20.1165   21.6060 H   0  0  0  0  0  0  0  0  0  0  0  0
   20.8639   21.5565   22.5797 H   0  0  0  0  0  0  0  0  0  0  0  0
   22.2143   21.2195   20.9745 N   0  3  0  0  0  0  0  0  0  0  0  0
   22.6485   20.4582   20.4424 H   0  0  0  0  0  0  0  0  0  0  0  0
   22.9738   21.7995   21.3459 H   0  0  0  0  0  0  0  0  0  0  0  0
   21.6988   21.7978   20.3020 H   0  0  0  0  0  0  0  0  0  0  0  0
  1  2  1  0  0  0  0
  1  3  1  0  0  0  0
  1  4  1  0  0  0  0
  1  5  1  0  0  0  0
  5  6  1  0  0  0  0
  5  7  1  0  0  0  0
  5  8  1  0  0  0  0
  8  9  1  0  0  0  0
  8 10  1  0  0  0  0
  8 11  1  0  0  0  0
 11 12  1  0  0  0  0
 11 13  1  0  0  0  0
 11 14  1  0  0  0  0
 14 15  1  0  0  0  0
 14 16  1  0  0  0  0
 14 17  1  0  0  0  0
 17 18  1  0  0  0  0
 17 19  1  0  0  0  0
 17 20  1  0  0  0  0
 20 21  1  0  0  0  0
 20 22  1  0  0  0  0
 20 23  1  0  0  0  0
 23 24  1  0  0  0  0
 23 25  1  0  0  0  0
 23 26  1  0  0  0  0
M  END
> <VConfSearch Rank>
719

> <Conf_Id>
133

> <Delta U+W>
0.844

> <U+W>
-4.708

> <U>
48.723

> <W>
-53.431

> <W(PB)>
-55.776

> <W(SA)>
2.344

> <Valence>
2.962

> <Coulomb>
44.993

> <VdW>
0.768

> <VdW6>
-7.008

> <VdW12>
7.776

> <Bond>
0.188

> <Angle>
0.756

> <Pdih>
2.018

> <Idih>
0.000

> <Tether>
0.000

$$$$
VeraChem MOL file


 26 25  0  0  0  0  0  0  0  0999 V2000     
   17.0433   19.5230   21.7392 C   0  0  0  0  0  0  0  0  0  0  0  0
   17.0943   19.8231   20.6846 H   0  0  0  0  0  0  0  0  0  0  0  0
   17.5625   18.5628   21.8495 H   0  0  0  0  0  0  0  0  0  0  0  0
   15.9877   19.3586   21.9914 H   0  0  0  0  0  0  0  0  0  0  0  0
   17.6563   20.6063   22.6551 C   0  0  0  0  0  0  0  0  0  0  0  0
   17.6123   20.2756   23.7014 H   0  0  0  0  0  0  0  0  0  0  0  0
   17.0334   21.5099   22.5998 H   0  0  0  0  0  0  0  0  0  0  0  0
   19.1100   20.9859   22.2735 C   0  0  0  0  0  0  0  0  0  0  0  0
   19.1084   21.4287   21.2680 H   0  0  0  0  0  0  0  0  0  0  0  0
   19.4577   21.7786   22.9501 H   0  0  0  0  0  0  0  0  0  0  0  0
   20.1292   19.8176   22.3002 C   0  0  0  0  0  0  0  0  0  0  0  0
   21.1097   20.2084   21.9950 H   0  0  0  0  0  0  0  0  0  0  0  0
   19.8568   19.0658   21.5476 H   0  0  0  0  0  0  0  0  0  0  0  0
   20.2643   19.1456   23.6876 C   0  0  0  0  0  0  0  0  0  0  0  0
   20.4926   19.9085   24.4449 H   0  0  0  0  0  0  0  0  0  0  0  0
   19.3096   18.6855   23.9749 H   0  0  0  0  0  0  0  0  0  0  0  0
   21.3673   18.0644   23.6965 C   0  0  0  0  0  0  0  0  0  0  0  0
   22.3301   18.5152   23.4213 H   0  0  0  0  0  0  0  0  0  0  0  0
   21.1413   17.2999   22.9412 H   0  0  0  0  0  0  0  0  0  0  0  0
   21.4911   17.3981   25.0781 C   0  0  0  0  0  0  0  0  0  0  0  0
   21.7319   18.1535   25.8309 H   0  0  0  0  0  0  0  0  0  0  0  0
   20.5394   16.9332   25.3492 H   0  0  0  0  0  0  0  0  0  0  0  0
   22.5643   16.3297   25.1277 N   0  3  0  0  0  0  0  0  0  0  0  0
   22.6302   15.8988   26.0563 H   0  0  0  0  0  0  0  0  0  0  0  0
   23.4913   16.7088   24.9082 H   0  0  0  0  0  0  0  0  0  0  0  0
   22.3817   15.5733   24.4600 H   0  0  0  0  0  0  0  0  0  0  0  0
  1  2  1  0  0  0  0
  1  3  1  0  0  0  0
  1  4  1  0  0  0  0
  1  5  1  0  0  0  0
  5  6  1  0  0  0  0
  5  7  1  0  0  0  0
  5  8  1  0  0  0  0
  8  9  1  0  0  0  0
  8 10  1  0  0  0  0
  8 11  1  0  0  0  0
 11 12  1  0  0  0  0
 11 13  1  0  0  0  0
 11 14  1  0  0  0  0
 14 15  1  0  0  0  0
 14 16  1  0  0  0  0
 14 17  1  0  0  0  0
 17 18  1  0  0  0  0
 17 19  1  0  0  0  0
 17 20  1  0  0  0  0
 20 21  1  0  0  0  0
 20 22  1  0  0  0  0
 20 23  1  0  0  0  0
 23 24  1  0  0  0  0
 23 25  1  0  0  0  0
 23 26  1  0  0  0  0
M  END
> <VConfSearch Rank>
720

> <Conf_Id>
106

> <Delta U+W>
0.767

> <U+W>
-4.785

> <U>
48.494

> <W>
-53.279

> <W(PB)>
-55.569

> <W(SA)>
2.290

> <Valence>
3.117

> <Coulomb>
44.693

> <VdW>
0.684

> <VdW6>
-7.347

> <VdW12>
8.030

> <Bond>
0.208

> <Angle>
1.039

> <Pdih>
1.870

> <Idih>
0.000

> <Tether>
0.000

$$$$
VeraChem MOL file


 26 25  0  0  0  0  0  0  0  0999 V2000     
   17.3790   15.3258   22.7337 C   0  0  0  0  0  0  0  0  0  0  0  0
   16.4340   15.8820   22.7877 H   0  0  0  0  0  0  0  0  0  0  0  0
   17.6304   15.1810   21.6749 H   0  0  0  0  0  0  0  0  0  0  0  0
   17.2134   14.3362   23.1791 H   0  0  0  0  0  0  0  0  0  0  0  0
   18.5069   16.0750   23.4743 C   0  0  0  0  0  0  0  0  0  0  0  0
   19.4294   15.4790   23.4320 H   0  0  0  0  0  0  0  0  0  0  0  0
   18.2422   16.1745   24.5364 H   0  0  0  0  0  0  0  0  0  0  0  0
   18.7605   17.4725   22.8668 C   0  0  0  0  0  0  0  0  0  0  0  0
   19.0223   17.3680   21.8047 H   0  0  0  0  0  0  0  0  0  0  0  0
   17.8352   18.0636   22.9093 H   0  0  0  0  0  0  0  0  0  0  0  0
   19.8895   18.2258   23.6058 C   0  0  0  0  0  0  0  0  0  0  0  0
   20.8143   17.6339   23.5630 H   0  0  0  0  0  0  0  0  0  0  0  0
   19.6271   18.3294   24.6678 H   0  0  0  0  0  0  0  0  0  0  0  0
   20.1427   19.6239   22.9976 C   0  0  0  0  0  0  0  0  0  0  0  0
   20.4051   19.5207   21.9355 H   0  0  0  0  0  0  0  0  0  0  0  0
   19.2180   20.2163   23.0403 H   0  0  0  0  0  0  0  0  0  0  0  0
   21.2710   20.3774   23.7357 C   0  0  0  0  0  0  0  0  0  0  0  0
   22.1985   19.7911   23.6906 H   0  0  0  0  0  0  0  0  0  0  0  0
   21.0101   20.4872   24.7968 H   0  0  0  0  0  0  0  0  0  0  0  0
   21.5145   21.7676   23.1224 C   0  0  0  0  0  0  0  0  0  0  0  0
   21.7908   21.6624   22.0698 H   0  0  0  0  0  0  0  0  0  0  0  0
   20.5979   22.3610   23.1799 H   0  0  0  0  0  0  0  0  0  0  0  0
   22.6158   22.5395   23.8200 N   0  3  0  0  0  0  0  0  0  0  0  0
   22.7617   23.4623   23.3961 H   0  0  0  0  0  0  0  0  0  0  0  0
   23.5139   22.0466   23.7779 H   0  0  0  0  0  0  0  0  0  0  0  0
   22.4039   22.6967   24.8108 H   0  0  0  0  0  0  0  0  0  0  0  0
  1  2  1  0  0  0  0
  1  3  1  0  0  0  0
  1  4  1  0  0  0  0
  1  5  1  0  0  0  0
  5  6  1  0  0  0  0
  5  7  1  0  0  0  0
  5  8  1  0  0  0  0
  8  9  1  0  0  0  0
  8 10  1  0  0  0  0
  8 11  1  0  0  0  0
 11 12  1  0  0  0  0
 11 13  1  0  0  0  0
 11 14  1  0  0  0  0
 14 15  1  0  0  0  0
 14 16  1  0  0  0  0
 14 17  1  0  0  0  0
 17 18  1  0  0  0  0
 17 19  1  0  0  0  0
 17 20  1  0  0  0  0
 20 21  1  0  0  0  0
 20 22  1  0  0  0  0
 20 23  1  0  0  0  0
 23 24  1  0  0  0  0
 23 25  1  0  0  0  0
 23 26  1  0  0  0  0
M  END
> <VConfSearch Rank>
721

> <Conf_Id>
25

> <Delta U+W>
0.000

> <U+W>
-5.552

> <U>
47.192

> <W>
-52.745

> <W(PB)>
-55.134

> <W(SA)>
2.389

> <Valence>
2.156

> <Coulomb>
44.449

> <VdW>
0.587

> <VdW6>
-5.761

> <VdW12>
6.348

> <Bond>
0.129

> <Angle>
0.393

> <Pdih>
1.634

> <Idih>
0.000

> <Tether>
0.000

$$$$
VeraChem MOL file


 26 25  0  0  0  0  0  0  0  0999 V2000     
   17.9660   16.2826   20.6013 C   0  0  0  0  0  0  0  0  0  0  0  0
   18.7972   16.1897   19.8901 H   0  0  0  0  0  0  0  0  0  0  0  0
   18.0409   15.4598   21.3242 H   0  0  0  0  0  0  0  0  0  0  0  0
   17.0292   16.1566   20.0432 H   0  0  0  0  0  0  0  0  0  0  0  0
   17.9960   17.6514   21.3138 C   0  0  0  0  0  0  0  0  0  0  0  0
   17.1349   17.7281   21.9924 H   0  0  0  0  0  0  0  0  0  0  0  0
   17.8852   18.4523   20.5693 H   0  0  0  0  0  0  0  0  0  0  0  0
   19.3055   17.8547   22.1077 C   0  0  0  0  0  0  0  0  0  0  0  0
   19.4129   17.0505   22.8487 H   0  0  0  0  0  0  0  0  0  0  0  0
   20.1633   17.7750   21.4256 H   0  0  0  0  0  0  0  0  0  0  0  0
   19.3391   19.2244   22.8226 C   0  0  0  0  0  0  0  0  0  0  0  0
   18.4811   19.3033   23.5046 H   0  0  0  0  0  0  0  0  0  0  0  0
   19.2305   20.0277   22.0807 H   0  0  0  0  0  0  0  0  0  0  0  0
   20.6495   19.4277   23.6163 C   0  0  0  0  0  0  0  0  0  0  0  0
   20.7553   18.6198   24.3525 H   0  0  0  0  0  0  0  0  0  0  0  0
   21.5073   19.3517   22.9337 H   0  0  0  0  0  0  0  0  0  0  0  0
   20.6807   20.7990   24.3319 C   0  0  0  0  0  0  0  0  0  0  0  0
   19.8447   20.8733   25.0401 H   0  0  0  0  0  0  0  0  0  0  0  0
   20.5371   21.5983   23.5926 H   0  0  0  0  0  0  0  0  0  0  0  0
   22.0072   21.0536   25.0734 C   0  0  0  0  0  0  0  0  0  0  0  0
   22.8422   20.9742   24.3721 H   0  0  0  0  0  0  0  0  0  0  0  0
   22.0035   22.0662   25.4859 H   0  0  0  0  0  0  0  0  0  0  0  0
   22.2610   20.0922   26.2180 N   0  3  0  0  0  0  0  0  0  0  0  0
   22.3135   19.1215   25.8940 H   0  0  0  0  0  0  0  0  0  0  0  0
   21.5192   20.1366   26.9242 H   0  0  0  0  0  0  0  0  0  0  0  0
   23.1442   20.2966   26.6981 H   0  0  0  0  0  0  0  0  0  0  0  0
  1  2  1  0  0  0  0
  1  3  1  0  0  0  0
  1  4  1  0  0  0  0
  1  5  1  0  0  0  0
  5  6  1  0  0  0  0
  5  7  1  0  0  0  0
  5  8  1  0  0  0  0
  8  9  1  0  0  0  0
  8 10  1  0  0  0  0
  8 11  1  0  0  0  0
 11 12  1  0  0  0  0
 11 13  1  0  0  0  0
 11 14  1  0  0  0  0
 14 15  1  0  0  0  0
 14 16  1  0  0  0  0
 14 17  1  0  0  0  0
 17 18  1  0  0  0  0
 17 19  1  0  0  0  0
 17 20  1  0  0  0  0
 20 21  1  0  0  0  0
 20 22  1  0  0  0  0
 20 23  1  0  0  0  0
 23 24  1  0  0  0  0
 23 25  1  0  0  0  0
 23 26  1  0  0  0  0
M  END
> <VConfSearch Rank>
722

> <Conf_Id>
20

> <Delta U+W>
0.150

> <U+W>
-5.403

> <U>
47.845

> <W>
-53.248

> <W(PB)>
-55.599

> <W(SA)>
2.351

> <Valence>
2.258

> <Coulomb>
44.893

> <VdW>
0.694

> <VdW6>
-6.285

> <VdW12>
6.979

> <Bond>
0.149

> <Angle>
0.434

> <Pdih>
1.675

> <Idih>
0.000

> <Tether>
0.000

$$$$
VeraChem MOL file


 26 25  0  0  0  0  0  0  0  0999 V2000     
   21.9920   16.7928   20.1128 C   0  0  0  0  0  0  0  0  0  0  0  0
   22.0975   15.8993   20.7421 H   0  0  0  0  0  0  0  0  0  0  0  0
   21.1006   16.6654   19.4849 H   0  0  0  0  0  0  0  0  0  0  0  0
   22.8662   16.8437   19.4508 H   0  0  0  0  0  0  0  0  0  0  0  0
   21.8859   18.0688   20.9745 C   0  0  0  0  0  0  0  0  0  0  0  0
   21.8159   18.9473   20.3179 H   0  0  0  0  0  0  0  0  0  0  0  0
   22.8050   18.1872   21.5654 H   0  0  0  0  0  0  0  0  0  0  0  0
   20.6625   18.0229   21.9166 C   0  0  0  0  0  0  0  0  0  0  0  0
   19.7466   17.9023   21.3216 H   0  0  0  0  0  0  0  0  0  0  0  0
   20.7358   17.1419   22.5692 H   0  0  0  0  0  0  0  0  0  0  0  0
   20.5529   19.2992   22.7812 C   0  0  0  0  0  0  0  0  0  0  0  0
   20.4809   20.1795   22.1275 H   0  0  0  0  0  0  0  0  0  0  0  0
   21.4690   19.4190   23.3761 H   0  0  0  0  0  0  0  0  0  0  0  0
   19.3284   19.2533   23.7230 C   0  0  0  0  0  0  0  0  0  0  0  0
   18.4120   19.1365   23.1278 H   0  0  0  0  0  0  0  0  0  0  0  0
   19.4031   18.3692   24.3703 H   0  0  0  0  0  0  0  0  0  0  0  0
   19.2211   20.5313   24.5882 C   0  0  0  0  0  0  0  0  0  0  0  0
   19.1845   21.4119   23.9332 H   0  0  0  0  0  0  0  0  0  0  0  0
   20.1190   20.6410   25.2108 H   0  0  0  0  0  0  0  0  0  0  0  0
   17.9686   20.5392   25.4858 C   0  0  0  0  0  0  0  0  0  0  0  0
   17.9025   21.4979   26.0075 H   0  0  0  0  0  0  0  0  0  0  0  0
   17.0731   20.4241   24.8692 H   0  0  0  0  0  0  0  0  0  0  0  0
   17.9620   19.4441   26.5343 N   0  3  0  0  0  0  0  0  0  0  0  0
   18.7702   19.5124   27.1613 H   0  0  0  0  0  0  0  0  0  0  0  0
   17.9855   18.5118   26.1098 H   0  0  0  0  0  0  0  0  0  0  0  0
   17.1225   19.4851   27.1223 H   0  0  0  0  0  0  0  0  0  0  0  0
  1  2  1  0  0  0  0
  1  3  1  0  0  0  0
  1  4  1  0  0  0  0
  1  5  1  0  0  0  0
  5  6  1  0  0  0  0
  5  7  1  0  0  0  0
  5  8  1  0  0  0  0
  8  9  1  0  0  0  0
  8 10  1  0  0  0  0
  8 11  1  0  0  0  0
 11 12  1  0  0  0  0
 11 13  1  0  0  0  0
 11 14  1  0  0  0  0
 14 15  1  0  0  0  0
 14 16  1  0  0  0  0
 14 17  1  0  0  0  0
 17 18  1  0  0  0  0
 17 19  1  0  0  0  0
 17 20  1  0  0  0  0
 20 21  1  0  0  0  0
 20 22  1  0  0  0  0
 20 23  1  0  0  0  0
 23 24  1  0  0  0  0
 23 25  1  0  0  0  0
 23 26  1  0  0  0  0
M  END
> <VConfSearch Rank>
723

> <Conf_Id>
19

> <Delta U+W>
0.162

> <U+W>
-5.391

> <U>
47.845

> <W>
-53.235

> <W(PB)>
-55.585

> <W(SA)>
2.349

> <Valence>
2.258

> <Coulomb>
44.893

> <VdW>
0.694

> <VdW6>
-6.285

> <VdW12>
6.979

> <Bond>
0.149

> <Angle>
0.434

> <Pdih>
1.675

> <Idih>
0.000

> <Tether>
0.000

$$$$
VeraChem MOL file


 26 25  0  0  0  0  0  0  0  0999 V2000     
   16.7165   20.8162   21.5057 C   0  0  0  0  0  0  0  0  0  0  0  0
   16.6945   21.9111   21.5823 H   0  0  0  0  0  0  0  0  0  0  0  0
   16.9742   20.5508   20.4721 H   0  0  0  0  0  0  0  0  0  0  0  0
   15.7033   20.4443   21.7066 H   0  0  0  0  0  0  0  0  0  0  0  0
   17.7271   20.2098   22.5022 C   0  0  0  0  0  0  0  0  0  0  0  0
   17.6901   19.1152   22.4247 H   0  0  0  0  0  0  0  0  0  0  0  0
   17.4268   20.4675   23.5275 H   0  0  0  0  0  0  0  0  0  0  0  0
   19.1643   20.7166   22.2358 C   0  0  0  0  0  0  0  0  0  0  0  0
   19.4837   20.4127   21.2293 H   0  0  0  0  0  0  0  0  0  0  0  0
   19.1613   21.8153   22.2391 H   0  0  0  0  0  0  0  0  0  0  0  0
   20.1984   20.2261   23.2788 C   0  0  0  0  0  0  0  0  0  0  0  0
   19.8862   20.5437   24.2833 H   0  0  0  0  0  0  0  0  0  0  0  0
   21.1559   20.7276   23.0807 H   0  0  0  0  0  0  0  0  0  0  0  0
   20.4186   18.6942   23.2595 C   0  0  0  0  0  0  0  0  0  0  0  0
   19.4886   18.1775   23.5311 H   0  0  0  0  0  0  0  0  0  0  0  0
   20.6774   18.3727   22.2411 H   0  0  0  0  0  0  0  0  0  0  0  0
   21.5366   18.2634   24.2344 C   0  0  0  0  0  0  0  0  0  0  0  0
   21.2810   18.5820   25.2539 H   0  0  0  0  0  0  0  0  0  0  0  0
   22.4760   18.7648   23.9657 H   0  0  0  0  0  0  0  0  0  0  0  0
   21.7466   16.7391   24.2121 C   0  0  0  0  0  0  0  0  0  0  0  0
   20.8184   16.2354   24.4953 H   0  0  0  0  0  0  0  0  0  0  0  0
   22.0172   16.4195   23.2021 H   0  0  0  0  0  0  0  0  0  0  0  0
   22.8368   16.2763   25.1569 N   0  3  0  0  0  0  0  0  0  0  0  0
   22.6290   16.5227   26.1303 H   0  0  0  0  0  0  0  0  0  0  0  0
   23.7445   16.6940   24.9270 H   0  0  0  0  0  0  0  0  0  0  0  0
   22.9604   15.2583   25.1266 H   0  0  0  0  0  0  0  0  0  0  0  0
  1  2  1  0  0  0  0
  1  3  1  0  0  0  0
  1  4  1  0  0  0  0
  1  5  1  0  0  0  0
  5  6  1  0  0  0  0
  5  7  1  0  0  0  0
  5  8  1  0  0  0  0
  8  9  1  0  0  0  0
  8 10  1  0  0  0  0
  8 11  1  0  0  0  0
 11 12  1  0  0  0  0
 11 13  1  0  0  0  0
 11 14  1  0  0  0  0
 14 15  1  0  0  0  0
 14 16  1  0  0  0  0
 14 17  1  0  0  0  0
 17 18  1  0  0  0  0
 17 19  1  0  0  0  0
 17 20  1  0  0  0  0
 20 21  1  0  0  0  0
 20 22  1  0  0  0  0
 20 23  1  0  0  0  0
 23 24  1  0  0  0  0
 23 25  1  0  0  0  0
 23 26  1  0  0  0  0
M  END
> <VConfSearch Rank>
724

> <Conf_Id>
37

> <Delta U+W>
0.565

> <U+W>
-4.988

> <U>
48.035

> <W>
-53.022

> <W(PB)>
-55.379

> <W(SA)>
2.357

> <Valence>
2.701

> <Coulomb>
44.622

> <VdW>
0.712

> <VdW6>
-6.418

> <VdW12>
7.129

> <Bond>
0.168

> <Angle>
0.659

> <Pdih>
1.875

> <Idih>
0.000

> <Tether>
0.000

$$$$
VeraChem MOL file


 26 25  0  0  0  0  0  0  0  0999 V2000     
   21.5818   17.6568   19.8153 C   0  0  0  0  0  0  0  0  0  0  0  0
   21.5623   18.7344   19.6062 H   0  0  0  0  0  0  0  0  0  0  0  0
   22.5560   17.4120   20.2583 H   0  0  0  0  0  0  0  0  0  0  0  0
   21.5043   17.1263   18.8575 H   0  0  0  0  0  0  0  0  0  0  0  0
   20.4272   17.2533   20.7568 C   0  0  0  0  0  0  0  0  0  0  0  0
   20.4525   16.1665   20.9187 H   0  0  0  0  0  0  0  0  0  0  0  0
   19.4665   17.4795   20.2733 H   0  0  0  0  0  0  0  0  0  0  0  0
   20.5129   17.9858   22.1141 C   0  0  0  0  0  0  0  0  0  0  0  0
   21.4739   17.7549   22.5942 H   0  0  0  0  0  0  0  0  0  0  0  0
   20.4960   19.0692   21.9374 H   0  0  0  0  0  0  0  0  0  0  0  0
   19.3532   17.5848   23.0573 C   0  0  0  0  0  0  0  0  0  0  0  0
   19.3384   16.4909   23.1604 H   0  0  0  0  0  0  0  0  0  0  0  0
   18.3924   17.8644   22.6033 H   0  0  0  0  0  0  0  0  0  0  0  0
   19.4600   18.2084   24.4707 C   0  0  0  0  0  0  0  0  0  0  0  0
   18.6679   17.7804   25.1009 H   0  0  0  0  0  0  0  0  0  0  0  0
   20.4131   17.9145   24.9319 H   0  0  0  0  0  0  0  0  0  0  0  0
   19.3299   19.7497   24.4793 C   0  0  0  0  0  0  0  0  0  0  0  0
   18.4013   20.0453   23.9731 H   0  0  0  0  0  0  0  0  0  0  0  0
   20.1606   20.2026   23.9236 H   0  0  0  0  0  0  0  0  0  0  0  0
   19.3277   20.3032   25.9151 C   0  0  0  0  0  0  0  0  0  0  0  0
   18.4923   19.8731   26.4742 H   0  0  0  0  0  0  0  0  0  0  0  0
   20.2578   20.0251   26.4182 H   0  0  0  0  0  0  0  0  0  0  0  0
   19.1993   21.8118   25.9698 N   0  3  0  0  0  0  0  0  0  0  0  0
   18.3293   22.1373   25.5358 H   0  0  0  0  0  0  0  0  0  0  0  0
   19.9721   22.2792   25.4845 H   0  0  0  0  0  0  0  0  0  0  0  0
   19.1994   22.1593   26.9351 H   0  0  0  0  0  0  0  0  0  0  0  0
  1  2  1  0  0  0  0
  1  3  1  0  0  0  0
  1  4  1  0  0  0  0
  1  5  1  0  0  0  0
  5  6  1  0  0  0  0
  5  7  1  0  0  0  0
  5  8  1  0  0  0  0
  8  9  1  0  0  0  0
  8 10  1  0  0  0  0
  8 11  1  0  0  0  0
 11 12  1  0  0  0  0
 11 13  1  0  0  0  0
 11 14  1  0  0  0  0
 14 15  1  0  0  0  0
 14 16  1  0  0  0  0
 14 17  1  0  0  0  0
 17 18  1  0  0  0  0
 17 19  1  0  0  0  0
 17 20  1  0  0  0  0
 20 21  1  0  0  0  0
 20 22  1  0  0  0  0
 20 23  1  0  0  0  0
 23 24  1  0  0  0  0
 23 25  1  0  0  0  0
 23 26  1  0  0  0  0
M  END
> <VConfSearch Rank>
725

> <Conf_Id>
35

> <Delta U+W>
0.587

> <U+W>
-4.965

> <U>
48.214

> <W>
-53.179

> <W(PB)>
-55.527

> <W(SA)>
2.348

> <Valence>
2.697

> <Coulomb>
44.819

> <VdW>
0.699

> <VdW6>
-6.437

> <VdW12>
7.136

> <Bond>
0.168

> <Angle>
0.657

> <Pdih>
1.872

> <Idih>
0.000

> <Tether>
0.000

$$$$
VeraChem MOL file


 26 25  0  0  0  0  0  0  0  0999 V2000     
   16.3803   20.0379   24.5356 C   0  0  0  0  0  0  0  0  0  0  0  0
   16.6452   21.0865   24.7238 H   0  0  0  0  0  0  0  0  0  0  0  0
   16.1603   19.9275   23.4657 H   0  0  0  0  0  0  0  0  0  0  0  0
   15.4607   19.8174   25.0931 H   0  0  0  0  0  0  0  0  0  0  0  0
   17.5201   19.0914   24.9684 C   0  0  0  0  0  0  0  0  0  0  0  0
   17.2132   18.0497   24.7991 H   0  0  0  0  0  0  0  0  0  0  0  0
   17.6927   19.1995   26.0484 H   0  0  0  0  0  0  0  0  0  0  0  0
   18.8278   19.3811   24.1988 C   0  0  0  0  0  0  0  0  0  0  0  0
   18.6391   19.2787   23.1222 H   0  0  0  0  0  0  0  0  0  0  0  0
   19.1314   20.4226   24.3727 H   0  0  0  0  0  0  0  0  0  0  0  0
   19.9702   18.4298   24.6292 C   0  0  0  0  0  0  0  0  0  0  0  0
   19.6913   17.3907   24.4061 H   0  0  0  0  0  0  0  0  0  0  0  0
   20.0924   18.4887   25.7197 H   0  0  0  0  0  0  0  0  0  0  0  0
   21.3310   18.7556   23.9658 C   0  0  0  0  0  0  0  0  0  0  0  0
   21.6186   19.7892   24.2033 H   0  0  0  0  0  0  0  0  0  0  0  0
   22.1001   18.1112   24.4141 H   0  0  0  0  0  0  0  0  0  0  0  0
   21.3373   18.5517   22.4325 C   0  0  0  0  0  0  0  0  0  0  0  0
   20.6341   19.2461   21.9556 H   0  0  0  0  0  0  0  0  0  0  0  0
   21.0012   17.5340   22.1933 H   0  0  0  0  0  0  0  0  0  0  0  0
   22.7408   18.7780   21.8435 C   0  0  0  0  0  0  0  0  0  0  0  0
   23.0733   19.7957   22.0652 H   0  0  0  0  0  0  0  0  0  0  0  0
   23.4479   18.0785   22.2977 H   0  0  0  0  0  0  0  0  0  0  0  0
   22.7927   18.5857   20.3416 N   0  3  0  0  0  0  0  0  0  0  0  0
   22.1688   19.2350   19.8512 H   0  0  0  0  0  0  0  0  0  0  0  0
   22.5166   17.6369   20.0680 H   0  0  0  0  0  0  0  0  0  0  0  0
   23.7364   18.7407   19.9702 H   0  0  0  0  0  0  0  0  0  0  0  0
  1  2  1  0  0  0  0
  1  3  1  0  0  0  0
  1  4  1  0  0  0  0
  1  5  1  0  0  0  0
  5  6  1  0  0  0  0
  5  7  1  0  0  0  0
  5  8  1  0  0  0  0
  8  9  1  0  0  0  0
  8 10  1  0  0  0  0
  8 11  1  0  0  0  0
 11 12  1  0  0  0  0
 11 13  1  0  0  0  0
 11 14  1  0  0  0  0
 14 15  1  0  0  0  0
 14 16  1  0  0  0  0
 14 17  1  0  0  0  0
 17 18  1  0  0  0  0
 17 19  1  0  0  0  0
 17 20  1  0  0  0  0
 20 21  1  0  0  0  0
 20 22  1  0  0  0  0
 20 23  1  0  0  0  0
 23 24  1  0  0  0  0
 23 25  1  0  0  0  0
 23 26  1  0  0  0  0
M  END
> <VConfSearch Rank>
726

> <Conf_Id>
36

> <Delta U+W>
0.565

> <U+W>
-4.987

> <U>
48.214

> <W>
-53.201

> <W(PB)>
-55.543

> <W(SA)>
2.342

> <Valence>
2.697

> <Coulomb>
44.819

> <VdW>
0.698

> <VdW6>
-6.437

> <VdW12>
7.136

> <Bond>
0.168

> <Angle>
0.657

> <Pdih>
1.872

> <Idih>
0.000

> <Tether>
0.000

$$$$
VeraChem MOL file


 26 25  0  0  0  0  0  0  0  0999 V2000     
   20.9644   15.9260   20.3236 C   0  0  0  0  0  0  0  0  0  0  0  0
   20.0607   15.9140   19.7004 H   0  0  0  0  0  0  0  0  0  0  0  0
   21.8305   15.7859   19.6638 H   0  0  0  0  0  0  0  0  0  0  0  0
   20.9196   15.0684   21.0075 H   0  0  0  0  0  0  0  0  0  0  0  0
   21.0826   17.2523   21.1039 C   0  0  0  0  0  0  0  0  0  0  0  0
   21.1596   18.0875   20.3937 H   0  0  0  0  0  0  0  0  0  0  0  0
   22.0120   17.2485   21.6906 H   0  0  0  0  0  0  0  0  0  0  0  0
   19.8748   17.4743   22.0412 C   0  0  0  0  0  0  0  0  0  0  0  0
   18.9484   17.4744   21.4503 H   0  0  0  0  0  0  0  0  0  0  0  0
   19.8009   16.6361   22.7479 H   0  0  0  0  0  0  0  0  0  0  0  0
   19.9893   18.8017   22.8242 C   0  0  0  0  0  0  0  0  0  0  0  0
   20.0606   19.6391   22.1164 H   0  0  0  0  0  0  0  0  0  0  0  0
   20.9201   18.7970   23.4071 H   0  0  0  0  0  0  0  0  0  0  0  0
   18.7787   19.0205   23.7631 C   0  0  0  0  0  0  0  0  0  0  0  0
   17.8520   18.9741   23.1745 H   0  0  0  0  0  0  0  0  0  0  0  0
   18.7236   18.2019   24.4942 H   0  0  0  0  0  0  0  0  0  0  0  0
   18.8252   20.3751   24.5084 C   0  0  0  0  0  0  0  0  0  0  0  0
   17.8974   20.4977   25.0829 H   0  0  0  0  0  0  0  0  0  0  0  0
   18.8548   21.1964   23.7799 H   0  0  0  0  0  0  0  0  0  0  0  0
   20.0275   20.4874   25.4646 C   0  0  0  0  0  0  0  0  0  0  0  0
   19.9976   19.6705   26.1906 H   0  0  0  0  0  0  0  0  0  0  0  0
   20.9593   20.4113   24.8984 H   0  0  0  0  0  0  0  0  0  0  0  0
   20.0551   21.7938   26.2313 N   0  3  0  0  0  0  0  0  0  0  0  0
   20.8625   21.8487   26.8618 H   0  0  0  0  0  0  0  0  0  0  0  0
   19.2168   21.9157   26.8089 H   0  0  0  0  0  0  0  0  0  0  0  0
   20.1101   22.6035   25.6047 H   0  0  0  0  0  0  0  0  0  0  0  0
  1  2  1  0  0  0  0
  1  3  1  0  0  0  0
  1  4  1  0  0  0  0
  1  5  1  0  0  0  0
  5  6  1  0  0  0  0
  5  7  1  0  0  0  0
  5  8  1  0  0  0  0
  8  9  1  0  0  0  0
  8 10  1  0  0  0  0
  8 11  1  0  0  0  0
 11 12  1  0  0  0  0
 11 13  1  0  0  0  0
 11 14  1  0  0  0  0
 14 15  1  0  0  0  0
 14 16  1  0  0  0  0
 14 17  1  0  0  0  0
 17 18  1  0  0  0  0
 17 19  1  0  0  0  0
 17 20  1  0  0  0  0
 20 21  1  0  0  0  0
 20 22  1  0  0  0  0
 20 23  1  0  0  0  0
 23 24  1  0  0  0  0
 23 25  1  0  0  0  0
 23 26  1  0  0  0  0
M  END
> <VConfSearch Rank>
727

> <Conf_Id>
44

> <Delta U+W>
0.371

> <U+W>
-5.181

> <U>
48.002

> <W>
-53.183

> <W(PB)>
-55.533

> <W(SA)>
2.350

> <Valence>
2.459

> <Coulomb>
44.901

> <VdW>
0.643

> <VdW6>
-6.362

> <VdW12>
7.005

> <Bond>
0.151

> <Angle>
0.519

> <Pdih>
1.789

> <Idih>
0.000

> <Tether>
0.000

$$$$
VeraChem MOL file


 26 25  0  0  0  0  0  0  0  0999 V2000     
   18.7746   16.0584   20.8879 C   0  0  0  0  0  0  0  0  0  0  0  0
   17.7669   16.0259   21.3221 H   0  0  0  0  0  0  0  0  0  0  0  0
   18.7565   15.4804   19.9549 H   0  0  0  0  0  0  0  0  0  0  0  0
   19.4625   15.5511   21.5753 H   0  0  0  0  0  0  0  0  0  0  0  0
   19.2148   17.5144   20.6129 C   0  0  0  0  0  0  0  0  0  0  0  0
   18.5733   17.9332   19.8249 H   0  0  0  0  0  0  0  0  0  0  0  0
   20.2381   17.5224   20.2121 H   0  0  0  0  0  0  0  0  0  0  0  0
   19.1324   18.4312   21.8575 C   0  0  0  0  0  0  0  0  0  0  0  0
   19.3285   19.4606   21.5321 H   0  0  0  0  0  0  0  0  0  0  0  0
   18.1074   18.4205   22.2530 H   0  0  0  0  0  0  0  0  0  0  0  0
   20.1301   18.0412   22.9779 C   0  0  0  0  0  0  0  0  0  0  0  0
   21.1555   18.0556   22.5838 H   0  0  0  0  0  0  0  0  0  0  0  0
   19.9356   17.0085   23.2946 H   0  0  0  0  0  0  0  0  0  0  0  0
   20.0427   18.9479   24.2307 C   0  0  0  0  0  0  0  0  0  0  0  0
   19.0137   18.9446   24.6162 H   0  0  0  0  0  0  0  0  0  0  0  0
   20.6675   18.5031   25.0164 H   0  0  0  0  0  0  0  0  0  0  0  0
   20.5012   20.4061   23.9762 C   0  0  0  0  0  0  0  0  0  0  0  0
   19.8530   20.8755   23.2262 H   0  0  0  0  0  0  0  0  0  0  0  0
   21.5185   20.4146   23.5630 H   0  0  0  0  0  0  0  0  0  0  0  0
   20.4566   21.2732   25.2494 C   0  0  0  0  0  0  0  0  0  0  0  0
   20.6938   22.3087   24.9904 H   0  0  0  0  0  0  0  0  0  0  0  0
   19.4499   21.2506   25.6753 H   0  0  0  0  0  0  0  0  0  0  0  0
   21.4328   20.8347   26.3236 N   0  3  0  0  0  0  0  0  0  0  0  0
   21.2433   19.8796   26.6425 H   0  0  0  0  0  0  0  0  0  0  0  0
   21.3874   21.4413   27.1497 H   0  0  0  0  0  0  0  0  0  0  0  0
   22.4017   20.8563   25.9894 H   0  0  0  0  0  0  0  0  0  0  0  0
  1  2  1  0  0  0  0
  1  3  1  0  0  0  0
  1  4  1  0  0  0  0
  1  5  1  0  0  0  0
  5  6  1  0  0  0  0
  5  7  1  0  0  0  0
  5  8  1  0  0  0  0
  8  9  1  0  0  0  0
  8 10  1  0  0  0  0
  8 11  1  0  0  0  0
 11 12  1  0  0  0  0
 11 13  1  0  0  0  0
 11 14  1  0  0  0  0
 14 15  1  0  0  0  0
 14 16  1  0  0  0  0
 14 17  1  0  0  0  0
 17 18  1  0  0  0  0
 17 19  1  0  0  0  0
 17 20  1  0  0  0  0
 20 21  1  0  0  0  0
 20 22  1  0  0  0  0
 20 23  1  0  0  0  0
 23 24  1  0  0  0  0
 23 25  1  0  0  0  0
 23 26  1  0  0  0  0
M  END
> <VConfSearch Rank>
728

> <Conf_Id>
112

> <Delta U+W>
1.422

> <U+W>
-4.130

> <U>
49.323

> <W>
-53.453

> <W(PB)>
-55.749

> <W(SA)>
2.296

> <Valence>
3.408

> <Coulomb>
44.893

> <VdW>
1.021

> <VdW6>
-7.481

> <VdW12>
8.503

> <Bond>
0.239

> <Angle>
1.013

> <Pdih>
2.156

> <Idih>
0.000

> <Tether>
0.000

$$$$
VeraChem MOL file


 26 25  0  0  0  0  0  0  0  0999 V2000     
   17.9939   15.7875   22.8690 C   0  0  0  0  0  0  0  0  0  0  0  0
   17.3106   14.9337   22.9637 H   0  0  0  0  0  0  0  0  0  0  0  0
   17.4709   16.5672   22.3014 H   0  0  0  0  0  0  0  0  0  0  0  0
   18.8624   15.4592   22.2833 H   0  0  0  0  0  0  0  0  0  0  0  0
   18.4239   16.2938   24.2645 C   0  0  0  0  0  0  0  0  0  0  0  0
   18.8360   15.4506   24.8363 H   0  0  0  0  0  0  0  0  0  0  0  0
   17.5412   16.6397   24.8202 H   0  0  0  0  0  0  0  0  0  0  0  0
   19.4827   17.4213   24.2083 C   0  0  0  0  0  0  0  0  0  0  0  0
   19.8038   17.6501   25.2338 H   0  0  0  0  0  0  0  0  0  0  0  0
   20.3707   17.0521   23.6788 H   0  0  0  0  0  0  0  0  0  0  0  0
   18.9622   18.7183   23.5384 C   0  0  0  0  0  0  0  0  0  0  0  0
   18.0043   18.9979   23.9980 H   0  0  0  0  0  0  0  0  0  0  0  0
   18.7545   18.5362   22.4756 H   0  0  0  0  0  0  0  0  0  0  0  0
   19.9363   19.9151   23.6685 C   0  0  0  0  0  0  0  0  0  0  0  0
   19.4337   20.8089   23.2759 H   0  0  0  0  0  0  0  0  0  0  0  0
   20.1350   20.1141   24.7307 H   0  0  0  0  0  0  0  0  0  0  0  0
   21.2753   19.7055   22.9175 C   0  0  0  0  0  0  0  0  0  0  0  0
   21.0830   19.4819   21.8598 H   0  0  0  0  0  0  0  0  0  0  0  0
   21.8017   18.8369   23.3320 H   0  0  0  0  0  0  0  0  0  0  0  0
   22.2127   20.9240   23.0233 C   0  0  0  0  0  0  0  0  0  0  0  0
   22.3913   21.1609   24.0756 H   0  0  0  0  0  0  0  0  0  0  0  0
   23.1735   20.6826   22.5605 H   0  0  0  0  0  0  0  0  0  0  0  0
   21.6770   22.1693   22.3442 N   0  3  0  0  0  0  0  0  0  0  0  0
   20.7905   22.4756   22.7567 H   0  0  0  0  0  0  0  0  0  0  0  0
   21.5094   22.0157   21.3446 H   0  0  0  0  0  0  0  0  0  0  0  0
   22.3312   22.9558   22.4208 H   0  0  0  0  0  0  0  0  0  0  0  0
  1  2  1  0  0  0  0
  1  3  1  0  0  0  0
  1  4  1  0  0  0  0
  1  5  1  0  0  0  0
  5  6  1  0  0  0  0
  5  7  1  0  0  0  0
  5  8  1  0  0  0  0
  8  9  1  0  0  0  0
  8 10  1  0  0  0  0
  8 11  1  0  0  0  0
 11 12  1  0  0  0  0
 11 13  1  0  0  0  0
 11 14  1  0  0  0  0
 14 15  1  0  0  0  0
 14 16  1  0  0  0  0
 14 17  1  0  0  0  0
 17 18  1  0  0  0  0
 17 19  1  0  0  0  0
 17 20  1  0  0  0  0
 20 21  1  0  0  0  0
 20 22  1  0  0  0  0
 20 23  1  0  0  0  0
 23 24  1  0  0  0  0
 23 25  1  0  0  0  0
 23 26  1  0  0  0  0
M  END
> <VConfSearch Rank>
729

> <Conf_Id>
130

> <Delta U+W>
1.282

> <U+W>
-4.270

> <U>
49.153

> <W>
-53.422

> <W(PB)>
-55.725

> <W(SA)>
2.303

> <Valence>
3.298

> <Coulomb>
44.907

> <VdW>
0.948

> <VdW6>
-7.574

> <VdW12>
8.522

> <Bond>
0.229

> <Angle>
0.912

> <Pdih>
2.157

> <Idih>
0.000

> <Tether>
0.000

$$$$
VeraChem MOL file


 26 25  0  0  0  0  0  0  0  0999 V2000     
   17.7068   21.1581   22.1775 C   0  0  0  0  0  0  0  0  0  0  0  0
   17.2482   20.7415   21.2714 H   0  0  0  0  0  0  0  0  0  0  0  0
   17.3165   22.1747   22.3150 H   0  0  0  0  0  0  0  0  0  0  0  0
   18.7881   21.2393   22.0102 H   0  0  0  0  0  0  0  0  0  0  0  0
   17.3894   20.2847   23.4123 C   0  0  0  0  0  0  0  0  0  0  0  0
   16.3094   20.3315   23.6100 H   0  0  0  0  0  0  0  0  0  0  0  0
   17.8748   20.7089   24.3013 H   0  0  0  0  0  0  0  0  0  0  0  0
   17.7938   18.7984   23.2373 C   0  0  0  0  0  0  0  0  0  0  0  0
   17.5122   18.2460   24.1443 H   0  0  0  0  0  0  0  0  0  0  0  0
   17.1972   18.3634   22.4238 H   0  0  0  0  0  0  0  0  0  0  0  0
   19.2949   18.5471   22.9399 C   0  0  0  0  0  0  0  0  0  0  0  0
   19.5680   19.0059   21.9805 H   0  0  0  0  0  0  0  0  0  0  0  0
   19.4360   17.4663   22.8083 H   0  0  0  0  0  0  0  0  0  0  0  0
   20.2414   19.0603   24.0547 C   0  0  0  0  0  0  0  0  0  0  0  0
   20.1229   20.1458   24.1666 H   0  0  0  0  0  0  0  0  0  0  0  0
   19.9573   18.6139   25.0177 H   0  0  0  0  0  0  0  0  0  0  0  0
   21.7325   18.7645   23.7682 C   0  0  0  0  0  0  0  0  0  0  0  0
   22.3453   19.2470   24.5412 H   0  0  0  0  0  0  0  0  0  0  0  0
   22.0211   19.2172   22.8103 H   0  0  0  0  0  0  0  0  0  0  0  0
   22.0491   17.2572   23.7461 C   0  0  0  0  0  0  0  0  0  0  0  0
   21.7603   16.8067   24.6996 H   0  0  0  0  0  0  0  0  0  0  0  0
   21.4813   16.7706   22.9491 H   0  0  0  0  0  0  0  0  0  0  0  0
   23.5174   16.9635   23.5156 N   0  3  0  0  0  0  0  0  0  0  0  0
   23.8462   17.3390   22.6201 H   0  0  0  0  0  0  0  0  0  0  0  0
   23.7071   15.9554   23.5046 H   0  0  0  0  0  0  0  0  0  0  0  0
   24.1079   17.3701   24.2485 H   0  0  0  0  0  0  0  0  0  0  0  0
  1  2  1  0  0  0  0
  1  3  1  0  0  0  0
  1  4  1  0  0  0  0
  1  5  1  0  0  0  0
  5  6  1  0  0  0  0
  5  7  1  0  0  0  0
  5  8  1  0  0  0  0
  8  9  1  0  0  0  0
  8 10  1  0  0  0  0
  8 11  1  0  0  0  0
 11 12  1  0  0  0  0
 11 13  1  0  0  0  0
 11 14  1  0  0  0  0
 14 15  1  0  0  0  0
 14 16  1  0  0  0  0
 14 17  1  0  0  0  0
 17 18  1  0  0  0  0
 17 19  1  0  0  0  0
 17 20  1  0  0  0  0
 20 21  1  0  0  0  0
 20 22  1  0  0  0  0
 20 23  1  0  0  0  0
 23 24  1  0  0  0  0
 23 25  1  0  0  0  0
 23 26  1  0  0  0  0
M  END
> <VConfSearch Rank>
730

> <Conf_Id>
111

> <Delta U+W>
1.290

> <U+W>
-4.262

> <U>
49.209

> <W>
-53.471

> <W(PB)>
-55.745

> <W(SA)>
2.274

> <Valence>
3.465

> <Coulomb>
44.958

> <VdW>
0.786

> <VdW6>
-7.903

> <VdW12>
8.689

> <Bond>
0.237

> <Angle>
1.212

> <Pdih>
2.015

> <Idih>
0.000

> <Tether>
0.000

$$$$
VeraChem MOL file


 26 25  0  0  0  0  0  0  0  0999 V2000     
   23.4757   17.0541   23.2861 C   0  0  0  0  0  0  0  0  0  0  0  0
   23.7460   17.4446   24.2759 H   0  0  0  0  0  0  0  0  0  0  0  0
   23.4425   15.9586   23.3480 H   0  0  0  0  0  0  0  0  0  0  0  0
   24.2756   17.3277   22.5858 H   0  0  0  0  0  0  0  0  0  0  0  0
   22.1210   17.6252   22.8160 C   0  0  0  0  0  0  0  0  0  0  0  0
   21.8921   17.2403   21.8124 H   0  0  0  0  0  0  0  0  0  0  0  0
   22.2064   18.7163   22.7272 H   0  0  0  0  0  0  0  0  0  0  0  0
   20.9777   17.2558   23.7906 C   0  0  0  0  0  0  0  0  0  0  0  0
   20.9628   16.1655   23.9258 H   0  0  0  0  0  0  0  0  0  0  0  0
   21.1815   17.6860   24.7808 H   0  0  0  0  0  0  0  0  0  0  0  0
   19.5785   17.7086   23.3056 C   0  0  0  0  0  0  0  0  0  0  0  0
   18.8244   17.3040   23.9947 H   0  0  0  0  0  0  0  0  0  0  0  0
   19.3686   17.2637   22.3231 H   0  0  0  0  0  0  0  0  0  0  0  0
   19.4173   19.2460   23.2289 C   0  0  0  0  0  0  0  0  0  0  0  0
   19.6876   19.6866   24.1977 H   0  0  0  0  0  0  0  0  0  0  0  0
   20.1101   19.6589   22.4840 H   0  0  0  0  0  0  0  0  0  0  0  0
   17.9726   19.6510   22.8519 C   0  0  0  0  0  0  0  0  0  0  0  0
   17.2674   19.2786   23.6069 H   0  0  0  0  0  0  0  0  0  0  0  0
   17.6971   19.1723   21.9027 H   0  0  0  0  0  0  0  0  0  0  0  0
   17.8025   21.1746   22.6971 C   0  0  0  0  0  0  0  0  0  0  0  0
   18.5068   21.5497   21.9496 H   0  0  0  0  0  0  0  0  0  0  0  0
   16.7889   21.3930   22.3502 H   0  0  0  0  0  0  0  0  0  0  0  0
   18.0248   21.9472   23.9825 N   0  3  0  0  0  0  0  0  0  0  0  0
   17.8918   22.9555   23.8485 H   0  0  0  0  0  0  0  0  0  0  0  0
   18.9739   21.8155   24.3455 H   0  0  0  0  0  0  0  0  0  0  0  0
   17.3749   21.6550   24.7196 H   0  0  0  0  0  0  0  0  0  0  0  0
  1  2  1  0  0  0  0
  1  3  1  0  0  0  0
  1  4  1  0  0  0  0
  1  5  1  0  0  0  0
  5  6  1  0  0  0  0
  5  7  1  0  0  0  0
  5  8  1  0  0  0  0
  8  9  1  0  0  0  0
  8 10  1  0  0  0  0
  8 11  1  0  0  0  0
 11 12  1  0  0  0  0
 11 13  1  0  0  0  0
 11 14  1  0  0  0  0
 14 15  1  0  0  0  0
 14 16  1  0  0  0  0
 14 17  1  0  0  0  0
 17 18  1  0  0  0  0
 17 19  1  0  0  0  0
 17 20  1  0  0  0  0
 20 21  1  0  0  0  0
 20 22  1  0  0  0  0
 20 23  1  0  0  0  0
 23 24  1  0  0  0  0
 23 25  1  0  0  0  0
 23 26  1  0  0  0  0
M  END
> <VConfSearch Rank>
731

> <Conf_Id>
105

> <Delta U+W>
0.736

> <U+W>
-4.817

> <U>
48.735

> <W>
-53.552

> <W(PB)>
-55.889

> <W(SA)>
2.337

> <Valence>
2.803

> <Coulomb>
45.123

> <VdW>
0.809

> <VdW6>
-6.953

> <VdW12>
7.761

> <Bond>
0.188

> <Angle>
0.699

> <Pdih>
1.917

> <Idih>
0.000

> <Tether>
0.000

$$$$
VeraChem MOL file


 26 25  0  0  0  0  0  0  0  0999 V2000     
   21.9738   22.0403   24.0442 C   0  0  0  0  0  0  0  0  0  0  0  0
   22.4527   22.1854   25.0213 H   0  0  0  0  0  0  0  0  0  0  0  0
   22.7287   21.6532   23.3474 H   0  0  0  0  0  0  0  0  0  0  0  0
   21.6502   23.0235   23.6786 H   0  0  0  0  0  0  0  0  0  0  0  0
   20.7730   21.0767   24.1519 C   0  0  0  0  0  0  0  0  0  0  0  0
   20.2975   20.9888   23.1659 H   0  0  0  0  0  0  0  0  0  0  0  0
   20.0223   21.5038   24.8314 H   0  0  0  0  0  0  0  0  0  0  0  0
   21.2051   19.6817   24.6616 C   0  0  0  0  0  0  0  0  0  0  0  0
   21.9242   19.2364   23.9616 H   0  0  0  0  0  0  0  0  0  0  0  0
   21.7454   19.8010   25.6109 H   0  0  0  0  0  0  0  0  0  0  0  0
   20.0191   18.7104   24.8961 C   0  0  0  0  0  0  0  0  0  0  0  0
   19.3809   19.1161   25.6932 H   0  0  0  0  0  0  0  0  0  0  0  0
   20.4130   17.7602   25.2824 H   0  0  0  0  0  0  0  0  0  0  0  0
   19.1374   18.4202   23.6536 C   0  0  0  0  0  0  0  0  0  0  0  0
   18.3342   17.7376   23.9609 H   0  0  0  0  0  0  0  0  0  0  0  0
   18.6395   19.3413   23.3229 H   0  0  0  0  0  0  0  0  0  0  0  0
   19.9195   17.7947   22.4715 C   0  0  0  0  0  0  0  0  0  0  0  0
   20.4356   16.8834   22.8014 H   0  0  0  0  0  0  0  0  0  0  0  0
   20.6962   18.4910   22.1313 H   0  0  0  0  0  0  0  0  0  0  0  0
   19.0152   17.4673   21.2676 C   0  0  0  0  0  0  0  0  0  0  0  0
   18.4854   18.3691   20.9490 H   0  0  0  0  0  0  0  0  0  0  0  0
   19.6331   17.1227   20.4339 H   0  0  0  0  0  0  0  0  0  0  0  0
   17.9856   16.3908   21.5503 N   0  3  0  0  0  0  0  0  0  0  0  0
   17.3449   16.6655   22.3011 H   0  0  0  0  0  0  0  0  0  0  0  0
   18.4249   15.5090   21.8340 H   0  0  0  0  0  0  0  0  0  0  0  0
   17.4112   16.1873   20.7251 H   0  0  0  0  0  0  0  0  0  0  0  0
  1  2  1  0  0  0  0
  1  3  1  0  0  0  0
  1  4  1  0  0  0  0
  1  5  1  0  0  0  0
  5  6  1  0  0  0  0
  5  7  1  0  0  0  0
  5  8  1  0  0  0  0
  8  9  1  0  0  0  0
  8 10  1  0  0  0  0
  8 11  1  0  0  0  0
 11 12  1  0  0  0  0
 11 13  1  0  0  0  0
 11 14  1  0  0  0  0
 14 15  1  0  0  0  0
 14 16  1  0  0  0  0
 14 17  1  0  0  0  0
 17 18  1  0  0  0  0
 17 19  1  0  0  0  0
 17 20  1  0  0  0  0
 20 21  1  0  0  0  0
 20 22  1  0  0  0  0
 20 23  1  0  0  0  0
 23 24  1  0  0  0  0
 23 25  1  0  0  0  0
 23 26  1  0  0  0  0
M  END
> <VConfSearch Rank>
732

> <Conf_Id>
144

> <Delta U+W>
1.073

> <U+W>
-4.479

> <U>
49.231

> <W>
-53.710

> <W(PB)>
-55.983

> <W(SA)>
2.273

> <Valence>
3.276

> <Coulomb>
45.175

> <VdW>
0.779

> <VdW6>
-7.944

> <VdW12>
8.723

> <Bond>
0.239

> <Angle>
1.155

> <Pdih>
1.883

> <Idih>
0.000

> <Tether>
0.000

$$$$
VeraChem MOL file


 26 25  0  0  0  0  0  0  0  0999 V2000     
   20.9192   15.9299   21.3495 C   0  0  0  0  0  0  0  0  0  0  0  0
   21.0077   16.5726   20.4652 H   0  0  0  0  0  0  0  0  0  0  0  0
   21.5654   15.0575   21.1874 H   0  0  0  0  0  0  0  0  0  0  0  0
   19.8833   15.5723   21.4131 H   0  0  0  0  0  0  0  0  0  0  0  0
   21.3307   16.6741   22.6404 C   0  0  0  0  0  0  0  0  0  0  0  0
   22.3578   17.0519   22.5399 H   0  0  0  0  0  0  0  0  0  0  0  0
   21.3486   15.9535   23.4700 H   0  0  0  0  0  0  0  0  0  0  0  0
   20.3785   17.8356   23.0157 C   0  0  0  0  0  0  0  0  0  0  0  0
   19.3502   17.4569   23.0944 H   0  0  0  0  0  0  0  0  0  0  0  0
   20.6638   18.1906   24.0138 H   0  0  0  0  0  0  0  0  0  0  0  0
   20.4301   19.0225   22.0217 C   0  0  0  0  0  0  0  0  0  0  0  0
   20.2464   18.6565   21.0037 H   0  0  0  0  0  0  0  0  0  0  0  0
   21.4433   19.4472   22.0151 H   0  0  0  0  0  0  0  0  0  0  0  0
   19.4017   20.1474   22.3089 C   0  0  0  0  0  0  0  0  0  0  0  0
   19.5106   20.9042   21.5196 H   0  0  0  0  0  0  0  0  0  0  0  0
   18.3790   19.7583   22.2076 H   0  0  0  0  0  0  0  0  0  0  0  0
   19.5679   20.8528   23.6786 C   0  0  0  0  0  0  0  0  0  0  0  0
   19.2003   21.8837   23.5878 H   0  0  0  0  0  0  0  0  0  0  0  0
   20.6320   20.9250   23.9400 H   0  0  0  0  0  0  0  0  0  0  0  0
   18.7817   20.1636   24.8111 C   0  0  0  0  0  0  0  0  0  0  0  0
   17.7177   20.1475   24.5601 H   0  0  0  0  0  0  0  0  0  0  0  0
   19.1178   19.1324   24.9334 H   0  0  0  0  0  0  0  0  0  0  0  0
   18.9343   20.8620   26.1468 N   0  3  0  0  0  0  0  0  0  0  0  0
   18.6033   21.8316   26.1108 H   0  0  0  0  0  0  0  0  0  0  0  0
   19.9118   20.8883   26.4550 H   0  0  0  0  0  0  0  0  0  0  0  0
   18.4004   20.3919   26.8860 H   0  0  0  0  0  0  0  0  0  0  0  0
  1  2  1  0  0  0  0
  1  3  1  0  0  0  0
  1  4  1  0  0  0  0
  1  5  1  0  0  0  0
  5  6  1  0  0  0  0
  5  7  1  0  0  0  0
  5  8  1  0  0  0  0
  8  9  1  0  0  0  0
  8 10  1  0  0  0  0
  8 11  1  0  0  0  0
 11 12  1  0  0  0  0
 11 13  1  0  0  0  0
 11 14  1  0  0  0  0
 14 15  1  0  0  0  0
 14 16  1  0  0  0  0
 14 17  1  0  0  0  0
 17 18  1  0  0  0  0
 17 19  1  0  0  0  0
 17 20  1  0  0  0  0
 20 21  1  0  0  0  0
 20 22  1  0  0  0  0
 20 23  1  0  0  0  0
 23 24  1  0  0  0  0
 23 25  1  0  0  0  0
 23 26  1  0  0  0  0
M  END
> <VConfSearch Rank>
733

> <Conf_Id>
93

> <Delta U+W>
3.253

> <U+W>
-2.300

> <U>
51.609

> <W>
-53.909

> <W(PB)>
-56.178

> <W(SA)>
2.270

> <Valence>
5.204

> <Coulomb>
45.645

> <VdW>
0.760

> <VdW6>
-7.997

> <VdW12>
8.758

> <Bond>
0.240

> <Angle>
1.456

> <Pdih>
3.507

> <Idih>
0.000

> <Tether>
0.000

$$$$
VeraChem MOL file


 26 25  0  0  0  0  0  0  0  0999 V2000     
   19.5699   18.9848   19.6512 C   0  0  0  0  0  0  0  0  0  0  0  0
   18.6674   18.3789   19.7974 H   0  0  0  0  0  0  0  0  0  0  0  0
   19.2871   20.0438   19.7115 H   0  0  0  0  0  0  0  0  0  0  0  0
   19.9333   18.7925   18.6334 H   0  0  0  0  0  0  0  0  0  0  0  0
   20.6631   18.6413   20.6886 C   0  0  0  0  0  0  0  0  0  0  0  0
   21.5835   19.1780   20.4189 H   0  0  0  0  0  0  0  0  0  0  0  0
   20.9047   17.5707   20.6329 H   0  0  0  0  0  0  0  0  0  0  0  0
   20.2793   19.0180   22.1403 C   0  0  0  0  0  0  0  0  0  0  0  0
   21.1699   18.8812   22.7663 H   0  0  0  0  0  0  0  0  0  0  0  0
   20.0184   20.0842   22.1865 H   0  0  0  0  0  0  0  0  0  0  0  0
   19.1207   18.1649   22.7141 C   0  0  0  0  0  0  0  0  0  0  0  0
   19.4256   17.1098   22.7423 H   0  0  0  0  0  0  0  0  0  0  0  0
   18.2584   18.2149   22.0373 H   0  0  0  0  0  0  0  0  0  0  0  0
   18.6380   18.5995   24.1225 C   0  0  0  0  0  0  0  0  0  0  0  0
   18.2259   19.6174   24.0824 H   0  0  0  0  0  0  0  0  0  0  0  0
   17.7962   17.9494   24.3986 H   0  0  0  0  0  0  0  0  0  0  0  0
   19.7071   18.5034   25.2400 C   0  0  0  0  0  0  0  0  0  0  0  0
   20.3603   17.6382   25.0650 H   0  0  0  0  0  0  0  0  0  0  0  0
   19.1985   18.3194   26.1957 H   0  0  0  0  0  0  0  0  0  0  0  0
   20.5451   19.7889   25.3850 C   0  0  0  0  0  0  0  0  0  0  0  0
   21.0681   20.0082   24.4523 H   0  0  0  0  0  0  0  0  0  0  0  0
   19.8860   20.6312   25.6119 H   0  0  0  0  0  0  0  0  0  0  0  0
   21.5810   19.6984   26.4867 N   0  3  0  0  0  0  0  0  0  0  0  0
   21.1514   19.5261   27.4015 H   0  0  0  0  0  0  0  0  0  0  0  0
   22.1246   20.5643   26.5709 H   0  0  0  0  0  0  0  0  0  0  0  0
   22.2508   18.9402   26.3204 H   0  0  0  0  0  0  0  0  0  0  0  0
  1  2  1  0  0  0  0
  1  3  1  0  0  0  0
  1  4  1  0  0  0  0
  1  5  1  0  0  0  0
  5  6  1  0  0  0  0
  5  7  1  0  0  0  0
  5  8  1  0  0  0  0
  8  9  1  0  0  0  0
  8 10  1  0  0  0  0
  8 11  1  0  0  0  0
 11 12  1  0  0  0  0
 11 13  1  0  0  0  0
 11 14  1  0  0  0  0
 14 15  1  0  0  0  0
 14 16  1  0  0  0  0
 14 17  1  0  0  0  0
 17 18  1  0  0  0  0
 17 19  1  0  0  0  0
 17 20  1  0  0  0  0
 20 21  1  0  0  0  0
 20 22  1  0  0  0  0
 20 23  1  0  0  0  0
 23 24  1  0  0  0  0
 23 25  1  0  0  0  0
 23 26  1  0  0  0  0
M  END
> <VConfSearch Rank>
734

> <Conf_Id>
94

> <Delta U+W>
3.247

> <U+W>
-2.305

> <U>
51.609

> <W>
-53.914

> <W(PB)>
-56.221

> <W(SA)>
2.307

> <Valence>
5.204

> <Coulomb>
45.645

> <VdW>
0.760

> <VdW6>
-7.997

> <VdW12>
8.757

> <Bond>
0.240

> <Angle>
1.456

> <Pdih>
3.508

> <Idih>
0.000

> <Tether>
0.000

$$$$
VeraChem MOL file


 26 25  0  0  0  0  0  0  0  0999 V2000     
   16.6512   20.9741   24.2744 C   0  0  0  0  0  0  0  0  0  0  0  0
   15.8645   20.2204   24.1397 H   0  0  0  0  0  0  0  0  0  0  0  0
   16.9304   20.9911   25.3360 H   0  0  0  0  0  0  0  0  0  0  0  0
   16.2257   21.9541   24.0221 H   0  0  0  0  0  0  0  0  0  0  0  0
   17.8737   20.6653   23.3842 C   0  0  0  0  0  0  0  0  0  0  0  0
   18.6283   21.4536   23.5151 H   0  0  0  0  0  0  0  0  0  0  0  0
   17.5707   20.6887   22.3280 H   0  0  0  0  0  0  0  0  0  0  0  0
   18.4923   19.2900   23.7190 C   0  0  0  0  0  0  0  0  0  0  0  0
   18.7917   19.2707   24.7761 H   0  0  0  0  0  0  0  0  0  0  0  0
   17.7334   18.5061   23.5894 H   0  0  0  0  0  0  0  0  0  0  0  0
   19.7165   18.9770   22.8293 C   0  0  0  0  0  0  0  0  0  0  0  0
   20.4671   19.7682   22.9583 H   0  0  0  0  0  0  0  0  0  0  0  0
   19.4149   18.9932   21.7728 H   0  0  0  0  0  0  0  0  0  0  0  0
   20.3354   17.5998   23.1683 C   0  0  0  0  0  0  0  0  0  0  0  0
   20.6612   17.5867   24.2170 H   0  0  0  0  0  0  0  0  0  0  0  0
   19.5607   16.8256   23.0802 H   0  0  0  0  0  0  0  0  0  0  0  0
   21.5190   17.2190   22.2438 C   0  0  0  0  0  0  0  0  0  0  0  0
   21.1611   17.1495   21.2080 H   0  0  0  0  0  0  0  0  0  0  0  0
   21.8800   16.2168   22.5105 H   0  0  0  0  0  0  0  0  0  0  0  0
   22.6995   18.2101   22.2936 C   0  0  0  0  0  0  0  0  0  0  0  0
   23.4765   17.8842   21.5968 H   0  0  0  0  0  0  0  0  0  0  0  0
   22.3624   19.2030   21.9851 H   0  0  0  0  0  0  0  0  0  0  0  0
   23.3324   18.3337   23.6654 N   0  3  0  0  0  0  0  0  0  0  0  0
   23.6956   17.4349   23.9990 H   0  0  0  0  0  0  0  0  0  0  0  0
   22.6596   18.6668   24.3628 H   0  0  0  0  0  0  0  0  0  0  0  0
   24.1181   18.9931   23.6649 H   0  0  0  0  0  0  0  0  0  0  0  0
  1  2  1  0  0  0  0
  1  3  1  0  0  0  0
  1  4  1  0  0  0  0
  1  5  1  0  0  0  0
  5  6  1  0  0  0  0
  5  7  1  0  0  0  0
  5  8  1  0  0  0  0
  8  9  1  0  0  0  0
  8 10  1  0  0  0  0
  8 11  1  0  0  0  0
 11 12  1  0  0  0  0
 11 13  1  0  0  0  0
 11 14  1  0  0  0  0
 14 15  1  0  0  0  0
 14 16  1  0  0  0  0
 14 17  1  0  0  0  0
 17 18  1  0  0  0  0
 17 19  1  0  0  0  0
 17 20  1  0  0  0  0
 20 21  1  0  0  0  0
 20 22  1  0  0  0  0
 20 23  1  0  0  0  0
 23 24  1  0  0  0  0
 23 25  1  0  0  0  0
 23 26  1  0  0  0  0
M  END
> <VConfSearch Rank>
735

> <Conf_Id>
83

> <Delta U+W>
0.559

> <U+W>
-4.994

> <U>
48.668

> <W>
-53.661

> <W(PB)>
-55.972

> <W(SA)>
2.311

> <Valence>
2.543

> <Coulomb>
45.478

> <VdW>
0.646

> <VdW6>
-7.096

> <VdW12>
7.742

> <Bond>
0.176

> <Angle>
0.630

> <Pdih>
1.738

> <Idih>
0.000

> <Tether>
0.000

$$$$
VeraChem MOL file


 26 25  0  0  0  0  0  0  0  0999 V2000     
   19.3118   16.6925   26.3812 C   0  0  0  0  0  0  0  0  0  0  0  0
   18.9978   17.1808   27.3130 H   0  0  0  0  0  0  0  0  0  0  0  0
   18.4395   16.1832   25.9512 H   0  0  0  0  0  0  0  0  0  0  0  0
   20.0568   15.9278   26.6365 H   0  0  0  0  0  0  0  0  0  0  0  0
   19.9007   17.7171   25.3884 C   0  0  0  0  0  0  0  0  0  0  0  0
   20.2399   17.1862   24.4891 H   0  0  0  0  0  0  0  0  0  0  0  0
   20.7877   18.1882   25.8346 H   0  0  0  0  0  0  0  0  0  0  0  0
   18.8664   18.8036   25.0101 C   0  0  0  0  0  0  0  0  0  0  0  0
   18.0036   18.3373   24.5148 H   0  0  0  0  0  0  0  0  0  0  0  0
   18.4812   19.2645   25.9301 H   0  0  0  0  0  0  0  0  0  0  0  0
   19.4424   19.9214   24.1063 C   0  0  0  0  0  0  0  0  0  0  0  0
   20.2963   20.3968   24.6086 H   0  0  0  0  0  0  0  0  0  0  0  0
   18.6783   20.7026   23.9916 H   0  0  0  0  0  0  0  0  0  0  0  0
   19.8709   19.4253   22.7043 C   0  0  0  0  0  0  0  0  0  0  0  0
   20.6847   18.6963   22.8030 H   0  0  0  0  0  0  0  0  0  0  0  0
   19.0295   18.9045   22.2264 H   0  0  0  0  0  0  0  0  0  0  0  0
   20.3328   20.5933   21.8010 C   0  0  0  0  0  0  0  0  0  0  0  0
   21.1916   21.1043   22.2563 H   0  0  0  0  0  0  0  0  0  0  0  0
   19.5283   21.3373   21.7280 H   0  0  0  0  0  0  0  0  0  0  0  0
   20.7023   20.1352   20.3768 C   0  0  0  0  0  0  0  0  0  0  0  0
   19.8516   19.6189   19.9239 H   0  0  0  0  0  0  0  0  0  0  0  0
   20.9357   21.0101   19.7639 H   0  0  0  0  0  0  0  0  0  0  0  0
   21.8990   19.2057   20.3251 N   0  3  0  0  0  0  0  0  0  0  0  0
   21.7325   18.3425   20.8514 H   0  0  0  0  0  0  0  0  0  0  0  0
   22.7386   19.6438   20.7179 H   0  0  0  0  0  0  0  0  0  0  0  0
   22.1265   18.9316   19.3631 H   0  0  0  0  0  0  0  0  0  0  0  0
  1  2  1  0  0  0  0
  1  3  1  0  0  0  0
  1  4  1  0  0  0  0
  1  5  1  0  0  0  0
  5  6  1  0  0  0  0
  5  7  1  0  0  0  0
  5  8  1  0  0  0  0
  8  9  1  0  0  0  0
  8 10  1  0  0  0  0
  8 11  1  0  0  0  0
 11 12  1  0  0  0  0
 11 13  1  0  0  0  0
 11 14  1  0  0  0  0
 14 15  1  0  0  0  0
 14 16  1  0  0  0  0
 14 17  1  0  0  0  0
 17 18  1  0  0  0  0
 17 19  1  0  0  0  0
 17 20  1  0  0  0  0
 20 21  1  0  0  0  0
 20 22  1  0  0  0  0
 20 23  1  0  0  0  0
 23 24  1  0  0  0  0
 23 25  1  0  0  0  0
 23 26  1  0  0  0  0
M  END
> <VConfSearch Rank>
736

> <Conf_Id>
18

> <Delta U+W>
0.759

> <U+W>
-4.793

> <U>
48.945

> <W>
-53.738

> <W(PB)>
-56.051

> <W(SA)>
2.313

> <Valence>
2.802

> <Coulomb>
45.335

> <VdW>
0.807

> <VdW6>
-6.962

> <VdW12>
7.769

> <Bond>
0.189

> <Angle>
0.696

> <Pdih>
1.917

> <Idih>
0.000

> <Tether>
0.000

$$$$
VeraChem MOL file


 26 25  0  0  0  0  0  0  0  0999 V2000     
   19.9548   22.0909   20.9835 C   0  0  0  0  0  0  0  0  0  0  0  0
   18.9818   21.9139   20.5069 H   0  0  0  0  0  0  0  0  0  0  0  0
   19.9212   23.0717   21.4755 H   0  0  0  0  0  0  0  0  0  0  0  0
   20.7143   22.1372   20.1922 H   0  0  0  0  0  0  0  0  0  0  0  0
   20.2884   20.9734   21.9944 C   0  0  0  0  0  0  0  0  0  0  0  0
   21.2786   21.1622   22.4323 H   0  0  0  0  0  0  0  0  0  0  0  0
   20.3536   20.0172   21.4588 H   0  0  0  0  0  0  0  0  0  0  0  0
   19.2284   20.8861   23.1178 C   0  0  0  0  0  0  0  0  0  0  0  0
   19.1220   21.8749   23.5851 H   0  0  0  0  0  0  0  0  0  0  0  0
   18.2483   20.6436   22.6844 H   0  0  0  0  0  0  0  0  0  0  0  0
   19.5768   19.8576   24.2218 C   0  0  0  0  0  0  0  0  0  0  0  0
   18.8373   19.9518   25.0291 H   0  0  0  0  0  0  0  0  0  0  0  0
   20.5503   20.1094   24.6648 H   0  0  0  0  0  0  0  0  0  0  0  0
   19.5933   18.3932   23.7213 C   0  0  0  0  0  0  0  0  0  0  0  0
   18.6368   18.1617   23.2325 H   0  0  0  0  0  0  0  0  0  0  0  0
   20.3781   18.2701   22.9647 H   0  0  0  0  0  0  0  0  0  0  0  0
   19.8338   17.3958   24.8794 C   0  0  0  0  0  0  0  0  0  0  0  0
   19.0655   17.5411   25.6505 H   0  0  0  0  0  0  0  0  0  0  0  0
   20.8007   17.6009   25.3580 H   0  0  0  0  0  0  0  0  0  0  0  0
   19.7889   15.9259   24.4190 C   0  0  0  0  0  0  0  0  0  0  0  0
   19.8779   15.2706   25.2897 H   0  0  0  0  0  0  0  0  0  0  0  0
   18.8303   15.7209   23.9348 H   0  0  0  0  0  0  0  0  0  0  0  0
   20.8946   15.5551   23.4501 N   0  3  0  0  0  0  0  0  0  0  0  0
   21.8235   15.7053   23.8569 H   0  0  0  0  0  0  0  0  0  0  0  0
   20.8470   16.1088   22.5893 H   0  0  0  0  0  0  0  0  0  0  0  0
   20.8442   14.5680   23.1752 H   0  0  0  0  0  0  0  0  0  0  0  0
  1  2  1  0  0  0  0
  1  3  1  0  0  0  0
  1  4  1  0  0  0  0
  1  5  1  0  0  0  0
  5  6  1  0  0  0  0
  5  7  1  0  0  0  0
  5  8  1  0  0  0  0
  8  9  1  0  0  0  0
  8 10  1  0  0  0  0
  8 11  1  0  0  0  0
 11 12  1  0  0  0  0
 11 13  1  0  0  0  0
 11 14  1  0  0  0  0
 14 15  1  0  0  0  0
 14 16  1  0  0  0  0
 14 17  1  0  0  0  0
 17 18  1  0  0  0  0
 17 19  1  0  0  0  0
 17 20  1  0  0  0  0
 20 21  1  0  0  0  0
 20 22  1  0  0  0  0
 20 23  1  0  0  0  0
 23 24  1  0  0  0  0
 23 25  1  0  0  0  0
 23 26  1  0  0  0  0
M  END
> <VConfSearch Rank>
737

> <Conf_Id>
17

> <Delta U+W>
0.843

> <U+W>
-4.709

> <U>
48.945

> <W>
-53.653

> <W(PB)>
-55.991

> <W(SA)>
2.338

> <Valence>
2.802

> <Coulomb>
45.335

> <VdW>
0.807

> <VdW6>
-6.962

> <VdW12>
7.769

> <Bond>
0.189

> <Angle>
0.696

> <Pdih>
1.917

> <Idih>
0.000

> <Tether>
0.000

$$$$
VeraChem MOL file


 26 25  0  0  0  0  0  0  0  0999 V2000     
   16.6667   19.6675   24.1659 C   0  0  0  0  0  0  0  0  0  0  0  0
   17.3778   20.4284   23.8212 H   0  0  0  0  0  0  0  0  0  0  0  0
   16.2442   19.1665   23.2853 H   0  0  0  0  0  0  0  0  0  0  0  0
   15.8491   20.1893   24.6797 H   0  0  0  0  0  0  0  0  0  0  0  0
   17.3393   18.6498   25.1150 C   0  0  0  0  0  0  0  0  0  0  0  0
   16.5661   17.9875   25.5289 H   0  0  0  0  0  0  0  0  0  0  0  0
   17.7811   19.1787   25.9711 H   0  0  0  0  0  0  0  0  0  0  0  0
   18.4177   17.7816   24.4228 C   0  0  0  0  0  0  0  0  0  0  0  0
   18.7593   17.0177   25.1349 H   0  0  0  0  0  0  0  0  0  0  0  0
   17.9667   17.2391   23.5805 H   0  0  0  0  0  0  0  0  0  0  0  0
   19.6386   18.5932   23.9272 C   0  0  0  0  0  0  0  0  0  0  0  0
   20.0565   19.1722   24.7622 H   0  0  0  0  0  0  0  0  0  0  0  0
   19.3152   19.3153   23.1671 H   0  0  0  0  0  0  0  0  0  0  0  0
   20.7347   17.6743   23.3362 C   0  0  0  0  0  0  0  0  0  0  0  0
   21.0238   16.9266   24.0877 H   0  0  0  0  0  0  0  0  0  0  0  0
   20.3285   17.1150   22.4819 H   0  0  0  0  0  0  0  0  0  0  0  0
   22.0002   18.4456   22.8930 C   0  0  0  0  0  0  0  0  0  0  0  0
   22.7627   17.7238   22.5710 H   0  0  0  0  0  0  0  0  0  0  0  0
   22.4218   18.9867   23.7505 H   0  0  0  0  0  0  0  0  0  0  0  0
   21.7241   19.4321   21.7428 C   0  0  0  0  0  0  0  0  0  0  0  0
   21.3049   18.8934   20.8887 H   0  0  0  0  0  0  0  0  0  0  0  0
   20.9993   20.1839   22.0655 H   0  0  0  0  0  0  0  0  0  0  0  0
   22.9682   20.1580   21.2731 N   0  3  0  0  0  0  0  0  0  0  0  0
   22.7632   20.8094   20.5076 H   0  0  0  0  0  0  0  0  0  0  0  0
   23.6825   19.5082   20.9286 H   0  0  0  0  0  0  0  0  0  0  0  0
   23.3973   20.7070   22.0253 H   0  0  0  0  0  0  0  0  0  0  0  0
  1  2  1  0  0  0  0
  1  3  1  0  0  0  0
  1  4  1  0  0  0  0
  1  5  1  0  0  0  0
  5  6  1  0  0  0  0
  5  7  1  0  0  0  0
  5  8  1  0  0  0  0
  8  9  1  0  0  0  0
  8 10  1  0  0  0  0
  8 11  1  0  0  0  0
 11 12  1  0  0  0  0
 11 13  1  0  0  0  0
 11 14  1  0  0  0  0
 14 15  1  0  0  0  0
 14 16  1  0  0  0  0
 14 17  1  0  0  0  0
 17 18  1  0  0  0  0
 17 19  1  0  0  0  0
 17 20  1  0  0  0  0
 20 21  1  0  0  0  0
 20 22  1  0  0  0  0
 20 23  1  0  0  0  0
 23 24  1  0  0  0  0
 23 25  1  0  0  0  0
 23 26  1  0  0  0  0
M  END
> <VConfSearch Rank>
738

> <Conf_Id>
96

> <Delta U+W>
0.912

> <U+W>
-4.640

> <U>
48.723

> <W>
-53.364

> <W(PB)>
-55.683

> <W(SA)>
2.320

> <Valence>
2.962

> <Coulomb>
44.993

> <VdW>
0.768

> <VdW6>
-7.008

> <VdW12>
7.776

> <Bond>
0.188

> <Angle>
0.757

> <Pdih>
2.018

> <Idih>
0.000

> <Tether>
0.000

$$$$
VeraChem MOL file


 26 25  0  0  0  0  0  0  0  0999 V2000     
   21.5092   21.7019   24.9130 C   0  0  0  0  0  0  0  0  0  0  0  0
   21.9563   22.2781   25.7333 H   0  0  0  0  0  0  0  0  0  0  0  0
   21.1761   22.4130   24.1459 H   0  0  0  0  0  0  0  0  0  0  0  0
   20.6261   21.1892   25.3139 H   0  0  0  0  0  0  0  0  0  0  0  0
   22.5343   20.7001   24.3347 C   0  0  0  0  0  0  0  0  0  0  0  0
   22.8275   19.9810   25.1123 H   0  0  0  0  0  0  0  0  0  0  0  0
   23.4477   21.2467   24.0615 H   0  0  0  0  0  0  0  0  0  0  0  0
   22.0183   19.9417   23.0879 C   0  0  0  0  0  0  0  0  0  0  0  0
   21.7455   20.6639   22.3061 H   0  0  0  0  0  0  0  0  0  0  0  0
   22.8430   19.3412   22.6798 H   0  0  0  0  0  0  0  0  0  0  0  0
   20.8154   19.0141   23.3841 C   0  0  0  0  0  0  0  0  0  0  0  0
   19.9654   19.6147   23.7311 H   0  0  0  0  0  0  0  0  0  0  0  0
   21.0761   18.3260   24.2000 H   0  0  0  0  0  0  0  0  0  0  0  0
   20.3996   18.2002   22.1351 C   0  0  0  0  0  0  0  0  0  0  0  0
   20.1099   18.8851   21.3260 H   0  0  0  0  0  0  0  0  0  0  0  0
   21.2665   17.6339   21.7673 H   0  0  0  0  0  0  0  0  0  0  0  0
   19.2433   17.2107   22.4121 C   0  0  0  0  0  0  0  0  0  0  0  0
   19.5391   16.5099   23.2042 H   0  0  0  0  0  0  0  0  0  0  0  0
   19.0656   16.6093   21.5106 H   0  0  0  0  0  0  0  0  0  0  0  0
   17.9350   17.9197   22.8096 C   0  0  0  0  0  0  0  0  0  0  0  0
   18.0863   18.4865   23.7318 H   0  0  0  0  0  0  0  0  0  0  0  0
   17.6402   18.6169   22.0208 H   0  0  0  0  0  0  0  0  0  0  0  0
   16.7861   16.9589   23.0383 N   0  3  0  0  0  0  0  0  0  0  0  0
   16.9900   16.2910   23.7889 H   0  0  0  0  0  0  0  0  0  0  0  0
   16.5722   16.4121   22.1977 H   0  0  0  0  0  0  0  0  0  0  0  0
   15.9250   17.4504   23.3016 H   0  0  0  0  0  0  0  0  0  0  0  0
  1  2  1  0  0  0  0
  1  3  1  0  0  0  0
  1  4  1  0  0  0  0
  1  5  1  0  0  0  0
  5  6  1  0  0  0  0
  5  7  1  0  0  0  0
  5  8  1  0  0  0  0
  8  9  1  0  0  0  0
  8 10  1  0  0  0  0
  8 11  1  0  0  0  0
 11 12  1  0  0  0  0
 11 13  1  0  0  0  0
 11 14  1  0  0  0  0
 14 15  1  0  0  0  0
 14 16  1  0  0  0  0
 14 17  1  0  0  0  0
 17 18  1  0  0  0  0
 17 19  1  0  0  0  0
 17 20  1  0  0  0  0
 20 21  1  0  0  0  0
 20 22  1  0  0  0  0
 20 23  1  0  0  0  0
 23 24  1  0  0  0  0
 23 25  1  0  0  0  0
 23 26  1  0  0  0  0
M  END
> <VConfSearch Rank>
739

> <Conf_Id>
133

> <Delta U+W>
0.844

> <U+W>
-4.708

> <U>
48.723

> <W>
-53.431

> <W(PB)>
-55.776

> <W(SA)>
2.344

> <Valence>
2.962

> <Coulomb>
44.993

> <VdW>
0.768

> <VdW6>
-7.008

> <VdW12>
7.776

> <Bond>
0.188

> <Angle>
0.756

> <Pdih>
2.018

> <Idih>
0.000

> <Tether>
0.000

$$$$
VeraChem MOL file


 26 25  0  0  0  0  0  0  0  0999 V2000     
   19.1821   15.8049   22.2729 C   0  0  0  0  0  0  0  0  0  0  0  0
   19.8718   15.3234   21.5677 H   0  0  0  0  0  0  0  0  0  0  0  0
   19.7495   16.0948   23.1660 H   0  0  0  0  0  0  0  0  0  0  0  0
   18.4401   15.0570   22.5811 H   0  0  0  0  0  0  0  0  0  0  0  0
   18.4860   17.0229   21.6247 C   0  0  0  0  0  0  0  0  0  0  0  0
   17.8173   17.4993   22.3540 H   0  0  0  0  0  0  0  0  0  0  0  0
   17.8381   16.6682   20.8110 H   0  0  0  0  0  0  0  0  0  0  0  0
   19.4778   18.0644   21.0465 C   0  0  0  0  0  0  0  0  0  0  0  0
   20.0500   17.5959   20.2339 H   0  0  0  0  0  0  0  0  0  0  0  0
   18.9048   18.8776   20.5801 H   0  0  0  0  0  0  0  0  0  0  0  0
   20.4731   18.6713   22.0690 C   0  0  0  0  0  0  0  0  0  0  0  0
   21.1286   19.3742   21.5366 H   0  0  0  0  0  0  0  0  0  0  0  0
   21.1308   17.8853   22.4631 H   0  0  0  0  0  0  0  0  0  0  0  0
   19.7832   19.4132   23.2388 C   0  0  0  0  0  0  0  0  0  0  0  0
   19.0923   20.1683   22.8388 H   0  0  0  0  0  0  0  0  0  0  0  0
   19.1806   18.7074   23.8258 H   0  0  0  0  0  0  0  0  0  0  0  0
   20.8091   20.0954   24.1702 C   0  0  0  0  0  0  0  0  0  0  0  0
   21.4110   20.8125   23.5963 H   0  0  0  0  0  0  0  0  0  0  0  0
   21.5006   19.3429   24.5724 H   0  0  0  0  0  0  0  0  0  0  0  0
   20.1149   20.8259   25.3331 C   0  0  0  0  0  0  0  0  0  0  0  0
   19.4372   21.5872   24.9374 H   0  0  0  0  0  0  0  0  0  0  0  0
   19.5275   20.1127   25.9177 H   0  0  0  0  0  0  0  0  0  0  0  0
   21.0892   21.5091   26.2709 N   0  3  0  0  0  0  0  0  0  0  0  0
   20.6063   21.9896   27.0380 H   0  0  0  0  0  0  0  0  0  0  0  0
   21.6553   22.2138   25.7869 H   0  0  0  0  0  0  0  0  0  0  0  0
   21.7393   20.8418   26.6991 H   0  0  0  0  0  0  0  0  0  0  0  0
  1  2  1  0  0  0  0
  1  3  1  0  0  0  0
  1  4  1  0  0  0  0
  1  5  1  0  0  0  0
  5  6  1  0  0  0  0
  5  7  1  0  0  0  0
  5  8  1  0  0  0  0
  8  9  1  0  0  0  0
  8 10  1  0  0  0  0
  8 11  1  0  0  0  0
 11 12  1  0  0  0  0
 11 13  1  0  0  0  0
 11 14  1  0  0  0  0
 14 15  1  0  0  0  0
 14 16  1  0  0  0  0
 14 17  1  0  0  0  0
 17 18  1  0  0  0  0
 17 19  1  0  0  0  0
 17 20  1  0  0  0  0
 20 21  1  0  0  0  0
 20 22  1  0  0  0  0
 20 23  1  0  0  0  0
 23 24  1  0  0  0  0
 23 25  1  0  0  0  0
 23 26  1  0  0  0  0
M  END
> <VConfSearch Rank>
740

> <Conf_Id>
106

> <Delta U+W>
0.767

> <U+W>
-4.785

> <U>
48.494

> <W>
-53.279

> <W(PB)>
-55.569

> <W(SA)>
2.290

> <Valence>
3.117

> <Coulomb>
44.693

> <VdW>
0.684

> <VdW6>
-7.347

> <VdW12>
8.030

> <Bond>
0.208

> <Angle>
1.039

> <Pdih>
1.870

> <Idih>
0.000

> <Tether>
0.000

$$$$
VeraChem MOL file


 26 25  0  0  0  0  0  0  0  0999 V2000     
   16.5345   19.0981   20.4472 C   0  0  0  0  0  0  0  0  0  0  0  0
   16.4269   20.1900   20.4855 H   0  0  0  0  0  0  0  0  0  0  0  0
   17.1222   18.8435   19.5555 H   0  0  0  0  0  0  0  0  0  0  0  0
   15.5332   18.6649   20.3258 H   0  0  0  0  0  0  0  0  0  0  0  0
   17.2088   18.5618   21.7278 C   0  0  0  0  0  0  0  0  0  0  0  0
   17.2717   17.4658   21.6750 H   0  0  0  0  0  0  0  0  0  0  0  0
   16.5817   18.8019   22.5978 H   0  0  0  0  0  0  0  0  0  0  0  0
   18.6211   19.1565   21.9227 C   0  0  0  0  0  0  0  0  0  0  0  0
   19.2434   18.9161   21.0496 H   0  0  0  0  0  0  0  0  0  0  0  0
   18.5534   20.2521   21.9726 H   0  0  0  0  0  0  0  0  0  0  0  0
   19.2997   18.6217   23.2041 C   0  0  0  0  0  0  0  0  0  0  0  0
   19.3668   17.5260   23.1534 H   0  0  0  0  0  0  0  0  0  0  0  0
   18.6765   18.8621   24.0766 H   0  0  0  0  0  0  0  0  0  0  0  0
   20.7125   19.2171   23.3987 C   0  0  0  0  0  0  0  0  0  0  0  0
   21.3361   18.9769   22.5262 H   0  0  0  0  0  0  0  0  0  0  0  0
   20.6458   20.3129   23.4496 H   0  0  0  0  0  0  0  0  0  0  0  0
   21.3914   18.6830   24.6792 C   0  0  0  0  0  0  0  0  0  0  0  0
   21.4649   17.5883   24.6298 H   0  0  0  0  0  0  0  0  0  0  0  0
   20.7737   18.9256   25.5542 H   0  0  0  0  0  0  0  0  0  0  0  0
   22.7968   19.2822   24.8632 C   0  0  0  0  0  0  0  0  0  0  0  0
   23.4207   19.0291   24.0016 H   0  0  0  0  0  0  0  0  0  0  0  0
   22.7269   20.3713   24.9292 H   0  0  0  0  0  0  0  0  0  0  0  0
   23.4967   18.7820   26.1104 N   0  3  0  0  0  0  0  0  0  0  0  0
   24.4308   19.1933   26.2139 H   0  0  0  0  0  0  0  0  0  0  0  0
   23.6187   17.7641   26.0981 H   0  0  0  0  0  0  0  0  0  0  0  0
   22.9731   19.0130   26.9611 H   0  0  0  0  0  0  0  0  0  0  0  0
  1  2  1  0  0  0  0
  1  3  1  0  0  0  0
  1  4  1  0  0  0  0
  1  5  1  0  0  0  0
  5  6  1  0  0  0  0
  5  7  1  0  0  0  0
  5  8  1  0  0  0  0
  8  9  1  0  0  0  0
  8 10  1  0  0  0  0
  8 11  1  0  0  0  0
 11 12  1  0  0  0  0
 11 13  1  0  0  0  0
 11 14  1  0  0  0  0
 14 15  1  0  0  0  0
 14 16  1  0  0  0  0
 14 17  1  0  0  0  0
 17 18  1  0  0  0  0
 17 19  1  0  0  0  0
 17 20  1  0  0  0  0
 20 21  1  0  0  0  0
 20 22  1  0  0  0  0
 20 23  1  0  0  0  0
 23 24  1  0  0  0  0
 23 25  1  0  0  0  0
 23 26  1  0  0  0  0
M  END
> <VConfSearch Rank>
741

> <Conf_Id>
25

> <Delta U+W>
0.000

> <U+W>
-5.552

> <U>
47.192

> <W>
-52.745

> <W(PB)>
-55.134

> <W(SA)>
2.389

> <Valence>
2.156

> <Coulomb>
44.449

> <VdW>
0.587

> <VdW6>
-5.761

> <VdW12>
6.348

> <Bond>
0.129

> <Angle>
0.393

> <Pdih>
1.634

> <Idih>
0.000

> <Tether>
0.000

$$$$
VeraChem MOL file


 26 25  0  0  0  0  0  0  0  0999 V2000     
   19.3811   21.3009   19.6800 C   0  0  0  0  0  0  0  0  0  0  0  0
   19.0525   22.2077   20.2043 H   0  0  0  0  0  0  0  0  0  0  0  0
   20.4608   21.3829   19.4988 H   0  0  0  0  0  0  0  0  0  0  0  0
   18.8770   21.2739   18.7052 H   0  0  0  0  0  0  0  0  0  0  0  0
   19.0506   20.0356   20.4997 C   0  0  0  0  0  0  0  0  0  0  0  0
   19.3599   19.1446   19.9353 H   0  0  0  0  0  0  0  0  0  0  0  0
   17.9624   19.9630   20.6353 H   0  0  0  0  0  0  0  0  0  0  0  0
   19.7484   20.0482   21.8778 C   0  0  0  0  0  0  0  0  0  0  0  0
   20.8356   20.1233   21.7370 H   0  0  0  0  0  0  0  0  0  0  0  0
   19.4380   20.9416   22.4372 H   0  0  0  0  0  0  0  0  0  0  0  0
   19.4199   18.7825   22.7015 C   0  0  0  0  0  0  0  0  0  0  0  0
   19.7307   17.8896   22.1416 H   0  0  0  0  0  0  0  0  0  0  0  0
   18.3324   18.7080   22.8407 H   0  0  0  0  0  0  0  0  0  0  0  0
   20.1176   18.7957   24.0805 C   0  0  0  0  0  0  0  0  0  0  0  0
   21.2033   18.8753   23.9355 H   0  0  0  0  0  0  0  0  0  0  0  0
   19.8044   19.6872   24.6415 H   0  0  0  0  0  0  0  0  0  0  0  0
   19.7882   17.5276   24.9030 C   0  0  0  0  0  0  0  0  0  0  0  0
   20.1255   16.6316   24.3650 H   0  0  0  0  0  0  0  0  0  0  0  0
   18.6991   17.4368   25.0108 H   0  0  0  0  0  0  0  0  0  0  0  0
   20.4169   17.5501   26.3096 C   0  0  0  0  0  0  0  0  0  0  0  0
   20.0877   18.4444   26.8457 H   0  0  0  0  0  0  0  0  0  0  0  0
   20.0818   16.6735   26.8707 H   0  0  0  0  0  0  0  0  0  0  0  0
   21.9330   17.5381   26.3008 N   0  3  0  0  0  0  0  0  0  0  0  0
   22.3165   18.3572   25.8192 H   0  0  0  0  0  0  0  0  0  0  0  0
   22.3045   16.7072   25.8289 H   0  0  0  0  0  0  0  0  0  0  0  0
   22.3192   17.5406   27.2512 H   0  0  0  0  0  0  0  0  0  0  0  0
  1  2  1  0  0  0  0
  1  3  1  0  0  0  0
  1  4  1  0  0  0  0
  1  5  1  0  0  0  0
  5  6  1  0  0  0  0
  5  7  1  0  0  0  0
  5  8  1  0  0  0  0
  8  9  1  0  0  0  0
  8 10  1  0  0  0  0
  8 11  1  0  0  0  0
 11 12  1  0  0  0  0
 11 13  1  0  0  0  0
 11 14  1  0  0  0  0
 14 15  1  0  0  0  0
 14 16  1  0  0  0  0
 14 17  1  0  0  0  0
 17 18  1  0  0  0  0
 17 19  1  0  0  0  0
 17 20  1  0  0  0  0
 20 21  1  0  0  0  0
 20 22  1  0  0  0  0
 20 23  1  0  0  0  0
 23 24  1  0  0  0  0
 23 25  1  0  0  0  0
 23 26  1  0  0  0  0
M  END
> <VConfSearch Rank>
742

> <Conf_Id>
20

> <Delta U+W>
0.150

> <U+W>
-5.403

> <U>
47.845

> <W>
-53.248

> <W(PB)>
-55.599

> <W(SA)>
2.351

> <Valence>
2.258

> <Coulomb>
44.893

> <VdW>
0.694

> <VdW6>
-6.285

> <VdW12>
6.979

> <Bond>
0.149

> <Angle>
0.434

> <Pdih>
1.675

> <Idih>
0.000

> <Tether>
0.000

$$$$
VeraChem MOL file


 26 25  0  0  0  0  0  0  0  0999 V2000     
   22.8010   22.1552   22.8911 C   0  0  0  0  0  0  0  0  0  0  0  0
   22.2180   22.7924   23.5688 H   0  0  0  0  0  0  0  0  0  0  0  0
   23.5876   21.6624   23.4773 H   0  0  0  0  0  0  0  0  0  0  0  0
   23.2882   22.8054   22.1529 H   0  0  0  0  0  0  0  0  0  0  0  0
   21.8981   21.1173   22.1914 C   0  0  0  0  0  0  0  0  0  0  0  0
   22.5025   20.5183   21.4959 H   0  0  0  0  0  0  0  0  0  0  0  0
   21.1434   21.6395   21.5867 H   0  0  0  0  0  0  0  0  0  0  0  0
   21.1996   20.1882   23.2088 C   0  0  0  0  0  0  0  0  0  0  0  0
   21.9578   19.6702   23.8123 H   0  0  0  0  0  0  0  0  0  0  0  0
   20.5987   20.7917   23.9032 H   0  0  0  0  0  0  0  0  0  0  0  0
   20.2943   19.1475   22.5118 C   0  0  0  0  0  0  0  0  0  0  0  0
   20.8961   18.5455   21.8168 H   0  0  0  0  0  0  0  0  0  0  0  0
   19.5362   19.6662   21.9087 H   0  0  0  0  0  0  0  0  0  0  0  0
   19.5963   18.2177   23.5299 C   0  0  0  0  0  0  0  0  0  0  0  0
   20.3546   17.6967   24.1309 H   0  0  0  0  0  0  0  0  0  0  0  0
   19.0006   18.8247   24.2246 H   0  0  0  0  0  0  0  0  0  0  0  0
   18.6900   17.1773   22.8302 C   0  0  0  0  0  0  0  0  0  0  0  0
   19.2866   16.6006   22.1109 H   0  0  0  0  0  0  0  0  0  0  0  0
   17.9085   17.6874   22.2513 H   0  0  0  0  0  0  0  0  0  0  0  0
   18.0372   16.1942   23.8210 C   0  0  0  0  0  0  0  0  0  0  0  0
   17.4797   15.4356   23.2648 H   0  0  0  0  0  0  0  0  0  0  0  0
   18.8126   15.6889   24.4031 H   0  0  0  0  0  0  0  0  0  0  0  0
   17.0752   16.8529   24.7902 N   0  3  0  0  0  0  0  0  0  0  0  0
   16.3083   17.3271   24.3024 H   0  0  0  0  0  0  0  0  0  0  0  0
   17.5436   17.5539   25.3727 H   0  0  0  0  0  0  0  0  0  0  0  0
   16.6489   16.1704   25.4264 H   0  0  0  0  0  0  0  0  0  0  0  0
  1  2  1  0  0  0  0
  1  3  1  0  0  0  0
  1  4  1  0  0  0  0
  1  5  1  0  0  0  0
  5  6  1  0  0  0  0
  5  7  1  0  0  0  0
  5  8  1  0  0  0  0
  8  9  1  0  0  0  0
  8 10  1  0  0  0  0
  8 11  1  0  0  0  0
 11 12  1  0  0  0  0
 11 13  1  0  0  0  0
 11 14  1  0  0  0  0
 14 15  1  0  0  0  0
 14 16  1  0  0  0  0
 14 17  1  0  0  0  0
 17 18  1  0  0  0  0
 17 19  1  0  0  0  0
 17 20  1  0  0  0  0
 20 21  1  0  0  0  0
 20 22  1  0  0  0  0
 20 23  1  0  0  0  0
 23 24  1  0  0  0  0
 23 25  1  0  0  0  0
 23 26  1  0  0  0  0
M  END
> <VConfSearch Rank>
743

> <Conf_Id>
19

> <Delta U+W>
0.162

> <U+W>
-5.391

> <U>
47.845

> <W>
-53.235

> <W(PB)>
-55.585

> <W(SA)>
2.349

> <Valence>
2.258

> <Coulomb>
44.893

> <VdW>
0.694

> <VdW6>
-6.285

> <VdW12>
6.979

> <Bond>
0.149

> <Angle>
0.434

> <Pdih>
1.675

> <Idih>
0.000

> <Tether>
0.000

$$$$
VeraChem MOL file


 26 25  0  0  0  0  0  0  0  0999 V2000     
   19.6734   22.3672   25.7231 C   0  0  0  0  0  0  0  0  0  0  0  0
   18.8895   23.0758   25.4254 H   0  0  0  0  0  0  0  0  0  0  0  0
   19.3341   21.8408   26.6247 H   0  0  0  0  0  0  0  0  0  0  0  0
   20.5679   22.9462   25.9873 H   0  0  0  0  0  0  0  0  0  0  0  0
   19.9847   21.3727   24.5846 C   0  0  0  0  0  0  0  0  0  0  0  0
   20.7991   20.7094   24.9044 H   0  0  0  0  0  0  0  0  0  0  0  0
   20.3491   21.9256   23.7076 H   0  0  0  0  0  0  0  0  0  0  0  0
   18.7387   20.5414   24.1974 C   0  0  0  0  0  0  0  0  0  0  0  0
   18.4064   19.9481   25.0604 H   0  0  0  0  0  0  0  0  0  0  0  0
   17.9133   21.2263   23.9585 H   0  0  0  0  0  0  0  0  0  0  0  0
   18.9683   19.6082   22.9832 C   0  0  0  0  0  0  0  0  0  0  0  0
   19.2857   20.2042   22.1164 H   0  0  0  0  0  0  0  0  0  0  0  0
   18.0067   19.1529   22.7086 H   0  0  0  0  0  0  0  0  0  0  0  0
   19.9991   18.4853   23.2515 C   0  0  0  0  0  0  0  0  0  0  0  0
   20.9863   18.9216   23.4528 H   0  0  0  0  0  0  0  0  0  0  0  0
   19.7074   17.9256   24.1511 H   0  0  0  0  0  0  0  0  0  0  0  0
   20.1128   17.5138   22.0560 C   0  0  0  0  0  0  0  0  0  0  0  0
   20.4054   18.0693   21.1549 H   0  0  0  0  0  0  0  0  0  0  0  0
   19.1332   17.0611   21.8519 H   0  0  0  0  0  0  0  0  0  0  0  0
   21.1421   16.4029   22.3290 C   0  0  0  0  0  0  0  0  0  0  0  0
   22.1231   16.8479   22.5163 H   0  0  0  0  0  0  0  0  0  0  0  0
   20.8460   15.8367   23.2163 H   0  0  0  0  0  0  0  0  0  0  0  0
   21.2829   15.4282   21.1777 N   0  3  0  0  0  0  0  0  0  0  0  0
   21.5866   15.8949   20.3168 H   0  0  0  0  0  0  0  0  0  0  0  0
   20.3983   14.9541   20.9680 H   0  0  0  0  0  0  0  0  0  0  0  0
   21.9730   14.6967   21.3801 H   0  0  0  0  0  0  0  0  0  0  0  0
  1  2  1  0  0  0  0
  1  3  1  0  0  0  0
  1  4  1  0  0  0  0
  1  5  1  0  0  0  0
  5  6  1  0  0  0  0
  5  7  1  0  0  0  0
  5  8  1  0  0  0  0
  8  9  1  0  0  0  0
  8 10  1  0  0  0  0
  8 11  1  0  0  0  0
 11 12  1  0  0  0  0
 11 13  1  0  0  0  0
 11 14  1  0  0  0  0
 14 15  1  0  0  0  0
 14 16  1  0  0  0  0
 14 17  1  0  0  0  0
 17 18  1  0  0  0  0
 17 19  1  0  0  0  0
 17 20  1  0  0  0  0
 20 21  1  0  0  0  0
 20 22  1  0  0  0  0
 20 23  1  0  0  0  0
 23 24  1  0  0  0  0
 23 25  1  0  0  0  0
 23 26  1  0  0  0  0
M  END
> <VConfSearch Rank>
744

> <Conf_Id>
37

> <Delta U+W>
0.565

> <U+W>
-4.988

> <U>
48.035

> <W>
-53.022

> <W(PB)>
-55.379

> <W(SA)>
2.357

> <Valence>
2.701

> <Coulomb>
44.622

> <VdW>
0.712

> <VdW6>
-6.418

> <VdW12>
7.129

> <Bond>
0.168

> <Angle>
0.659

> <Pdih>
1.875

> <Idih>
0.000

> <Tether>
0.000

$$$$
VeraChem MOL file


 26 25  0  0  0  0  0  0  0  0999 V2000     
   20.4413   21.6863   20.4251 C   0  0  0  0  0  0  0  0  0  0  0  0
   19.3797   21.8694   20.6368 H   0  0  0  0  0  0  0  0  0  0  0  0
   21.0368   22.3572   21.0579 H   0  0  0  0  0  0  0  0  0  0  0  0
   20.6276   21.9574   19.3778 H   0  0  0  0  0  0  0  0  0  0  0  0
   20.8114   20.2097   20.6798 C   0  0  0  0  0  0  0  0  0  0  0  0
   21.8688   20.0505   20.4262 H   0  0  0  0  0  0  0  0  0  0  0  0
   20.2243   19.5658   20.0100 H   0  0  0  0  0  0  0  0  0  0  0  0
   20.5593   19.8017   22.1483 C   0  0  0  0  0  0  0  0  0  0  0  0
   21.1497   20.4467   22.8136 H   0  0  0  0  0  0  0  0  0  0  0  0
   19.5026   19.9743   22.3909 H   0  0  0  0  0  0  0  0  0  0  0  0
   20.9263   18.3200   22.4037 C   0  0  0  0  0  0  0  0  0  0  0  0
   21.9631   18.1483   22.0827 H   0  0  0  0  0  0  0  0  0  0  0  0
   20.2986   17.6695   21.7789 H   0  0  0  0  0  0  0  0  0  0  0  0
   20.7966   17.8963   23.8875 C   0  0  0  0  0  0  0  0  0  0  0  0
   21.1853   16.8738   23.9929 H   0  0  0  0  0  0  0  0  0  0  0  0
   21.4377   18.5353   24.5104 H   0  0  0  0  0  0  0  0  0  0  0  0
   19.3446   17.9381   24.4190 C   0  0  0  0  0  0  0  0  0  0  0  0
   18.6945   17.3400   23.7666 H   0  0  0  0  0  0  0  0  0  0  0  0
   18.9644   18.9672   24.4005 H   0  0  0  0  0  0  0  0  0  0  0  0
   19.2596   17.3992   25.8579 C   0  0  0  0  0  0  0  0  0  0  0  0
   19.6185   16.3668   25.8861 H   0  0  0  0  0  0  0  0  0  0  0  0
   19.8929   18.0017   26.5146 H   0  0  0  0  0  0  0  0  0  0  0  0
   17.8518   17.4200   26.4176 N   0  3  0  0  0  0  0  0  0  0  0  0
   17.2099   16.8480   25.8590 H   0  0  0  0  0  0  0  0  0  0  0  0
   17.4650   18.3691   26.4446 H   0  0  0  0  0  0  0  0  0  0  0  0
   17.8178   17.0565   27.3764 H   0  0  0  0  0  0  0  0  0  0  0  0
  1  2  1  0  0  0  0
  1  3  1  0  0  0  0
  1  4  1  0  0  0  0
  1  5  1  0  0  0  0
  5  6  1  0  0  0  0
  5  7  1  0  0  0  0
  5  8  1  0  0  0  0
  8  9  1  0  0  0  0
  8 10  1  0  0  0  0
  8 11  1  0  0  0  0
 11 12  1  0  0  0  0
 11 13  1  0  0  0  0
 11 14  1  0  0  0  0
 14 15  1  0  0  0  0
 14 16  1  0  0  0  0
 14 17  1  0  0  0  0
 17 18  1  0  0  0  0
 17 19  1  0  0  0  0
 17 20  1  0  0  0  0
 20 21  1  0  0  0  0
 20 22  1  0  0  0  0
 20 23  1  0  0  0  0
 23 24  1  0  0  0  0
 23 25  1  0  0  0  0
 23 26  1  0  0  0  0
M  END
> <VConfSearch Rank>
745

> <Conf_Id>
35

> <Delta U+W>
0.587

> <U+W>
-4.965

> <U>
48.214

> <W>
-53.179

> <W(PB)>
-55.527

> <W(SA)>
2.348

> <Valence>
2.697

> <Coulomb>
44.819

> <VdW>
0.699

> <VdW6>
-6.437

> <VdW12>
7.136

> <Bond>
0.168

> <Angle>
0.657

> <Pdih>
1.872

> <Idih>
0.000

> <Tether>
0.000

$$$$
VeraChem MOL file


 26 25  0  0  0  0  0  0  0  0999 V2000     
   21.5209   18.4444   27.0271 C   0  0  0  0  0  0  0  0  0  0  0  0
   20.5435   18.2153   27.4714 H   0  0  0  0  0  0  0  0  0  0  0  0
   21.9145   17.5252   26.5738 H   0  0  0  0  0  0  0  0  0  0  0  0
   22.1996   18.7371   27.8388 H   0  0  0  0  0  0  0  0  0  0  0  0
   21.4039   19.5731   25.9810 C   0  0  0  0  0  0  0  0  0  0  0  0
   22.4008   19.8026   25.5790 H   0  0  0  0  0  0  0  0  0  0  0  0
   21.0415   20.4876   26.4711 H   0  0  0  0  0  0  0  0  0  0  0  0
   20.4527   19.1870   24.8266 C   0  0  0  0  0  0  0  0  0  0  0  0
   20.8209   18.2680   24.3522 H   0  0  0  0  0  0  0  0  0  0  0  0
   19.4574   18.9606   25.2330 H   0  0  0  0  0  0  0  0  0  0  0  0
   20.3380   20.3167   23.7749 C   0  0  0  0  0  0  0  0  0  0  0  0
   21.3230   20.5080   23.3272 H   0  0  0  0  0  0  0  0  0  0  0  0
   20.0434   21.2469   24.2804 H   0  0  0  0  0  0  0  0  0  0  0  0
   19.3087   20.0201   22.6566 C   0  0  0  0  0  0  0  0  0  0  0  0
   18.3197   19.8459   23.1029 H   0  0  0  0  0  0  0  0  0  0  0  0
   19.2095   20.9161   22.0280 H   0  0  0  0  0  0  0  0  0  0  0  0
   19.6955   18.8196   21.7612 C   0  0  0  0  0  0  0  0  0  0  0  0
   19.7190   17.8970   22.3547 H   0  0  0  0  0  0  0  0  0  0  0  0
   20.7048   18.9706   21.3557 H   0  0  0  0  0  0  0  0  0  0  0  0
   18.6999   18.6429   20.6011 C   0  0  0  0  0  0  0  0  0  0  0  0
   17.6957   18.4760   21.0001 H   0  0  0  0  0  0  0  0  0  0  0  0
   18.6812   19.5498   19.9907 H   0  0  0  0  0  0  0  0  0  0  0  0
   19.0434   17.4773   19.6961 N   0  3  0  0  0  0  0  0  0  0  0  0
   19.0503   16.5872   20.2049 H   0  0  0  0  0  0  0  0  0  0  0  0
   19.9678   17.5867   19.2663 H   0  0  0  0  0  0  0  0  0  0  0  0
   18.3681   17.3780   18.9302 H   0  0  0  0  0  0  0  0  0  0  0  0
  1  2  1  0  0  0  0
  1  3  1  0  0  0  0
  1  4  1  0  0  0  0
  1  5  1  0  0  0  0
  5  6  1  0  0  0  0
  5  7  1  0  0  0  0
  5  8  1  0  0  0  0
  8  9  1  0  0  0  0
  8 10  1  0  0  0  0
  8 11  1  0  0  0  0
 11 12  1  0  0  0  0
 11 13  1  0  0  0  0
 11 14  1  0  0  0  0
 14 15  1  0  0  0  0
 14 16  1  0  0  0  0
 14 17  1  0  0  0  0
 17 18  1  0  0  0  0
 17 19  1  0  0  0  0
 17 20  1  0  0  0  0
 20 21  1  0  0  0  0
 20 22  1  0  0  0  0
 20 23  1  0  0  0  0
 23 24  1  0  0  0  0
 23 25  1  0  0  0  0
 23 26  1  0  0  0  0
M  END
> <VConfSearch Rank>
746

> <Conf_Id>
36

> <Delta U+W>
0.565

> <U+W>
-4.987

> <U>
48.214

> <W>
-53.201

> <W(PB)>
-55.543

> <W(SA)>
2.342

> <Valence>
2.697

> <Coulomb>
44.819

> <VdW>
0.698

> <VdW6>
-6.437

> <VdW12>
7.136

> <Bond>
0.168

> <Angle>
0.657

> <Pdih>
1.872

> <Idih>
0.000

> <Tether>
0.000

$$$$
VeraChem MOL file


 26 25  0  0  0  0  0  0  0  0999 V2000     
   17.8284   19.9329   26.8465 C   0  0  0  0  0  0  0  0  0  0  0  0
   18.4930   19.5638   27.6385 H   0  0  0  0  0  0  0  0  0  0  0  0
   17.3740   20.8687   27.1969 H   0  0  0  0  0  0  0  0  0  0  0  0
   17.0237   19.1995   26.7059 H   0  0  0  0  0  0  0  0  0  0  0  0
   18.6053   20.1627   25.5328 C   0  0  0  0  0  0  0  0  0  0  0  0
   19.3802   20.9248   25.6962 H   0  0  0  0  0  0  0  0  0  0  0  0
   17.9223   20.5634   24.7708 H   0  0  0  0  0  0  0  0  0  0  0  0
   19.2557   18.8598   25.0173 C   0  0  0  0  0  0  0  0  0  0  0  0
   19.9351   18.4619   25.7838 H   0  0  0  0  0  0  0  0  0  0  0  0
   18.4776   18.1005   24.8574 H   0  0  0  0  0  0  0  0  0  0  0  0
   20.0349   19.0859   23.7020 C   0  0  0  0  0  0  0  0  0  0  0  0
   20.8143   19.8434   23.8640 H   0  0  0  0  0  0  0  0  0  0  0  0
   19.3513   19.4893   22.9430 H   0  0  0  0  0  0  0  0  0  0  0  0
   20.6841   17.7786   23.1875 C   0  0  0  0  0  0  0  0  0  0  0  0
   21.3269   17.3605   23.9745 H   0  0  0  0  0  0  0  0  0  0  0  0
   19.9044   17.0291   22.9925 H   0  0  0  0  0  0  0  0  0  0  0  0
   21.5330   17.9838   21.9108 C   0  0  0  0  0  0  0  0  0  0  0  0
   22.0301   17.0378   21.6578 H   0  0  0  0  0  0  0  0  0  0  0  0
   22.3289   18.7137   22.1102 H   0  0  0  0  0  0  0  0  0  0  0  0
   20.6935   18.4489   20.7062 C   0  0  0  0  0  0  0  0  0  0  0  0
   19.9017   17.7217   20.5069 H   0  0  0  0  0  0  0  0  0  0  0  0
   20.2283   19.4125   20.9289 H   0  0  0  0  0  0  0  0  0  0  0  0
   21.5108   18.6091   19.4406 N   0  3  0  0  0  0  0  0  0  0  0  0
   20.9338   18.9191   18.6510 H   0  0  0  0  0  0  0  0  0  0  0  0
   21.9545   17.7290   19.1583 H   0  0  0  0  0  0  0  0  0  0  0  0
   22.2586   19.3014   19.5537 H   0  0  0  0  0  0  0  0  0  0  0  0
  1  2  1  0  0  0  0
  1  3  1  0  0  0  0
  1  4  1  0  0  0  0
  1  5  1  0  0  0  0
  5  6  1  0  0  0  0
  5  7  1  0  0  0  0
  5  8  1  0  0  0  0
  8  9  1  0  0  0  0
  8 10  1  0  0  0  0
  8 11  1  0  0  0  0
 11 12  1  0  0  0  0
 11 13  1  0  0  0  0
 11 14  1  0  0  0  0
 14 15  1  0  0  0  0
 14 16  1  0  0  0  0
 14 17  1  0  0  0  0
 17 18  1  0  0  0  0
 17 19  1  0  0  0  0
 17 20  1  0  0  0  0
 20 21  1  0  0  0  0
 20 22  1  0  0  0  0
 20 23  1  0  0  0  0
 23 24  1  0  0  0  0
 23 25  1  0  0  0  0
 23 26  1  0  0  0  0
M  END
> <VConfSearch Rank>
747

> <Conf_Id>
44

> <Delta U+W>
0.371

> <U+W>
-5.181

> <U>
48.002

> <W>
-53.183

> <W(PB)>
-55.533

> <W(SA)>
2.350

> <Valence>
2.459

> <Coulomb>
44.901

> <VdW>
0.643

> <VdW6>
-6.362

> <VdW12>
7.005

> <Bond>
0.151

> <Angle>
0.519

> <Pdih>
1.789

> <Idih>
0.000

> <Tether>
0.000

$$$$
VeraChem MOL file


 26 25  0  0  0  0  0  0  0  0999 V2000     
   18.8931   16.5870   20.3293 C   0  0  0  0  0  0  0  0  0  0  0  0
   19.5978   15.7927   20.6077 H   0  0  0  0  0  0  0  0  0  0  0  0
   18.2001   16.1744   19.5847 H   0  0  0  0  0  0  0  0  0  0  0  0
   19.4567   17.3925   19.8428 H   0  0  0  0  0  0  0  0  0  0  0  0
   18.1170   17.0996   21.5638 C   0  0  0  0  0  0  0  0  0  0  0  0
   17.4717   16.2910   21.9347 H   0  0  0  0  0  0  0  0  0  0  0  0
   17.4450   17.9165   21.2658 H   0  0  0  0  0  0  0  0  0  0  0  0
   19.0337   17.5703   22.7192 C   0  0  0  0  0  0  0  0  0  0  0  0
   18.3991   17.7811   23.5892 H   0  0  0  0  0  0  0  0  0  0  0  0
   19.7021   16.7498   23.0139 H   0  0  0  0  0  0  0  0  0  0  0  0
   19.8704   18.8275   22.3694 C   0  0  0  0  0  0  0  0  0  0  0  0
   19.2021   19.6495   22.0784 H   0  0  0  0  0  0  0  0  0  0  0  0
   20.4975   18.6148   21.4941 H   0  0  0  0  0  0  0  0  0  0  0  0
   20.7987   19.2950   23.5178 C   0  0  0  0  0  0  0  0  0  0  0  0
   21.4572   18.4683   23.8184 H   0  0  0  0  0  0  0  0  0  0  0  0
   21.4540   20.0837   23.1254 H   0  0  0  0  0  0  0  0  0  0  0  0
   20.0355   19.8320   24.7549 C   0  0  0  0  0  0  0  0  0  0  0  0
   19.4131   19.0369   25.1834 H   0  0  0  0  0  0  0  0  0  0  0  0
   19.3537   20.6391   24.4560 H   0  0  0  0  0  0  0  0  0  0  0  0
   20.9805   20.3410   25.8607 C   0  0  0  0  0  0  0  0  0  0  0  0
   20.3929   20.6134   26.7417 H   0  0  0  0  0  0  0  0  0  0  0  0
   21.6746   19.5460   26.1466 H   0  0  0  0  0  0  0  0  0  0  0  0
   21.7945   21.5557   25.4596 N   0  3  0  0  0  0  0  0  0  0  0  0
   22.4010   21.3589   24.6576 H   0  0  0  0  0  0  0  0  0  0  0  0
   22.4005   21.8766   26.2225 H   0  0  0  0  0  0  0  0  0  0  0  0
   21.1958   22.3465   25.2003 H   0  0  0  0  0  0  0  0  0  0  0  0
  1  2  1  0  0  0  0
  1  3  1  0  0  0  0
  1  4  1  0  0  0  0
  1  5  1  0  0  0  0
  5  6  1  0  0  0  0
  5  7  1  0  0  0  0
  5  8  1  0  0  0  0
  8  9  1  0  0  0  0
  8 10  1  0  0  0  0
  8 11  1  0  0  0  0
 11 12  1  0  0  0  0
 11 13  1  0  0  0  0
 11 14  1  0  0  0  0
 14 15  1  0  0  0  0
 14 16  1  0  0  0  0
 14 17  1  0  0  0  0
 17 18  1  0  0  0  0
 17 19  1  0  0  0  0
 17 20  1  0  0  0  0
 20 21  1  0  0  0  0
 20 22  1  0  0  0  0
 20 23  1  0  0  0  0
 23 24  1  0  0  0  0
 23 25  1  0  0  0  0
 23 26  1  0  0  0  0
M  END
> <VConfSearch Rank>
748

> <Conf_Id>
112

> <Delta U+W>
1.422

> <U+W>
-4.130

> <U>
49.323

> <W>
-53.453

> <W(PB)>
-55.749

> <W(SA)>
2.296

> <Valence>
3.408

> <Coulomb>
44.893

> <VdW>
1.021

> <VdW6>
-7.481

> <VdW12>
8.503

> <Bond>
0.239

> <Angle>
1.013

> <Pdih>
2.156

> <Idih>
0.000

> <Tether>
0.000

$$$$
VeraChem MOL file


 26 25  0  0  0  0  0  0  0  0999 V2000     
   23.6727   19.0436   23.1057 C   0  0  0  0  0  0  0  0  0  0  0  0
   24.7363   19.3061   23.1742 H   0  0  0  0  0  0  0  0  0  0  0  0
   23.4429   18.3759   23.9453 H   0  0  0  0  0  0  0  0  0  0  0  0
   23.5238   18.4861   22.1718 H   0  0  0  0  0  0  0  0  0  0  0  0
   22.7978   20.3173   23.1381 C   0  0  0  0  0  0  0  0  0  0  0  0
   23.1420   21.0041   22.3522 H   0  0  0  0  0  0  0  0  0  0  0  0
   22.9456   20.8428   24.0918 H   0  0  0  0  0  0  0  0  0  0  0  0
   21.2916   20.0323   22.9248 C   0  0  0  0  0  0  0  0  0  0  0  0
   20.7602   20.9918   22.8616 H   0  0  0  0  0  0  0  0  0  0  0  0
   21.1553   19.5362   21.9550 H   0  0  0  0  0  0  0  0  0  0  0  0
   20.6633   19.1778   24.0547 C   0  0  0  0  0  0  0  0  0  0  0  0
   20.9229   19.6227   25.0252 H   0  0  0  0  0  0  0  0  0  0  0  0
   21.0975   18.1692   24.0502 H   0  0  0  0  0  0  0  0  0  0  0  0
   19.1214   19.0682   23.9623 C   0  0  0  0  0  0  0  0  0  0  0  0
   18.7609   18.5532   24.8626 H   0  0  0  0  0  0  0  0  0  0  0  0
   18.6790   20.0738   23.9839 H   0  0  0  0  0  0  0  0  0  0  0  0
   18.6309   18.3093   22.7037 C   0  0  0  0  0  0  0  0  0  0  0  0
   19.0885   17.3120   22.6629 H   0  0  0  0  0  0  0  0  0  0  0  0
   18.9539   18.8408   21.8000 H   0  0  0  0  0  0  0  0  0  0  0  0
   17.0967   18.1736   22.6520 C   0  0  0  0  0  0  0  0  0  0  0  0
   16.6373   19.1640   22.7112 H   0  0  0  0  0  0  0  0  0  0  0  0
   16.8054   17.7191   21.7011 H   0  0  0  0  0  0  0  0  0  0  0  0
   16.5199   17.3193   23.7639 N   0  3  0  0  0  0  0  0  0  0  0  0
   16.7242   17.7105   24.6887 H   0  0  0  0  0  0  0  0  0  0  0  0
   16.8981   16.3666   23.7473 H   0  0  0  0  0  0  0  0  0  0  0  0
   15.4999   17.2379   23.6913 H   0  0  0  0  0  0  0  0  0  0  0  0
  1  2  1  0  0  0  0
  1  3  1  0  0  0  0
  1  4  1  0  0  0  0
  1  5  1  0  0  0  0
  5  6  1  0  0  0  0
  5  7  1  0  0  0  0
  5  8  1  0  0  0  0
  8  9  1  0  0  0  0
  8 10  1  0  0  0  0
  8 11  1  0  0  0  0
 11 12  1  0  0  0  0
 11 13  1  0  0  0  0
 11 14  1  0  0  0  0
 14 15  1  0  0  0  0
 14 16  1  0  0  0  0
 14 17  1  0  0  0  0
 17 18  1  0  0  0  0
 17 19  1  0  0  0  0
 17 20  1  0  0  0  0
 20 21  1  0  0  0  0
 20 22  1  0  0  0  0
 20 23  1  0  0  0  0
 23 24  1  0  0  0  0
 23 25  1  0  0  0  0
 23 26  1  0  0  0  0
M  END
> <VConfSearch Rank>
749

> <Conf_Id>
130

> <Delta U+W>
1.282

> <U+W>
-4.270

> <U>
49.153

> <W>
-53.422

> <W(PB)>
-55.725

> <W(SA)>
2.303

> <Valence>
3.298

> <Coulomb>
44.907

> <VdW>
0.948

> <VdW6>
-7.574

> <VdW12>
8.522

> <Bond>
0.229

> <Angle>
0.912

> <Pdih>
2.157

> <Idih>
0.000

> <Tether>
0.000

$$$$
VeraChem MOL file


 26 25  0  0  0  0  0  0  0  0999 V2000     
   21.1252   16.9036   20.7179 C   0  0  0  0  0  0  0  0  0  0  0  0
   21.5597   17.5709   19.9622 H   0  0  0  0  0  0  0  0  0  0  0  0
   21.1355   15.8839   20.3117 H   0  0  0  0  0  0  0  0  0  0  0  0
   20.0764   17.1890   20.8672 H   0  0  0  0  0  0  0  0  0  0  0  0
   21.9229   16.9679   22.0399 C   0  0  0  0  0  0  0  0  0  0  0  0
   22.9286   16.5606   21.8659 H   0  0  0  0  0  0  0  0  0  0  0  0
   21.4585   16.3092   22.7857 H   0  0  0  0  0  0  0  0  0  0  0  0
   22.0646   18.4041   22.6059 C   0  0  0  0  0  0  0  0  0  0  0  0
   22.6627   18.3640   23.5267 H   0  0  0  0  0  0  0  0  0  0  0  0
   22.6468   19.0077   21.8961 H   0  0  0  0  0  0  0  0  0  0  0  0
   20.7309   19.1377   22.9028 C   0  0  0  0  0  0  0  0  0  0  0  0
   20.1667   19.2793   21.9716 H   0  0  0  0  0  0  0  0  0  0  0  0
   20.9739   20.1454   23.2644 H   0  0  0  0  0  0  0  0  0  0  0  0
   19.8449   18.4130   23.9476 C   0  0  0  0  0  0  0  0  0  0  0  0
   19.5764   17.4163   23.5738 H   0  0  0  0  0  0  0  0  0  0  0  0
   20.4153   18.2563   24.8736 H   0  0  0  0  0  0  0  0  0  0  0  0
   18.5383   19.1762   24.2688 C   0  0  0  0  0  0  0  0  0  0  0  0
   17.9177   18.5561   24.9293 H   0  0  0  0  0  0  0  0  0  0  0  0
   17.9622   19.3261   23.3459 H   0  0  0  0  0  0  0  0  0  0  0  0
   18.7917   20.5348   24.9489 C   0  0  0  0  0  0  0  0  0  0  0  0
   19.3663   20.3850   25.8669 H   0  0  0  0  0  0  0  0  0  0  0  0
   19.3686   21.1812   24.2827 H   0  0  0  0  0  0  0  0  0  0  0  0
   17.5138   21.2637   25.3108 N   0  3  0  0  0  0  0  0  0  0  0  0
   16.9383   21.4590   24.4850 H   0  0  0  0  0  0  0  0  0  0  0  0
   17.7040   22.1650   25.7622 H   0  0  0  0  0  0  0  0  0  0  0  0
   16.9352   20.7210   25.9603 H   0  0  0  0  0  0  0  0  0  0  0  0
  1  2  1  0  0  0  0
  1  3  1  0  0  0  0
  1  4  1  0  0  0  0
  1  5  1  0  0  0  0
  5  6  1  0  0  0  0
  5  7  1  0  0  0  0
  5  8  1  0  0  0  0
  8  9  1  0  0  0  0
  8 10  1  0  0  0  0
  8 11  1  0  0  0  0
 11 12  1  0  0  0  0
 11 13  1  0  0  0  0
 11 14  1  0  0  0  0
 14 15  1  0  0  0  0
 14 16  1  0  0  0  0
 14 17  1  0  0  0  0
 17 18  1  0  0  0  0
 17 19  1  0  0  0  0
 17 20  1  0  0  0  0
 20 21  1  0  0  0  0
 20 22  1  0  0  0  0
 20 23  1  0  0  0  0
 23 24  1  0  0  0  0
 23 25  1  0  0  0  0
 23 26  1  0  0  0  0
M  END
> <VConfSearch Rank>
750

> <Conf_Id>
111

> <Delta U+W>
1.290

> <U+W>
-4.262

> <U>
49.209

> <W>
-53.471

> <W(PB)>
-55.745

> <W(SA)>
2.274

> <Valence>
3.465

> <Coulomb>
44.958

> <VdW>
0.786

> <VdW6>
-7.903

> <VdW12>
8.689

> <Bond>
0.237

> <Angle>
1.212

> <Pdih>
2.015

> <Idih>
0.000

> <Tether>
0.000

$$$$
VeraChem MOL file


 26 25  0  0  0  0  0  0  0  0999 V2000     
   18.3997   22.6435   22.8604 C   0  0  0  0  0  0  0  0  0  0  0  0
   17.4797   22.3576   23.3868 H   0  0  0  0  0  0  0  0  0  0  0  0
   18.8713   23.4639   23.4170 H   0  0  0  0  0  0  0  0  0  0  0  0
   18.1171   23.0265   21.8713 H   0  0  0  0  0  0  0  0  0  0  0  0
   19.3578   21.4409   22.7257 C   0  0  0  0  0  0  0  0  0  0  0  0
   20.2543   21.7499   22.1703 H   0  0  0  0  0  0  0  0  0  0  0  0
   18.8670   20.6600   22.1299 H   0  0  0  0  0  0  0  0  0  0  0  0
   19.7671   20.8806   24.1084 C   0  0  0  0  0  0  0  0  0  0  0  0
   20.1822   21.6971   24.7154 H   0  0  0  0  0  0  0  0  0  0  0  0
   18.8757   20.5230   24.6420 H   0  0  0  0  0  0  0  0  0  0  0  0
   20.8168   19.7447   24.0315 C   0  0  0  0  0  0  0  0  0  0  0  0
   21.1317   19.4931   25.0537 H   0  0  0  0  0  0  0  0  0  0  0  0
   21.7147   20.1088   23.5132 H   0  0  0  0  0  0  0  0  0  0  0  0
   20.2941   18.4646   23.3362 C   0  0  0  0  0  0  0  0  0  0  0  0
   19.3638   18.1429   23.8228 H   0  0  0  0  0  0  0  0  0  0  0  0
   20.0499   18.6806   22.2878 H   0  0  0  0  0  0  0  0  0  0  0  0
   21.3357   17.3217   23.3854 C   0  0  0  0  0  0  0  0  0  0  0  0
   21.5650   17.0652   24.4282 H   0  0  0  0  0  0  0  0  0  0  0  0
   22.2753   17.6668   22.9336 H   0  0  0  0  0  0  0  0  0  0  0  0
   20.8694   16.0586   22.6361 C   0  0  0  0  0  0  0  0  0  0  0  0
   20.6353   16.3114   21.5984 H   0  0  0  0  0  0  0  0  0  0  0  0
   21.6757   15.3201   22.6334 H   0  0  0  0  0  0  0  0  0  0  0  0
   19.6472   15.4024   23.2478 N   0  3  0  0  0  0  0  0  0  0  0  0
   19.3707   14.5587   22.7339 H   0  0  0  0  0  0  0  0  0  0  0  0
   18.8386   16.0317   23.2484 H   0  0  0  0  0  0  0  0  0  0  0  0
   19.8128   15.1202   24.2194 H   0  0  0  0  0  0  0  0  0  0  0  0
  1  2  1  0  0  0  0
  1  3  1  0  0  0  0
  1  4  1  0  0  0  0
  1  5  1  0  0  0  0
  5  6  1  0  0  0  0
  5  7  1  0  0  0  0
  5  8  1  0  0  0  0
  8  9  1  0  0  0  0
  8 10  1  0  0  0  0
  8 11  1  0  0  0  0
 11 12  1  0  0  0  0
 11 13  1  0  0  0  0
 11 14  1  0  0  0  0
 14 15  1  0  0  0  0
 14 16  1  0  0  0  0
 14 17  1  0  0  0  0
 17 18  1  0  0  0  0
 17 19  1  0  0  0  0
 17 20  1  0  0  0  0
 20 21  1  0  0  0  0
 20 22  1  0  0  0  0
 20 23  1  0  0  0  0
 23 24  1  0  0  0  0
 23 25  1  0  0  0  0
 23 26  1  0  0  0  0
M  END
> <VConfSearch Rank>
751

> <Conf_Id>
105

> <Delta U+W>
0.736

> <U+W>
-4.817

> <U>
48.735

> <W>
-53.552

> <W(PB)>
-55.889

> <W(SA)>
2.337

> <Valence>
2.803

> <Coulomb>
45.123

> <VdW>
0.809

> <VdW6>
-6.953

> <VdW12>
7.761

> <Bond>
0.188

> <Angle>
0.699

> <Pdih>
1.917

> <Idih>
0.000

> <Tether>
0.000

$$$$
VeraChem MOL file


 26 25  0  0  0  0  0  0  0  0999 V2000     
   16.7127   17.3615   22.5991 C   0  0  0  0  0  0  0  0  0  0  0  0
   16.6518   16.3699   22.1320 H   0  0  0  0  0  0  0  0  0  0  0  0
   16.6108   17.2350   23.6848 H   0  0  0  0  0  0  0  0  0  0  0  0
   15.8574   17.9527   22.2469 H   0  0  0  0  0  0  0  0  0  0  0  0
   18.0417   18.0616   22.2448 C   0  0  0  0  0  0  0  0  0  0  0  0
   18.0479   19.0630   22.6957 H   0  0  0  0  0  0  0  0  0  0  0  0
   18.1019   18.2011   21.1565 H   0  0  0  0  0  0  0  0  0  0  0  0
   19.2629   17.2488   22.7353 C   0  0  0  0  0  0  0  0  0  0  0  0
   19.2256   17.1442   23.8276 H   0  0  0  0  0  0  0  0  0  0  0  0
   19.1958   16.2281   22.3340 H   0  0  0  0  0  0  0  0  0  0  0  0
   20.6252   17.8519   22.3046 C   0  0  0  0  0  0  0  0  0  0  0  0
   20.6928   17.8276   21.2082 H   0  0  0  0  0  0  0  0  0  0  0  0
   21.4304   17.1990   22.6687 H   0  0  0  0  0  0  0  0  0  0  0  0
   20.8969   19.3007   22.7867 C   0  0  0  0  0  0  0  0  0  0  0  0
   21.8787   19.6066   22.4022 H   0  0  0  0  0  0  0  0  0  0  0  0
   20.1695   19.9891   22.3364 H   0  0  0  0  0  0  0  0  0  0  0  0
   20.8778   19.4544   24.3282 C   0  0  0  0  0  0  0  0  0  0  0  0
   21.5896   18.7544   24.7854 H   0  0  0  0  0  0  0  0  0  0  0  0
   19.8851   19.1916   24.7146 H   0  0  0  0  0  0  0  0  0  0  0  0
   21.2008   20.8897   24.7864 C   0  0  0  0  0  0  0  0  0  0  0  0
   20.5054   21.5912   24.3175 H   0  0  0  0  0  0  0  0  0  0  0  0
   21.0766   20.9601   25.8705 H   0  0  0  0  0  0  0  0  0  0  0  0
   22.6124   21.3344   24.4571 N   0  3  0  0  0  0  0  0  0  0  0  0
   22.7869   21.3286   23.4475 H   0  0  0  0  0  0  0  0  0  0  0  0
   23.3141   20.7248   24.8896 H   0  0  0  0  0  0  0  0  0  0  0  0
   22.7984   22.2872   24.7884 H   0  0  0  0  0  0  0  0  0  0  0  0
  1  2  1  0  0  0  0
  1  3  1  0  0  0  0
  1  4  1  0  0  0  0
  1  5  1  0  0  0  0
  5  6  1  0  0  0  0
  5  7  1  0  0  0  0
  5  8  1  0  0  0  0
  8  9  1  0  0  0  0
  8 10  1  0  0  0  0
  8 11  1  0  0  0  0
 11 12  1  0  0  0  0
 11 13  1  0  0  0  0
 11 14  1  0  0  0  0
 14 15  1  0  0  0  0
 14 16  1  0  0  0  0
 14 17  1  0  0  0  0
 17 18  1  0  0  0  0
 17 19  1  0  0  0  0
 17 20  1  0  0  0  0
 20 21  1  0  0  0  0
 20 22  1  0  0  0  0
 20 23  1  0  0  0  0
 23 24  1  0  0  0  0
 23 25  1  0  0  0  0
 23 26  1  0  0  0  0
M  END
> <VConfSearch Rank>
752

> <Conf_Id>
144

> <Delta U+W>
1.073

> <U+W>
-4.479

> <U>
49.231

> <W>
-53.710

> <W(PB)>
-55.983

> <W(SA)>
2.273

> <Valence>
3.276

> <Coulomb>
45.175

> <VdW>
0.779

> <VdW6>
-7.944

> <VdW12>
8.723

> <Bond>
0.239

> <Angle>
1.155

> <Pdih>
1.883

> <Idih>
0.000

> <Tether>
0.000

$$$$
VeraChem MOL file


 26 25  0  0  0  0  0  0  0  0999 V2000     
   17.7410   16.4806   21.6493 C   0  0  0  0  0  0  0  0  0  0  0  0
   17.1126   17.3210   21.3305 H   0  0  0  0  0  0  0  0  0  0  0  0
   17.5722   15.6577   20.9427 H   0  0  0  0  0  0  0  0  0  0  0  0
   17.3974   16.1492   22.6378 H   0  0  0  0  0  0  0  0  0  0  0  0
   19.2377   16.8661   21.6814 C   0  0  0  0  0  0  0  0  0  0  0  0
   19.5496   17.2265   20.6911 H   0  0  0  0  0  0  0  0  0  0  0  0
   19.8288   15.9608   21.8786 H   0  0  0  0  0  0  0  0  0  0  0  0
   19.5815   17.9245   22.7575 C   0  0  0  0  0  0  0  0  0  0  0  0
   19.2489   17.5687   23.7423 H   0  0  0  0  0  0  0  0  0  0  0  0
   20.6743   18.0102   22.8029 H   0  0  0  0  0  0  0  0  0  0  0  0
   18.9753   19.3201   22.4673 C   0  0  0  0  0  0  0  0  0  0  0  0
   17.8922   19.2257   22.3185 H   0  0  0  0  0  0  0  0  0  0  0  0
   19.3811   19.7029   21.5208 H   0  0  0  0  0  0  0  0  0  0  0  0
   19.2058   20.3674   23.5878 C   0  0  0  0  0  0  0  0  0  0  0  0
   18.6992   21.2938   23.2836 H   0  0  0  0  0  0  0  0  0  0  0  0
   18.7066   20.0463   24.5126 H   0  0  0  0  0  0  0  0  0  0  0  0
   20.6911   20.7028   23.8754 C   0  0  0  0  0  0  0  0  0  0  0  0
   20.7507   21.7341   24.2483 H   0  0  0  0  0  0  0  0  0  0  0  0
   21.2719   20.6760   22.9438 H   0  0  0  0  0  0  0  0  0  0  0  0
   21.3251   19.7760   24.9311 C   0  0  0  0  0  0  0  0  0  0  0  0
   20.7677   19.8546   25.8684 H   0  0  0  0  0  0  0  0  0  0  0  0
   21.2848   18.7375   24.5977 H   0  0  0  0  0  0  0  0  0  0  0  0
   22.7733   20.1135   25.2210 N   0  3  0  0  0  0  0  0  0  0  0  0
   22.8792   21.0708   25.5726 H   0  0  0  0  0  0  0  0  0  0  0  0
   23.3596   20.0332   24.3838 H   0  0  0  0  0  0  0  0  0  0  0  0
   23.1758   19.4896   25.9289 H   0  0  0  0  0  0  0  0  0  0  0  0
  1  2  1  0  0  0  0
  1  3  1  0  0  0  0
  1  4  1  0  0  0  0
  1  5  1  0  0  0  0
  5  6  1  0  0  0  0
  5  7  1  0  0  0  0
  5  8  1  0  0  0  0
  8  9  1  0  0  0  0
  8 10  1  0  0  0  0
  8 11  1  0  0  0  0
 11 12  1  0  0  0  0
 11 13  1  0  0  0  0
 11 14  1  0  0  0  0
 14 15  1  0  0  0  0
 14 16  1  0  0  0  0
 14 17  1  0  0  0  0
 17 18  1  0  0  0  0
 17 19  1  0  0  0  0
 17 20  1  0  0  0  0
 20 21  1  0  0  0  0
 20 22  1  0  0  0  0
 20 23  1  0  0  0  0
 23 24  1  0  0  0  0
 23 25  1  0  0  0  0
 23 26  1  0  0  0  0
M  END
> <VConfSearch Rank>
753

> <Conf_Id>
93

> <Delta U+W>
3.253

> <U+W>
-2.300

> <U>
51.609

> <W>
-53.909

> <W(PB)>
-56.178

> <W(SA)>
2.270

> <Valence>
5.204

> <Coulomb>
45.645

> <VdW>
0.760

> <VdW6>
-7.997

> <VdW12>
8.758

> <Bond>
0.240

> <Angle>
1.456

> <Pdih>
3.507

> <Idih>
0.000

> <Tether>
0.000

$$$$
VeraChem MOL file


 26 25  0  0  0  0  0  0  0  0999 V2000     
   17.8451   16.4327   24.7718 C   0  0  0  0  0  0  0  0  0  0  0  0
   18.4516   15.6593   24.2851 H   0  0  0  0  0  0  0  0  0  0  0  0
   18.2843   16.6470   25.7548 H   0  0  0  0  0  0  0  0  0  0  0  0
   16.8452   16.0106   24.9365 H   0  0  0  0  0  0  0  0  0  0  0  0
   17.7551   17.7140   23.9118 C   0  0  0  0  0  0  0  0  0  0  0  0
   17.0364   18.4009   24.3801 H   0  0  0  0  0  0  0  0  0  0  0  0
   17.3451   17.4688   22.9220 H   0  0  0  0  0  0  0  0  0  0  0  0
   19.1084   18.4487   23.7521 C   0  0  0  0  0  0  0  0  0  0  0  0
   18.9089   19.4119   23.2661 H   0  0  0  0  0  0  0  0  0  0  0  0
   19.5241   18.6727   24.7440 H   0  0  0  0  0  0  0  0  0  0  0  0
   20.1433   17.6612   22.9106 C   0  0  0  0  0  0  0  0  0  0  0  0
   19.7516   17.5173   21.8943 H   0  0  0  0  0  0  0  0  0  0  0  0
   20.2711   16.6565   23.3330 H   0  0  0  0  0  0  0  0  0  0  0  0
   21.5453   18.3201   22.8339 C   0  0  0  0  0  0  0  0  0  0  0  0
   21.9952   18.3669   23.8354 H   0  0  0  0  0  0  0  0  0  0  0  0
   22.1928   17.6523   22.2489 H   0  0  0  0  0  0  0  0  0  0  0  0
   21.5754   19.7211   22.1725 C   0  0  0  0  0  0  0  0  0  0  0  0
   20.8383   19.7716   21.3602 H   0  0  0  0  0  0  0  0  0  0  0  0
   22.5595   19.8672   21.7076 H   0  0  0  0  0  0  0  0  0  0  0  0
   21.3473   20.8673   23.1774 C   0  0  0  0  0  0  0  0  0  0  0  0
   20.3762   20.7580   23.6638 H   0  0  0  0  0  0  0  0  0  0  0  0
   22.1204   20.8356   23.9497 H   0  0  0  0  0  0  0  0  0  0  0  0
   21.3902   22.2371   22.5317 N   0  3  0  0  0  0  0  0  0  0  0  0
   22.2936   22.4192   22.0823 H   0  0  0  0  0  0  0  0  0  0  0  0
   21.2414   22.9862   23.2165 H   0  0  0  0  0  0  0  0  0  0  0  0
   20.6683   22.3431   21.8114 H   0  0  0  0  0  0  0  0  0  0  0  0
  1  2  1  0  0  0  0
  1  3  1  0  0  0  0
  1  4  1  0  0  0  0
  1  5  1  0  0  0  0
  5  6  1  0  0  0  0
  5  7  1  0  0  0  0
  5  8  1  0  0  0  0
  8  9  1  0  0  0  0
  8 10  1  0  0  0  0
  8 11  1  0  0  0  0
 11 12  1  0  0  0  0
 11 13  1  0  0  0  0
 11 14  1  0  0  0  0
 14 15  1  0  0  0  0
 14 16  1  0  0  0  0
 14 17  1  0  0  0  0
 17 18  1  0  0  0  0
 17 19  1  0  0  0  0
 17 20  1  0  0  0  0
 20 21  1  0  0  0  0
 20 22  1  0  0  0  0
 20 23  1  0  0  0  0
 23 24  1  0  0  0  0
 23 25  1  0  0  0  0
 23 26  1  0  0  0  0
M  END
> <VConfSearch Rank>
754

> <Conf_Id>
94

> <Delta U+W>
3.247

> <U+W>
-2.305

> <U>
51.609

> <W>
-53.914

> <W(PB)>
-56.221

> <W(SA)>
2.307

> <Valence>
5.204

> <Coulomb>
45.645

> <VdW>
0.760

> <VdW6>
-7.997

> <VdW12>
8.757

> <Bond>
0.240

> <Angle>
1.456

> <Pdih>
3.508

> <Idih>
0.000

> <Tether>
0.000

$$$$
VeraChem MOL file


 26 25  0  0  0  0  0  0  0  0999 V2000     
   16.6137   16.8328   23.7801 C   0  0  0  0  0  0  0  0  0  0  0  0
   16.5820   16.6645   24.8645 H   0  0  0  0  0  0  0  0  0  0  0  0
   15.9922   17.7084   23.5516 H   0  0  0  0  0  0  0  0  0  0  0  0
   16.1607   15.9610   23.2904 H   0  0  0  0  0  0  0  0  0  0  0  0
   18.0636   17.0392   23.2930 C   0  0  0  0  0  0  0  0  0  0  0  0
   18.0663   17.1709   22.2018 H   0  0  0  0  0  0  0  0  0  0  0  0
   18.6516   16.1351   23.5046 H   0  0  0  0  0  0  0  0  0  0  0  0
   18.7252   18.2613   23.9676 C   0  0  0  0  0  0  0  0  0  0  0  0
   18.1330   19.1621   23.7549 H   0  0  0  0  0  0  0  0  0  0  0  0
   18.7175   18.1260   25.0580 H   0  0  0  0  0  0  0  0  0  0  0  0
   20.1775   18.4710   23.4826 C   0  0  0  0  0  0  0  0  0  0  0  0
   20.1781   18.5977   22.3918 H   0  0  0  0  0  0  0  0  0  0  0  0
   20.7693   17.5708   23.6991 H   0  0  0  0  0  0  0  0  0  0  0  0
   20.8370   19.6970   24.1584 C   0  0  0  0  0  0  0  0  0  0  0  0
   20.2630   20.6036   23.9248 H   0  0  0  0  0  0  0  0  0  0  0  0
   20.7864   19.5770   25.2495 H   0  0  0  0  0  0  0  0  0  0  0  0
   22.3196   19.8925   23.7531 C   0  0  0  0  0  0  0  0  0  0  0  0
   22.9001   19.0162   24.0707 H   0  0  0  0  0  0  0  0  0  0  0  0
   22.7353   20.7493   24.2998 H   0  0  0  0  0  0  0  0  0  0  0  0
   22.5347   20.1066   22.2410 C   0  0  0  0  0  0  0  0  0  0  0  0
   23.6041   20.2091   22.0377 H   0  0  0  0  0  0  0  0  0  0  0  0
   22.1663   19.2386   21.6882 H   0  0  0  0  0  0  0  0  0  0  0  0
   21.8413   21.3397   21.6966 N   0  3  0  0  0  0  0  0  0  0  0  0
   22.1677   22.1947   22.1587 H   0  0  0  0  0  0  0  0  0  0  0  0
   20.8264   21.2915   21.8294 H   0  0  0  0  0  0  0  0  0  0  0  0
   22.0091   21.4591   20.6917 H   0  0  0  0  0  0  0  0  0  0  0  0
  1  2  1  0  0  0  0
  1  3  1  0  0  0  0
  1  4  1  0  0  0  0
  1  5  1  0  0  0  0
  5  6  1  0  0  0  0
  5  7  1  0  0  0  0
  5  8  1  0  0  0  0
  8  9  1  0  0  0  0
  8 10  1  0  0  0  0
  8 11  1  0  0  0  0
 11 12  1  0  0  0  0
 11 13  1  0  0  0  0
 11 14  1  0  0  0  0
 14 15  1  0  0  0  0
 14 16  1  0  0  0  0
 14 17  1  0  0  0  0
 17 18  1  0  0  0  0
 17 19  1  0  0  0  0
 17 20  1  0  0  0  0
 20 21  1  0  0  0  0
 20 22  1  0  0  0  0
 20 23  1  0  0  0  0
 23 24  1  0  0  0  0
 23 25  1  0  0  0  0
 23 26  1  0  0  0  0
M  END
> <VConfSearch Rank>
755

> <Conf_Id>
83

> <Delta U+W>
0.559

> <U+W>
-4.994

> <U>
48.668

> <W>
-53.661

> <W(PB)>
-55.972

> <W(SA)>
2.311

> <Valence>
2.543

> <Coulomb>
45.478

> <VdW>
0.646

> <VdW6>
-7.096

> <VdW12>
7.742

> <Bond>
0.176

> <Angle>
0.630

> <Pdih>
1.738

> <Idih>
0.000

> <Tether>
0.000

$$$$
VeraChem MOL file


 26 25  0  0  0  0  0  0  0  0999 V2000     
   17.6637   21.8851   22.1682 C   0  0  0  0  0  0  0  0  0  0  0  0
   17.4741   22.6954   22.8842 H   0  0  0  0  0  0  0  0  0  0  0  0
   18.2988   22.2805   21.3646 H   0  0  0  0  0  0  0  0  0  0  0  0
   16.7019   21.5949   21.7257 H   0  0  0  0  0  0  0  0  0  0  0  0
   18.3319   20.6779   22.8597 C   0  0  0  0  0  0  0  0  0  0  0  0
   18.4671   19.8757   22.1223 H   0  0  0  0  0  0  0  0  0  0  0  0
   17.6613   20.2868   23.6376 H   0  0  0  0  0  0  0  0  0  0  0  0
   19.6926   21.0621   23.4876 C   0  0  0  0  0  0  0  0  0  0  0  0
   20.3808   21.4018   22.7014 H   0  0  0  0  0  0  0  0  0  0  0  0
   19.5458   21.9190   24.1595 H   0  0  0  0  0  0  0  0  0  0  0  0
   20.3505   19.9150   24.2935 C   0  0  0  0  0  0  0  0  0  0  0  0
   19.6675   19.5856   25.0887 H   0  0  0  0  0  0  0  0  0  0  0  0
   21.2419   20.3128   24.7981 H   0  0  0  0  0  0  0  0  0  0  0  0
   20.7623   18.7033   23.4231 C   0  0  0  0  0  0  0  0  0  0  0  0
   19.8701   18.2531   22.9706 H   0  0  0  0  0  0  0  0  0  0  0  0
   21.4031   19.0449   22.5984 H   0  0  0  0  0  0  0  0  0  0  0  0
   21.5149   17.6344   24.2506 C   0  0  0  0  0  0  0  0  0  0  0  0
   20.8731   17.2659   25.0619 H   0  0  0  0  0  0  0  0  0  0  0  0
   22.3908   18.0937   24.7280 H   0  0  0  0  0  0  0  0  0  0  0  0
   21.9948   16.4467   23.3941 C   0  0  0  0  0  0  0  0  0  0  0  0
   22.6276   16.8114   22.5805 H   0  0  0  0  0  0  0  0  0  0  0  0
   22.5914   15.7711   24.0132 H   0  0  0  0  0  0  0  0  0  0  0  0
   20.8667   15.6365   22.7861 N   0  3  0  0  0  0  0  0  0  0  0  0
   20.2864   16.2034   22.1601 H   0  0  0  0  0  0  0  0  0  0  0  0
   20.2475   15.2471   23.5044 H   0  0  0  0  0  0  0  0  0  0  0  0
   21.2197   14.8466   22.2349 H   0  0  0  0  0  0  0  0  0  0  0  0
  1  2  1  0  0  0  0
  1  3  1  0  0  0  0
  1  4  1  0  0  0  0
  1  5  1  0  0  0  0
  5  6  1  0  0  0  0
  5  7  1  0  0  0  0
  5  8  1  0  0  0  0
  8  9  1  0  0  0  0
  8 10  1  0  0  0  0
  8 11  1  0  0  0  0
 11 12  1  0  0  0  0
 11 13  1  0  0  0  0
 11 14  1  0  0  0  0
 14 15  1  0  0  0  0
 14 16  1  0  0  0  0
 14 17  1  0  0  0  0
 17 18  1  0  0  0  0
 17 19  1  0  0  0  0
 17 20  1  0  0  0  0
 20 21  1  0  0  0  0
 20 22  1  0  0  0  0
 20 23  1  0  0  0  0
 23 24  1  0  0  0  0
 23 25  1  0  0  0  0
 23 26  1  0  0  0  0
M  END
> <VConfSearch Rank>
756

> <Conf_Id>
18

> <Delta U+W>
0.759

> <U+W>
-4.793

> <U>
48.945

> <W>
-53.738

> <W(PB)>
-56.051

> <W(SA)>
2.313

> <Valence>
2.802

> <Coulomb>
45.335

> <VdW>
0.807

> <VdW6>
-6.962

> <VdW12>
7.769

> <Bond>
0.189

> <Angle>
0.696

> <Pdih>
1.917

> <Idih>
0.000

> <Tether>
0.000

$$$$
VeraChem MOL file


 26 25  0  0  0  0  0  0  0  0999 V2000     
   22.7220   16.3146   24.3333 C   0  0  0  0  0  0  0  0  0  0  0  0
   23.4979   17.0578   24.5591 H   0  0  0  0  0  0  0  0  0  0  0  0
   22.5498   15.7147   25.2364 H   0  0  0  0  0  0  0  0  0  0  0  0
   23.1118   15.6464   23.5545 H   0  0  0  0  0  0  0  0  0  0  0  0
   21.4200   16.9978   23.8637 C   0  0  0  0  0  0  0  0  0  0  0  0
   20.6739   16.2293   23.6177 H   0  0  0  0  0  0  0  0  0  0  0  0
   21.6234   17.5527   22.9384 H   0  0  0  0  0  0  0  0  0  0  0  0
   20.8537   17.9490   24.9444 C   0  0  0  0  0  0  0  0  0  0  0  0
   20.7354   17.3911   25.8836 H   0  0  0  0  0  0  0  0  0  0  0  0
   21.5784   18.7487   25.1507 H   0  0  0  0  0  0  0  0  0  0  0  0
   19.4864   18.5715   24.5689 C   0  0  0  0  0  0  0  0  0  0  0  0
   19.1094   19.1294   25.4372 H   0  0  0  0  0  0  0  0  0  0  0  0
   18.7584   17.7712   24.3770 H   0  0  0  0  0  0  0  0  0  0  0  0
   19.5524   19.5216   23.3490 C   0  0  0  0  0  0  0  0  0  0  0  0
   20.3186   20.2898   23.5232 H   0  0  0  0  0  0  0  0  0  0  0  0
   19.8591   18.9590   22.4585 H   0  0  0  0  0  0  0  0  0  0  0  0
   18.1902   20.2050   23.0822 C   0  0  0  0  0  0  0  0  0  0  0  0
   17.8696   20.7424   23.9845 H   0  0  0  0  0  0  0  0  0  0  0  0
   17.4221   19.4468   22.8795 H   0  0  0  0  0  0  0  0  0  0  0  0
   18.2451   21.2072   21.9129 C   0  0  0  0  0  0  0  0  0  0  0  0
   17.2825   21.7190   21.8288 H   0  0  0  0  0  0  0  0  0  0  0  0
   19.0148   21.9589   22.1082 H   0  0  0  0  0  0  0  0  0  0  0  0
   18.5430   20.5658   20.5718 N   0  3  0  0  0  0  0  0  0  0  0  0
   17.8397   19.8632   20.3213 H   0  0  0  0  0  0  0  0  0  0  0  0
   19.4544   20.0976   20.5687 H   0  0  0  0  0  0  0  0  0  0  0  0
   18.5583   21.2574   19.8143 H   0  0  0  0  0  0  0  0  0  0  0  0
  1  2  1  0  0  0  0
  1  3  1  0  0  0  0
  1  4  1  0  0  0  0
  1  5  1  0  0  0  0
  5  6  1  0  0  0  0
  5  7  1  0  0  0  0
  5  8  1  0  0  0  0
  8  9  1  0  0  0  0
  8 10  1  0  0  0  0
  8 11  1  0  0  0  0
 11 12  1  0  0  0  0
 11 13  1  0  0  0  0
 11 14  1  0  0  0  0
 14 15  1  0  0  0  0
 14 16  1  0  0  0  0
 14 17  1  0  0  0  0
 17 18  1  0  0  0  0
 17 19  1  0  0  0  0
 17 20  1  0  0  0  0
 20 21  1  0  0  0  0
 20 22  1  0  0  0  0
 20 23  1  0  0  0  0
 23 24  1  0  0  0  0
 23 25  1  0  0  0  0
 23 26  1  0  0  0  0
M  END
> <VConfSearch Rank>
757

> <Conf_Id>
17

> <Delta U+W>
0.843

> <U+W>
-4.709

> <U>
48.945

> <W>
-53.653

> <W(PB)>
-55.991

> <W(SA)>
2.338

> <Valence>
2.802

> <Coulomb>
45.335

> <VdW>
0.807

> <VdW6>
-6.962

> <VdW12>
7.769

> <Bond>
0.189

> <Angle>
0.696

> <Pdih>
1.917

> <Idih>
0.000

> <Tether>
0.000

$$$$
VeraChem MOL file


 26 25  0  0  0  0  0  0  0  0999 V2000     
   22.5172   19.2243   25.5798 C   0  0  0  0  0  0  0  0  0  0  0  0
   22.2024   18.2451   25.1984 H   0  0  0  0  0  0  0  0  0  0  0  0
   23.1914   19.6805   24.8434 H   0  0  0  0  0  0  0  0  0  0  0  0
   23.0920   19.0507   26.4987 H   0  0  0  0  0  0  0  0  0  0  0  0
   21.3048   20.1394   25.8654 C   0  0  0  0  0  0  0  0  0  0  0  0
   21.6608   21.0546   26.3590 H   0  0  0  0  0  0  0  0  0  0  0  0
   20.6305   19.6473   26.5802 H   0  0  0  0  0  0  0  0  0  0  0  0
   20.5190   20.5360   24.5922 C   0  0  0  0  0  0  0  0  0  0  0  0
   19.7509   21.2702   24.8718 H   0  0  0  0  0  0  0  0  0  0  0  0
   21.1925   21.0457   23.8894 H   0  0  0  0  0  0  0  0  0  0  0  0
   19.8401   19.3369   23.8877 C   0  0  0  0  0  0  0  0  0  0  0  0
   19.2057   18.8011   24.6072 H   0  0  0  0  0  0  0  0  0  0  0  0
   20.6063   18.6292   23.5474 H   0  0  0  0  0  0  0  0  0  0  0  0
   18.9829   19.7921   22.6822 C   0  0  0  0  0  0  0  0  0  0  0  0
   18.2455   20.5326   23.0217 H   0  0  0  0  0  0  0  0  0  0  0  0
   19.6198   20.3029   21.9465 H   0  0  0  0  0  0  0  0  0  0  0  0
   18.2336   18.6265   21.9948 C   0  0  0  0  0  0  0  0  0  0  0  0
   17.5808   19.0351   21.2119 H   0  0  0  0  0  0  0  0  0  0  0  0
   17.5785   18.1289   22.7223 H   0  0  0  0  0  0  0  0  0  0  0  0
   19.1876   17.5938   21.3657 C   0  0  0  0  0  0  0  0  0  0  0  0
   19.8395   18.0889   20.6409 H   0  0  0  0  0  0  0  0  0  0  0  0
   19.8130   17.1460   22.1422 H   0  0  0  0  0  0  0  0  0  0  0  0
   18.4602   16.4730   20.6515 N   0  3  0  0  0  0  0  0  0  0  0  0
   19.1126   15.7967   20.2399 H   0  0  0  0  0  0  0  0  0  0  0  0
   17.8733   16.8241   19.8877 H   0  0  0  0  0  0  0  0  0  0  0  0
   17.8483   15.9492   21.2859 H   0  0  0  0  0  0  0  0  0  0  0  0
  1  2  1  0  0  0  0
  1  3  1  0  0  0  0
  1  4  1  0  0  0  0
  1  5  1  0  0  0  0
  5  6  1  0  0  0  0
  5  7  1  0  0  0  0
  5  8  1  0  0  0  0
  8  9  1  0  0  0  0
  8 10  1  0  0  0  0
  8 11  1  0  0  0  0
 11 12  1  0  0  0  0
 11 13  1  0  0  0  0
 11 14  1  0  0  0  0
 14 15  1  0  0  0  0
 14 16  1  0  0  0  0
 14 17  1  0  0  0  0
 17 18  1  0  0  0  0
 17 19  1  0  0  0  0
 17 20  1  0  0  0  0
 20 21  1  0  0  0  0
 20 22  1  0  0  0  0
 20 23  1  0  0  0  0
 23 24  1  0  0  0  0
 23 25  1  0  0  0  0
 23 26  1  0  0  0  0
M  END
> <VConfSearch Rank>
758

> <Conf_Id>
96

> <Delta U+W>
0.912

> <U+W>
-4.640

> <U>
48.723

> <W>
-53.364

> <W(PB)>
-55.683

> <W(SA)>
2.320

> <Valence>
2.962

> <Coulomb>
44.993

> <VdW>
0.768

> <VdW6>
-7.008

> <VdW12>
7.776

> <Bond>
0.188

> <Angle>
0.757

> <Pdih>
2.018

> <Idih>
0.000

> <Tether>
0.000

$$$$
VeraChem MOL file


 26 25  0  0  0  0  0  0  0  0999 V2000     
   21.0033   21.6126   25.3698 C   0  0  0  0  0  0  0  0  0  0  0  0
   21.5815   22.1518   26.1313 H   0  0  0  0  0  0  0  0  0  0  0  0
   20.0498   22.1399   25.2366 H   0  0  0  0  0  0  0  0  0  0  0  0
   20.7910   20.6116   25.7653 H   0  0  0  0  0  0  0  0  0  0  0  0
   21.7908   21.5436   24.0416 C   0  0  0  0  0  0  0  0  0  0  0  0
   22.7246   20.9847   24.1942 H   0  0  0  0  0  0  0  0  0  0  0  0
   22.0860   22.5619   23.7521 H   0  0  0  0  0  0  0  0  0  0  0  0
   20.9858   20.9114   22.8805 C   0  0  0  0  0  0  0  0  0  0  0  0
   20.0632   21.4856   22.7186 H   0  0  0  0  0  0  0  0  0  0  0  0
   21.5743   21.0053   21.9574 H   0  0  0  0  0  0  0  0  0  0  0  0
   20.6393   19.4207   23.1101 C   0  0  0  0  0  0  0  0  0  0  0  0
   19.9971   19.3251   23.9945 H   0  0  0  0  0  0  0  0  0  0  0  0
   21.5599   18.8591   23.3202 H   0  0  0  0  0  0  0  0  0  0  0  0
   19.9265   18.8035   21.8828 C   0  0  0  0  0  0  0  0  0  0  0  0
   18.9900   19.3443   21.6874 H   0  0  0  0  0  0  0  0  0  0  0  0
   20.5557   18.9403   20.9924 H   0  0  0  0  0  0  0  0  0  0  0  0
   19.6260   17.2953   22.0496 C   0  0  0  0  0  0  0  0  0  0  0  0
   20.5631   16.7492   22.2216 H   0  0  0  0  0  0  0  0  0  0  0  0
   19.2053   16.9101   21.1112 H   0  0  0  0  0  0  0  0  0  0  0  0
   18.6406   17.0078   23.1979 C   0  0  0  0  0  0  0  0  0  0  0  0
   19.0672   17.3461   24.1456 H   0  0  0  0  0  0  0  0  0  0  0  0
   17.7074   17.5510   23.0265 H   0  0  0  0  0  0  0  0  0  0  0  0
   18.3066   15.5367   23.3379 N   0  3  0  0  0  0  0  0  0  0  0  0
   19.1409   14.9717   23.5275 H   0  0  0  0  0  0  0  0  0  0  0  0
   17.8743   15.1604   22.4878 H   0  0  0  0  0  0  0  0  0  0  0  0
   17.6496   15.3665   24.1072 H   0  0  0  0  0  0  0  0  0  0  0  0
  1  2  1  0  0  0  0
  1  3  1  0  0  0  0
  1  4  1  0  0  0  0
  1  5  1  0  0  0  0
  5  6  1  0  0  0  0
  5  7  1  0  0  0  0
  5  8  1  0  0  0  0
  8  9  1  0  0  0  0
  8 10  1  0  0  0  0
  8 11  1  0  0  0  0
 11 12  1  0  0  0  0
 11 13  1  0  0  0  0
 11 14  1  0  0  0  0
 14 15  1  0  0  0  0
 14 16  1  0  0  0  0
 14 17  1  0  0  0  0
 17 18  1  0  0  0  0
 17 19  1  0  0  0  0
 17 20  1  0  0  0  0
 20 21  1  0  0  0  0
 20 22  1  0  0  0  0
 20 23  1  0  0  0  0
 23 24  1  0  0  0  0
 23 25  1  0  0  0  0
 23 26  1  0  0  0  0
M  END
> <VConfSearch Rank>
759

> <Conf_Id>
133

> <Delta U+W>
0.844

> <U+W>
-4.708

> <U>
48.723

> <W>
-53.431

> <W(PB)>
-55.776

> <W(SA)>
2.344

> <Valence>
2.962

> <Coulomb>
44.993

> <VdW>
0.768

> <VdW6>
-7.008

> <VdW12>
7.776

> <Bond>
0.188

> <Angle>
0.756

> <Pdih>
2.018

> <Idih>
0.000

> <Tether>
0.000

$$$$
VeraChem MOL file


 26 25  0  0  0  0  0  0  0  0999 V2000     
   17.9081   20.8747   25.1437 C   0  0  0  0  0  0  0  0  0  0  0  0
   16.9516   21.1712   24.6941 H   0  0  0  0  0  0  0  0  0  0  0  0
   17.9641   19.7790   25.1426 H   0  0  0  0  0  0  0  0  0  0  0  0
   17.9040   21.2043   26.1906 H   0  0  0  0  0  0  0  0  0  0  0  0
   19.0977   21.5028   24.3830 C   0  0  0  0  0  0  0  0  0  0  0  0
   20.0425   21.1764   24.8377 H   0  0  0  0  0  0  0  0  0  0  0  0
   19.0637   22.5936   24.5123 H   0  0  0  0  0  0  0  0  0  0  0  0
   19.0954   21.1863   22.8655 C   0  0  0  0  0  0  0  0  0  0  0  0
   18.1989   21.6309   22.4120 H   0  0  0  0  0  0  0  0  0  0  0  0
   19.9510   21.6923   22.3975 H   0  0  0  0  0  0  0  0  0  0  0  0
   19.1407   19.6795   22.5023 C   0  0  0  0  0  0  0  0  0  0  0  0
   19.1154   19.5878   21.4077 H   0  0  0  0  0  0  0  0  0  0  0  0
   18.2343   19.1789   22.8678 H   0  0  0  0  0  0  0  0  0  0  0  0
   20.3954   18.9506   23.0401 C   0  0  0  0  0  0  0  0  0  0  0  0
   21.2989   19.4811   22.7090 H   0  0  0  0  0  0  0  0  0  0  0  0
   20.3974   18.9700   24.1380 H   0  0  0  0  0  0  0  0  0  0  0  0
   20.4553   17.4831   22.5622 C   0  0  0  0  0  0  0  0  0  0  0  0
   20.4652   17.4511   21.4645 H   0  0  0  0  0  0  0  0  0  0  0  0
   19.5538   16.9498   22.8925 H   0  0  0  0  0  0  0  0  0  0  0  0
   21.7029   16.7646   23.1058 C   0  0  0  0  0  0  0  0  0  0  0  0
   22.6036   17.2831   22.7660 H   0  0  0  0  0  0  0  0  0  0  0  0
   21.6892   16.7793   24.1990 H   0  0  0  0  0  0  0  0  0  0  0  0
   21.7980   15.3202   22.6586 N   0  3  0  0  0  0  0  0  0  0  0  0
   22.6358   14.8603   23.0314 H   0  0  0  0  0  0  0  0  0  0  0  0
   21.8422   15.2384   21.6375 H   0  0  0  0  0  0  0  0  0  0  0  0
   20.9914   14.7695   22.9708 H   0  0  0  0  0  0  0  0  0  0  0  0
  1  2  1  0  0  0  0
  1  3  1  0  0  0  0
  1  4  1  0  0  0  0
  1  5  1  0  0  0  0
  5  6  1  0  0  0  0
  5  7  1  0  0  0  0
  5  8  1  0  0  0  0
  8  9  1  0  0  0  0
  8 10  1  0  0  0  0
  8 11  1  0  0  0  0
 11 12  1  0  0  0  0
 11 13  1  0  0  0  0
 11 14  1  0  0  0  0
 14 15  1  0  0  0  0
 14 16  1  0  0  0  0
 14 17  1  0  0  0  0
 17 18  1  0  0  0  0
 17 19  1  0  0  0  0
 17 20  1  0  0  0  0
 20 21  1  0  0  0  0
 20 22  1  0  0  0  0
 20 23  1  0  0  0  0
 23 24  1  0  0  0  0
 23 25  1  0  0  0  0
 23 26  1  0  0  0  0
M  END
> <VConfSearch Rank>
760

> <Conf_Id>
106

> <Delta U+W>
0.767

> <U+W>
-4.785

> <U>
48.494

> <W>
-53.279

> <W(PB)>
-55.569

> <W(SA)>
2.290

> <Valence>
3.117

> <Coulomb>
44.693

> <VdW>
0.684

> <VdW6>
-7.347

> <VdW12>
8.030

> <Bond>
0.208

> <Angle>
1.039

> <Pdih>
1.870

> <Idih>
0.000

> <Tether>
0.000

$$$$
VeraChem MOL file


 26 25  0  0  0  0  0  0  0  0999 V2000     
   24.0028   19.1575   21.2455 C   0  0  0  0  0  0  0  0  0  0  0  0
   23.9803   20.2459   21.1036 H   0  0  0  0  0  0  0  0  0  0  0  0
   24.5907   18.9424   22.1474 H   0  0  0  0  0  0  0  0  0  0  0  0
   24.5277   18.7167   20.3881 H   0  0  0  0  0  0  0  0  0  0  0  0
   22.5749   18.5839   21.3641 C   0  0  0  0  0  0  0  0  0  0  0  0
   22.6287   17.4913   21.4710 H   0  0  0  0  0  0  0  0  0  0  0  0
   22.0231   18.7847   20.4351 H   0  0  0  0  0  0  0  0  0  0  0  0
   21.8133   19.1885   22.5644 C   0  0  0  0  0  0  0  0  0  0  0  0
   22.3699   18.9873   23.4902 H   0  0  0  0  0  0  0  0  0  0  0  0
   21.7641   20.2807   22.4541 H   0  0  0  0  0  0  0  0  0  0  0  0
   20.3828   18.6164   22.6865 C   0  0  0  0  0  0  0  0  0  0  0  0
   20.4330   17.5242   22.7964 H   0  0  0  0  0  0  0  0  0  0  0  0
   19.8271   18.8176   21.7601 H   0  0  0  0  0  0  0  0  0  0  0  0
   19.6212   19.2218   23.8873 C   0  0  0  0  0  0  0  0  0  0  0  0
   20.1767   19.0208   24.8141 H   0  0  0  0  0  0  0  0  0  0  0  0
   19.5708   20.3141   23.7777 H   0  0  0  0  0  0  0  0  0  0  0  0
   18.1915   18.6503   24.0101 C   0  0  0  0  0  0  0  0  0  0  0  0
   18.2379   17.5591   24.1253 H   0  0  0  0  0  0  0  0  0  0  0  0
   17.6313   18.8537   23.0876 H   0  0  0  0  0  0  0  0  0  0  0  0
   17.4426   19.2598   25.2083 C   0  0  0  0  0  0  0  0  0  0  0  0
   17.9882   19.0455   26.1312 H   0  0  0  0  0  0  0  0  0  0  0  0
   17.3796   20.3449   25.0898 H   0  0  0  0  0  0  0  0  0  0  0  0
   16.0339   18.7238   25.3627 N   0  3  0  0  0  0  0  0  0  0  0  0
   15.5529   19.1425   26.1663 H   0  0  0  0  0  0  0  0  0  0  0  0
   16.0247   17.7085   25.5055 H   0  0  0  0  0  0  0  0  0  0  0  0
   15.4585   18.9176   24.5365 H   0  0  0  0  0  0  0  0  0  0  0  0
  1  2  1  0  0  0  0
  1  3  1  0  0  0  0
  1  4  1  0  0  0  0
  1  5  1  0  0  0  0
  5  6  1  0  0  0  0
  5  7  1  0  0  0  0
  5  8  1  0  0  0  0
  8  9  1  0  0  0  0
  8 10  1  0  0  0  0
  8 11  1  0  0  0  0
 11 12  1  0  0  0  0
 11 13  1  0  0  0  0
 11 14  1  0  0  0  0
 14 15  1  0  0  0  0
 14 16  1  0  0  0  0
 14 17  1  0  0  0  0
 17 18  1  0  0  0  0
 17 19  1  0  0  0  0
 17 20  1  0  0  0  0
 20 21  1  0  0  0  0
 20 22  1  0  0  0  0
 20 23  1  0  0  0  0
 23 24  1  0  0  0  0
 23 25  1  0  0  0  0
 23 26  1  0  0  0  0
M  END
> <VConfSearch Rank>
761

> <Conf_Id>
25

> <Delta U+W>
0.000

> <U+W>
-5.552

> <U>
47.192

> <W>
-52.745

> <W(PB)>
-55.134

> <W(SA)>
2.389

> <Valence>
2.156

> <Coulomb>
44.449

> <VdW>
0.587

> <VdW6>
-5.761

> <VdW12>
6.348

> <Bond>
0.129

> <Angle>
0.393

> <Pdih>
1.634

> <Idih>
0.000

> <Tether>
0.000

$$$$
VeraChem MOL file


 26 25  0  0  0  0  0  0  0  0999 V2000     
   17.4700   21.3008   25.8707 C   0  0  0  0  0  0  0  0  0  0  0  0
   18.2487   21.5145   26.6144 H   0  0  0  0  0  0  0  0  0  0  0  0
   17.4430   22.1329   25.1551 H   0  0  0  0  0  0  0  0  0  0  0  0
   16.5044   21.2735   26.3922 H   0  0  0  0  0  0  0  0  0  0  0  0
   17.7402   19.9610   25.1537 C   0  0  0  0  0  0  0  0  0  0  0  0
   16.9280   19.7585   24.4415 H   0  0  0  0  0  0  0  0  0  0  0  0
   17.7274   19.1448   25.8896 H   0  0  0  0  0  0  0  0  0  0  0  0
   19.0946   19.9726   24.4109 C   0  0  0  0  0  0  0  0  0  0  0  0
   19.1033   20.7915   23.6783 H   0  0  0  0  0  0  0  0  0  0  0  0
   19.9029   20.1776   25.1264 H   0  0  0  0  0  0  0  0  0  0  0  0
   19.3686   18.6325   23.6916 C   0  0  0  0  0  0  0  0  0  0  0  0
   18.5600   18.4282   22.9761 H   0  0  0  0  0  0  0  0  0  0  0  0
   19.3585   17.8142   24.4250 H   0  0  0  0  0  0  0  0  0  0  0  0
   20.7239   18.6441   22.9490 C   0  0  0  0  0  0  0  0  0  0  0  0
   20.7303   19.4665   22.2212 H   0  0  0  0  0  0  0  0  0  0  0  0
   21.5328   18.8455   23.6651 H   0  0  0  0  0  0  0  0  0  0  0  0
   20.9958   17.3022   22.2289 C   0  0  0  0  0  0  0  0  0  0  0  0
   20.2092   17.1061   21.4881 H   0  0  0  0  0  0  0  0  0  0  0  0
   20.9507   16.4824   22.9583 H   0  0  0  0  0  0  0  0  0  0  0  0
   22.3731   17.2651   21.5388 C   0  0  0  0  0  0  0  0  0  0  0  0
   23.1582   17.4660   22.2728 H   0  0  0  0  0  0  0  0  0  0  0  0
   22.5431   16.2686   21.1219 H   0  0  0  0  0  0  0  0  0  0  0  0
   22.5172   18.2664   20.4095 N   0  3  0  0  0  0  0  0  0  0  0  0
   22.4052   19.2299   20.7398 H   0  0  0  0  0  0  0  0  0  0  0  0
   21.8188   18.1145   19.6745 H   0  0  0  0  0  0  0  0  0  0  0  0
   23.4391   18.2071   19.9636 H   0  0  0  0  0  0  0  0  0  0  0  0
  1  2  1  0  0  0  0
  1  3  1  0  0  0  0
  1  4  1  0  0  0  0
  1  5  1  0  0  0  0
  5  6  1  0  0  0  0
  5  7  1  0  0  0  0
  5  8  1  0  0  0  0
  8  9  1  0  0  0  0
  8 10  1  0  0  0  0
  8 11  1  0  0  0  0
 11 12  1  0  0  0  0
 11 13  1  0  0  0  0
 11 14  1  0  0  0  0
 14 15  1  0  0  0  0
 14 16  1  0  0  0  0
 14 17  1  0  0  0  0
 17 18  1  0  0  0  0
 17 19  1  0  0  0  0
 17 20  1  0  0  0  0
 20 21  1  0  0  0  0
 20 22  1  0  0  0  0
 20 23  1  0  0  0  0
 23 24  1  0  0  0  0
 23 25  1  0  0  0  0
 23 26  1  0  0  0  0
M  END
> <VConfSearch Rank>
762

> <Conf_Id>
20

> <Delta U+W>
0.150

> <U+W>
-5.403

> <U>
47.845

> <W>
-53.248

> <W(PB)>
-55.599

> <W(SA)>
2.351

> <Valence>
2.258

> <Coulomb>
44.893

> <VdW>
0.694

> <VdW6>
-6.285

> <VdW12>
6.979

> <Bond>
0.149

> <Angle>
0.434

> <Pdih>
1.675

> <Idih>
0.000

> <Tether>
0.000

$$$$
VeraChem MOL file


 26 25  0  0  0  0  0  0  0  0999 V2000     
   17.0003   21.9610   22.3731 C   0  0  0  0  0  0  0  0  0  0  0  0
   16.6282   21.9495   23.4059 H   0  0  0  0  0  0  0  0  0  0  0  0
   17.7250   22.7804   22.2799 H   0  0  0  0  0  0  0  0  0  0  0  0
   16.1528   22.1839   21.7120 H   0  0  0  0  0  0  0  0  0  0  0  0
   17.6418   20.6079   21.9995 C   0  0  0  0  0  0  0  0  0  0  0  0
   17.9732   20.6384   20.9521 H   0  0  0  0  0  0  0  0  0  0  0  0
   16.8850   19.8140   22.0695 H   0  0  0  0  0  0  0  0  0  0  0  0
   18.8387   20.2697   22.9157 C   0  0  0  0  0  0  0  0  0  0  0  0
   19.5913   21.0670   22.8441 H   0  0  0  0  0  0  0  0  0  0  0  0
   18.5029   20.2427   23.9616 H   0  0  0  0  0  0  0  0  0  0  0  0
   19.4837   18.9152   22.5446 C   0  0  0  0  0  0  0  0  0  0  0  0
   19.8179   18.9430   21.4982 H   0  0  0  0  0  0  0  0  0  0  0  0
   18.7305   18.1183   22.6167 H   0  0  0  0  0  0  0  0  0  0  0  0
   20.6815   18.5775   23.4609 C   0  0  0  0  0  0  0  0  0  0  0  0
   21.4360   19.3731   23.3864 H   0  0  0  0  0  0  0  0  0  0  0  0
   20.3429   18.5560   24.5053 H   0  0  0  0  0  0  0  0  0  0  0  0
   21.3251   17.2209   23.0883 C   0  0  0  0  0  0  0  0  0  0  0  0
   21.6265   17.2392   22.0325 H   0  0  0  0  0  0  0  0  0  0  0  0
   20.5874   16.4137   23.1897 H   0  0  0  0  0  0  0  0  0  0  0  0
   22.5648   16.8952   23.9435 C   0  0  0  0  0  0  0  0  0  0  0  0
   23.0234   15.9714   23.5802 H   0  0  0  0  0  0  0  0  0  0  0  0
   23.2988   17.7001   23.8493 H   0  0  0  0  0  0  0  0  0  0  0  0
   22.2583   16.7078   25.4165 N   0  3  0  0  0  0  0  0  0  0  0  0
   21.5889   15.9471   25.5723 H   0  0  0  0  0  0  0  0  0  0  0  0
   21.8573   17.5544   25.8316 H   0  0  0  0  0  0  0  0  0  0  0  0
   23.1013   16.4798   25.9547 H   0  0  0  0  0  0  0  0  0  0  0  0
  1  2  1  0  0  0  0
  1  3  1  0  0  0  0
  1  4  1  0  0  0  0
  1  5  1  0  0  0  0
  5  6  1  0  0  0  0
  5  7  1  0  0  0  0
  5  8  1  0  0  0  0
  8  9  1  0  0  0  0
  8 10  1  0  0  0  0
  8 11  1  0  0  0  0
 11 12  1  0  0  0  0
 11 13  1  0  0  0  0
 11 14  1  0  0  0  0
 14 15  1  0  0  0  0
 14 16  1  0  0  0  0
 14 17  1  0  0  0  0
 17 18  1  0  0  0  0
 17 19  1  0  0  0  0
 17 20  1  0  0  0  0
 20 21  1  0  0  0  0
 20 22  1  0  0  0  0
 20 23  1  0  0  0  0
 23 24  1  0  0  0  0
 23 25  1  0  0  0  0
 23 26  1  0  0  0  0
M  END
> <VConfSearch Rank>
763

> <Conf_Id>
19

> <Delta U+W>
0.162

> <U+W>
-5.391

> <U>
47.845

> <W>
-53.235

> <W(PB)>
-55.585

> <W(SA)>
2.349

> <Valence>
2.258

> <Coulomb>
44.893

> <VdW>
0.694

> <VdW6>
-6.285

> <VdW12>
6.979

> <Bond>
0.149

> <Angle>
0.434

> <Pdih>
1.675

> <Idih>
0.000

> <Tether>
0.000

$$$$
VeraChem MOL file


 26 25  0  0  0  0  0  0  0  0999 V2000     
   16.0470   18.3357   22.1168 C   0  0  0  0  0  0  0  0  0  0  0  0
   15.8704   17.4271   21.5265 H   0  0  0  0  0  0  0  0  0  0  0  0
   15.6445   18.1721   23.1250 H   0  0  0  0  0  0  0  0  0  0  0  0
   15.4778   19.1530   21.6552 H   0  0  0  0  0  0  0  0  0  0  0  0
   17.5505   18.6806   22.1694 C   0  0  0  0  0  0  0  0  0  0  0  0
   17.6818   19.6145   22.7316 H   0  0  0  0  0  0  0  0  0  0  0  0
   17.9171   18.8673   21.1503 H   0  0  0  0  0  0  0  0  0  0  0  0
   18.3735   17.5440   22.8207 C   0  0  0  0  0  0  0  0  0  0  0  0
   18.0419   17.3937   23.8574 H   0  0  0  0  0  0  0  0  0  0  0  0
   18.1647   16.6041   22.2913 H   0  0  0  0  0  0  0  0  0  0  0  0
   19.9019   17.7917   22.7952 C   0  0  0  0  0  0  0  0  0  0  0  0
   20.2350   17.9266   21.7569 H   0  0  0  0  0  0  0  0  0  0  0  0
   20.4061   16.8885   23.1658 H   0  0  0  0  0  0  0  0  0  0  0  0
   20.3471   19.0035   23.6489 C   0  0  0  0  0  0  0  0  0  0  0  0
   19.9126   19.9275   23.2453 H   0  0  0  0  0  0  0  0  0  0  0  0
   19.9656   18.8916   24.6734 H   0  0  0  0  0  0  0  0  0  0  0  0
   21.8848   19.1449   23.6856 C   0  0  0  0  0  0  0  0  0  0  0  0
   22.2701   19.2582   22.6634 H   0  0  0  0  0  0  0  0  0  0  0  0
   22.3312   18.2307   24.0990 H   0  0  0  0  0  0  0  0  0  0  0  0
   22.3191   20.3538   24.5330 C   0  0  0  0  0  0  0  0  0  0  0  0
   21.8906   21.2691   24.1155 H   0  0  0  0  0  0  0  0  0  0  0  0
   21.9514   20.2374   25.5561 H   0  0  0  0  0  0  0  0  0  0  0  0
   23.8230   20.5268   24.5934 N   0  3  0  0  0  0  0  0  0  0  0  0
   24.2291   20.6686   23.6627 H   0  0  0  0  0  0  0  0  0  0  0  0
   24.2857   19.7086   25.0031 H   0  0  0  0  0  0  0  0  0  0  0  0
   24.0908   21.3372   25.1625 H   0  0  0  0  0  0  0  0  0  0  0  0
  1  2  1  0  0  0  0
  1  3  1  0  0  0  0
  1  4  1  0  0  0  0
  1  5  1  0  0  0  0
  5  6  1  0  0  0  0
  5  7  1  0  0  0  0
  5  8  1  0  0  0  0
  8  9  1  0  0  0  0
  8 10  1  0  0  0  0
  8 11  1  0  0  0  0
 11 12  1  0  0  0  0
 11 13  1  0  0  0  0
 11 14  1  0  0  0  0
 14 15  1  0  0  0  0
 14 16  1  0  0  0  0
 14 17  1  0  0  0  0
 17 18  1  0  0  0  0
 17 19  1  0  0  0  0
 17 20  1  0  0  0  0
 20 21  1  0  0  0  0
 20 22  1  0  0  0  0
 20 23  1  0  0  0  0
 23 24  1  0  0  0  0
 23 25  1  0  0  0  0
 23 26  1  0  0  0  0
M  END
> <VConfSearch Rank>
764

> <Conf_Id>
37

> <Delta U+W>
0.565

> <U+W>
-4.988

> <U>
48.035

> <W>
-53.022

> <W(PB)>
-55.379

> <W(SA)>
2.357

> <Valence>
2.701

> <Coulomb>
44.622

> <VdW>
0.712

> <VdW6>
-6.418

> <VdW12>
7.129

> <Bond>
0.168

> <Angle>
0.659

> <Pdih>
1.875

> <Idih>
0.000

> <Tether>
0.000

$$$$
VeraChem MOL file


 26 25  0  0  0  0  0  0  0  0999 V2000     
   22.3814   20.8870   25.8056 C   0  0  0  0  0  0  0  0  0  0  0  0
   23.0476   20.8530   24.9337 H   0  0  0  0  0  0  0  0  0  0  0  0
   21.8094   21.8230   25.7628 H   0  0  0  0  0  0  0  0  0  0  0  0
   23.0073   20.9155   26.7070 H   0  0  0  0  0  0  0  0  0  0  0  0
   21.4412   19.6632   25.8336 C   0  0  0  0  0  0  0  0  0  0  0  0
   20.8126   19.7075   26.7341 H   0  0  0  0  0  0  0  0  0  0  0  0
   22.0402   18.7449   25.9099 H   0  0  0  0  0  0  0  0  0  0  0  0
   20.5473   19.5994   24.5753 C   0  0  0  0  0  0  0  0  0  0  0  0
   19.9493   20.5184   24.5045 H   0  0  0  0  0  0  0  0  0  0  0  0
   21.1870   19.5649   23.6838 H   0  0  0  0  0  0  0  0  0  0  0  0
   19.6071   18.3703   24.6006 C   0  0  0  0  0  0  0  0  0  0  0  0
   19.0308   18.3805   25.5361 H   0  0  0  0  0  0  0  0  0  0  0  0
   20.2035   17.4475   24.6162 H   0  0  0  0  0  0  0  0  0  0  0  0
   18.6134   18.3257   23.4138 C   0  0  0  0  0  0  0  0  0  0  0  0
   17.9153   17.4924   23.5752 H   0  0  0  0  0  0  0  0  0  0  0  0
   18.0048   19.2406   23.4083 H   0  0  0  0  0  0  0  0  0  0  0  0
   19.2985   18.1469   22.0385 C   0  0  0  0  0  0  0  0  0  0  0  0
   19.9463   17.2604   22.0605 H   0  0  0  0  0  0  0  0  0  0  0  0
   19.9383   19.0109   21.8194 H   0  0  0  0  0  0  0  0  0  0  0  0
   18.2612   17.9939   20.9122 C   0  0  0  0  0  0  0  0  0  0  0  0
   17.6288   17.1241   21.1097 H   0  0  0  0  0  0  0  0  0  0  0  0
   17.6238   18.8815   20.8758 H   0  0  0  0  0  0  0  0  0  0  0  0
   18.8904   17.8135   19.5458 N   0  3  0  0  0  0  0  0  0  0  0  0
   19.4829   16.9777   19.5052 H   0  0  0  0  0  0  0  0  0  0  0  0
   19.4778   18.6130   19.2868 H   0  0  0  0  0  0  0  0  0  0  0  0
   18.1821   17.7131   18.8106 H   0  0  0  0  0  0  0  0  0  0  0  0
  1  2  1  0  0  0  0
  1  3  1  0  0  0  0
  1  4  1  0  0  0  0
  1  5  1  0  0  0  0
  5  6  1  0  0  0  0
  5  7  1  0  0  0  0
  5  8  1  0  0  0  0
  8  9  1  0  0  0  0
  8 10  1  0  0  0  0
  8 11  1  0  0  0  0
 11 12  1  0  0  0  0
 11 13  1  0  0  0  0
 11 14  1  0  0  0  0
 14 15  1  0  0  0  0
 14 16  1  0  0  0  0
 14 17  1  0  0  0  0
 17 18  1  0  0  0  0
 17 19  1  0  0  0  0
 17 20  1  0  0  0  0
 20 21  1  0  0  0  0
 20 22  1  0  0  0  0
 20 23  1  0  0  0  0
 23 24  1  0  0  0  0
 23 25  1  0  0  0  0
 23 26  1  0  0  0  0
M  END
> <VConfSearch Rank>
765

> <Conf_Id>
35

> <Delta U+W>
0.587

> <U+W>
-4.965

> <U>
48.214

> <W>
-53.179

> <W(PB)>
-55.527

> <W(SA)>
2.348

> <Valence>
2.697

> <Coulomb>
44.819

> <VdW>
0.699

> <VdW6>
-6.437

> <VdW12>
7.136

> <Bond>
0.168

> <Angle>
0.657

> <Pdih>
1.872

> <Idih>
0.000

> <Tether>
0.000

$$$$
VeraChem MOL file


 26 25  0  0  0  0  0  0  0  0999 V2000     
   20.4535   22.1540   25.7604 C   0  0  0  0  0  0  0  0  0  0  0  0
   21.1941   22.6673   25.1334 H   0  0  0  0  0  0  0  0  0  0  0  0
   19.4547   22.3812   25.3654 H   0  0  0  0  0  0  0  0  0  0  0  0
   20.5193   22.5745   26.7723 H   0  0  0  0  0  0  0  0  0  0  0  0
   20.7074   20.6318   25.7854 C   0  0  0  0  0  0  0  0  0  0  0  0
   19.9726   20.1503   26.4458 H   0  0  0  0  0  0  0  0  0  0  0  0
   21.6987   20.4350   26.2172 H   0  0  0  0  0  0  0  0  0  0  0  0
   20.6214   20.0140   24.3720 C   0  0  0  0  0  0  0  0  0  0  0  0
   19.6307   20.2256   23.9491 H   0  0  0  0  0  0  0  0  0  0  0  0
   21.3589   20.4971   23.7163 H   0  0  0  0  0  0  0  0  0  0  0  0
   20.8718   18.4869   24.3966 C   0  0  0  0  0  0  0  0  0  0  0  0
   20.1028   17.9949   25.0080 H   0  0  0  0  0  0  0  0  0  0  0  0
   21.8323   18.2903   24.8928 H   0  0  0  0  0  0  0  0  0  0  0  0
   20.9068   17.8420   22.9892 C   0  0  0  0  0  0  0  0  0  0  0  0
   21.6876   18.3221   22.3832 H   0  0  0  0  0  0  0  0  0  0  0  0
   21.2035   16.7892   23.0958 H   0  0  0  0  0  0  0  0  0  0  0  0
   19.5532   17.9085   22.2434 C   0  0  0  0  0  0  0  0  0  0  0  0
   19.2776   18.9532   22.0522 H   0  0  0  0  0  0  0  0  0  0  0  0
   18.7636   17.4740   22.8707 H   0  0  0  0  0  0  0  0  0  0  0  0
   19.6147   17.1540   20.9037 C   0  0  0  0  0  0  0  0  0  0  0  0
   20.3888   17.5936   20.2689 H   0  0  0  0  0  0  0  0  0  0  0  0
   19.8704   16.1062   21.0826 H   0  0  0  0  0  0  0  0  0  0  0  0
   18.3065   17.1920   20.1402 N   0  3  0  0  0  0  0  0  0  0  0  0
   18.0228   18.1513   19.9153 H   0  0  0  0  0  0  0  0  0  0  0  0
   17.5405   16.7676   20.6733 H   0  0  0  0  0  0  0  0  0  0  0  0
   18.3694   16.6833   19.2515 H   0  0  0  0  0  0  0  0  0  0  0  0
  1  2  1  0  0  0  0
  1  3  1  0  0  0  0
  1  4  1  0  0  0  0
  1  5  1  0  0  0  0
  5  6  1  0  0  0  0
  5  7  1  0  0  0  0
  5  8  1  0  0  0  0
  8  9  1  0  0  0  0
  8 10  1  0  0  0  0
  8 11  1  0  0  0  0
 11 12  1  0  0  0  0
 11 13  1  0  0  0  0
 11 14  1  0  0  0  0
 14 15  1  0  0  0  0
 14 16  1  0  0  0  0
 14 17  1  0  0  0  0
 17 18  1  0  0  0  0
 17 19  1  0  0  0  0
 17 20  1  0  0  0  0
 20 21  1  0  0  0  0
 20 22  1  0  0  0  0
 20 23  1  0  0  0  0
 23 24  1  0  0  0  0
 23 25  1  0  0  0  0
 23 26  1  0  0  0  0
M  END
> <VConfSearch Rank>
766

> <Conf_Id>
36

> <Delta U+W>
0.565

> <U+W>
-4.987

> <U>
48.214

> <W>
-53.201

> <W(PB)>
-55.543

> <W(SA)>
2.342

> <Valence>
2.697

> <Coulomb>
44.819

> <VdW>
0.698

> <VdW6>
-6.437

> <VdW12>
7.136

> <Bond>
0.168

> <Angle>
0.657

> <Pdih>
1.872

> <Idih>
0.000

> <Tether>
0.000

$$$$
VeraChem MOL file


 26 25  0  0  0  0  0  0  0  0999 V2000     
   18.7017   22.7588   21.9284 C   0  0  0  0  0  0  0  0  0  0  0  0
   19.6112   23.1562   21.4592 H   0  0  0  0  0  0  0  0  0  0  0  0
   17.8419   23.0934   21.3336 H   0  0  0  0  0  0  0  0  0  0  0  0
   18.6119   23.2013   22.9291 H   0  0  0  0  0  0  0  0  0  0  0  0
   18.7449   21.2179   22.0050 C   0  0  0  0  0  0  0  0  0  0  0  0
   18.8005   20.8038   20.9884 H   0  0  0  0  0  0  0  0  0  0  0  0
   17.8088   20.8486   22.4470 H   0  0  0  0  0  0  0  0  0  0  0  0
   19.9471   20.7199   22.8375 C   0  0  0  0  0  0  0  0  0  0  0  0
   20.8799   21.0941   22.3932 H   0  0  0  0  0  0  0  0  0  0  0  0
   19.8883   21.1379   23.8520 H   0  0  0  0  0  0  0  0  0  0  0  0
   19.9940   19.1772   22.9162 C   0  0  0  0  0  0  0  0  0  0  0  0
   20.0555   18.7607   21.9013 H   0  0  0  0  0  0  0  0  0  0  0  0
   19.0566   18.8102   23.3551 H   0  0  0  0  0  0  0  0  0  0  0  0
   21.1986   18.6815   23.7519 C   0  0  0  0  0  0  0  0  0  0  0  0
   22.1252   19.0957   23.3308 H   0  0  0  0  0  0  0  0  0  0  0  0
   21.1231   19.0690   24.7774 H   0  0  0  0  0  0  0  0  0  0  0  0
   21.3175   17.1398   23.7906 C   0  0  0  0  0  0  0  0  0  0  0  0
   22.2383   16.8667   24.3231 H   0  0  0  0  0  0  0  0  0  0  0  0
   21.4185   16.7516   22.7683 H   0  0  0  0  0  0  0  0  0  0  0  0
   20.1175   16.4675   24.4837 C   0  0  0  0  0  0  0  0  0  0  0  0
   20.0174   16.8531   25.5019 H   0  0  0  0  0  0  0  0  0  0  0  0
   19.1988   16.6953   23.9370 H   0  0  0  0  0  0  0  0  0  0  0  0
   20.2480   14.9603   24.5649 N   0  3  0  0  0  0  0  0  0  0  0  0
   19.4396   14.5323   25.0294 H   0  0  0  0  0  0  0  0  0  0  0  0
   21.0799   14.6767   25.0929 H   0  0  0  0  0  0  0  0  0  0  0  0
   20.3196   14.5323   23.6360 H   0  0  0  0  0  0  0  0  0  0  0  0
  1  2  1  0  0  0  0
  1  3  1  0  0  0  0
  1  4  1  0  0  0  0
  1  5  1  0  0  0  0
  5  6  1  0  0  0  0
  5  7  1  0  0  0  0
  5  8  1  0  0  0  0
  8  9  1  0  0  0  0
  8 10  1  0  0  0  0
  8 11  1  0  0  0  0
 11 12  1  0  0  0  0
 11 13  1  0  0  0  0
 11 14  1  0  0  0  0
 14 15  1  0  0  0  0
 14 16  1  0  0  0  0
 14 17  1  0  0  0  0
 17 18  1  0  0  0  0
 17 19  1  0  0  0  0
 17 20  1  0  0  0  0
 20 21  1  0  0  0  0
 20 22  1  0  0  0  0
 20 23  1  0  0  0  0
 23 24  1  0  0  0  0
 23 25  1  0  0  0  0
 23 26  1  0  0  0  0
M  END
> <VConfSearch Rank>
767

> <Conf_Id>
44

> <Delta U+W>
0.371

> <U+W>
-5.181

> <U>
48.002

> <W>
-53.183

> <W(PB)>
-55.533

> <W(SA)>
2.350

> <Valence>
2.459

> <Coulomb>
44.901

> <VdW>
0.643

> <VdW6>
-6.362

> <VdW12>
7.005

> <Bond>
0.151

> <Angle>
0.519

> <Pdih>
1.789

> <Idih>
0.000

> <Tether>
0.000

$$$$
VeraChem MOL file


 26 25  0  0  0  0  0  0  0  0999 V2000     
   22.8572   21.5297   23.0786 C   0  0  0  0  0  0  0  0  0  0  0  0
   22.1989   22.3185   22.6921 H   0  0  0  0  0  0  0  0  0  0  0  0
   23.8053   21.9983   23.3726 H   0  0  0  0  0  0  0  0  0  0  0  0
   23.0754   20.8318   22.2609 H   0  0  0  0  0  0  0  0  0  0  0  0
   22.2134   20.8098   24.2855 C   0  0  0  0  0  0  0  0  0  0  0  0
   22.1353   21.5216   25.1192 H   0  0  0  0  0  0  0  0  0  0  0  0
   22.8747   20.0032   24.6314 H   0  0  0  0  0  0  0  0  0  0  0  0
   20.8049   20.2410   23.9871 C   0  0  0  0  0  0  0  0  0  0  0  0
   20.3806   19.8774   24.9315 H   0  0  0  0  0  0  0  0  0  0  0  0
   20.1478   21.0515   23.6431 H   0  0  0  0  0  0  0  0  0  0  0  0
   20.8113   19.0938   22.9445 C   0  0  0  0  0  0  0  0  0  0  0  0
   21.4652   18.2814   23.2899 H   0  0  0  0  0  0  0  0  0  0  0  0
   21.2437   19.4595   22.0043 H   0  0  0  0  0  0  0  0  0  0  0  0
   19.4028   18.5297   22.6330 C   0  0  0  0  0  0  0  0  0  0  0  0
   18.7450   19.3450   22.3012 H   0  0  0  0  0  0  0  0  0  0  0  0
   19.4928   17.8411   21.7826 H   0  0  0  0  0  0  0  0  0  0  0  0
   18.7526   17.7863   23.8271 C   0  0  0  0  0  0  0  0  0  0  0  0
   18.6145   18.4782   24.6668 H   0  0  0  0  0  0  0  0  0  0  0  0
   19.4186   16.9888   24.1823 H   0  0  0  0  0  0  0  0  0  0  0  0
   17.3766   17.1879   23.4758 C   0  0  0  0  0  0  0  0  0  0  0  0
   16.9252   16.7647   24.3773 H   0  0  0  0  0  0  0  0  0  0  0  0
   16.7169   17.9758   23.1022 H   0  0  0  0  0  0  0  0  0  0  0  0
   17.4348   16.0884   22.4333 N   0  3  0  0  0  0  0  0  0  0  0  0
   17.8152   16.4272   21.5443 H   0  0  0  0  0  0  0  0  0  0  0  0
   16.5053   15.7028   22.2344 H   0  0  0  0  0  0  0  0  0  0  0  0
   18.0243   15.3066   22.7371 H   0  0  0  0  0  0  0  0  0  0  0  0
  1  2  1  0  0  0  0
  1  3  1  0  0  0  0
  1  4  1  0  0  0  0
  1  5  1  0  0  0  0
  5  6  1  0  0  0  0
  5  7  1  0  0  0  0
  5  8  1  0  0  0  0
  8  9  1  0  0  0  0
  8 10  1  0  0  0  0
  8 11  1  0  0  0  0
 11 12  1  0  0  0  0
 11 13  1  0  0  0  0
 11 14  1  0  0  0  0
 14 15  1  0  0  0  0
 14 16  1  0  0  0  0
 14 17  1  0  0  0  0
 17 18  1  0  0  0  0
 17 19  1  0  0  0  0
 17 20  1  0  0  0  0
 20 21  1  0  0  0  0
 20 22  1  0  0  0  0
 20 23  1  0  0  0  0
 23 24  1  0  0  0  0
 23 25  1  0  0  0  0
 23 26  1  0  0  0  0
M  END
> <VConfSearch Rank>
768

> <Conf_Id>
112

> <Delta U+W>
1.422

> <U+W>
-4.130

> <U>
49.323

> <W>
-53.453

> <W(PB)>
-55.749

> <W(SA)>
2.296

> <Valence>
3.408

> <Coulomb>
44.893

> <VdW>
1.021

> <VdW6>
-7.481

> <VdW12>
8.503

> <Bond>
0.239

> <Angle>
1.013

> <Pdih>
2.156

> <Idih>
0.000

> <Tether>
0.000

$$$$
VeraChem MOL file


 26 25  0  0  0  0  0  0  0  0999 V2000     
   17.4132   20.1596   25.6275 C   0  0  0  0  0  0  0  0  0  0  0  0
   16.8217   20.4889   26.4916 H   0  0  0  0  0  0  0  0  0  0  0  0
   17.9227   21.0421   25.2209 H   0  0  0  0  0  0  0  0  0  0  0  0
   16.7163   19.7836   24.8672 H   0  0  0  0  0  0  0  0  0  0  0  0
   18.4212   19.0658   26.0470 C   0  0  0  0  0  0  0  0  0  0  0  0
   17.8763   18.2562   26.5525 H   0  0  0  0  0  0  0  0  0  0  0  0
   19.1222   19.4740   26.7884 H   0  0  0  0  0  0  0  0  0  0  0  0
   19.2080   18.4676   24.8560 C   0  0  0  0  0  0  0  0  0  0  0  0
   19.8226   17.6355   25.2261 H   0  0  0  0  0  0  0  0  0  0  0  0
   18.4977   18.0355   24.1390 H   0  0  0  0  0  0  0  0  0  0  0  0
   20.1229   19.4976   24.1463 C   0  0  0  0  0  0  0  0  0  0  0  0
   20.7345   20.0113   24.9008 H   0  0  0  0  0  0  0  0  0  0  0  0
   19.5136   20.2720   23.6619 H   0  0  0  0  0  0  0  0  0  0  0  0
   21.0691   18.8642   23.0968 C   0  0  0  0  0  0  0  0  0  0  0  0
   21.7549   19.6441   22.7402 H   0  0  0  0  0  0  0  0  0  0  0  0
   21.6945   18.1000   23.5787 H   0  0  0  0  0  0  0  0  0  0  0  0
   20.3235   18.2426   21.8892 C   0  0  0  0  0  0  0  0  0  0  0  0
   19.6775   18.9949   21.4174 H   0  0  0  0  0  0  0  0  0  0  0  0
   19.6658   17.4352   22.2341 H   0  0  0  0  0  0  0  0  0  0  0  0
   21.2835   17.6561   20.8361 C   0  0  0  0  0  0  0  0  0  0  0  0
   21.9409   16.9200   21.3066 H   0  0  0  0  0  0  0  0  0  0  0  0
   20.7036   17.1486   20.0604 H   0  0  0  0  0  0  0  0  0  0  0  0
   22.1517   18.6948   20.1532 N   0  3  0  0  0  0  0  0  0  0  0  0
   22.7534   19.1860   20.8214 H   0  0  0  0  0  0  0  0  0  0  0  0
   21.5894   19.4046   19.6726 H   0  0  0  0  0  0  0  0  0  0  0  0
   22.7672   18.2730   19.4491 H   0  0  0  0  0  0  0  0  0  0  0  0
  1  2  1  0  0  0  0
  1  3  1  0  0  0  0
  1  4  1  0  0  0  0
  1  5  1  0  0  0  0
  5  6  1  0  0  0  0
  5  7  1  0  0  0  0
  5  8  1  0  0  0  0
  8  9  1  0  0  0  0
  8 10  1  0  0  0  0
  8 11  1  0  0  0  0
 11 12  1  0  0  0  0
 11 13  1  0  0  0  0
 11 14  1  0  0  0  0
 14 15  1  0  0  0  0
 14 16  1  0  0  0  0
 14 17  1  0  0  0  0
 17 18  1  0  0  0  0
 17 19  1  0  0  0  0
 17 20  1  0  0  0  0
 20 21  1  0  0  0  0
 20 22  1  0  0  0  0
 20 23  1  0  0  0  0
 23 24  1  0  0  0  0
 23 25  1  0  0  0  0
 23 26  1  0  0  0  0
M  END
> <VConfSearch Rank>
769

> <Conf_Id>
130

> <Delta U+W>
1.282

> <U+W>
-4.270

> <U>
49.153

> <W>
-53.422

> <W(PB)>
-55.725

> <W(SA)>
2.303

> <Valence>
3.298

> <Coulomb>
44.907

> <VdW>
0.948

> <VdW6>
-7.574

> <VdW12>
8.522

> <Bond>
0.229

> <Angle>
0.912

> <Pdih>
2.157

> <Idih>
0.000

> <Tether>
0.000

$$$$
VeraChem MOL file


 26 25  0  0  0  0  0  0  0  0999 V2000     
   22.6297   20.5243   21.8122 C   0  0  0  0  0  0  0  0  0  0  0  0
   22.4873   21.5981   21.9901 H   0  0  0  0  0  0  0  0  0  0  0  0
   23.4985   20.4052   21.1519 H   0  0  0  0  0  0  0  0  0  0  0  0
   21.7519   20.1448   21.2745 H   0  0  0  0  0  0  0  0  0  0  0  0
   22.8512   19.7660   23.1404 C   0  0  0  0  0  0  0  0  0  0  0  0
   23.8025   20.0955   23.5810 H   0  0  0  0  0  0  0  0  0  0  0  0
   22.9705   18.6930   22.9395 H   0  0  0  0  0  0  0  0  0  0  0  0
   21.7224   19.9959   24.1778 C   0  0  0  0  0  0  0  0  0  0  0  0
   21.9687   19.4455   25.0963 H   0  0  0  0  0  0  0  0  0  0  0  0
   21.7114   21.0581   24.4584 H   0  0  0  0  0  0  0  0  0  0  0  0
   20.2990   19.5911   23.7141 C   0  0  0  0  0  0  0  0  0  0  0  0
   19.9952   20.2077   22.8579 H   0  0  0  0  0  0  0  0  0  0  0  0
   19.5989   19.8341   24.5242 H   0  0  0  0  0  0  0  0  0  0  0  0
   20.1694   18.0900   23.3515 C   0  0  0  0  0  0  0  0  0  0  0  0
   20.8473   17.8525   22.5214 H   0  0  0  0  0  0  0  0  0  0  0  0
   20.4895   17.4733   24.2027 H   0  0  0  0  0  0  0  0  0  0  0  0
   18.7352   17.6886   22.9333 C   0  0  0  0  0  0  0  0  0  0  0  0
   18.7438   16.6452   22.5910 H   0  0  0  0  0  0  0  0  0  0  0  0
   18.4164   18.2976   22.0769 H   0  0  0  0  0  0  0  0  0  0  0  0
   17.7165   17.8317   24.0797 C   0  0  0  0  0  0  0  0  0  0  0  0
   18.0350   17.2261   24.9324 H   0  0  0  0  0  0  0  0  0  0  0  0
   17.6619   18.8754   24.3994 H   0  0  0  0  0  0  0  0  0  0  0  0
   16.3200   17.3923   23.6897 N   0  3  0  0  0  0  0  0  0  0  0  0
   15.9508   17.9425   22.9073 H   0  0  0  0  0  0  0  0  0  0  0  0
   15.6574   17.4951   24.4661 H   0  0  0  0  0  0  0  0  0  0  0  0
   16.2949   16.4077   23.4046 H   0  0  0  0  0  0  0  0  0  0  0  0
  1  2  1  0  0  0  0
  1  3  1  0  0  0  0
  1  4  1  0  0  0  0
  1  5  1  0  0  0  0
  5  6  1  0  0  0  0
  5  7  1  0  0  0  0
  5  8  1  0  0  0  0
  8  9  1  0  0  0  0
  8 10  1  0  0  0  0
  8 11  1  0  0  0  0
 11 12  1  0  0  0  0
 11 13  1  0  0  0  0
 11 14  1  0  0  0  0
 14 15  1  0  0  0  0
 14 16  1  0  0  0  0
 14 17  1  0  0  0  0
 17 18  1  0  0  0  0
 17 19  1  0  0  0  0
 17 20  1  0  0  0  0
 20 21  1  0  0  0  0
 20 22  1  0  0  0  0
 20 23  1  0  0  0  0
 23 24  1  0  0  0  0
 23 25  1  0  0  0  0
 23 26  1  0  0  0  0
M  END
> <VConfSearch Rank>
770

> <Conf_Id>
111

> <Delta U+W>
1.290

> <U+W>
-4.262

> <U>
49.209

> <W>
-53.471

> <W(PB)>
-55.745

> <W(SA)>
2.274

> <Valence>
3.465

> <Coulomb>
44.958

> <VdW>
0.786

> <VdW6>
-7.903

> <VdW12>
8.689

> <Bond>
0.237

> <Angle>
1.212

> <Pdih>
2.015

> <Idih>
0.000

> <Tether>
0.000

$$$$
VeraChem MOL file


 26 25  0  0  0  0  0  0  0  0999 V2000     
   22.8101   18.8082   20.4555 C   0  0  0  0  0  0  0  0  0  0  0  0
   23.4143   18.1014   21.0390 H   0  0  0  0  0  0  0  0  0  0  0  0
   22.5430   18.3269   19.5056 H   0  0  0  0  0  0  0  0  0  0  0  0
   23.4376   19.6793   20.2267 H   0  0  0  0  0  0  0  0  0  0  0  0
   21.5487   19.2350   21.2358 C   0  0  0  0  0  0  0  0  0  0  0  0
   20.9809   19.9632   20.6399 H   0  0  0  0  0  0  0  0  0  0  0  0
   21.8565   19.7475   22.1568 H   0  0  0  0  0  0  0  0  0  0  0  0
   20.6498   18.0221   21.5736 C   0  0  0  0  0  0  0  0  0  0  0  0
   20.4204   17.4791   20.6464 H   0  0  0  0  0  0  0  0  0  0  0  0
   21.2010   17.3193   22.2135 H   0  0  0  0  0  0  0  0  0  0  0  0
   19.3156   18.4100   22.2572 C   0  0  0  0  0  0  0  0  0  0  0  0
   18.6978   17.5062   22.3510 H   0  0  0  0  0  0  0  0  0  0  0  0
   18.7573   19.0991   21.6085 H   0  0  0  0  0  0  0  0  0  0  0  0
   19.4984   19.0424   23.6579 C   0  0  0  0  0  0  0  0  0  0  0  0
   20.1086   18.3739   24.2796 H   0  0  0  0  0  0  0  0  0  0  0  0
   20.0459   19.9903   23.5728 H   0  0  0  0  0  0  0  0  0  0  0  0
   18.1389   19.3065   24.3476 C   0  0  0  0  0  0  0  0  0  0  0  0
   17.5918   18.3630   24.4761 H   0  0  0  0  0  0  0  0  0  0  0  0
   17.5202   19.9418   23.6998 H   0  0  0  0  0  0  0  0  0  0  0  0
   18.2897   20.0033   25.7136 C   0  0  0  0  0  0  0  0  0  0  0  0
   18.8386   20.9407   25.5902 H   0  0  0  0  0  0  0  0  0  0  0  0
   17.2990   20.2382   26.1122 H   0  0  0  0  0  0  0  0  0  0  0  0
   19.0149   19.1661   26.7490 N   0  3  0  0  0  0  0  0  0  0  0  0
   19.0872   19.6527   27.6492 H   0  0  0  0  0  0  0  0  0  0  0  0
   19.9694   18.9393   26.4531 H   0  0  0  0  0  0  0  0  0  0  0  0
   18.5332   18.2787   26.9263 H   0  0  0  0  0  0  0  0  0  0  0  0
  1  2  1  0  0  0  0
  1  3  1  0  0  0  0
  1  4  1  0  0  0  0
  1  5  1  0  0  0  0
  5  6  1  0  0  0  0
  5  7  1  0  0  0  0
  5  8  1  0  0  0  0
  8  9  1  0  0  0  0
  8 10  1  0  0  0  0
  8 11  1  0  0  0  0
 11 12  1  0  0  0  0
 11 13  1  0  0  0  0
 11 14  1  0  0  0  0
 14 15  1  0  0  0  0
 14 16  1  0  0  0  0
 14 17  1  0  0  0  0
 17 18  1  0  0  0  0
 17 19  1  0  0  0  0
 17 20  1  0  0  0  0
 20 21  1  0  0  0  0
 20 22  1  0  0  0  0
 20 23  1  0  0  0  0
 23 24  1  0  0  0  0
 23 25  1  0  0  0  0
 23 26  1  0  0  0  0
M  END
> <VConfSearch Rank>
771

> <Conf_Id>
105

> <Delta U+W>
0.736

> <U+W>
-4.817

> <U>
48.735

> <W>
-53.552

> <W(PB)>
-55.889

> <W(SA)>
2.337

> <Valence>
2.803

> <Coulomb>
45.123

> <VdW>
0.809

> <VdW6>
-6.953

> <VdW12>
7.761

> <Bond>
0.188

> <Angle>
0.699

> <Pdih>
1.917

> <Idih>
0.000

> <Tether>
0.000

$$$$
VeraChem MOL file


 26 25  0  0  0  0  0  0  0  0999 V2000     
   22.1209   17.8568   20.4410 C   0  0  0  0  0  0  0  0  0  0  0  0
   23.2157   17.9251   20.4847 H   0  0  0  0  0  0  0  0  0  0  0  0
   21.8315   16.8306   20.7026 H   0  0  0  0  0  0  0  0  0  0  0  0
   21.8133   18.0396   19.4032 H   0  0  0  0  0  0  0  0  0  0  0  0
   21.4624   18.8781   21.3925 C   0  0  0  0  0  0  0  0  0  0  0  0
   20.3712   18.8070   21.2911 H   0  0  0  0  0  0  0  0  0  0  0  0
   21.7458   19.8954   21.0885 H   0  0  0  0  0  0  0  0  0  0  0  0
   21.8778   18.6378   22.8630 C   0  0  0  0  0  0  0  0  0  0  0  0
   21.5583   17.6366   23.1807 H   0  0  0  0  0  0  0  0  0  0  0  0
   22.9746   18.6370   22.9276 H   0  0  0  0  0  0  0  0  0  0  0  0
   21.3336   19.7070   23.8457 C   0  0  0  0  0  0  0  0  0  0  0  0
   21.7692   20.6817   23.5857 H   0  0  0  0  0  0  0  0  0  0  0  0
   21.6990   19.4756   24.8557 H   0  0  0  0  0  0  0  0  0  0  0  0
   19.7899   19.8493   23.8905 C   0  0  0  0  0  0  0  0  0  0  0  0
   19.5442   20.6434   24.6078 H   0  0  0  0  0  0  0  0  0  0  0  0
   19.4162   20.1959   22.9180 H   0  0  0  0  0  0  0  0  0  0  0  0
   19.0592   18.5451   24.2973 C   0  0  0  0  0  0  0  0  0  0  0  0
   19.4428   18.1830   25.2603 H   0  0  0  0  0  0  0  0  0  0  0  0
   19.2660   17.7592   23.5601 H   0  0  0  0  0  0  0  0  0  0  0  0
   17.5311   18.7228   24.3855 C   0  0  0  0  0  0  0  0  0  0  0  0
   17.1489   19.1016   23.4338 H   0  0  0  0  0  0  0  0  0  0  0  0
   17.0646   17.7529   24.5784 H   0  0  0  0  0  0  0  0  0  0  0  0
   17.0875   19.6708   25.4825 N   0  3  0  0  0  0  0  0  0  0  0  0
   17.4604   20.6148   25.3427 H   0  0  0  0  0  0  0  0  0  0  0  0
   17.3989   19.3556   26.4070 H   0  0  0  0  0  0  0  0  0  0  0  0
   16.0659   19.7547   25.5230 H   0  0  0  0  0  0  0  0  0  0  0  0
  1  2  1  0  0  0  0
  1  3  1  0  0  0  0
  1  4  1  0  0  0  0
  1  5  1  0  0  0  0
  5  6  1  0  0  0  0
  5  7  1  0  0  0  0
  5  8  1  0  0  0  0
  8  9  1  0  0  0  0
  8 10  1  0  0  0  0
  8 11  1  0  0  0  0
 11 12  1  0  0  0  0
 11 13  1  0  0  0  0
 11 14  1  0  0  0  0
 14 15  1  0  0  0  0
 14 16  1  0  0  0  0
 14 17  1  0  0  0  0
 17 18  1  0  0  0  0
 17 19  1  0  0  0  0
 17 20  1  0  0  0  0
 20 21  1  0  0  0  0
 20 22  1  0  0  0  0
 20 23  1  0  0  0  0
 23 24  1  0  0  0  0
 23 25  1  0  0  0  0
 23 26  1  0  0  0  0
M  END
> <VConfSearch Rank>
772

> <Conf_Id>
144

> <Delta U+W>
1.073

> <U+W>
-4.479

> <U>
49.231

> <W>
-53.710

> <W(PB)>
-55.983

> <W(SA)>
2.273

> <Valence>
3.276

> <Coulomb>
45.175

> <VdW>
0.779

> <VdW6>
-7.944

> <VdW12>
8.723

> <Bond>
0.239

> <Angle>
1.155

> <Pdih>
1.883

> <Idih>
0.000

> <Tether>
0.000

$$$$
VeraChem MOL file


 26 25  0  0  0  0  0  0  0  0999 V2000     
   21.7946   21.8307   24.5064 C   0  0  0  0  0  0  0  0  0  0  0  0
   21.7910   21.3784   25.5056 H   0  0  0  0  0  0  0  0  0  0  0  0
   22.6513   22.5153   24.4589 H   0  0  0  0  0  0  0  0  0  0  0  0
   20.8809   22.4291   24.3960 H   0  0  0  0  0  0  0  0  0  0  0  0
   21.8961   20.7609   23.3952 C   0  0  0  0  0  0  0  0  0  0  0  0
   22.7993   20.1532   23.5462 H   0  0  0  0  0  0  0  0  0  0  0  0
   22.0265   21.2696   22.4297 H   0  0  0  0  0  0  0  0  0  0  0  0
   20.6538   19.8417   23.3053 C   0  0  0  0  0  0  0  0  0  0  0  0
   19.7515   20.4550   23.1754 H   0  0  0  0  0  0  0  0  0  0  0  0
   20.7563   19.2312   22.3995 H   0  0  0  0  0  0  0  0  0  0  0  0
   20.4864   18.9078   24.5298 C   0  0  0  0  0  0  0  0  0  0  0  0
   20.4863   19.5059   25.4498 H   0  0  0  0  0  0  0  0  0  0  0  0
   21.3564   18.2406   24.5996 H   0  0  0  0  0  0  0  0  0  0  0  0
   19.1871   18.0609   24.5202 C   0  0  0  0  0  0  0  0  0  0  0  0
   19.1666   17.4766   25.4505 H   0  0  0  0  0  0  0  0  0  0  0  0
   18.3079   18.7187   24.5636 H   0  0  0  0  0  0  0  0  0  0  0  0
   19.0554   17.0768   23.3305 C   0  0  0  0  0  0  0  0  0  0  0  0
   18.4483   16.2197   23.6512 H   0  0  0  0  0  0  0  0  0  0  0  0
   20.0412   16.6749   23.0613 H   0  0  0  0  0  0  0  0  0  0  0  0
   18.3774   17.7076   22.0983 C   0  0  0  0  0  0  0  0  0  0  0  0
   17.3766   18.0544   22.3694 H   0  0  0  0  0  0  0  0  0  0  0  0
   18.9517   18.5670   21.7476 H   0  0  0  0  0  0  0  0  0  0  0  0
   18.2373   16.7405   20.9406 N   0  3  0  0  0  0  0  0  0  0  0  0
   17.6763   15.9206   21.1938 H   0  0  0  0  0  0  0  0  0  0  0  0
   19.1474   16.3955   20.6184 H   0  0  0  0  0  0  0  0  0  0  0  0
   17.7799   17.1768   20.1327 H   0  0  0  0  0  0  0  0  0  0  0  0
  1  2  1  0  0  0  0
  1  3  1  0  0  0  0
  1  4  1  0  0  0  0
  1  5  1  0  0  0  0
  5  6  1  0  0  0  0
  5  7  1  0  0  0  0
  5  8  1  0  0  0  0
  8  9  1  0  0  0  0
  8 10  1  0  0  0  0
  8 11  1  0  0  0  0
 11 12  1  0  0  0  0
 11 13  1  0  0  0  0
 11 14  1  0  0  0  0
 14 15  1  0  0  0  0
 14 16  1  0  0  0  0
 14 17  1  0  0  0  0
 17 18  1  0  0  0  0
 17 19  1  0  0  0  0
 17 20  1  0  0  0  0
 20 21  1  0  0  0  0
 20 22  1  0  0  0  0
 20 23  1  0  0  0  0
 23 24  1  0  0  0  0
 23 25  1  0  0  0  0
 23 26  1  0  0  0  0
M  END
> <VConfSearch Rank>
773

> <Conf_Id>
93

> <Delta U+W>
3.253

> <U+W>
-2.300

> <U>
51.609

> <W>
-53.909

> <W(PB)>
-56.178

> <W(SA)>
2.270

> <Valence>
5.204

> <Coulomb>
45.645

> <VdW>
0.760

> <VdW6>
-7.997

> <VdW12>
8.758

> <Bond>
0.240

> <Angle>
1.456

> <Pdih>
3.507

> <Idih>
0.000

> <Tether>
0.000

$$$$
VeraChem MOL file


 26 25  0  0  0  0  0  0  0  0999 V2000     
   20.7621   18.3702   26.8376 C   0  0  0  0  0  0  0  0  0  0  0  0
   21.4176   17.5430   26.5390 H   0  0  0  0  0  0  0  0  0  0  0  0
   21.3577   19.2921   26.8564 H   0  0  0  0  0  0  0  0  0  0  0  0
   20.4246   18.1683   27.8624 H   0  0  0  0  0  0  0  0  0  0  0  0
   19.5504   18.5104   25.8880 C   0  0  0  0  0  0  0  0  0  0  0  0
   18.8643   19.2617   26.3036 H   0  0  0  0  0  0  0  0  0  0  0  0
   18.9898   17.5656   25.8593 H   0  0  0  0  0  0  0  0  0  0  0  0
   19.9364   18.9357   24.4504 C   0  0  0  0  0  0  0  0  0  0  0  0
   19.0085   19.1570   23.9083 H   0  0  0  0  0  0  0  0  0  0  0  0
   20.5145   19.8693   24.4862 H   0  0  0  0  0  0  0  0  0  0  0  0
   20.7290   17.8524   23.6775 C   0  0  0  0  0  0  0  0  0  0  0  0
   20.1077   16.9522   23.5737 H   0  0  0  0  0  0  0  0  0  0  0  0
   21.6061   17.5514   24.2640 H   0  0  0  0  0  0  0  0  0  0  0  0
   21.2297   18.2969   22.2784 C   0  0  0  0  0  0  0  0  0  0  0  0
   21.9416   19.1279   22.3792 H   0  0  0  0  0  0  0  0  0  0  0  0
   21.8054   17.4631   21.8531 H   0  0  0  0  0  0  0  0  0  0  0  0
   20.1130   18.6737   21.2723 C   0  0  0  0  0  0  0  0  0  0  0  0
   19.2347   18.0324   21.4246 H   0  0  0  0  0  0  0  0  0  0  0  0
   20.4744   18.4683   20.2558 H   0  0  0  0  0  0  0  0  0  0  0  0
   19.7123   20.1602   21.3451 C   0  0  0  0  0  0  0  0  0  0  0  0
   19.3469   20.4064   22.3438 H   0  0  0  0  0  0  0  0  0  0  0  0
   20.5856   20.7848   21.1385 H   0  0  0  0  0  0  0  0  0  0  0  0
   18.6300   20.5303   20.3517 N   0  3  0  0  0  0  0  0  0  0  0  0
   18.9227   20.3545   19.3850 H   0  0  0  0  0  0  0  0  0  0  0  0
   18.3807   21.5235   20.4119 H   0  0  0  0  0  0  0  0  0  0  0  0
   17.7689   19.9961   20.5079 H   0  0  0  0  0  0  0  0  0  0  0  0
  1  2  1  0  0  0  0
  1  3  1  0  0  0  0
  1  4  1  0  0  0  0
  1  5  1  0  0  0  0
  5  6  1  0  0  0  0
  5  7  1  0  0  0  0
  5  8  1  0  0  0  0
  8  9  1  0  0  0  0
  8 10  1  0  0  0  0
  8 11  1  0  0  0  0
 11 12  1  0  0  0  0
 11 13  1  0  0  0  0
 11 14  1  0  0  0  0
 14 15  1  0  0  0  0
 14 16  1  0  0  0  0
 14 17  1  0  0  0  0
 17 18  1  0  0  0  0
 17 19  1  0  0  0  0
 17 20  1  0  0  0  0
 20 21  1  0  0  0  0
 20 22  1  0  0  0  0
 20 23  1  0  0  0  0
 23 24  1  0  0  0  0
 23 25  1  0  0  0  0
 23 26  1  0  0  0  0
M  END
> <VConfSearch Rank>
774

> <Conf_Id>
94

> <Delta U+W>
3.247

> <U+W>
-2.305

> <U>
51.609

> <W>
-53.914

> <W(PB)>
-56.221

> <W(SA)>
2.307

> <Valence>
5.204

> <Coulomb>
45.645

> <VdW>
0.760

> <VdW6>
-7.997

> <VdW12>
8.757

> <Bond>
0.240

> <Angle>
1.456

> <Pdih>
3.508

> <Idih>
0.000

> <Tether>
0.000

$$$$
VeraChem MOL file


 26 25  0  0  0  0  0  0  0  0999 V2000     
   17.1814   16.6188   24.9640 C   0  0  0  0  0  0  0  0  0  0  0  0
   16.3022   16.7987   24.3317 H   0  0  0  0  0  0  0  0  0  0  0  0
   17.6687   15.6979   24.6181 H   0  0  0  0  0  0  0  0  0  0  0  0
   16.8297   16.4491   25.9899 H   0  0  0  0  0  0  0  0  0  0  0  0
   18.1556   17.8148   24.9128 C   0  0  0  0  0  0  0  0  0  0  0  0
   19.0069   17.6204   25.5802 H   0  0  0  0  0  0  0  0  0  0  0  0
   17.6509   18.7128   25.2960 H   0  0  0  0  0  0  0  0  0  0  0  0
   18.6663   18.0757   23.4784 C   0  0  0  0  0  0  0  0  0  0  0  0
   19.1681   17.1748   23.0989 H   0  0  0  0  0  0  0  0  0  0  0  0
   17.8116   18.2666   22.8148 H   0  0  0  0  0  0  0  0  0  0  0  0
   19.6418   19.2730   23.4230 C   0  0  0  0  0  0  0  0  0  0  0  0
   20.4891   19.0784   24.0940 H   0  0  0  0  0  0  0  0  0  0  0  0
   19.1376   20.1737   23.7994 H   0  0  0  0  0  0  0  0  0  0  0  0
   20.1533   19.5306   21.9854 C   0  0  0  0  0  0  0  0  0  0  0  0
   20.6799   18.6416   21.6134 H   0  0  0  0  0  0  0  0  0  0  0  0
   19.2928   19.6767   21.3180 H   0  0  0  0  0  0  0  0  0  0  0  0
   21.0745   20.7719   21.8793 C   0  0  0  0  0  0  0  0  0  0  0  0
   20.5098   21.6675   22.1706 H   0  0  0  0  0  0  0  0  0  0  0  0
   21.3639   20.9205   20.8305 H   0  0  0  0  0  0  0  0  0  0  0  0
   22.3471   20.6861   22.7463 C   0  0  0  0  0  0  0  0  0  0  0  0
   22.9249   21.6075   22.6347 H   0  0  0  0  0  0  0  0  0  0  0  0
   22.0715   20.5843   23.7991 H   0  0  0  0  0  0  0  0  0  0  0  0
   23.2533   19.5264   22.3833 N   0  3  0  0  0  0  0  0  0  0  0  0
   23.5701   19.5816   21.4099 H   0  0  0  0  0  0  0  0  0  0  0  0
   22.7776   18.6259   22.4970 H   0  0  0  0  0  0  0  0  0  0  0  0
   24.0934   19.5004   22.9712 H   0  0  0  0  0  0  0  0  0  0  0  0
  1  2  1  0  0  0  0
  1  3  1  0  0  0  0
  1  4  1  0  0  0  0
  1  5  1  0  0  0  0
  5  6  1  0  0  0  0
  5  7  1  0  0  0  0
  5  8  1  0  0  0  0
  8  9  1  0  0  0  0
  8 10  1  0  0  0  0
  8 11  1  0  0  0  0
 11 12  1  0  0  0  0
 11 13  1  0  0  0  0
 11 14  1  0  0  0  0
 14 15  1  0  0  0  0
 14 16  1  0  0  0  0
 14 17  1  0  0  0  0
 17 18  1  0  0  0  0
 17 19  1  0  0  0  0
 17 20  1  0  0  0  0
 20 21  1  0  0  0  0
 20 22  1  0  0  0  0
 20 23  1  0  0  0  0
 23 24  1  0  0  0  0
 23 25  1  0  0  0  0
 23 26  1  0  0  0  0
M  END
> <VConfSearch Rank>
775

> <Conf_Id>
83

> <Delta U+W>
0.559

> <U+W>
-4.994

> <U>
48.668

> <W>
-53.661

> <W(PB)>
-55.972

> <W(SA)>
2.311

> <Valence>
2.543

> <Coulomb>
45.478

> <VdW>
0.646

> <VdW6>
-7.096

> <VdW12>
7.742

> <Bond>
0.176

> <Angle>
0.630

> <Pdih>
1.738

> <Idih>
0.000

> <Tether>
0.000

$$$$
VeraChem MOL file


 26 25  0  0  0  0  0  0  0  0999 V2000     
   17.8063   21.3274   25.4627 C   0  0  0  0  0  0  0  0  0  0  0  0
   17.7602   21.1362   26.5428 H   0  0  0  0  0  0  0  0  0  0  0  0
   18.3830   22.2477   25.3026 H   0  0  0  0  0  0  0  0  0  0  0  0
   16.7826   21.5052   25.1083 H   0  0  0  0  0  0  0  0  0  0  0  0
   18.4430   20.1370   24.7146 C   0  0  0  0  0  0  0  0  0  0  0  0
   18.4335   20.3481   23.6371 H   0  0  0  0  0  0  0  0  0  0  0  0
   17.8287   19.2390   24.8694 H   0  0  0  0  0  0  0  0  0  0  0  0
   19.8893   19.8699   25.1947 C   0  0  0  0  0  0  0  0  0  0  0  0
   20.5159   20.7489   24.9898 H   0  0  0  0  0  0  0  0  0  0  0  0
   19.8847   19.7428   26.2861 H   0  0  0  0  0  0  0  0  0  0  0  0
   20.5328   18.6136   24.5579 C   0  0  0  0  0  0  0  0  0  0  0  0
   19.9131   17.7327   24.7756 H   0  0  0  0  0  0  0  0  0  0  0  0
   21.5020   18.4363   25.0443 H   0  0  0  0  0  0  0  0  0  0  0  0
   20.7500   18.7354   23.0304 C   0  0  0  0  0  0  0  0  0  0  0  0
   19.7812   18.8409   22.5267 H   0  0  0  0  0  0  0  0  0  0  0  0
   21.3258   19.6458   22.8131 H   0  0  0  0  0  0  0  0  0  0  0  0
   21.4961   17.5063   22.4592 C   0  0  0  0  0  0  0  0  0  0  0  0
   20.9157   16.5931   22.6469 H   0  0  0  0  0  0  0  0  0  0  0  0
   22.4520   17.3836   22.9856 H   0  0  0  0  0  0  0  0  0  0  0  0
   21.7842   17.6321   20.9506 C   0  0  0  0  0  0  0  0  0  0  0  0
   22.3551   18.5448   20.7597 H   0  0  0  0  0  0  0  0  0  0  0  0
   22.3857   16.7793   20.6242 H   0  0  0  0  0  0  0  0  0  0  0  0
   20.5357   17.6693   20.0911 N   0  3  0  0  0  0  0  0  0  0  0  0
   19.9408   18.4715   20.3199 H   0  0  0  0  0  0  0  0  0  0  0  0
   19.9663   16.8251   20.2102 H   0  0  0  0  0  0  0  0  0  0  0  0
   20.7628   17.7389   19.0932 H   0  0  0  0  0  0  0  0  0  0  0  0
  1  2  1  0  0  0  0
  1  3  1  0  0  0  0
  1  4  1  0  0  0  0
  1  5  1  0  0  0  0
  5  6  1  0  0  0  0
  5  7  1  0  0  0  0
  5  8  1  0  0  0  0
  8  9  1  0  0  0  0
  8 10  1  0  0  0  0
  8 11  1  0  0  0  0
 11 12  1  0  0  0  0
 11 13  1  0  0  0  0
 11 14  1  0  0  0  0
 14 15  1  0  0  0  0
 14 16  1  0  0  0  0
 14 17  1  0  0  0  0
 17 18  1  0  0  0  0
 17 19  1  0  0  0  0
 17 20  1  0  0  0  0
 20 21  1  0  0  0  0
 20 22  1  0  0  0  0
 20 23  1  0  0  0  0
 23 24  1  0  0  0  0
 23 25  1  0  0  0  0
 23 26  1  0  0  0  0
M  END
> <VConfSearch Rank>
776

> <Conf_Id>
18

> <Delta U+W>
0.759

> <U+W>
-4.793

> <U>
48.945

> <W>
-53.738

> <W(PB)>
-56.051

> <W(SA)>
2.313

> <Valence>
2.802

> <Coulomb>
45.335

> <VdW>
0.807

> <VdW6>
-6.962

> <VdW12>
7.769

> <Bond>
0.189

> <Angle>
0.696

> <Pdih>
1.917

> <Idih>
0.000

> <Tether>
0.000

$$$$
VeraChem MOL file


 26 25  0  0  0  0  0  0  0  0999 V2000     
   22.6868   20.0680   20.7116 C   0  0  0  0  0  0  0  0  0  0  0  0
   22.7516   19.1275   20.1491 H   0  0  0  0  0  0  0  0  0  0  0  0
   22.4252   20.8697   20.0087 H   0  0  0  0  0  0  0  0  0  0  0  0
   23.6831   20.2877   21.1169 H   0  0  0  0  0  0  0  0  0  0  0  0
   21.6471   19.9641   21.8476 C   0  0  0  0  0  0  0  0  0  0  0  0
   21.6262   20.9082   22.4095 H   0  0  0  0  0  0  0  0  0  0  0  0
   21.9647   19.1819   22.5497 H   0  0  0  0  0  0  0  0  0  0  0  0
   20.2346   19.6502   21.3003 C   0  0  0  0  0  0  0  0  0  0  0  0
   19.9721   20.3994   20.5406 H   0  0  0  0  0  0  0  0  0  0  0  0
   20.2440   18.6797   20.7851 H   0  0  0  0  0  0  0  0  0  0  0  0
   19.1329   19.6497   22.3886 C   0  0  0  0  0  0  0  0  0  0  0  0
   18.1576   19.5397   21.8946 H   0  0  0  0  0  0  0  0  0  0  0  0
   19.1144   20.6254   22.8935 H   0  0  0  0  0  0  0  0  0  0  0  0
   19.2975   18.5222   23.4362 C   0  0  0  0  0  0  0  0  0  0  0  0
   19.3681   17.5528   22.9237 H   0  0  0  0  0  0  0  0  0  0  0  0
   20.2361   18.6632   23.9863 H   0  0  0  0  0  0  0  0  0  0  0  0
   18.1155   18.4919   24.4340 C   0  0  0  0  0  0  0  0  0  0  0  0
   17.1739   18.3818   23.8798 H   0  0  0  0  0  0  0  0  0  0  0  0
   18.0525   19.4472   24.9719 H   0  0  0  0  0  0  0  0  0  0  0  0
   18.2211   17.3363   25.4479 C   0  0  0  0  0  0  0  0  0  0  0  0
   17.3201   17.3140   26.0670 H   0  0  0  0  0  0  0  0  0  0  0  0
   18.2922   16.3843   24.9150 H   0  0  0  0  0  0  0  0  0  0  0  0
   19.4141   17.4458   26.3772 N   0  3  0  0  0  0  0  0  0  0  0  0
   19.3926   18.3128   26.9238 H   0  0  0  0  0  0  0  0  0  0  0  0
   20.2995   17.4340   25.8616 H   0  0  0  0  0  0  0  0  0  0  0  0
   19.4467   16.6700   27.0475 H   0  0  0  0  0  0  0  0  0  0  0  0
  1  2  1  0  0  0  0
  1  3  1  0  0  0  0
  1  4  1  0  0  0  0
  1  5  1  0  0  0  0
  5  6  1  0  0  0  0
  5  7  1  0  0  0  0
  5  8  1  0  0  0  0
  8  9  1  0  0  0  0
  8 10  1  0  0  0  0
  8 11  1  0  0  0  0
 11 12  1  0  0  0  0
 11 13  1  0  0  0  0
 11 14  1  0  0  0  0
 14 15  1  0  0  0  0
 14 16  1  0  0  0  0
 14 17  1  0  0  0  0
 17 18  1  0  0  0  0
 17 19  1  0  0  0  0
 17 20  1  0  0  0  0
 20 21  1  0  0  0  0
 20 22  1  0  0  0  0
 20 23  1  0  0  0  0
 23 24  1  0  0  0  0
 23 25  1  0  0  0  0
 23 26  1  0  0  0  0
M  END
> <VConfSearch Rank>
777

> <Conf_Id>
17

> <Delta U+W>
0.843

> <U+W>
-4.709

> <U>
48.945

> <W>
-53.653

> <W(PB)>
-55.991

> <W(SA)>
2.338

> <Valence>
2.802

> <Coulomb>
45.335

> <VdW>
0.807

> <VdW6>
-6.962

> <VdW12>
7.769

> <Bond>
0.189

> <Angle>
0.696

> <Pdih>
1.917

> <Idih>
0.000

> <Tether>
0.000

$$$$
VeraChem MOL file


 26 25  0  0  0  0  0  0  0  0999 V2000     
   22.2874   17.0608   21.5577 C   0  0  0  0  0  0  0  0  0  0  0  0
   21.8579   16.7017   22.5012 H   0  0  0  0  0  0  0  0  0  0  0  0
   21.5914   16.8130   20.7459 H   0  0  0  0  0  0  0  0  0  0  0  0
   23.2166   16.5025   21.3852 H   0  0  0  0  0  0  0  0  0  0  0  0
   22.5700   18.5796   21.6036 C   0  0  0  0  0  0  0  0  0  0  0  0
   23.1102   18.8667   20.6906 H   0  0  0  0  0  0  0  0  0  0  0  0
   23.2429   18.8052   22.4426 H   0  0  0  0  0  0  0  0  0  0  0  0
   21.2889   19.4414   21.7137 C   0  0  0  0  0  0  0  0  0  0  0  0
   21.5725   20.4993   21.6266 H   0  0  0  0  0  0  0  0  0  0  0  0
   20.6286   19.2273   20.8620 H   0  0  0  0  0  0  0  0  0  0  0  0
   20.5165   19.2321   23.0384 C   0  0  0  0  0  0  0  0  0  0  0  0
   21.1938   19.3993   23.8872 H   0  0  0  0  0  0  0  0  0  0  0  0
   20.1733   18.1920   23.1028 H   0  0  0  0  0  0  0  0  0  0  0  0
   19.3031   20.1863   23.1499 C   0  0  0  0  0  0  0  0  0  0  0  0
   19.6479   21.2240   23.0420 H   0  0  0  0  0  0  0  0  0  0  0  0
   18.6088   20.0016   22.3184 H   0  0  0  0  0  0  0  0  0  0  0  0
   18.5469   20.0530   24.4927 C   0  0  0  0  0  0  0  0  0  0  0  0
   17.7603   20.8181   24.5359 H   0  0  0  0  0  0  0  0  0  0  0  0
   19.2330   20.2602   25.3248 H   0  0  0  0  0  0  0  0  0  0  0  0
   17.9084   18.6641   24.6814 C   0  0  0  0  0  0  0  0  0  0  0  0
   17.2248   18.4579   23.8534 H   0  0  0  0  0  0  0  0  0  0  0  0
   18.6862   17.8962   24.6855 H   0  0  0  0  0  0  0  0  0  0  0  0
   17.1278   18.5413   25.9741 N   0  3  0  0  0  0  0  0  0  0  0  0
   16.7109   17.6100   26.0805 H   0  0  0  0  0  0  0  0  0  0  0  0
   16.3600   19.2190   26.0226 H   0  0  0  0  0  0  0  0  0  0  0  0
   17.7213   18.6982   26.7952 H   0  0  0  0  0  0  0  0  0  0  0  0
  1  2  1  0  0  0  0
  1  3  1  0  0  0  0
  1  4  1  0  0  0  0
  1  5  1  0  0  0  0
  5  6  1  0  0  0  0
  5  7  1  0  0  0  0
  5  8  1  0  0  0  0
  8  9  1  0  0  0  0
  8 10  1  0  0  0  0
  8 11  1  0  0  0  0
 11 12  1  0  0  0  0
 11 13  1  0  0  0  0
 11 14  1  0  0  0  0
 14 15  1  0  0  0  0
 14 16  1  0  0  0  0
 14 17  1  0  0  0  0
 17 18  1  0  0  0  0
 17 19  1  0  0  0  0
 17 20  1  0  0  0  0
 20 21  1  0  0  0  0
 20 22  1  0  0  0  0
 20 23  1  0  0  0  0
 23 24  1  0  0  0  0
 23 25  1  0  0  0  0
 23 26  1  0  0  0  0
M  END
> <VConfSearch Rank>
778

> <Conf_Id>
96

> <Delta U+W>
0.912

> <U+W>
-4.640

> <U>
48.723

> <W>
-53.364

> <W(PB)>
-55.683

> <W(SA)>
2.320

> <Valence>
2.962

> <Coulomb>
44.993

> <VdW>
0.768

> <VdW6>
-7.008

> <VdW12>
7.776

> <Bond>
0.188

> <Angle>
0.757

> <Pdih>
2.018

> <Idih>
0.000

> <Tether>
0.000

$$$$
VeraChem MOL file


 26 25  0  0  0  0  0  0  0  0999 V2000     
   21.5826   17.2668   25.9182 C   0  0  0  0  0  0  0  0  0  0  0  0
   21.7129   16.4846   26.6773 H   0  0  0  0  0  0  0  0  0  0  0  0
   22.2303   18.1101   26.1907 H   0  0  0  0  0  0  0  0  0  0  0  0
   20.5397   17.6033   25.9680 H   0  0  0  0  0  0  0  0  0  0  0  0
   21.9380   16.7234   24.5156 C   0  0  0  0  0  0  0  0  0  0  0  0
   21.2563   15.9021   24.2537 H   0  0  0  0  0  0  0  0  0  0  0  0
   22.9460   16.2867   24.5504 H   0  0  0  0  0  0  0  0  0  0  0  0
   21.9039   17.8052   23.4092 C   0  0  0  0  0  0  0  0  0  0  0  0
   22.6019   18.6142   23.6655 H   0  0  0  0  0  0  0  0  0  0  0  0
   22.2758   17.3604   22.4759 H   0  0  0  0  0  0  0  0  0  0  0  0
   20.4930   18.3917   23.1631 C   0  0  0  0  0  0  0  0  0  0  0  0
   20.1410   18.8949   24.0723 H   0  0  0  0  0  0  0  0  0  0  0  0
   19.7883   17.5747   22.9555 H   0  0  0  0  0  0  0  0  0  0  0  0
   20.4872   19.3916   21.9819 C   0  0  0  0  0  0  0  0  0  0  0  0
   21.1692   20.2256   22.1989 H   0  0  0  0  0  0  0  0  0  0  0  0
   20.8808   18.8940   21.0848 H   0  0  0  0  0  0  0  0  0  0  0  0
   19.0791   19.9465   21.6625 C   0  0  0  0  0  0  0  0  0  0  0  0
   18.4012   19.1167   21.4222 H   0  0  0  0  0  0  0  0  0  0  0  0
   19.1390   20.5740   20.7633 H   0  0  0  0  0  0  0  0  0  0  0  0
   18.4906   20.7782   22.8177 C   0  0  0  0  0  0  0  0  0  0  0  0
   18.3834   20.1525   23.7075 H   0  0  0  0  0  0  0  0  0  0  0  0
   19.1651   21.6048   23.0567 H   0  0  0  0  0  0  0  0  0  0  0  0
   17.1307   21.3626   22.4944 N   0  3  0  0  0  0  0  0  0  0  0  0
   16.4411   20.6332   22.2857 H   0  0  0  0  0  0  0  0  0  0  0  0
   17.1663   21.9859   21.6811 H   0  0  0  0  0  0  0  0  0  0  0  0
   16.7567   21.9124   23.2756 H   0  0  0  0  0  0  0  0  0  0  0  0
  1  2  1  0  0  0  0
  1  3  1  0  0  0  0
  1  4  1  0  0  0  0
  1  5  1  0  0  0  0
  5  6  1  0  0  0  0
  5  7  1  0  0  0  0
  5  8  1  0  0  0  0
  8  9  1  0  0  0  0
  8 10  1  0  0  0  0
  8 11  1  0  0  0  0
 11 12  1  0  0  0  0
 11 13  1  0  0  0  0
 11 14  1  0  0  0  0
 14 15  1  0  0  0  0
 14 16  1  0  0  0  0
 14 17  1  0  0  0  0
 17 18  1  0  0  0  0
 17 19  1  0  0  0  0
 17 20  1  0  0  0  0
 20 21  1  0  0  0  0
 20 22  1  0  0  0  0
 20 23  1  0  0  0  0
 23 24  1  0  0  0  0
 23 25  1  0  0  0  0
 23 26  1  0  0  0  0
M  END
> <VConfSearch Rank>
779

> <Conf_Id>
133

> <Delta U+W>
0.844

> <U+W>
-4.708

> <U>
48.723

> <W>
-53.431

> <W(PB)>
-55.776

> <W(SA)>
2.344

> <Valence>
2.962

> <Coulomb>
44.993

> <VdW>
0.768

> <VdW6>
-7.008

> <VdW12>
7.776

> <Bond>
0.188

> <Angle>
0.756

> <Pdih>
2.018

> <Idih>
0.000

> <Tether>
0.000

$$$$
VeraChem MOL file


 26 25  0  0  0  0  0  0  0  0999 V2000     
   21.3228   15.8434   23.4779 C   0  0  0  0  0  0  0  0  0  0  0  0
   21.3361   15.2451   22.5577 H   0  0  0  0  0  0  0  0  0  0  0  0
   21.8203   16.7998   23.2740 H   0  0  0  0  0  0  0  0  0  0  0  0
   21.9201   15.3143   24.2317 H   0  0  0  0  0  0  0  0  0  0  0  0
   19.8774   16.0537   23.9826 C   0  0  0  0  0  0  0  0  0  0  0  0
   19.8879   16.6706   24.8911 H   0  0  0  0  0  0  0  0  0  0  0  0
   19.4636   15.0816   24.2851 H   0  0  0  0  0  0  0  0  0  0  0  0
   18.9383   16.6799   22.9202 C   0  0  0  0  0  0  0  0  0  0  0  0
   18.8476   15.9853   22.0737 H   0  0  0  0  0  0  0  0  0  0  0  0
   17.9295   16.7665   23.3469 H   0  0  0  0  0  0  0  0  0  0  0  0
   19.3779   18.0656   22.3807 C   0  0  0  0  0  0  0  0  0  0  0  0
   18.6468   18.3901   21.6275 H   0  0  0  0  0  0  0  0  0  0  0  0
   20.3357   17.9746   21.8515 H   0  0  0  0  0  0  0  0  0  0  0  0
   19.4863   19.1511   23.4783 C   0  0  0  0  0  0  0  0  0  0  0  0
   18.5403   19.2072   24.0346 H   0  0  0  0  0  0  0  0  0  0  0  0
   20.2663   18.8761   24.2006 H   0  0  0  0  0  0  0  0  0  0  0  0
   19.8172   20.5375   22.8833 C   0  0  0  0  0  0  0  0  0  0  0  0
   19.0376   20.8288   22.1669 H   0  0  0  0  0  0  0  0  0  0  0  0
   20.7629   20.4849   22.3274 H   0  0  0  0  0  0  0  0  0  0  0  0
   19.9283   21.6095   23.9818 C   0  0  0  0  0  0  0  0  0  0  0  0
   18.9833   21.6765   24.5276 H   0  0  0  0  0  0  0  0  0  0  0  0
   20.7150   21.3321   24.6886 H   0  0  0  0  0  0  0  0  0  0  0  0
   20.2526   22.9857   23.4375 N   0  3  0  0  0  0  0  0  0  0  0  0
   20.3219   23.6845   24.1853 H   0  0  0  0  0  0  0  0  0  0  0  0
   19.5347   23.3174   22.7849 H   0  0  0  0  0  0  0  0  0  0  0  0
   21.1460   22.9971   22.9347 H   0  0  0  0  0  0  0  0  0  0  0  0
  1  2  1  0  0  0  0
  1  3  1  0  0  0  0
  1  4  1  0  0  0  0
  1  5  1  0  0  0  0
  5  6  1  0  0  0  0
  5  7  1  0  0  0  0
  5  8  1  0  0  0  0
  8  9  1  0  0  0  0
  8 10  1  0  0  0  0
  8 11  1  0  0  0  0
 11 12  1  0  0  0  0
 11 13  1  0  0  0  0
 11 14  1  0  0  0  0
 14 15  1  0  0  0  0
 14 16  1  0  0  0  0
 14 17  1  0  0  0  0
 17 18  1  0  0  0  0
 17 19  1  0  0  0  0
 17 20  1  0  0  0  0
 20 21  1  0  0  0  0
 20 22  1  0  0  0  0
 20 23  1  0  0  0  0
 23 24  1  0  0  0  0
 23 25  1  0  0  0  0
 23 26  1  0  0  0  0
M  END
> <VConfSearch Rank>
780

> <Conf_Id>
106

> <Delta U+W>
0.767

> <U+W>
-4.785

> <U>
48.494

> <W>
-53.279

> <W(PB)>
-55.569

> <W(SA)>
2.290

> <Valence>
3.117

> <Coulomb>
44.693

> <VdW>
0.684

> <VdW6>
-7.347

> <VdW12>
8.030

> <Bond>
0.208

> <Angle>
1.039

> <Pdih>
1.870

> <Idih>
0.000

> <Tether>
0.000

$$$$
VeraChem MOL file


 26 25  0  0  0  0  0  0  0  0999 V2000     
   21.3319   22.5650   21.0101 C   0  0  0  0  0  0  0  0  0  0  0  0
   21.5191   23.1796   21.9003 H   0  0  0  0  0  0  0  0  0  0  0  0
   22.2883   22.1363   20.6833 H   0  0  0  0  0  0  0  0  0  0  0  0
   20.9698   23.2275   20.2133 H   0  0  0  0  0  0  0  0  0  0  0  0
   20.3001   21.4565   21.3082 C   0  0  0  0  0  0  0  0  0  0  0  0
   20.1085   20.8809   20.3917 H   0  0  0  0  0  0  0  0  0  0  0  0
   19.3452   21.9161   21.5993 H   0  0  0  0  0  0  0  0  0  0  0  0
   20.7856   20.5090   22.4274 C   0  0  0  0  0  0  0  0  0  0  0  0
   21.7415   20.0539   22.1329 H   0  0  0  0  0  0  0  0  0  0  0  0
   20.9779   21.0892   23.3406 H   0  0  0  0  0  0  0  0  0  0  0  0
   19.7551   19.3974   22.7287 C   0  0  0  0  0  0  0  0  0  0  0  0
   19.5632   18.8179   21.8150 H   0  0  0  0  0  0  0  0  0  0  0  0
   18.7994   19.8533   23.0226 H   0  0  0  0  0  0  0  0  0  0  0  0
   20.2412   18.4498   23.8486 C   0  0  0  0  0  0  0  0  0  0  0  0
   21.1970   17.9936   23.5551 H   0  0  0  0  0  0  0  0  0  0  0  0
   20.4331   19.0290   24.7627 H   0  0  0  0  0  0  0  0  0  0  0  0
   19.2117   17.3385   24.1502 C   0  0  0  0  0  0  0  0  0  0  0  0
   19.0212   16.7538   23.2403 H   0  0  0  0  0  0  0  0  0  0  0  0
   18.2564   17.7904   24.4491 H   0  0  0  0  0  0  0  0  0  0  0  0
   19.7056   16.4014   25.2664 C   0  0  0  0  0  0  0  0  0  0  0  0
   20.6486   15.9363   24.9663 H   0  0  0  0  0  0  0  0  0  0  0  0
   19.8811   16.9767   26.1795 H   0  0  0  0  0  0  0  0  0  0  0  0
   18.7219   15.2961   25.5920 N   0  3  0  0  0  0  0  0  0  0  0  0
   19.0701   14.6836   26.3376 H   0  0  0  0  0  0  0  0  0  0  0  0
   18.5342   14.6997   24.7794 H   0  0  0  0  0  0  0  0  0  0  0  0
   17.8201   15.6678   25.9082 H   0  0  0  0  0  0  0  0  0  0  0  0
  1  2  1  0  0  0  0
  1  3  1  0  0  0  0
  1  4  1  0  0  0  0
  1  5  1  0  0  0  0
  5  6  1  0  0  0  0
  5  7  1  0  0  0  0
  5  8  1  0  0  0  0
  8  9  1  0  0  0  0
  8 10  1  0  0  0  0
  8 11  1  0  0  0  0
 11 12  1  0  0  0  0
 11 13  1  0  0  0  0
 11 14  1  0  0  0  0
 14 15  1  0  0  0  0
 14 16  1  0  0  0  0
 14 17  1  0  0  0  0
 17 18  1  0  0  0  0
 17 19  1  0  0  0  0
 17 20  1  0  0  0  0
 20 21  1  0  0  0  0
 20 22  1  0  0  0  0
 20 23  1  0  0  0  0
 23 24  1  0  0  0  0
 23 25  1  0  0  0  0
 23 26  1  0  0  0  0
M  END
> <VConfSearch Rank>
781

> <Conf_Id>
25

> <Delta U+W>
0.000

> <U+W>
-5.552

> <U>
47.192

> <W>
-52.745

> <W(PB)>
-55.134

> <W(SA)>
2.389

> <Valence>
2.156

> <Coulomb>
44.449

> <VdW>
0.587

> <VdW6>
-5.761

> <VdW12>
6.348

> <Bond>
0.129

> <Angle>
0.393

> <Pdih>
1.634

> <Idih>
0.000

> <Tether>
0.000

$$$$
VeraChem MOL file


 26 25  0  0  0  0  0  0  0  0999 V2000     
   19.8058   16.6247   26.8880 C   0  0  0  0  0  0  0  0  0  0  0  0
   18.7142   16.6925   26.9833 H   0  0  0  0  0  0  0  0  0  0  0  0
   20.0448   15.7038   26.3403 H   0  0  0  0  0  0  0  0  0  0  0  0
   20.2273   16.5354   27.8976 H   0  0  0  0  0  0  0  0  0  0  0  0
   20.3776   17.8635   26.1664 C   0  0  0  0  0  0  0  0  0  0  0  0
   21.4726   17.7832   26.1164 H   0  0  0  0  0  0  0  0  0  0  0  0
   20.1524   18.7642   26.7545 H   0  0  0  0  0  0  0  0  0  0  0  0
   19.8000   18.0130   24.7415 C   0  0  0  0  0  0  0  0  0  0  0  0
   20.0256   17.1093   24.1584 H   0  0  0  0  0  0  0  0  0  0  0  0
   18.7053   18.0907   24.7964 H   0  0  0  0  0  0  0  0  0  0  0  0
   20.3704   19.2525   24.0157 C   0  0  0  0  0  0  0  0  0  0  0  0
   21.4651   19.1740   23.9610 H   0  0  0  0  0  0  0  0  0  0  0  0
   20.1452   20.1552   24.6003 H   0  0  0  0  0  0  0  0  0  0  0  0
   19.7919   19.4020   22.5904 C   0  0  0  0  0  0  0  0  0  0  0  0
   20.0156   18.4954   22.0125 H   0  0  0  0  0  0  0  0  0  0  0  0
   18.6974   19.4835   22.6455 H   0  0  0  0  0  0  0  0  0  0  0  0
   20.3648   20.6428   21.8654 C   0  0  0  0  0  0  0  0  0  0  0  0
   21.4560   20.5569   21.7771 H   0  0  0  0  0  0  0  0  0  0  0  0
   20.1688   21.5392   22.4687 H   0  0  0  0  0  0  0  0  0  0  0  0
   19.7506   20.8521   20.4678 C   0  0  0  0  0  0  0  0  0  0  0  0
   18.6634   20.9319   20.5516 H   0  0  0  0  0  0  0  0  0  0  0  0
   20.1290   21.7852   20.0414 H   0  0  0  0  0  0  0  0  0  0  0  0
   20.0666   19.7382   19.4890 N   0  3  0  0  0  0  0  0  0  0  0  0
   19.7051   18.8353   19.8116 H   0  0  0  0  0  0  0  0  0  0  0  0
   21.0764   19.6285   19.3500 H   0  0  0  0  0  0  0  0  0  0  0  0
   19.6547   19.9141   18.5661 H   0  0  0  0  0  0  0  0  0  0  0  0
  1  2  1  0  0  0  0
  1  3  1  0  0  0  0
  1  4  1  0  0  0  0
  1  5  1  0  0  0  0
  5  6  1  0  0  0  0
  5  7  1  0  0  0  0
  5  8  1  0  0  0  0
  8  9  1  0  0  0  0
  8 10  1  0  0  0  0
  8 11  1  0  0  0  0
 11 12  1  0  0  0  0
 11 13  1  0  0  0  0
 11 14  1  0  0  0  0
 14 15  1  0  0  0  0
 14 16  1  0  0  0  0
 14 17  1  0  0  0  0
 17 18  1  0  0  0  0
 17 19  1  0  0  0  0
 17 20  1  0  0  0  0
 20 21  1  0  0  0  0
 20 22  1  0  0  0  0
 20 23  1  0  0  0  0
 23 24  1  0  0  0  0
 23 25  1  0  0  0  0
 23 26  1  0  0  0  0
M  END
> <VConfSearch Rank>
782

> <Conf_Id>
20

> <Delta U+W>
0.150

> <U+W>
-5.403

> <U>
47.845

> <W>
-53.248

> <W(PB)>
-55.599

> <W(SA)>
2.351

> <Valence>
2.258

> <Coulomb>
44.893

> <VdW>
0.694

> <VdW6>
-6.285

> <VdW12>
6.979

> <Bond>
0.149

> <Angle>
0.434

> <Pdih>
1.675

> <Idih>
0.000

> <Tether>
0.000

$$$$
VeraChem MOL file


 26 25  0  0  0  0  0  0  0  0999 V2000     
   18.4532   22.1355   25.7524 C   0  0  0  0  0  0  0  0  0  0  0  0
   19.4521   22.3228   26.1674 H   0  0  0  0  0  0  0  0  0  0  0  0
   18.2904   22.8364   24.9233 H   0  0  0  0  0  0  0  0  0  0  0  0
   17.7160   22.3609   26.5339 H   0  0  0  0  0  0  0  0  0  0  0  0
   18.3147   20.6733   25.2782 C   0  0  0  0  0  0  0  0  0  0  0  0
   17.2960   20.5075   24.9004 H   0  0  0  0  0  0  0  0  0  0  0  0
   18.4488   19.9979   26.1348 H   0  0  0  0  0  0  0  0  0  0  0  0
   19.3418   20.3293   24.1768 C   0  0  0  0  0  0  0  0  0  0  0  0
   19.2052   21.0083   23.3238 H   0  0  0  0  0  0  0  0  0  0  0  0
   20.3582   20.4988   24.5584 H   0  0  0  0  0  0  0  0  0  0  0  0
   19.2062   18.8657   23.6993 C   0  0  0  0  0  0  0  0  0  0  0  0
   18.1891   18.6971   23.3192 H   0  0  0  0  0  0  0  0  0  0  0  0
   19.3432   18.1873   24.5528 H   0  0  0  0  0  0  0  0  0  0  0  0
   20.2334   18.5221   22.5970 C   0  0  0  0  0  0  0  0  0  0  0  0
   20.0944   19.1987   21.7423 H   0  0  0  0  0  0  0  0  0  0  0  0
   21.2475   18.6972   22.9806 H   0  0  0  0  0  0  0  0  0  0  0  0
   20.0966   17.0565   22.1211 C   0  0  0  0  0  0  0  0  0  0  0  0
   19.0695   16.8811   21.7743 H   0  0  0  0  0  0  0  0  0  0  0  0
   20.2649   16.3703   22.9618 H   0  0  0  0  0  0  0  0  0  0  0  0
   21.0643   16.7104   20.9730 C   0  0  0  0  0  0  0  0  0  0  0  0
   20.8642   15.6937   20.6241 H   0  0  0  0  0  0  0  0  0  0  0  0
   20.9033   17.3958   20.1365 H   0  0  0  0  0  0  0  0  0  0  0  0
   22.5272   16.7820   21.3652 N   0  3  0  0  0  0  0  0  0  0  0  0
   22.7470   16.1411   22.1346 H   0  0  0  0  0  0  0  0  0  0  0  0
   22.7931   17.7236   21.6694 H   0  0  0  0  0  0  0  0  0  0  0  0
   23.1434   16.5339   20.5835 H   0  0  0  0  0  0  0  0  0  0  0  0
  1  2  1  0  0  0  0
  1  3  1  0  0  0  0
  1  4  1  0  0  0  0
  1  5  1  0  0  0  0
  5  6  1  0  0  0  0
  5  7  1  0  0  0  0
  5  8  1  0  0  0  0
  8  9  1  0  0  0  0
  8 10  1  0  0  0  0
  8 11  1  0  0  0  0
 11 12  1  0  0  0  0
 11 13  1  0  0  0  0
 11 14  1  0  0  0  0
 14 15  1  0  0  0  0
 14 16  1  0  0  0  0
 14 17  1  0  0  0  0
 17 18  1  0  0  0  0
 17 19  1  0  0  0  0
 17 20  1  0  0  0  0
 20 21  1  0  0  0  0
 20 22  1  0  0  0  0
 20 23  1  0  0  0  0
 23 24  1  0  0  0  0
 23 25  1  0  0  0  0
 23 26  1  0  0  0  0
M  END
> <VConfSearch Rank>
783

> <Conf_Id>
19

> <Delta U+W>
0.162

> <U+W>
-5.391

> <U>
47.845

> <W>
-53.235

> <W(PB)>
-55.585

> <W(SA)>
2.349

> <Valence>
2.258

> <Coulomb>
44.893

> <VdW>
0.694

> <VdW6>
-6.285

> <VdW12>
6.979

> <Bond>
0.149

> <Angle>
0.434

> <Pdih>
1.675

> <Idih>
0.000

> <Tether>
0.000

$$$$
VeraChem MOL file


 26 25  0  0  0  0  0  0  0  0999 V2000     
   21.8527   21.2622   20.3073 C   0  0  0  0  0  0  0  0  0  0  0  0
   21.2100   21.5200   19.4554 H   0  0  0  0  0  0  0  0  0  0  0  0
   21.9915   22.1650   20.9164 H   0  0  0  0  0  0  0  0  0  0  0  0
   22.8337   20.9681   19.9122 H   0  0  0  0  0  0  0  0  0  0  0  0
   21.2365   20.1196   21.1422 C   0  0  0  0  0  0  0  0  0  0  0  0
   21.9255   19.8635   21.9579 H   0  0  0  0  0  0  0  0  0  0  0  0
   21.1373   19.2228   20.5148 H   0  0  0  0  0  0  0  0  0  0  0  0
   19.8538   20.5130   21.7139 C   0  0  0  0  0  0  0  0  0  0  0  0
   19.9620   21.3777   22.3831 H   0  0  0  0  0  0  0  0  0  0  0  0
   19.2071   20.8414   20.8885 H   0  0  0  0  0  0  0  0  0  0  0  0
   19.1425   19.3608   22.4651 C   0  0  0  0  0  0  0  0  0  0  0  0
   19.0210   18.5020   21.7905 H   0  0  0  0  0  0  0  0  0  0  0  0
   18.1283   19.6919   22.7282 H   0  0  0  0  0  0  0  0  0  0  0  0
   19.8767   18.9147   23.7525 C   0  0  0  0  0  0  0  0  0  0  0  0
   20.8651   18.5086   23.4999 H   0  0  0  0  0  0  0  0  0  0  0  0
   20.0451   19.7861   24.4005 H   0  0  0  0  0  0  0  0  0  0  0  0
   19.0764   17.8447   24.5274 C   0  0  0  0  0  0  0  0  0  0  0  0
   18.9070   16.9714   23.8834 H   0  0  0  0  0  0  0  0  0  0  0  0
   18.0891   18.2433   24.7966 H   0  0  0  0  0  0  0  0  0  0  0  0
   19.8147   17.4038   25.8036 C   0  0  0  0  0  0  0  0  0  0  0  0
   20.7919   16.9906   25.5395 H   0  0  0  0  0  0  0  0  0  0  0  0
   19.9711   18.2676   26.4554 H   0  0  0  0  0  0  0  0  0  0  0  0
   19.0604   16.3531   26.5926 N   0  3  0  0  0  0  0  0  0  0  0  0
   18.9043   15.5015   26.0433 H   0  0  0  0  0  0  0  0  0  0  0  0
   18.1405   16.6897   26.8955 H   0  0  0  0  0  0  0  0  0  0  0  0
   19.5693   16.0736   27.4384 H   0  0  0  0  0  0  0  0  0  0  0  0
  1  2  1  0  0  0  0
  1  3  1  0  0  0  0
  1  4  1  0  0  0  0
  1  5  1  0  0  0  0
  5  6  1  0  0  0  0
  5  7  1  0  0  0  0
  5  8  1  0  0  0  0
  8  9  1  0  0  0  0
  8 10  1  0  0  0  0
  8 11  1  0  0  0  0
 11 12  1  0  0  0  0
 11 13  1  0  0  0  0
 11 14  1  0  0  0  0
 14 15  1  0  0  0  0
 14 16  1  0  0  0  0
 14 17  1  0  0  0  0
 17 18  1  0  0  0  0
 17 19  1  0  0  0  0
 17 20  1  0  0  0  0
 20 21  1  0  0  0  0
 20 22  1  0  0  0  0
 20 23  1  0  0  0  0
 23 24  1  0  0  0  0
 23 25  1  0  0  0  0
 23 26  1  0  0  0  0
M  END
> <VConfSearch Rank>
784

> <Conf_Id>
37

> <Delta U+W>
0.565

> <U+W>
-4.988

> <U>
48.035

> <W>
-53.022

> <W(PB)>
-55.379

> <W(SA)>
2.357

> <Valence>
2.701

> <Coulomb>
44.622

> <VdW>
0.712

> <VdW6>
-6.418

> <VdW12>
7.129

> <Bond>
0.168

> <Angle>
0.659

> <Pdih>
1.875

> <Idih>
0.000

> <Tether>
0.000

$$$$
VeraChem MOL file


 26 25  0  0  0  0  0  0  0  0999 V2000     
   21.7296   22.4903   22.9697 C   0  0  0  0  0  0  0  0  0  0  0  0
   21.5593   22.3047   21.9011 H   0  0  0  0  0  0  0  0  0  0  0  0
   20.8719   23.0536   23.3599 H   0  0  0  0  0  0  0  0  0  0  0  0
   22.6204   23.1250   23.0636 H   0  0  0  0  0  0  0  0  0  0  0  0
   21.9204   21.1662   23.7394 C   0  0  0  0  0  0  0  0  0  0  0  0
   22.1233   21.3859   24.7970 H   0  0  0  0  0  0  0  0  0  0  0  0
   22.8039   20.6417   23.3494 H   0  0  0  0  0  0  0  0  0  0  0  0
   20.6794   20.2535   23.6243 C   0  0  0  0  0  0  0  0  0  0  0  0
   19.7995   20.7813   24.0172 H   0  0  0  0  0  0  0  0  0  0  0  0
   20.4827   20.0497   22.5637 H   0  0  0  0  0  0  0  0  0  0  0  0
   20.8714   18.9237   24.3925 C   0  0  0  0  0  0  0  0  0  0  0  0
   21.1436   19.1483   25.4331 H   0  0  0  0  0  0  0  0  0  0  0  0
   21.7177   18.3678   23.9658 H   0  0  0  0  0  0  0  0  0  0  0  0
   19.6107   18.0244   24.3995 C   0  0  0  0  0  0  0  0  0  0  0  0
   19.7991   17.1658   25.0591 H   0  0  0  0  0  0  0  0  0  0  0  0
   18.7685   18.5741   24.8423 H   0  0  0  0  0  0  0  0  0  0  0  0
   19.2140   17.5029   22.9983 C   0  0  0  0  0  0  0  0  0  0  0  0
   20.0720   16.9975   22.5352 H   0  0  0  0  0  0  0  0  0  0  0  0
   18.9407   18.3417   22.3459 H   0  0  0  0  0  0  0  0  0  0  0  0
   18.0283   16.5255   23.0799 C   0  0  0  0  0  0  0  0  0  0  0  0
   18.2952   15.6749   23.7130 H   0  0  0  0  0  0  0  0  0  0  0  0
   17.1662   17.0290   23.5257 H   0  0  0  0  0  0  0  0  0  0  0  0
   17.6079   15.9876   21.7274 N   0  3  0  0  0  0  0  0  0  0  0  0
   18.3682   15.4778   21.2656 H   0  0  0  0  0  0  0  0  0  0  0  0
   17.3170   16.7373   21.0913 H   0  0  0  0  0  0  0  0  0  0  0  0
   16.8173   15.3384   21.8047 H   0  0  0  0  0  0  0  0  0  0  0  0
  1  2  1  0  0  0  0
  1  3  1  0  0  0  0
  1  4  1  0  0  0  0
  1  5  1  0  0  0  0
  5  6  1  0  0  0  0
  5  7  1  0  0  0  0
  5  8  1  0  0  0  0
  8  9  1  0  0  0  0
  8 10  1  0  0  0  0
  8 11  1  0  0  0  0
 11 12  1  0  0  0  0
 11 13  1  0  0  0  0
 11 14  1  0  0  0  0
 14 15  1  0  0  0  0
 14 16  1  0  0  0  0
 14 17  1  0  0  0  0
 17 18  1  0  0  0  0
 17 19  1  0  0  0  0
 17 20  1  0  0  0  0
 20 21  1  0  0  0  0
 20 22  1  0  0  0  0
 20 23  1  0  0  0  0
 23 24  1  0  0  0  0
 23 25  1  0  0  0  0
 23 26  1  0  0  0  0
M  END
> <VConfSearch Rank>
785

> <Conf_Id>
35

> <Delta U+W>
0.587

> <U+W>
-4.965

> <U>
48.214

> <W>
-53.179

> <W(PB)>
-55.527

> <W(SA)>
2.348

> <Valence>
2.697

> <Coulomb>
44.819

> <VdW>
0.699

> <VdW6>
-6.437

> <VdW12>
7.136

> <Bond>
0.168

> <Angle>
0.657

> <Pdih>
1.872

> <Idih>
0.000

> <Tether>
0.000

$$$$
VeraChem MOL file


 26 25  0  0  0  0  0  0  0  0999 V2000     
   23.8179   20.4778   23.0994 C   0  0  0  0  0  0  0  0  0  0  0  0
   23.5797   21.2146   22.3212 H   0  0  0  0  0  0  0  0  0  0  0  0
   23.5306   20.9013   24.0707 H   0  0  0  0  0  0  0  0  0  0  0  0
   24.9059   20.3323   23.1040 H   0  0  0  0  0  0  0  0  0  0  0  0
   23.0905   19.1416   22.8396 C   0  0  0  0  0  0  0  0  0  0  0  0
   23.3738   18.4154   23.6144 H   0  0  0  0  0  0  0  0  0  0  0  0
   23.4244   18.7262   21.8784 H   0  0  0  0  0  0  0  0  0  0  0  0
   21.5558   19.3185   22.8272 C   0  0  0  0  0  0  0  0  0  0  0  0
   21.2371   19.7422   23.7885 H   0  0  0  0  0  0  0  0  0  0  0  0
   21.2775   20.0435   22.0500 H   0  0  0  0  0  0  0  0  0  0  0  0
   20.8254   17.9783   22.5707 C   0  0  0  0  0  0  0  0  0  0  0  0
   21.0591   17.2686   23.3764 H   0  0  0  0  0  0  0  0  0  0  0  0
   21.2131   17.5316   21.6446 H   0  0  0  0  0  0  0  0  0  0  0  0
   19.2896   18.1251   22.4380 C   0  0  0  0  0  0  0  0  0  0  0  0
   19.0553   18.8215   21.6208 H   0  0  0  0  0  0  0  0  0  0  0  0
   18.8710   17.1526   22.1434 H   0  0  0  0  0  0  0  0  0  0  0  0
   18.5975   18.5958   23.7388 C   0  0  0  0  0  0  0  0  0  0  0  0
   18.9404   19.6031   24.0066 H   0  0  0  0  0  0  0  0  0  0  0  0
   18.8725   17.9285   24.5664 H   0  0  0  0  0  0  0  0  0  0  0  0
   17.0666   18.6132   23.5835 C   0  0  0  0  0  0  0  0  0  0  0  0
   16.7867   19.2891   22.7709 H   0  0  0  0  0  0  0  0  0  0  0  0
   16.7103   17.6099   23.3347 H   0  0  0  0  0  0  0  0  0  0  0  0
   16.3476   19.0668   24.8377 N   0  3  0  0  0  0  0  0  0  0  0  0
   16.6181   20.0172   25.1109 H   0  0  0  0  0  0  0  0  0  0  0  0
   16.5478   18.4547   25.6355 H   0  0  0  0  0  0  0  0  0  0  0  0
   15.3294   19.0705   24.7126 H   0  0  0  0  0  0  0  0  0  0  0  0
  1  2  1  0  0  0  0
  1  3  1  0  0  0  0
  1  4  1  0  0  0  0
  1  5  1  0  0  0  0
  5  6  1  0  0  0  0
  5  7  1  0  0  0  0
  5  8  1  0  0  0  0
  8  9  1  0  0  0  0
  8 10  1  0  0  0  0
  8 11  1  0  0  0  0
 11 12  1  0  0  0  0
 11 13  1  0  0  0  0
 11 14  1  0  0  0  0
 14 15  1  0  0  0  0
 14 16  1  0  0  0  0
 14 17  1  0  0  0  0
 17 18  1  0  0  0  0
 17 19  1  0  0  0  0
 17 20  1  0  0  0  0
 20 21  1  0  0  0  0
 20 22  1  0  0  0  0
 20 23  1  0  0  0  0
 23 24  1  0  0  0  0
 23 25  1  0  0  0  0
 23 26  1  0  0  0  0
M  END
> <VConfSearch Rank>
786

> <Conf_Id>
36

> <Delta U+W>
0.565

> <U+W>
-4.987

> <U>
48.214

> <W>
-53.201

> <W(PB)>
-55.543

> <W(SA)>
2.342

> <Valence>
2.697

> <Coulomb>
44.819

> <VdW>
0.698

> <VdW6>
-6.437

> <VdW12>
7.136

> <Bond>
0.168

> <Angle>
0.657

> <Pdih>
1.872

> <Idih>
0.000

> <Tether>
0.000

$$$$
VeraChem MOL file


 26 25  0  0  0  0  0  0  0  0999 V2000     
   15.8686   19.0806   24.4816 C   0  0  0  0  0  0  0  0  0  0  0  0
   15.7769   18.2070   25.1401 H   0  0  0  0  0  0  0  0  0  0  0  0
   15.2496   19.8846   24.9004 H   0  0  0  0  0  0  0  0  0  0  0  0
   15.4557   18.8139   23.5000 H   0  0  0  0  0  0  0  0  0  0  0  0
   17.3396   19.5322   24.3607 C   0  0  0  0  0  0  0  0  0  0  0  0
   17.7139   19.8244   25.3518 H   0  0  0  0  0  0  0  0  0  0  0  0
   17.3951   20.4267   23.7245 H   0  0  0  0  0  0  0  0  0  0  0  0
   18.2336   18.4178   23.7732 C   0  0  0  0  0  0  0  0  0  0  0  0
   18.1723   17.5252   24.4111 H   0  0  0  0  0  0  0  0  0  0  0  0
   17.8545   18.1277   22.7835 H   0  0  0  0  0  0  0  0  0  0  0  0
   19.7076   18.8660   23.6508 C   0  0  0  0  0  0  0  0  0  0  0  0
   20.0862   19.1533   24.6415 H   0  0  0  0  0  0  0  0  0  0  0  0
   19.7603   19.7616   23.0174 H   0  0  0  0  0  0  0  0  0  0  0  0
   20.6004   17.7480   23.0608 C   0  0  0  0  0  0  0  0  0  0  0  0
   20.5001   16.8432   23.6761 H   0  0  0  0  0  0  0  0  0  0  0  0
   20.2449   17.4811   22.0558 H   0  0  0  0  0  0  0  0  0  0  0  0
   22.0957   18.1377   22.9922 C   0  0  0  0  0  0  0  0  0  0  0  0
   22.6746   17.2700   22.6490 H   0  0  0  0  0  0  0  0  0  0  0  0
   22.4604   18.3807   23.9992 H   0  0  0  0  0  0  0  0  0  0  0  0
   22.3588   19.3241   22.0459 C   0  0  0  0  0  0  0  0  0  0  0  0
   21.9968   19.0820   21.0430 H   0  0  0  0  0  0  0  0  0  0  0  0
   21.8227   20.2077   22.4018 H   0  0  0  0  0  0  0  0  0  0  0  0
   23.8268   19.6831   21.9393 N   0  3  0  0  0  0  0  0  0  0  0  0
   23.9805   20.4746   21.3050 H   0  0  0  0  0  0  0  0  0  0  0  0
   24.3863   18.9017   21.5820 H   0  0  0  0  0  0  0  0  0  0  0  0
   24.2226   19.9472   22.8475 H   0  0  0  0  0  0  0  0  0  0  0  0
  1  2  1  0  0  0  0
  1  3  1  0  0  0  0
  1  4  1  0  0  0  0
  1  5  1  0  0  0  0
  5  6  1  0  0  0  0
  5  7  1  0  0  0  0
  5  8  1  0  0  0  0
  8  9  1  0  0  0  0
  8 10  1  0  0  0  0
  8 11  1  0  0  0  0
 11 12  1  0  0  0  0
 11 13  1  0  0  0  0
 11 14  1  0  0  0  0
 14 15  1  0  0  0  0
 14 16  1  0  0  0  0
 14 17  1  0  0  0  0
 17 18  1  0  0  0  0
 17 19  1  0  0  0  0
 17 20  1  0  0  0  0
 20 21  1  0  0  0  0
 20 22  1  0  0  0  0
 20 23  1  0  0  0  0
 23 24  1  0  0  0  0
 23 25  1  0  0  0  0
 23 26  1  0  0  0  0
M  END
> <VConfSearch Rank>
787

> <Conf_Id>
44

> <Delta U+W>
0.371

> <U+W>
-5.181

> <U>
48.002

> <W>
-53.183

> <W(PB)>
-55.533

> <W(SA)>
2.350

> <Valence>
2.459

> <Coulomb>
44.901

> <VdW>
0.643

> <VdW6>
-6.362

> <VdW12>
7.005

> <Bond>
0.151

> <Angle>
0.519

> <Pdih>
1.789

> <Idih>
0.000

> <Tether>
0.000

$$$$
VeraChem MOL file


 26 25  0  0  0  0  0  0  0  0999 V2000     
   22.2362   18.9165   20.1039 C   0  0  0  0  0  0  0  0  0  0  0  0
   22.0239   17.8656   19.8680 H   0  0  0  0  0  0  0  0  0  0  0  0
   22.7298   19.3629   19.2309 H   0  0  0  0  0  0  0  0  0  0  0  0
   22.9506   18.9453   20.9357 H   0  0  0  0  0  0  0  0  0  0  0  0
   20.9376   19.6840   20.4412 C   0  0  0  0  0  0  0  0  0  0  0  0
   20.3146   19.7360   19.5373 H   0  0  0  0  0  0  0  0  0  0  0  0
   21.1797   20.7224   20.7074 H   0  0  0  0  0  0  0  0  0  0  0  0
   20.1103   19.0315   21.5754 C   0  0  0  0  0  0  0  0  0  0  0  0
   19.1532   19.5638   21.6443 H   0  0  0  0  0  0  0  0  0  0  0  0
   19.8700   17.9945   21.3036 H   0  0  0  0  0  0  0  0  0  0  0  0
   20.8214   19.0605   22.9525 C   0  0  0  0  0  0  0  0  0  0  0  0
   21.0584   20.0977   23.2265 H   0  0  0  0  0  0  0  0  0  0  0  0
   21.7816   18.5342   22.8770 H   0  0  0  0  0  0  0  0  0  0  0  0
   20.0031   18.3976   24.0882 C   0  0  0  0  0  0  0  0  0  0  0  0
   19.7540   17.3648   23.8077 H   0  0  0  0  0  0  0  0  0  0  0  0
   20.6464   18.3292   24.9754 H   0  0  0  0  0  0  0  0  0  0  0  0
   18.7085   19.1672   24.4528 C   0  0  0  0  0  0  0  0  0  0  0  0
   18.0374   19.2003   23.5859 H   0  0  0  0  0  0  0  0  0  0  0  0
   18.9477   20.2086   24.7058 H   0  0  0  0  0  0  0  0  0  0  0  0
   17.9409   18.5182   25.6209 C   0  0  0  0  0  0  0  0  0  0  0  0
   16.9931   19.0433   25.7672 H   0  0  0  0  0  0  0  0  0  0  0  0
   17.7188   17.4748   25.3810 H   0  0  0  0  0  0  0  0  0  0  0  0
   18.6901   18.5496   26.9388 N   0  3  0  0  0  0  0  0  0  0  0  0
   19.5771   18.0397   26.8841 H   0  0  0  0  0  0  0  0  0  0  0  0
   18.1454   18.1236   27.6965 H   0  0  0  0  0  0  0  0  0  0  0  0
   18.9086   19.5081   27.2297 H   0  0  0  0  0  0  0  0  0  0  0  0
  1  2  1  0  0  0  0
  1  3  1  0  0  0  0
  1  4  1  0  0  0  0
  1  5  1  0  0  0  0
  5  6  1  0  0  0  0
  5  7  1  0  0  0  0
  5  8  1  0  0  0  0
  8  9  1  0  0  0  0
  8 10  1  0  0  0  0
  8 11  1  0  0  0  0
 11 12  1  0  0  0  0
 11 13  1  0  0  0  0
 11 14  1  0  0  0  0
 14 15  1  0  0  0  0
 14 16  1  0  0  0  0
 14 17  1  0  0  0  0
 17 18  1  0  0  0  0
 17 19  1  0  0  0  0
 17 20  1  0  0  0  0
 20 21  1  0  0  0  0
 20 22  1  0  0  0  0
 20 23  1  0  0  0  0
 23 24  1  0  0  0  0
 23 25  1  0  0  0  0
 23 26  1  0  0  0  0
M  END
> <VConfSearch Rank>
788

> <Conf_Id>
112

> <Delta U+W>
1.422

> <U+W>
-4.130

> <U>
49.323

> <W>
-53.453

> <W(PB)>
-55.749

> <W(SA)>
2.296

> <Valence>
3.408

> <Coulomb>
44.893

> <VdW>
1.021

> <VdW6>
-7.481

> <VdW12>
8.503

> <Bond>
0.239

> <Angle>
1.013

> <Pdih>
2.156

> <Idih>
0.000

> <Tether>
0.000

$$$$
VeraChem MOL file


 26 25  0  0  0  0  0  0  0  0999 V2000     
   17.3882   16.3818   22.4480 C   0  0  0  0  0  0  0  0  0  0  0  0
   16.4619   15.8306   22.2403 H   0  0  0  0  0  0  0  0  0  0  0  0
   17.7644   16.7668   21.4921 H   0  0  0  0  0  0  0  0  0  0  0  0
   18.1219   15.6680   22.8445 H   0  0  0  0  0  0  0  0  0  0  0  0
   17.1238   17.5240   23.4550 C   0  0  0  0  0  0  0  0  0  0  0  0
   16.6413   17.1044   24.3488 H   0  0  0  0  0  0  0  0  0  0  0  0
   16.4068   18.2372   23.0249 H   0  0  0  0  0  0  0  0  0  0  0  0
   18.4091   18.2699   23.8875 C   0  0  0  0  0  0  0  0  0  0  0  0
   18.1463   18.9919   24.6729 H   0  0  0  0  0  0  0  0  0  0  0  0
   19.1029   17.5519   24.3439 H   0  0  0  0  0  0  0  0  0  0  0  0
   19.1051   19.0184   22.7226 C   0  0  0  0  0  0  0  0  0  0  0  0
   18.3608   19.6334   22.1981 H   0  0  0  0  0  0  0  0  0  0  0  0
   19.4863   18.2983   21.9864 H   0  0  0  0  0  0  0  0  0  0  0  0
   20.2637   19.9371   23.1826 C   0  0  0  0  0  0  0  0  0  0  0  0
   20.6104   20.5112   22.3132 H   0  0  0  0  0  0  0  0  0  0  0  0
   19.8855   20.6719   23.9068 H   0  0  0  0  0  0  0  0  0  0  0  0
   21.4570   19.1641   23.7985 C   0  0  0  0  0  0  0  0  0  0  0  0
   21.8245   18.4110   23.0890 H   0  0  0  0  0  0  0  0  0  0  0  0
   21.1258   18.6198   24.6916 H   0  0  0  0  0  0  0  0  0  0  0  0
   22.6166   20.0916   24.2103 C   0  0  0  0  0  0  0  0  0  0  0  0
   22.2500   20.8544   24.9026 H   0  0  0  0  0  0  0  0  0  0  0  0
   23.3837   19.5057   24.7240 H   0  0  0  0  0  0  0  0  0  0  0  0
   23.2821   20.7950   23.0435 N   0  3  0  0  0  0  0  0  0  0  0  0
   22.6245   21.3955   22.5367 H   0  0  0  0  0  0  0  0  0  0  0  0
   23.6675   20.1283   22.3667 H   0  0  0  0  0  0  0  0  0  0  0  0
   24.0577   21.3918   23.3510 H   0  0  0  0  0  0  0  0  0  0  0  0
  1  2  1  0  0  0  0
  1  3  1  0  0  0  0
  1  4  1  0  0  0  0
  1  5  1  0  0  0  0
  5  6  1  0  0  0  0
  5  7  1  0  0  0  0
  5  8  1  0  0  0  0
  8  9  1  0  0  0  0
  8 10  1  0  0  0  0
  8 11  1  0  0  0  0
 11 12  1  0  0  0  0
 11 13  1  0  0  0  0
 11 14  1  0  0  0  0
 14 15  1  0  0  0  0
 14 16  1  0  0  0  0
 14 17  1  0  0  0  0
 17 18  1  0  0  0  0
 17 19  1  0  0  0  0
 17 20  1  0  0  0  0
 20 21  1  0  0  0  0
 20 22  1  0  0  0  0
 20 23  1  0  0  0  0
 23 24  1  0  0  0  0
 23 25  1  0  0  0  0
 23 26  1  0  0  0  0
M  END
> <VConfSearch Rank>
789

> <Conf_Id>
130

> <Delta U+W>
1.282

> <U+W>
-4.270

> <U>
49.153

> <W>
-53.422

> <W(PB)>
-55.725

> <W(SA)>
2.303

> <Valence>
3.298

> <Coulomb>
44.907

> <VdW>
0.948

> <VdW6>
-7.574

> <VdW12>
8.522

> <Bond>
0.229

> <Angle>
0.912

> <Pdih>
2.157

> <Idih>
0.000

> <Tether>
0.000

$$$$
VeraChem MOL file


 26 25  0  0  0  0  0  0  0  0999 V2000     
   22.2757   17.5542   21.0796 C   0  0  0  0  0  0  0  0  0  0  0  0
   23.2739   17.9004   21.3774 H   0  0  0  0  0  0  0  0  0  0  0  0
   22.3792   16.9998   20.1379 H   0  0  0  0  0  0  0  0  0  0  0  0
   21.6519   18.4340   20.8779 H   0  0  0  0  0  0  0  0  0  0  0  0
   21.6509   16.6559   22.1709 C   0  0  0  0  0  0  0  0  0  0  0  0
   22.2437   15.7341   22.2518 H   0  0  0  0  0  0  0  0  0  0  0  0
   20.6464   16.3392   21.8604 H   0  0  0  0  0  0  0  0  0  0  0  0
   21.5944   17.3288   23.5663 C   0  0  0  0  0  0  0  0  0  0  0  0
   21.1631   16.6181   24.2846 H   0  0  0  0  0  0  0  0  0  0  0  0
   22.6210   17.5166   23.9098 H   0  0  0  0  0  0  0  0  0  0  0  0
   20.7986   18.6582   23.6331 C   0  0  0  0  0  0  0  0  0  0  0  0
   21.2798   19.4143   22.9987 H   0  0  0  0  0  0  0  0  0  0  0  0
   20.8654   19.0398   24.6603 H   0  0  0  0  0  0  0  0  0  0  0  0
   19.3089   18.5089   23.2327 C   0  0  0  0  0  0  0  0  0  0  0  0
   19.2407   18.1560   22.1954 H   0  0  0  0  0  0  0  0  0  0  0  0
   18.8320   17.7402   23.8564 H   0  0  0  0  0  0  0  0  0  0  0  0
   18.5148   19.8316   23.3457 C   0  0  0  0  0  0  0  0  0  0  0  0
   17.5036   19.6741   22.9474 H   0  0  0  0  0  0  0  0  0  0  0  0
   18.9846   20.5990   22.7162 H   0  0  0  0  0  0  0  0  0  0  0  0
   18.4087   20.3427   24.7949 C   0  0  0  0  0  0  0  0  0  0  0  0
   17.9422   19.5778   25.4215 H   0  0  0  0  0  0  0  0  0  0  0  0
   19.4068   20.5496   25.1893 H   0  0  0  0  0  0  0  0  0  0  0  0
   17.5894   21.6112   24.9173 N   0  3  0  0  0  0  0  0  0  0  0  0
   17.9912   22.3799   24.3705 H   0  0  0  0  0  0  0  0  0  0  0  0
   17.5308   21.9347   25.8890 H   0  0  0  0  0  0  0  0  0  0  0  0
   16.6274   21.4779   24.5888 H   0  0  0  0  0  0  0  0  0  0  0  0
  1  2  1  0  0  0  0
  1  3  1  0  0  0  0
  1  4  1  0  0  0  0
  1  5  1  0  0  0  0
  5  6  1  0  0  0  0
  5  7  1  0  0  0  0
  5  8  1  0  0  0  0
  8  9  1  0  0  0  0
  8 10  1  0  0  0  0
  8 11  1  0  0  0  0
 11 12  1  0  0  0  0
 11 13  1  0  0  0  0
 11 14  1  0  0  0  0
 14 15  1  0  0  0  0
 14 16  1  0  0  0  0
 14 17  1  0  0  0  0
 17 18  1  0  0  0  0
 17 19  1  0  0  0  0
 17 20  1  0  0  0  0
 20 21  1  0  0  0  0
 20 22  1  0  0  0  0
 20 23  1  0  0  0  0
 23 24  1  0  0  0  0
 23 25  1  0  0  0  0
 23 26  1  0  0  0  0
M  END
> <VConfSearch Rank>
790

> <Conf_Id>
111

> <Delta U+W>
1.290

> <U+W>
-4.262

> <U>
49.209

> <W>
-53.471

> <W(PB)>
-55.745

> <W(SA)>
2.274

> <Valence>
3.465

> <Coulomb>
44.958

> <VdW>
0.786

> <VdW6>
-7.903

> <VdW12>
8.689

> <Bond>
0.237

> <Angle>
1.212

> <Pdih>
2.015

> <Idih>
0.000

> <Tether>
0.000

$$$$
VeraChem MOL file


 26 25  0  0  0  0  0  0  0  0999 V2000     
   21.4754   18.9283   19.5675 C   0  0  0  0  0  0  0  0  0  0  0  0
   21.7837   17.8785   19.6581 H   0  0  0  0  0  0  0  0  0  0  0  0
   20.7627   19.0049   18.7360 H   0  0  0  0  0  0  0  0  0  0  0  0
   22.3629   19.5189   19.3057 H   0  0  0  0  0  0  0  0  0  0  0  0
   20.8504   19.4380   20.8835 C   0  0  0  0  0  0  0  0  0  0  0  0
   20.5795   20.4972   20.7717 H   0  0  0  0  0  0  0  0  0  0  0  0
   21.6044   19.3841   21.6798 H   0  0  0  0  0  0  0  0  0  0  0  0
   19.5990   18.6173   21.2755 C   0  0  0  0  0  0  0  0  0  0  0  0
   18.8931   18.6192   20.4334 H   0  0  0  0  0  0  0  0  0  0  0  0
   19.8804   17.5678   21.4388 H   0  0  0  0  0  0  0  0  0  0  0  0
   18.8686   19.1601   22.5284 C   0  0  0  0  0  0  0  0  0  0  0  0
   17.9368   18.5927   22.6602 H   0  0  0  0  0  0  0  0  0  0  0  0
   18.5721   20.2041   22.3572 H   0  0  0  0  0  0  0  0  0  0  0  0
   19.7067   19.0601   23.8257 C   0  0  0  0  0  0  0  0  0  0  0  0
   20.0490   18.0249   23.9561 H   0  0  0  0  0  0  0  0  0  0  0  0
   20.6042   19.6868   23.7414 H   0  0  0  0  0  0  0  0  0  0  0  0
   18.8960   19.5059   25.0656 C   0  0  0  0  0  0  0  0  0  0  0  0
   18.0125   18.8653   25.1888 H   0  0  0  0  0  0  0  0  0  0  0  0
   18.5233   20.5269   24.9081 H   0  0  0  0  0  0  0  0  0  0  0  0
   19.7300   19.4857   26.3611 C   0  0  0  0  0  0  0  0  0  0  0  0
   20.6133   20.1186   26.2402 H   0  0  0  0  0  0  0  0  0  0  0  0
   19.1323   19.8880   27.1835 H   0  0  0  0  0  0  0  0  0  0  0  0
   20.1953   18.1006   26.7658 N   0  3  0  0  0  0  0  0  0  0  0  0
   20.7360   18.1202   27.6373 H   0  0  0  0  0  0  0  0  0  0  0  0
   20.7945   17.6772   26.0505 H   0  0  0  0  0  0  0  0  0  0  0  0
   19.4067   17.4632   26.9171 H   0  0  0  0  0  0  0  0  0  0  0  0
  1  2  1  0  0  0  0
  1  3  1  0  0  0  0
  1  4  1  0  0  0  0
  1  5  1  0  0  0  0
  5  6  1  0  0  0  0
  5  7  1  0  0  0  0
  5  8  1  0  0  0  0
  8  9  1  0  0  0  0
  8 10  1  0  0  0  0
  8 11  1  0  0  0  0
 11 12  1  0  0  0  0
 11 13  1  0  0  0  0
 11 14  1  0  0  0  0
 14 15  1  0  0  0  0
 14 16  1  0  0  0  0
 14 17  1  0  0  0  0
 17 18  1  0  0  0  0
 17 19  1  0  0  0  0
 17 20  1  0  0  0  0
 20 21  1  0  0  0  0
 20 22  1  0  0  0  0
 20 23  1  0  0  0  0
 23 24  1  0  0  0  0
 23 25  1  0  0  0  0
 23 26  1  0  0  0  0
M  END
> <VConfSearch Rank>
791

> <Conf_Id>
105

> <Delta U+W>
0.736

> <U+W>
-4.817

> <U>
48.735

> <W>
-53.552

> <W(PB)>
-55.889

> <W(SA)>
2.337

> <Valence>
2.803

> <Coulomb>
45.123

> <VdW>
0.809

> <VdW6>
-6.953

> <VdW12>
7.761

> <Bond>
0.188

> <Angle>
0.699

> <Pdih>
1.917

> <Idih>
0.000

> <Tether>
0.000

$$$$
VeraChem MOL file


 26 25  0  0  0  0  0  0  0  0999 V2000     
   16.5002   19.0283   22.0247 C   0  0  0  0  0  0  0  0  0  0  0  0
   16.1919   19.7332   21.2416 H   0  0  0  0  0  0  0  0  0  0  0  0
   16.7193   18.0633   21.5494 H   0  0  0  0  0  0  0  0  0  0  0  0
   15.6487   18.8845   22.7025 H   0  0  0  0  0  0  0  0  0  0  0  0
   17.7275   19.5575   22.7965 C   0  0  0  0  0  0  0  0  0  0  0  0
   17.9801   18.8465   23.5944 H   0  0  0  0  0  0  0  0  0  0  0  0
   17.4695   20.5074   23.2851 H   0  0  0  0  0  0  0  0  0  0  0  0
   18.9430   19.7642   21.8623 C   0  0  0  0  0  0  0  0  0  0  0  0
   19.2275   18.8074   21.4053 H   0  0  0  0  0  0  0  0  0  0  0  0
   18.6456   20.4172   21.0302 H   0  0  0  0  0  0  0  0  0  0  0  0
   20.1679   20.4025   22.5675 C   0  0  0  0  0  0  0  0  0  0  0  0
   19.8965   21.4126   22.9040 H   0  0  0  0  0  0  0  0  0  0  0  0
   20.9688   20.5385   21.8277 H   0  0  0  0  0  0  0  0  0  0  0  0
   20.7304   19.6107   23.7766 C   0  0  0  0  0  0  0  0  0  0  0  0
   21.5766   20.1769   24.1874 H   0  0  0  0  0  0  0  0  0  0  0  0
   19.9809   19.5659   24.5778 H   0  0  0  0  0  0  0  0  0  0  0  0
   21.1970   18.1781   23.4159 C   0  0  0  0  0  0  0  0  0  0  0  0
   21.9326   18.2153   22.6015 H   0  0  0  0  0  0  0  0  0  0  0  0
   20.3458   17.5934   23.0453 H   0  0  0  0  0  0  0  0  0  0  0  0
   21.7993   17.4285   24.6200 C   0  0  0  0  0  0  0  0  0  0  0  0
   21.0759   17.4066   25.4395 H   0  0  0  0  0  0  0  0  0  0  0  0
   22.0184   16.3969   24.3313 H   0  0  0  0  0  0  0  0  0  0  0  0
   23.0844   18.0410   25.1419 N   0  3  0  0  0  0  0  0  0  0  0  0
   22.9425   19.0022   25.4670 H   0  0  0  0  0  0  0  0  0  0  0  0
   23.8128   18.0690   24.4211 H   0  0  0  0  0  0  0  0  0  0  0  0
   23.4656   17.5099   25.9324 H   0  0  0  0  0  0  0  0  0  0  0  0
  1  2  1  0  0  0  0
  1  3  1  0  0  0  0
  1  4  1  0  0  0  0
  1  5  1  0  0  0  0
  5  6  1  0  0  0  0
  5  7  1  0  0  0  0
  5  8  1  0  0  0  0
  8  9  1  0  0  0  0
  8 10  1  0  0  0  0
  8 11  1  0  0  0  0
 11 12  1  0  0  0  0
 11 13  1  0  0  0  0
 11 14  1  0  0  0  0
 14 15  1  0  0  0  0
 14 16  1  0  0  0  0
 14 17  1  0  0  0  0
 17 18  1  0  0  0  0
 17 19  1  0  0  0  0
 17 20  1  0  0  0  0
 20 21  1  0  0  0  0
 20 22  1  0  0  0  0
 20 23  1  0  0  0  0
 23 24  1  0  0  0  0
 23 25  1  0  0  0  0
 23 26  1  0  0  0  0
M  END
> <VConfSearch Rank>
792

> <Conf_Id>
144

> <Delta U+W>
1.073

> <U+W>
-4.479

> <U>
49.231

> <W>
-53.710

> <W(PB)>
-55.983

> <W(SA)>
2.273

> <Valence>
3.276

> <Coulomb>
45.175

> <VdW>
0.779

> <VdW6>
-7.944

> <VdW12>
8.723

> <Bond>
0.239

> <Angle>
1.155

> <Pdih>
1.883

> <Idih>
0.000

> <Tether>
0.000

$$$$
VeraChem MOL file


 26 25  0  0  0  0  0  0  0  0999 V2000     
   20.3757   21.7206   20.9796 C   0  0  0  0  0  0  0  0  0  0  0  0
   20.9053   21.0460   20.2959 H   0  0  0  0  0  0  0  0  0  0  0  0
   19.9550   22.5356   20.3765 H   0  0  0  0  0  0  0  0  0  0  0  0
   21.1095   22.1581   21.6689 H   0  0  0  0  0  0  0  0  0  0  0  0
   19.2556   20.9872   21.7523 C   0  0  0  0  0  0  0  0  0  0  0  0
   18.5531   20.5290   21.0420 H   0  0  0  0  0  0  0  0  0  0  0  0
   18.6774   21.7295   22.3202 H   0  0  0  0  0  0  0  0  0  0  0  0
   19.7824   19.9140   22.7358 C   0  0  0  0  0  0  0  0  0  0  0  0
   20.4998   20.3724   23.4301 H   0  0  0  0  0  0  0  0  0  0  0  0
   18.9328   19.5691   23.3384 H   0  0  0  0  0  0  0  0  0  0  0  0
   20.4319   18.6966   22.0320 C   0  0  0  0  0  0  0  0  0  0  0  0
   21.2165   19.0441   21.3481 H   0  0  0  0  0  0  0  0  0  0  0  0
   19.6811   18.1956   21.4057 H   0  0  0  0  0  0  0  0  0  0  0  0
   21.0723   17.6630   22.9948 C   0  0  0  0  0  0  0  0  0  0  0  0
   21.5293   16.8762   22.3786 H   0  0  0  0  0  0  0  0  0  0  0  0
   21.9016   18.1259   23.5476 H   0  0  0  0  0  0  0  0  0  0  0  0
   20.0866   16.9894   23.9826 C   0  0  0  0  0  0  0  0  0  0  0  0
   20.4648   15.9874   24.2253 H   0  0  0  0  0  0  0  0  0  0  0  0
   19.1100   16.8441   23.5020 H   0  0  0  0  0  0  0  0  0  0  0  0
   19.9258   17.7712   25.3012 C   0  0  0  0  0  0  0  0  0  0  0  0
   20.8978   17.8609   25.7938 H   0  0  0  0  0  0  0  0  0  0  0  0
   19.5511   18.7770   25.1028 H   0  0  0  0  0  0  0  0  0  0  0  0
   18.9720   17.1046   26.2713 N   0  3  0  0  0  0  0  0  0  0  0  0
   19.2847   16.1625   26.5277 H   0  0  0  0  0  0  0  0  0  0  0  0
   18.0294   17.0131   25.8787 H   0  0  0  0  0  0  0  0  0  0  0  0
   18.8821   17.6367   27.1438 H   0  0  0  0  0  0  0  0  0  0  0  0
  1  2  1  0  0  0  0
  1  3  1  0  0  0  0
  1  4  1  0  0  0  0
  1  5  1  0  0  0  0
  5  6  1  0  0  0  0
  5  7  1  0  0  0  0
  5  8  1  0  0  0  0
  8  9  1  0  0  0  0
  8 10  1  0  0  0  0
  8 11  1  0  0  0  0
 11 12  1  0  0  0  0
 11 13  1  0  0  0  0
 11 14  1  0  0  0  0
 14 15  1  0  0  0  0
 14 16  1  0  0  0  0
 14 17  1  0  0  0  0
 17 18  1  0  0  0  0
 17 19  1  0  0  0  0
 17 20  1  0  0  0  0
 20 21  1  0  0  0  0
 20 22  1  0  0  0  0
 20 23  1  0  0  0  0
 23 24  1  0  0  0  0
 23 25  1  0  0  0  0
 23 26  1  0  0  0  0
M  END
> <VConfSearch Rank>
793

> <Conf_Id>
93

> <Delta U+W>
3.253

> <U+W>
-2.300

> <U>
51.609

> <W>
-53.909

> <W(PB)>
-56.178

> <W(SA)>
2.270

> <Valence>
5.204

> <Coulomb>
45.645

> <VdW>
0.760

> <VdW6>
-7.997

> <VdW12>
8.758

> <Bond>
0.240

> <Angle>
1.456

> <Pdih>
3.507

> <Idih>
0.000

> <Tether>
0.000

$$$$
VeraChem MOL file


 26 25  0  0  0  0  0  0  0  0999 V2000     
   19.9342   22.0551   25.2441 C   0  0  0  0  0  0  0  0  0  0  0  0
   20.3738   21.5050   26.0850 H   0  0  0  0  0  0  0  0  0  0  0  0
   20.7511   22.4574   24.6310 H   0  0  0  0  0  0  0  0  0  0  0  0
   19.3791   22.9049   25.6619 H   0  0  0  0  0  0  0  0  0  0  0  0
   18.9968   21.1591   24.4026 C   0  0  0  0  0  0  0  0  0  0  0  0
   18.4866   21.7868   23.6586 H   0  0  0  0  0  0  0  0  0  0  0  0
   18.2083   20.7411   25.0440 H   0  0  0  0  0  0  0  0  0  0  0  0
   19.7329   20.0158   23.6627 C   0  0  0  0  0  0  0  0  0  0  0  0
   19.0144   19.5437   22.9811 H   0  0  0  0  0  0  0  0  0  0  0  0
   20.5335   20.4370   23.0395 H   0  0  0  0  0  0  0  0  0  0  0  0
   20.3135   18.9386   24.6124 C   0  0  0  0  0  0  0  0  0  0  0  0
   19.4934   18.4646   25.1691 H   0  0  0  0  0  0  0  0  0  0  0  0
   20.9541   19.4184   25.3631 H   0  0  0  0  0  0  0  0  0  0  0  0
   21.1564   17.8449   23.9060 C   0  0  0  0  0  0  0  0  0  0  0  0
   22.0432   18.2954   23.4388 H   0  0  0  0  0  0  0  0  0  0  0  0
   21.5411   17.1705   24.6836 H   0  0  0  0  0  0  0  0  0  0  0  0
   20.3849   16.9921   22.8675 C   0  0  0  0  0  0  0  0  0  0  0  0
   19.3497   16.8373   23.1995 H   0  0  0  0  0  0  0  0  0  0  0  0
   20.8471   15.9970   22.8196 H   0  0  0  0  0  0  0  0  0  0  0  0
   20.4100   17.5988   21.4509 C   0  0  0  0  0  0  0  0  0  0  0  0
   19.9585   18.5926   21.4555 H   0  0  0  0  0  0  0  0  0  0  0  0
   21.4453   17.6967   21.1135 H   0  0  0  0  0  0  0  0  0  0  0  0
   19.6667   16.7572   20.4338 N   0  3  0  0  0  0  0  0  0  0  0  0
   20.0637   15.8153   20.3544 H   0  0  0  0  0  0  0  0  0  0  0  0
   19.6988   17.1744   19.4972 H   0  0  0  0  0  0  0  0  0  0  0  0
   18.6770   16.6476   20.6783 H   0  0  0  0  0  0  0  0  0  0  0  0
  1  2  1  0  0  0  0
  1  3  1  0  0  0  0
  1  4  1  0  0  0  0
  1  5  1  0  0  0  0
  5  6  1  0  0  0  0
  5  7  1  0  0  0  0
  5  8  1  0  0  0  0
  8  9  1  0  0  0  0
  8 10  1  0  0  0  0
  8 11  1  0  0  0  0
 11 12  1  0  0  0  0
 11 13  1  0  0  0  0
 11 14  1  0  0  0  0
 14 15  1  0  0  0  0
 14 16  1  0  0  0  0
 14 17  1  0  0  0  0
 17 18  1  0  0  0  0
 17 19  1  0  0  0  0
 17 20  1  0  0  0  0
 20 21  1  0  0  0  0
 20 22  1  0  0  0  0
 20 23  1  0  0  0  0
 23 24  1  0  0  0  0
 23 25  1  0  0  0  0
 23 26  1  0  0  0  0
M  END
> <VConfSearch Rank>
794

> <Conf_Id>
94

> <Delta U+W>
3.247

> <U+W>
-2.305

> <U>
51.609

> <W>
-53.914

> <W(PB)>
-56.221

> <W(SA)>
2.307

> <Valence>
5.204

> <Coulomb>
45.645

> <VdW>
0.760

> <VdW6>
-7.997

> <VdW12>
8.757

> <Bond>
0.240

> <Angle>
1.456

> <Pdih>
3.508

> <Idih>
0.000

> <Tether>
0.000

$$$$
VeraChem MOL file


 26 25  0  0  0  0  0  0  0  0999 V2000     
   23.0019   16.1071   23.3325 C   0  0  0  0  0  0  0  0  0  0  0  0
   23.7502   16.4928   22.6279 H   0  0  0  0  0  0  0  0  0  0  0  0
   23.3085   16.3926   24.3472 H   0  0  0  0  0  0  0  0  0  0  0  0
   23.0156   15.0111   23.2721 H   0  0  0  0  0  0  0  0  0  0  0  0
   21.5965   16.6535   23.0033 C   0  0  0  0  0  0  0  0  0  0  0  0
   20.8654   16.2241   23.7027 H   0  0  0  0  0  0  0  0  0  0  0  0
   21.3037   16.3237   21.9966 H   0  0  0  0  0  0  0  0  0  0  0  0
   21.5495   18.1956   23.0811 C   0  0  0  0  0  0  0  0  0  0  0  0
   21.8449   18.5206   24.0884 H   0  0  0  0  0  0  0  0  0  0  0  0
   22.2839   18.6197   22.3824 H   0  0  0  0  0  0  0  0  0  0  0  0
   20.1438   18.7465   22.7516 C   0  0  0  0  0  0  0  0  0  0  0  0
   19.4145   18.3127   23.4487 H   0  0  0  0  0  0  0  0  0  0  0  0
   19.8513   18.4238   21.7428 H   0  0  0  0  0  0  0  0  0  0  0  0
   20.0992   20.2913   22.8324 C   0  0  0  0  0  0  0  0  0  0  0  0
   20.3670   20.6183   23.8460 H   0  0  0  0  0  0  0  0  0  0  0  0
   20.8658   20.7089   22.1650 H   0  0  0  0  0  0  0  0  0  0  0  0
   18.7241   20.8833   22.4334 C   0  0  0  0  0  0  0  0  0  0  0  0
   18.5075   20.6229   21.3888 H   0  0  0  0  0  0  0  0  0  0  0  0
   18.7763   21.9795   22.4708 H   0  0  0  0  0  0  0  0  0  0  0  0
   17.5535   20.4036   23.3155 C   0  0  0  0  0  0  0  0  0  0  0  0
   16.6212   20.8446   22.9524 H   0  0  0  0  0  0  0  0  0  0  0  0
   17.4621   19.3164   23.2501 H   0  0  0  0  0  0  0  0  0  0  0  0
   17.7014   20.7759   24.7774 N   0  3  0  0  0  0  0  0  0  0  0  0
   17.7635   21.7910   24.9069 H   0  0  0  0  0  0  0  0  0  0  0  0
   18.5457   20.3653   25.1878 H   0  0  0  0  0  0  0  0  0  0  0  0
   16.9051   20.4505   25.3362 H   0  0  0  0  0  0  0  0  0  0  0  0
  1  2  1  0  0  0  0
  1  3  1  0  0  0  0
  1  4  1  0  0  0  0
  1  5  1  0  0  0  0
  5  6  1  0  0  0  0
  5  7  1  0  0  0  0
  5  8  1  0  0  0  0
  8  9  1  0  0  0  0
  8 10  1  0  0  0  0
  8 11  1  0  0  0  0
 11 12  1  0  0  0  0
 11 13  1  0  0  0  0
 11 14  1  0  0  0  0
 14 15  1  0  0  0  0
 14 16  1  0  0  0  0
 14 17  1  0  0  0  0
 17 18  1  0  0  0  0
 17 19  1  0  0  0  0
 17 20  1  0  0  0  0
 20 21  1  0  0  0  0
 20 22  1  0  0  0  0
 20 23  1  0  0  0  0
 23 24  1  0  0  0  0
 23 25  1  0  0  0  0
 23 26  1  0  0  0  0
M  END
> <VConfSearch Rank>
795

> <Conf_Id>
83

> <Delta U+W>
0.559

> <U+W>
-4.994

> <U>
48.668

> <W>
-53.661

> <W(PB)>
-55.972

> <W(SA)>
2.311

> <Valence>
2.543

> <Coulomb>
45.478

> <VdW>
0.646

> <VdW6>
-7.096

> <VdW12>
7.742

> <Bond>
0.176

> <Angle>
0.630

> <Pdih>
1.738

> <Idih>
0.000

> <Tether>
0.000

$$$$
VeraChem MOL file


 26 25  0  0  0  0  0  0  0  0999 V2000     
   18.3564   18.1907   26.7198 C   0  0  0  0  0  0  0  0  0  0  0  0
   17.2745   18.3572   26.8038 H   0  0  0  0  0  0  0  0  0  0  0  0
   18.5357   17.1076   26.7064 H   0  0  0  0  0  0  0  0  0  0  0  0
   18.8309   18.5997   27.6212 H   0  0  0  0  0  0  0  0  0  0  0  0
   18.9250   18.8625   25.4519 C   0  0  0  0  0  0  0  0  0  0  0  0
   20.0119   18.7092   25.4253 H   0  0  0  0  0  0  0  0  0  0  0  0
   18.7568   19.9470   25.5079 H   0  0  0  0  0  0  0  0  0  0  0  0
   18.2737   18.2983   24.1671 C   0  0  0  0  0  0  0  0  0  0  0  0
   18.4884   17.2240   24.0838 H   0  0  0  0  0  0  0  0  0  0  0  0
   17.1819   18.3883   24.2520 H   0  0  0  0  0  0  0  0  0  0  0  0
   18.7254   19.0199   22.8735 C   0  0  0  0  0  0  0  0  0  0  0  0
   18.4971   20.0919   22.9517 H   0  0  0  0  0  0  0  0  0  0  0  0
   18.1259   18.6375   22.0359 H   0  0  0  0  0  0  0  0  0  0  0  0
   20.2264   18.8275   22.5487 C   0  0  0  0  0  0  0  0  0  0  0  0
   20.8366   19.2705   23.3455 H   0  0  0  0  0  0  0  0  0  0  0  0
   20.4615   17.7544   22.5230 H   0  0  0  0  0  0  0  0  0  0  0  0
   20.6048   19.4698   21.1930 C   0  0  0  0  0  0  0  0  0  0  0  0
   20.3992   20.5482   21.2170 H   0  0  0  0  0  0  0  0  0  0  0  0
   19.9720   19.0478   20.4009 H   0  0  0  0  0  0  0  0  0  0  0  0
   22.0798   19.2354   20.8136 C   0  0  0  0  0  0  0  0  0  0  0  0
   22.2896   18.1625   20.7968 H   0  0  0  0  0  0  0  0  0  0  0  0
   22.2643   19.6345   19.8125 H   0  0  0  0  0  0  0  0  0  0  0  0
   23.0659   19.8931   21.7591 N   0  3  0  0  0  0  0  0  0  0  0  0
   22.9729   19.5348   22.7145 H   0  0  0  0  0  0  0  0  0  0  0  0
   22.9332   20.9088   21.8014 H   0  0  0  0  0  0  0  0  0  0  0  0
   24.0366   19.7298   21.4704 H   0  0  0  0  0  0  0  0  0  0  0  0
  1  2  1  0  0  0  0
  1  3  1  0  0  0  0
  1  4  1  0  0  0  0
  1  5  1  0  0  0  0
  5  6  1  0  0  0  0
  5  7  1  0  0  0  0
  5  8  1  0  0  0  0
  8  9  1  0  0  0  0
  8 10  1  0  0  0  0
  8 11  1  0  0  0  0
 11 12  1  0  0  0  0
 11 13  1  0  0  0  0
 11 14  1  0  0  0  0
 14 15  1  0  0  0  0
 14 16  1  0  0  0  0
 14 17  1  0  0  0  0
 17 18  1  0  0  0  0
 17 19  1  0  0  0  0
 17 20  1  0  0  0  0
 20 21  1  0  0  0  0
 20 22  1  0  0  0  0
 20 23  1  0  0  0  0
 23 24  1  0  0  0  0
 23 25  1  0  0  0  0
 23 26  1  0  0  0  0
M  END
> <VConfSearch Rank>
796

> <Conf_Id>
18

> <Delta U+W>
0.759

> <U+W>
-4.793

> <U>
48.945

> <W>
-53.738

> <W(PB)>
-56.051

> <W(SA)>
2.313

> <Valence>
2.802

> <Coulomb>
45.335

> <VdW>
0.807

> <VdW6>
-6.962

> <VdW12>
7.769

> <Bond>
0.189

> <Angle>
0.696

> <Pdih>
1.917

> <Idih>
0.000

> <Tether>
0.000

$$$$
VeraChem MOL file


 26 25  0  0  0  0  0  0  0  0999 V2000     
   18.5293   22.0755   21.4396 C   0  0  0  0  0  0  0  0  0  0  0  0
   18.3793   22.6813   22.3428 H   0  0  0  0  0  0  0  0  0  0  0  0
   19.2042   22.6231   20.7688 H   0  0  0  0  0  0  0  0  0  0  0  0
   17.5596   21.9773   20.9347 H   0  0  0  0  0  0  0  0  0  0  0  0
   19.1031   20.6868   21.7925 C   0  0  0  0  0  0  0  0  0  0  0  0
   19.2144   20.0946   20.8735 H   0  0  0  0  0  0  0  0  0  0  0  0
   18.3830   20.1559   22.4289 H   0  0  0  0  0  0  0  0  0  0  0  0
   20.4692   20.8001   22.5098 C   0  0  0  0  0  0  0  0  0  0  0  0
   21.1474   21.4043   21.8914 H   0  0  0  0  0  0  0  0  0  0  0  0
   20.3469   21.3458   23.4556 H   0  0  0  0  0  0  0  0  0  0  0  0
   21.1426   19.4326   22.7825 C   0  0  0  0  0  0  0  0  0  0  0  0
   22.1507   19.6157   23.1794 H   0  0  0  0  0  0  0  0  0  0  0  0
   21.2777   18.8938   21.8345 H   0  0  0  0  0  0  0  0  0  0  0  0
   20.3610   18.5454   23.7812 C   0  0  0  0  0  0  0  0  0  0  0  0
   20.1824   19.1067   24.7088 H   0  0  0  0  0  0  0  0  0  0  0  0
   19.3779   18.2961   23.3630 H   0  0  0  0  0  0  0  0  0  0  0  0
   21.1268   17.2415   24.1083 C   0  0  0  0  0  0  0  0  0  0  0  0
   22.1225   17.4920   24.4979 H   0  0  0  0  0  0  0  0  0  0  0  0
   21.2868   16.6589   23.1912 H   0  0  0  0  0  0  0  0  0  0  0  0
   20.4013   16.3700   25.1517 C   0  0  0  0  0  0  0  0  0  0  0  0
   21.0283   15.5108   25.4052 H   0  0  0  0  0  0  0  0  0  0  0  0
   20.2334   16.9501   26.0631 H   0  0  0  0  0  0  0  0  0  0  0  0
   19.0626   15.8380   24.6790 N   0  3  0  0  0  0  0  0  0  0  0  0
   19.1576   15.2643   23.8347 H   0  0  0  0  0  0  0  0  0  0  0  0
   18.4089   16.5957   24.4591 H   0  0  0  0  0  0  0  0  0  0  0  0
   18.6136   15.2513   25.3907 H   0  0  0  0  0  0  0  0  0  0  0  0
  1  2  1  0  0  0  0
  1  3  1  0  0  0  0
  1  4  1  0  0  0  0
  1  5  1  0  0  0  0
  5  6  1  0  0  0  0
  5  7  1  0  0  0  0
  5  8  1  0  0  0  0
  8  9  1  0  0  0  0
  8 10  1  0  0  0  0
  8 11  1  0  0  0  0
 11 12  1  0  0  0  0
 11 13  1  0  0  0  0
 11 14  1  0  0  0  0
 14 15  1  0  0  0  0
 14 16  1  0  0  0  0
 14 17  1  0  0  0  0
 17 18  1  0  0  0  0
 17 19  1  0  0  0  0
 17 20  1  0  0  0  0
 20 21  1  0  0  0  0
 20 22  1  0  0  0  0
 20 23  1  0  0  0  0
 23 24  1  0  0  0  0
 23 25  1  0  0  0  0
 23 26  1  0  0  0  0
M  END
> <VConfSearch Rank>
797

> <Conf_Id>
17

> <Delta U+W>
0.843

> <U+W>
-4.709

> <U>
48.945

> <W>
-53.653

> <W(PB)>
-55.991

> <W(SA)>
2.338

> <Valence>
2.802

> <Coulomb>
45.335

> <VdW>
0.807

> <VdW6>
-6.962

> <VdW12>
7.769

> <Bond>
0.189

> <Angle>
0.696

> <Pdih>
1.917

> <Idih>
0.000

> <Tether>
0.000

$$$$
VeraChem MOL file


 26 25  0  0  0  0  0  0  0  0999 V2000     
   18.6688   17.6092   20.3511 C   0  0  0  0  0  0  0  0  0  0  0  0
   18.2629   17.3200   21.3284 H   0  0  0  0  0  0  0  0  0  0  0  0
   18.2118   18.5628   20.0566 H   0  0  0  0  0  0  0  0  0  0  0  0
   18.3542   16.8481   19.6254 H   0  0  0  0  0  0  0  0  0  0  0  0
   20.2101   17.7188   20.3858 C   0  0  0  0  0  0  0  0  0  0  0  0
   20.5759   17.8866   19.3631 H   0  0  0  0  0  0  0  0  0  0  0  0
   20.6414   16.7624   20.7132 H   0  0  0  0  0  0  0  0  0  0  0  0
   20.7260   18.8631   21.2913 C   0  0  0  0  0  0  0  0  0  0  0  0
   21.8153   18.9397   21.1689 H   0  0  0  0  0  0  0  0  0  0  0  0
   20.3085   19.8195   20.9475 H   0  0  0  0  0  0  0  0  0  0  0  0
   20.3984   18.6593   22.7901 C   0  0  0  0  0  0  0  0  0  0  0  0
   20.7749   17.6803   23.1171 H   0  0  0  0  0  0  0  0  0  0  0  0
   19.3102   18.6468   22.9295 H   0  0  0  0  0  0  0  0  0  0  0  0
   21.0208   19.7716   23.6681 C   0  0  0  0  0  0  0  0  0  0  0  0
   22.1048   19.8074   23.4919 H   0  0  0  0  0  0  0  0  0  0  0  0
   20.6240   20.7500   23.3631 H   0  0  0  0  0  0  0  0  0  0  0  0
   20.7716   19.5625   25.1804 C   0  0  0  0  0  0  0  0  0  0  0  0
   21.3152   20.3348   25.7409 H   0  0  0  0  0  0  0  0  0  0  0  0
   21.1880   18.5956   25.4928 H   0  0  0  0  0  0  0  0  0  0  0  0
   19.2785   19.6281   25.5527 C   0  0  0  0  0  0  0  0  0  0  0  0
   18.8639   20.5910   25.2422 H   0  0  0  0  0  0  0  0  0  0  0  0
   18.7326   18.8349   25.0354 H   0  0  0  0  0  0  0  0  0  0  0  0
   19.0307   19.4694   27.0388 N   0  3  0  0  0  0  0  0  0  0  0  0
   18.0313   19.5161   27.2657 H   0  0  0  0  0  0  0  0  0  0  0  0
   19.4949   20.2032   27.5841 H   0  0  0  0  0  0  0  0  0  0  0  0
   19.3747   18.5696   27.3897 H   0  0  0  0  0  0  0  0  0  0  0  0
  1  2  1  0  0  0  0
  1  3  1  0  0  0  0
  1  4  1  0  0  0  0
  1  5  1  0  0  0  0
  5  6  1  0  0  0  0
  5  7  1  0  0  0  0
  5  8  1  0  0  0  0
  8  9  1  0  0  0  0
  8 10  1  0  0  0  0
  8 11  1  0  0  0  0
 11 12  1  0  0  0  0
 11 13  1  0  0  0  0
 11 14  1  0  0  0  0
 14 15  1  0  0  0  0
 14 16  1  0  0  0  0
 14 17  1  0  0  0  0
 17 18  1  0  0  0  0
 17 19  1  0  0  0  0
 17 20  1  0  0  0  0
 20 21  1  0  0  0  0
 20 22  1  0  0  0  0
 20 23  1  0  0  0  0
 23 24  1  0  0  0  0
 23 25  1  0  0  0  0
 23 26  1  0  0  0  0
M  END
> <VConfSearch Rank>
798

> <Conf_Id>
96

> <Delta U+W>
0.912

> <U+W>
-4.640

> <U>
48.723

> <W>
-53.364

> <W(PB)>
-55.683

> <W(SA)>
2.320

> <Valence>
2.962

> <Coulomb>
44.993

> <VdW>
0.768

> <VdW6>
-7.008

> <VdW12>
7.776

> <Bond>
0.188

> <Angle>
0.757

> <Pdih>
2.018

> <Idih>
0.000

> <Tether>
0.000

$$$$
VeraChem MOL file


 26 25  0  0  0  0  0  0  0  0999 V2000     
   21.1936   16.1428   24.9475 C   0  0  0  0  0  0  0  0  0  0  0  0
   21.9006   15.3657   25.2655 H   0  0  0  0  0  0  0  0  0  0  0  0
   20.1782   15.7672   25.1286 H   0  0  0  0  0  0  0  0  0  0  0  0
   21.3217   16.2821   23.8669 H   0  0  0  0  0  0  0  0  0  0  0  0
   21.4476   17.4550   25.7236 C   0  0  0  0  0  0  0  0  0  0  0  0
   22.4577   17.8266   25.5011 H   0  0  0  0  0  0  0  0  0  0  0  0
   21.4305   17.2379   26.8008 H   0  0  0  0  0  0  0  0  0  0  0  0
   20.4056   18.5596   25.4236 C   0  0  0  0  0  0  0  0  0  0  0  0
   19.3996   18.1906   25.6667 H   0  0  0  0  0  0  0  0  0  0  0  0
   20.5944   19.4080   26.0958 H   0  0  0  0  0  0  0  0  0  0  0  0
   20.4389   19.0576   23.9587 C   0  0  0  0  0  0  0  0  0  0  0  0
   20.1873   18.2300   23.2838 H   0  0  0  0  0  0  0  0  0  0  0  0
   21.4581   19.3798   23.7048 H   0  0  0  0  0  0  0  0  0  0  0  0
   19.4546   20.2300   23.7306 C   0  0  0  0  0  0  0  0  0  0  0  0
   18.4300   19.9027   23.9554 H   0  0  0  0  0  0  0  0  0  0  0  0
   19.6848   21.0384   24.4382 H   0  0  0  0  0  0  0  0  0  0  0  0
   19.5106   20.7993   22.2934 C   0  0  0  0  0  0  0  0  0  0  0  0
   20.5284   21.1488   22.0743 H   0  0  0  0  0  0  0  0  0  0  0  0
   18.8563   21.6792   22.2331 H   0  0  0  0  0  0  0  0  0  0  0  0
   19.0746   19.7745   21.2294 C   0  0  0  0  0  0  0  0  0  0  0  0
   19.7461   18.9123   21.2483 H   0  0  0  0  0  0  0  0  0  0  0  0
   18.0611   19.4269   21.4471 H   0  0  0  0  0  0  0  0  0  0  0  0
   19.0835   20.3394   19.8236 N   0  3  0  0  0  0  0  0  0  0  0  0
   20.0170   20.6608   19.5469 H   0  0  0  0  0  0  0  0  0  0  0  0
   18.4488   21.1390   19.7291 H   0  0  0  0  0  0  0  0  0  0  0  0
   18.7902   19.6420   19.1308 H   0  0  0  0  0  0  0  0  0  0  0  0
  1  2  1  0  0  0  0
  1  3  1  0  0  0  0
  1  4  1  0  0  0  0
  1  5  1  0  0  0  0
  5  6  1  0  0  0  0
  5  7  1  0  0  0  0
  5  8  1  0  0  0  0
  8  9  1  0  0  0  0
  8 10  1  0  0  0  0
  8 11  1  0  0  0  0
 11 12  1  0  0  0  0
 11 13  1  0  0  0  0
 11 14  1  0  0  0  0
 14 15  1  0  0  0  0
 14 16  1  0  0  0  0
 14 17  1  0  0  0  0
 17 18  1  0  0  0  0
 17 19  1  0  0  0  0
 17 20  1  0  0  0  0
 20 21  1  0  0  0  0
 20 22  1  0  0  0  0
 20 23  1  0  0  0  0
 23 24  1  0  0  0  0
 23 25  1  0  0  0  0
 23 26  1  0  0  0  0
M  END
> <VConfSearch Rank>
799

> <Conf_Id>
133

> <Delta U+W>
0.844

> <U+W>
-4.708

> <U>
48.723

> <W>
-53.431

> <W(PB)>
-55.776

> <W(SA)>
2.344

> <Valence>
2.962

> <Coulomb>
44.993

> <VdW>
0.768

> <VdW6>
-7.008

> <VdW12>
7.776

> <Bond>
0.188

> <Angle>
0.756

> <Pdih>
2.018

> <Idih>
0.000

> <Tether>
0.000

$$$$
VeraChem MOL file


 26 25  0  0  0  0  0  0  0  0999 V2000     
   18.1558   16.0831   22.9435 C   0  0  0  0  0  0  0  0  0  0  0  0
   18.6444   15.2347   22.4471 H   0  0  0  0  0  0  0  0  0  0  0  0
   18.7717   16.3816   23.8010 H   0  0  0  0  0  0  0  0  0  0  0  0
   17.1916   15.7337   23.3349 H   0  0  0  0  0  0  0  0  0  0  0  0
   17.9477   17.2570   21.9603 C   0  0  0  0  0  0  0  0  0  0  0  0
   17.4765   18.0998   22.4835 H   0  0  0  0  0  0  0  0  0  0  0  0
   17.2322   16.9470   21.1859 H   0  0  0  0  0  0  0  0  0  0  0  0
   19.2546   17.7195   21.2668 C   0  0  0  0  0  0  0  0  0  0  0  0
   19.6399   16.8952   20.6509 H   0  0  0  0  0  0  0  0  0  0  0  0
   19.0150   18.5312   20.5661 H   0  0  0  0  0  0  0  0  0  0  0  0
   20.3801   18.1940   22.2220 C   0  0  0  0  0  0  0  0  0  0  0  0
   21.2519   18.4747   21.6150 H   0  0  0  0  0  0  0  0  0  0  0  0
   20.7098   17.3600   22.8555 H   0  0  0  0  0  0  0  0  0  0  0  0
   19.9744   19.3966   23.1074 C   0  0  0  0  0  0  0  0  0  0  0  0
   19.6028   20.2123   22.4717 H   0  0  0  0  0  0  0  0  0  0  0  0
   19.1500   19.1093   23.7735 H   0  0  0  0  0  0  0  0  0  0  0  0
   21.1570   19.9059   23.9604 C   0  0  0  0  0  0  0  0  0  0  0  0
   21.9844   20.2070   23.3041 H   0  0  0  0  0  0  0  0  0  0  0  0
   21.5300   19.0929   24.5976 H   0  0  0  0  0  0  0  0  0  0  0  0
   20.7434   21.0979   24.8413 C   0  0  0  0  0  0  0  0  0  0  0  0
   20.3862   21.9159   24.2098 H   0  0  0  0  0  0  0  0  0  0  0  0
   19.9306   20.7982   25.5084 H   0  0  0  0  0  0  0  0  0  0  0  0
   21.8779   21.6271   25.6947 N   0  3  0  0  0  0  0  0  0  0  0  0
   21.5812   22.4205   26.2734 H   0  0  0  0  0  0  0  0  0  0  0  0
   22.6657   21.9519   25.1245 H   0  0  0  0  0  0  0  0  0  0  0  0
   22.2418   20.9119   26.3329 H   0  0  0  0  0  0  0  0  0  0  0  0
  1  2  1  0  0  0  0
  1  3  1  0  0  0  0
  1  4  1  0  0  0  0
  1  5  1  0  0  0  0
  5  6  1  0  0  0  0
  5  7  1  0  0  0  0
  5  8  1  0  0  0  0
  8  9  1  0  0  0  0
  8 10  1  0  0  0  0
  8 11  1  0  0  0  0
 11 12  1  0  0  0  0
 11 13  1  0  0  0  0
 11 14  1  0  0  0  0
 14 15  1  0  0  0  0
 14 16  1  0  0  0  0
 14 17  1  0  0  0  0
 17 18  1  0  0  0  0
 17 19  1  0  0  0  0
 17 20  1  0  0  0  0
 20 21  1  0  0  0  0
 20 22  1  0  0  0  0
 20 23  1  0  0  0  0
 23 24  1  0  0  0  0
 23 25  1  0  0  0  0
 23 26  1  0  0  0  0
M  END
> <VConfSearch Rank>
800

> <Conf_Id>
106

> <Delta U+W>
0.767

> <U+W>
-4.785

> <U>
48.494

> <W>
-53.279

> <W(PB)>
-55.569

> <W(SA)>
2.290

> <Valence>
3.117

> <Coulomb>
44.693

> <VdW>
0.684

> <VdW6>
-7.347

> <VdW12>
8.030

> <Bond>
0.208

> <Angle>
1.039

> <Pdih>
1.870

> <Idih>
0.000

> <Tether>
0.000

$$$$
VeraChem MOL file


 26 25  0  0  0  0  0  0  0  0999 V2000     
   23.2066   16.7614   20.9947 C   0  0  0  0  0  0  0  0  0  0  0  0
   23.7454   17.6690   20.6926 H   0  0  0  0  0  0  0  0  0  0  0  0
   23.7045   16.3473   21.8811 H   0  0  0  0  0  0  0  0  0  0  0  0
   23.2995   16.0284   20.1828 H   0  0  0  0  0  0  0  0  0  0  0  0
   21.7221   17.0681   21.2848 C   0  0  0  0  0  0  0  0  0  0  0  0
   21.2027   16.1368   21.5510 H   0  0  0  0  0  0  0  0  0  0  0  0
   21.2432   17.4483   20.3715 H   0  0  0  0  0  0  0  0  0  0  0  0
   21.5629   18.0984   22.4248 C   0  0  0  0  0  0  0  0  0  0  0  0
   22.0452   17.7151   23.3347 H   0  0  0  0  0  0  0  0  0  0  0  0
   22.0855   19.0266   22.1551 H   0  0  0  0  0  0  0  0  0  0  0  0
   20.0775   18.4080   22.7183 C   0  0  0  0  0  0  0  0  0  0  0  0
   19.5557   17.4793   22.9877 H   0  0  0  0  0  0  0  0  0  0  0  0
   19.5959   18.7908   21.8078 H   0  0  0  0  0  0  0  0  0  0  0  0
   19.9189   19.4389   23.8588 C   0  0  0  0  0  0  0  0  0  0  0  0
   20.4005   19.0565   24.7697 H   0  0  0  0  0  0  0  0  0  0  0  0
   20.4406   20.3680   23.5897 H   0  0  0  0  0  0  0  0  0  0  0  0
   18.4346   19.7489   24.1528 C   0  0  0  0  0  0  0  0  0  0  0  0
   17.9108   18.8235   24.4275 H   0  0  0  0  0  0  0  0  0  0  0  0
   17.9509   20.1363   23.2461 H   0  0  0  0  0  0  0  0  0  0  0  0
   18.2883   20.7760   25.2893 C   0  0  0  0  0  0  0  0  0  0  0  0
   18.7541   20.3875   26.1990 H   0  0  0  0  0  0  0  0  0  0  0  0
   18.7946   21.7050   25.0133 H   0  0  0  0  0  0  0  0  0  0  0  0
   16.8446   21.1071   25.6080 N   0  3  0  0  0  0  0  0  0  0  0  0
   16.7697   21.7928   26.3674 H   0  0  0  0  0  0  0  0  0  0  0  0
   16.3181   20.2778   25.9019 H   0  0  0  0  0  0  0  0  0  0  0  0
   16.3558   21.5038   24.7987 H   0  0  0  0  0  0  0  0  0  0  0  0
  1  2  1  0  0  0  0
  1  3  1  0  0  0  0
  1  4  1  0  0  0  0
  1  5  1  0  0  0  0
  5  6  1  0  0  0  0
  5  7  1  0  0  0  0
  5  8  1  0  0  0  0
  8  9  1  0  0  0  0
  8 10  1  0  0  0  0
  8 11  1  0  0  0  0
 11 12  1  0  0  0  0
 11 13  1  0  0  0  0
 11 14  1  0  0  0  0
 14 15  1  0  0  0  0
 14 16  1  0  0  0  0
 14 17  1  0  0  0  0
 17 18  1  0  0  0  0
 17 19  1  0  0  0  0
 17 20  1  0  0  0  0
 20 21  1  0  0  0  0
 20 22  1  0  0  0  0
 20 23  1  0  0  0  0
 23 24  1  0  0  0  0
 23 25  1  0  0  0  0
 23 26  1  0  0  0  0
M  END
> <VConfSearch Rank>
801

> <Conf_Id>
25

> <Delta U+W>
0.000

> <U+W>
-5.552

> <U>
47.192

> <W>
-52.745

> <W(PB)>
-55.134

> <W(SA)>
2.389

> <Valence>
2.156

> <Coulomb>
44.449

> <VdW>
0.587

> <VdW6>
-5.761

> <VdW12>
6.348

> <Bond>
0.129

> <Angle>
0.393

> <Pdih>
1.634

> <Idih>
0.000

> <Tether>
0.000

$$$$
VeraChem MOL file


 26 25  0  0  0  0  0  0  0  0999 V2000     
   20.9159   16.4590   19.8742 C   0  0  0  0  0  0  0  0  0  0  0  0
   20.2679   15.6321   20.1928 H   0  0  0  0  0  0  0  0  0  0  0  0
   20.3382   17.1069   19.2021 H   0  0  0  0  0  0  0  0  0  0  0  0
   21.7477   16.0327   19.2985 H   0  0  0  0  0  0  0  0  0  0  0  0
   21.4436   17.2504   21.0897 C   0  0  0  0  0  0  0  0  0  0  0  0
   22.1146   18.0482   20.7419 H   0  0  0  0  0  0  0  0  0  0  0  0
   22.0449   16.5848   21.7248 H   0  0  0  0  0  0  0  0  0  0  0  0
   20.2919   17.8617   21.9181 C   0  0  0  0  0  0  0  0  0  0  0  0
   19.6924   18.5241   21.2784 H   0  0  0  0  0  0  0  0  0  0  0  0
   19.6227   17.0607   22.2617 H   0  0  0  0  0  0  0  0  0  0  0  0
   20.8164   18.6550   23.1363 C   0  0  0  0  0  0  0  0  0  0  0  0
   21.4854   19.4559   22.7919 H   0  0  0  0  0  0  0  0  0  0  0  0
   21.4167   17.9918   23.7745 H   0  0  0  0  0  0  0  0  0  0  0  0
   19.6640   19.2660   23.9651 C   0  0  0  0  0  0  0  0  0  0  0  0
   19.0648   19.9237   23.3213 H   0  0  0  0  0  0  0  0  0  0  0  0
   18.9967   18.4647   24.3120 H   0  0  0  0  0  0  0  0  0  0  0  0
   20.1912   20.0604   25.1834 C   0  0  0  0  0  0  0  0  0  0  0  0
   20.8350   20.8838   24.8462 H   0  0  0  0  0  0  0  0  0  0  0  0
   20.8192   19.4046   25.8011 H   0  0  0  0  0  0  0  0  0  0  0  0
   19.0581   20.6211   26.0644 C   0  0  0  0  0  0  0  0  0  0  0  0
   18.4118   19.8043   26.3968 H   0  0  0  0  0  0  0  0  0  0  0  0
   19.4887   21.0970   26.9496 H   0  0  0  0  0  0  0  0  0  0  0  0
   18.1930   21.6506   25.3641 N   0  3  0  0  0  0  0  0  0  0  0  0
   17.7270   21.2579   24.5403 H   0  0  0  0  0  0  0  0  0  0  0  0
   18.7415   22.4566   25.0470 H   0  0  0  0  0  0  0  0  0  0  0  0
   17.4576   22.0128   25.9808 H   0  0  0  0  0  0  0  0  0  0  0  0
  1  2  1  0  0  0  0
  1  3  1  0  0  0  0
  1  4  1  0  0  0  0
  1  5  1  0  0  0  0
  5  6  1  0  0  0  0
  5  7  1  0  0  0  0
  5  8  1  0  0  0  0
  8  9  1  0  0  0  0
  8 10  1  0  0  0  0
  8 11  1  0  0  0  0
 11 12  1  0  0  0  0
 11 13  1  0  0  0  0
 11 14  1  0  0  0  0
 14 15  1  0  0  0  0
 14 16  1  0  0  0  0
 14 17  1  0  0  0  0
 17 18  1  0  0  0  0
 17 19  1  0  0  0  0
 17 20  1  0  0  0  0
 20 21  1  0  0  0  0
 20 22  1  0  0  0  0
 20 23  1  0  0  0  0
 23 24  1  0  0  0  0
 23 25  1  0  0  0  0
 23 26  1  0  0  0  0
M  END
> <VConfSearch Rank>
802

> <Conf_Id>
20

> <Delta U+W>
0.150

> <U+W>
-5.403

> <U>
47.845

> <W>
-53.248

> <W(PB)>
-55.599

> <W(SA)>
2.351

> <Valence>
2.258

> <Coulomb>
44.893

> <VdW>
0.694

> <VdW6>
-6.285

> <VdW12>
6.979

> <Bond>
0.149

> <Angle>
0.434

> <Pdih>
1.675

> <Idih>
0.000

> <Tether>
0.000

$$$$
VeraChem MOL file


 26 25  0  0  0  0  0  0  0  0999 V2000     
   21.0008   16.7153   19.7062 C   0  0  0  0  0  0  0  0  0  0  0  0
   20.1123   17.0832   19.1767 H   0  0  0  0  0  0  0  0  0  0  0  0
   21.8497   17.3573   19.4369 H   0  0  0  0  0  0  0  0  0  0  0  0
   21.2153   15.7025   19.3413 H   0  0  0  0  0  0  0  0  0  0  0  0
   20.7734   16.7078   21.2328 C   0  0  0  0  0  0  0  0  0  0  0  0
   21.6651   16.3036   21.7322 H   0  0  0  0  0  0  0  0  0  0  0  0
   19.9411   16.0317   21.4740 H   0  0  0  0  0  0  0  0  0  0  0  0
   20.4693   18.1228   21.7729 C   0  0  0  0  0  0  0  0  0  0  0  0
   21.3029   18.7953   21.5274 H   0  0  0  0  0  0  0  0  0  0  0  0
   19.5788   18.5234   21.2690 H   0  0  0  0  0  0  0  0  0  0  0  0
   20.2409   18.1192   23.3014 C   0  0  0  0  0  0  0  0  0  0  0  0
   21.1316   17.7173   23.8040 H   0  0  0  0  0  0  0  0  0  0  0  0
   19.4071   17.4467   23.5460 H   0  0  0  0  0  0  0  0  0  0  0  0
   19.9375   19.5351   23.8415 C   0  0  0  0  0  0  0  0  0  0  0  0
   20.7728   20.2069   23.5994 H   0  0  0  0  0  0  0  0  0  0  0  0
   19.0498   19.9337   23.3324 H   0  0  0  0  0  0  0  0  0  0  0  0
   19.7083   19.5292   25.3714 C   0  0  0  0  0  0  0  0  0  0  0  0
   20.5856   19.0948   25.8690 H   0  0  0  0  0  0  0  0  0  0  0  0
   18.8550   18.8848   25.6219 H   0  0  0  0  0  0  0  0  0  0  0  0
   19.4726   20.9404   25.9437 C   0  0  0  0  0  0  0  0  0  0  0  0
   19.4016   20.8826   27.0333 H   0  0  0  0  0  0  0  0  0  0  0  0
   20.3179   21.5861   25.6908 H   0  0  0  0  0  0  0  0  0  0  0  0
   18.2066   21.6017   25.4351 N   0  3  0  0  0  0  0  0  0  0  0  0
   17.3718   21.0518   25.6629 H   0  0  0  0  0  0  0  0  0  0  0  0
   18.2228   21.7209   24.4176 H   0  0  0  0  0  0  0  0  0  0  0  0
   18.0727   22.5328   25.8444 H   0  0  0  0  0  0  0  0  0  0  0  0
  1  2  1  0  0  0  0
  1  3  1  0  0  0  0
  1  4  1  0  0  0  0
  1  5  1  0  0  0  0
  5  6  1  0  0  0  0
  5  7  1  0  0  0  0
  5  8  1  0  0  0  0
  8  9  1  0  0  0  0
  8 10  1  0  0  0  0
  8 11  1  0  0  0  0
 11 12  1  0  0  0  0
 11 13  1  0  0  0  0
 11 14  1  0  0  0  0
 14 15  1  0  0  0  0
 14 16  1  0  0  0  0
 14 17  1  0  0  0  0
 17 18  1  0  0  0  0
 17 19  1  0  0  0  0
 17 20  1  0  0  0  0
 20 21  1  0  0  0  0
 20 22  1  0  0  0  0
 20 23  1  0  0  0  0
 23 24  1  0  0  0  0
 23 25  1  0  0  0  0
 23 26  1  0  0  0  0
M  END
> <VConfSearch Rank>
803

> <Conf_Id>
19

> <Delta U+W>
0.162

> <U+W>
-5.391

> <U>
47.845

> <W>
-53.235

> <W(PB)>
-55.585

> <W(SA)>
2.349

> <Valence>
2.258

> <Coulomb>
44.893

> <VdW>
0.694

> <VdW6>
-6.285

> <VdW12>
6.979

> <Bond>
0.149

> <Angle>
0.434

> <Pdih>
1.675

> <Idih>
0.000

> <Tether>
0.000

$$$$
VeraChem MOL file


 26 25  0  0  0  0  0  0  0  0999 V2000     
   18.1823   16.7173   20.2697 C   0  0  0  0  0  0  0  0  0  0  0  0
   18.4886   16.9711   19.2465 H   0  0  0  0  0  0  0  0  0  0  0  0
   18.6402   15.7554   20.5351 H   0  0  0  0  0  0  0  0  0  0  0  0
   17.0927   16.5839   20.2716 H   0  0  0  0  0  0  0  0  0  0  0  0
   18.5978   17.8222   21.2641 C   0  0  0  0  0  0  0  0  0  0  0  0
   18.2389   17.5523   22.2661 H   0  0  0  0  0  0  0  0  0  0  0  0
   18.1017   18.7638   20.9902 H   0  0  0  0  0  0  0  0  0  0  0  0
   20.1313   18.0255   21.2821 C   0  0  0  0  0  0  0  0  0  0  0  0
   20.6241   17.0988   21.6071 H   0  0  0  0  0  0  0  0  0  0  0  0
   20.4779   18.2152   20.2568 H   0  0  0  0  0  0  0  0  0  0  0  0
   20.5908   19.2005   22.1800 C   0  0  0  0  0  0  0  0  0  0  0  0
   20.1094   20.1295   21.8445 H   0  0  0  0  0  0  0  0  0  0  0  0
   21.6709   19.3442   22.0377 H   0  0  0  0  0  0  0  0  0  0  0  0
   20.3062   18.9778   23.6850 C   0  0  0  0  0  0  0  0  0  0  0  0
   19.2239   18.9083   23.8564 H   0  0  0  0  0  0  0  0  0  0  0  0
   20.7425   18.0211   24.0041 H   0  0  0  0  0  0  0  0  0  0  0  0
   20.8806   20.1196   24.5522 C   0  0  0  0  0  0  0  0  0  0  0  0
   20.4459   21.0777   24.2370 H   0  0  0  0  0  0  0  0  0  0  0  0
   21.9656   20.1916   24.3985 H   0  0  0  0  0  0  0  0  0  0  0  0
   20.5901   19.8927   26.0462 C   0  0  0  0  0  0  0  0  0  0  0  0
   19.5100   19.8370   26.2070 H   0  0  0  0  0  0  0  0  0  0  0  0
   21.0352   18.9474   26.3684 H   0  0  0  0  0  0  0  0  0  0  0  0
   21.1384   20.9934   26.9313 N   0  3  0  0  0  0  0  0  0  0  0  0
   20.7375   21.9076   26.6971 H   0  0  0  0  0  0  0  0  0  0  0  0
   22.1566   21.0799   26.8472 H   0  0  0  0  0  0  0  0  0  0  0  0
   20.9341   20.8229   27.9221 H   0  0  0  0  0  0  0  0  0  0  0  0
  1  2  1  0  0  0  0
  1  3  1  0  0  0  0
  1  4  1  0  0  0  0
  1  5  1  0  0  0  0
  5  6  1  0  0  0  0
  5  7  1  0  0  0  0
  5  8  1  0  0  0  0
  8  9  1  0  0  0  0
  8 10  1  0  0  0  0
  8 11  1  0  0  0  0
 11 12  1  0  0  0  0
 11 13  1  0  0  0  0
 11 14  1  0  0  0  0
 14 15  1  0  0  0  0
 14 16  1  0  0  0  0
 14 17  1  0  0  0  0
 17 18  1  0  0  0  0
 17 19  1  0  0  0  0
 17 20  1  0  0  0  0
 20 21  1  0  0  0  0
 20 22  1  0  0  0  0
 20 23  1  0  0  0  0
 23 24  1  0  0  0  0
 23 25  1  0  0  0  0
 23 26  1  0  0  0  0
M  END
> <VConfSearch Rank>
804

> <Conf_Id>
37

> <Delta U+W>
0.565

> <U+W>
-4.988

> <U>
48.035

> <W>
-53.022

> <W(PB)>
-55.379

> <W(SA)>
2.357

> <Valence>
2.701

> <Coulomb>
44.622

> <VdW>
0.712

> <VdW6>
-6.418

> <VdW12>
7.129

> <Bond>
0.168

> <Angle>
0.659

> <Pdih>
1.875

> <Idih>
0.000

> <Tether>
0.000

$$$$
VeraChem MOL file


 26 25  0  0  0  0  0  0  0  0999 V2000     
   23.7540   17.5777   23.3844 C   0  0  0  0  0  0  0  0  0  0  0  0
   23.3238   16.7627   22.7878 H   0  0  0  0  0  0  0  0  0  0  0  0
   24.1297   18.3449   22.6948 H   0  0  0  0  0  0  0  0  0  0  0  0
   24.6114   17.1736   23.9382 H   0  0  0  0  0  0  0  0  0  0  0  0
   22.7080   18.1676   24.3539 C   0  0  0  0  0  0  0  0  0  0  0  0
   23.1770   18.9553   24.9601 H   0  0  0  0  0  0  0  0  0  0  0  0
   22.3759   17.3861   25.0517 H   0  0  0  0  0  0  0  0  0  0  0  0
   21.4898   18.7448   23.5995 C   0  0  0  0  0  0  0  0  0  0  0  0
   21.8266   19.5267   22.9050 H   0  0  0  0  0  0  0  0  0  0  0  0
   21.0369   17.9508   22.9915 H   0  0  0  0  0  0  0  0  0  0  0  0
   20.4385   19.3329   24.5712 C   0  0  0  0  0  0  0  0  0  0  0  0
   20.9275   20.0696   25.2234 H   0  0  0  0  0  0  0  0  0  0  0  0
   20.0595   18.5405   25.2314 H   0  0  0  0  0  0  0  0  0  0  0  0
   19.2515   20.0238   23.8558 C   0  0  0  0  0  0  0  0  0  0  0  0
   18.6222   20.5090   24.6149 H   0  0  0  0  0  0  0  0  0  0  0  0
   19.6289   20.8279   23.2089 H   0  0  0  0  0  0  0  0  0  0  0  0
   18.3784   19.0533   23.0261 C   0  0  0  0  0  0  0  0  0  0  0  0
   18.0431   18.2226   23.6611 H   0  0  0  0  0  0  0  0  0  0  0  0
   18.9675   18.6194   22.2085 H   0  0  0  0  0  0  0  0  0  0  0  0
   17.1526   19.7706   22.4336 C   0  0  0  0  0  0  0  0  0  0  0  0
   16.5469   20.1918   23.2406 H   0  0  0  0  0  0  0  0  0  0  0  0
   17.4817   20.5889   21.7874 H   0  0  0  0  0  0  0  0  0  0  0  0
   16.2672   18.8544   21.6139 N   0  3  0  0  0  0  0  0  0  0  0  0
   15.9017   18.0760   22.1723 H   0  0  0  0  0  0  0  0  0  0  0  0
   16.7708   18.4459   20.8197 H   0  0  0  0  0  0  0  0  0  0  0  0
   15.4568   19.3520   21.2292 H   0  0  0  0  0  0  0  0  0  0  0  0
  1  2  1  0  0  0  0
  1  3  1  0  0  0  0
  1  4  1  0  0  0  0
  1  5  1  0  0  0  0
  5  6  1  0  0  0  0
  5  7  1  0  0  0  0
  5  8  1  0  0  0  0
  8  9  1  0  0  0  0
  8 10  1  0  0  0  0
  8 11  1  0  0  0  0
 11 12  1  0  0  0  0
 11 13  1  0  0  0  0
 11 14  1  0  0  0  0
 14 15  1  0  0  0  0
 14 16  1  0  0  0  0
 14 17  1  0  0  0  0
 17 18  1  0  0  0  0
 17 19  1  0  0  0  0
 17 20  1  0  0  0  0
 20 21  1  0  0  0  0
 20 22  1  0  0  0  0
 20 23  1  0  0  0  0
 23 24  1  0  0  0  0
 23 25  1  0  0  0  0
 23 26  1  0  0  0  0
M  END
> <VConfSearch Rank>
805

> <Conf_Id>
35

> <Delta U+W>
0.587

> <U+W>
-4.965

> <U>
48.214

> <W>
-53.179

> <W(PB)>
-55.527

> <W(SA)>
2.348

> <Valence>
2.697

> <Coulomb>
44.819

> <VdW>
0.699

> <VdW6>
-6.437

> <VdW12>
7.136

> <Bond>
0.168

> <Angle>
0.657

> <Pdih>
1.872

> <Idih>
0.000

> <Tether>
0.000

$$$$
VeraChem MOL file


 26 25  0  0  0  0  0  0  0  0999 V2000     
   16.2748   18.1185   24.3587 C   0  0  0  0  0  0  0  0  0  0  0  0
   16.5529   17.6313   25.3024 H   0  0  0  0  0  0  0  0  0  0  0  0
   16.2435   19.2025   24.5298 H   0  0  0  0  0  0  0  0  0  0  0  0
   15.2611   17.7895   24.0956 H   0  0  0  0  0  0  0  0  0  0  0  0
   17.2719   17.7625   23.2357 C   0  0  0  0  0  0  0  0  0  0  0  0
   16.9496   18.2365   22.2980 H   0  0  0  0  0  0  0  0  0  0  0  0
   17.2549   16.6770   23.0644 H   0  0  0  0  0  0  0  0  0  0  0  0
   18.7082   18.2143   23.5813 C   0  0  0  0  0  0  0  0  0  0  0  0
   18.7092   19.2976   23.7588 H   0  0  0  0  0  0  0  0  0  0  0  0
   19.0266   17.7363   24.5180 H   0  0  0  0  0  0  0  0  0  0  0  0
   19.7081   17.8613   22.4539 C   0  0  0  0  0  0  0  0  0  0  0  0
   19.4230   18.3816   21.5290 H   0  0  0  0  0  0  0  0  0  0  0  0
   19.6372   16.7864   22.2370 H   0  0  0  0  0  0  0  0  0  0  0  0
   21.1794   18.1941   22.8038 C   0  0  0  0  0  0  0  0  0  0  0  0
   21.4703   17.6601   23.7191 H   0  0  0  0  0  0  0  0  0  0  0  0
   21.8242   17.8062   22.0029 H   0  0  0  0  0  0  0  0  0  0  0  0
   21.4482   19.7077   22.9754 C   0  0  0  0  0  0  0  0  0  0  0  0
   20.8758   20.0996   23.8255 H   0  0  0  0  0  0  0  0  0  0  0  0
   21.1108   20.2471   22.0804 H   0  0  0  0  0  0  0  0  0  0  0  0
   22.9435   19.9878   23.2074 C   0  0  0  0  0  0  0  0  0  0  0  0
   23.2805   19.4657   24.1070 H   0  0  0  0  0  0  0  0  0  0  0  0
   23.5235   19.6182   22.3574 H   0  0  0  0  0  0  0  0  0  0  0  0
   23.2521   21.4613   23.3784 N   0  3  0  0  0  0  0  0  0  0  0  0
   22.7578   21.8648   24.1809 H   0  0  0  0  0  0  0  0  0  0  0  0
   22.9831   22.0064   22.5528 H   0  0  0  0  0  0  0  0  0  0  0  0
   24.2532   21.6254   23.5312 H   0  0  0  0  0  0  0  0  0  0  0  0
  1  2  1  0  0  0  0
  1  3  1  0  0  0  0
  1  4  1  0  0  0  0
  1  5  1  0  0  0  0
  5  6  1  0  0  0  0
  5  7  1  0  0  0  0
  5  8  1  0  0  0  0
  8  9  1  0  0  0  0
  8 10  1  0  0  0  0
  8 11  1  0  0  0  0
 11 12  1  0  0  0  0
 11 13  1  0  0  0  0
 11 14  1  0  0  0  0
 14 15  1  0  0  0  0
 14 16  1  0  0  0  0
 14 17  1  0  0  0  0
 17 18  1  0  0  0  0
 17 19  1  0  0  0  0
 17 20  1  0  0  0  0
 20 21  1  0  0  0  0
 20 22  1  0  0  0  0
 20 23  1  0  0  0  0
 23 24  1  0  0  0  0
 23 25  1  0  0  0  0
 23 26  1  0  0  0  0
M  END
> <VConfSearch Rank>
806

> <Conf_Id>
36

> <Delta U+W>
0.565

> <U+W>
-4.987

> <U>
48.214

> <W>
-53.201

> <W(PB)>
-55.543

> <W(SA)>
2.342

> <Valence>
2.697

> <Coulomb>
44.819

> <VdW>
0.698

> <VdW6>
-6.437

> <VdW12>
7.136

> <Bond>
0.168

> <Angle>
0.657

> <Pdih>
1.872

> <Idih>
0.000

> <Tether>
0.000

$$$$
VeraChem MOL file


 26 25  0  0  0  0  0  0  0  0999 V2000     
   18.8047   15.4921   20.9303 C   0  0  0  0  0  0  0  0  0  0  0  0
   17.9765   15.0785   21.5204 H   0  0  0  0  0  0  0  0  0  0  0  0
   18.5558   15.3696   19.8682 H   0  0  0  0  0  0  0  0  0  0  0  0
   19.7030   14.8957   21.1369 H   0  0  0  0  0  0  0  0  0  0  0  0
   19.0372   16.9802   21.2675 C   0  0  0  0  0  0  0  0  0  0  0  0
   18.1344   17.5556   21.0189 H   0  0  0  0  0  0  0  0  0  0  0  0
   19.8476   17.3742   20.6382 H   0  0  0  0  0  0  0  0  0  0  0  0
   19.3895   17.1808   22.7581 C   0  0  0  0  0  0  0  0  0  0  0  0
   18.5778   16.7827   23.3827 H   0  0  0  0  0  0  0  0  0  0  0  0
   20.2913   16.6022   23.0023 H   0  0  0  0  0  0  0  0  0  0  0  0
   19.6228   18.6698   23.0998 C   0  0  0  0  0  0  0  0  0  0  0  0
   18.7195   19.2467   22.8576 H   0  0  0  0  0  0  0  0  0  0  0  0
   20.4306   19.0622   22.4678 H   0  0  0  0  0  0  0  0  0  0  0  0
   19.9768   18.8673   24.5934 C   0  0  0  0  0  0  0  0  0  0  0  0
   19.1840   18.4269   25.2138 H   0  0  0  0  0  0  0  0  0  0  0  0
   20.8986   18.3186   24.8318 H   0  0  0  0  0  0  0  0  0  0  0  0
   20.1454   20.3539   24.9861 C   0  0  0  0  0  0  0  0  0  0  0  0
   20.3065   20.4199   26.0704 H   0  0  0  0  0  0  0  0  0  0  0  0
   19.2167   20.8997   24.7724 H   0  0  0  0  0  0  0  0  0  0  0  0
   21.3230   21.0313   24.2604 C   0  0  0  0  0  0  0  0  0  0  0  0
   22.2479   20.4887   24.4739 H   0  0  0  0  0  0  0  0  0  0  0  0
   21.1533   21.0118   23.1808 H   0  0  0  0  0  0  0  0  0  0  0  0
   21.5219   22.4754   24.6732 N   0  3  0  0  0  0  0  0  0  0  0  0
   22.3101   22.9079   24.1791 H   0  0  0  0  0  0  0  0  0  0  0  0
   21.7146   22.5629   25.6764 H   0  0  0  0  0  0  0  0  0  0  0  0
   20.6947   23.0473   24.4738 H   0  0  0  0  0  0  0  0  0  0  0  0
  1  2  1  0  0  0  0
  1  3  1  0  0  0  0
  1  4  1  0  0  0  0
  1  5  1  0  0  0  0
  5  6  1  0  0  0  0
  5  7  1  0  0  0  0
  5  8  1  0  0  0  0
  8  9  1  0  0  0  0
  8 10  1  0  0  0  0
  8 11  1  0  0  0  0
 11 12  1  0  0  0  0
 11 13  1  0  0  0  0
 11 14  1  0  0  0  0
 14 15  1  0  0  0  0
 14 16  1  0  0  0  0
 14 17  1  0  0  0  0
 17 18  1  0  0  0  0
 17 19  1  0  0  0  0
 17 20  1  0  0  0  0
 20 21  1  0  0  0  0
 20 22  1  0  0  0  0
 20 23  1  0  0  0  0
 23 24  1  0  0  0  0
 23 25  1  0  0  0  0
 23 26  1  0  0  0  0
M  END
> <VConfSearch Rank>
807

> <Conf_Id>
44

> <Delta U+W>
0.371

> <U+W>
-5.181

> <U>
48.002

> <W>
-53.183

> <W(PB)>
-55.533

> <W(SA)>
2.350

> <Valence>
2.459

> <Coulomb>
44.901

> <VdW>
0.643

> <VdW6>
-6.362

> <VdW12>
7.005

> <Bond>
0.151

> <Angle>
0.519

> <Pdih>
1.789

> <Idih>
0.000

> <Tether>
0.000

$$$$
VeraChem MOL file


 26 25  0  0  0  0  0  0  0  0999 V2000     
   21.3748   15.2697   22.9408 C   0  0  0  0  0  0  0  0  0  0  0  0
   21.2060   15.0325   23.9992 H   0  0  0  0  0  0  0  0  0  0  0  0
   21.5973   14.3304   22.4180 H   0  0  0  0  0  0  0  0  0  0  0  0
   22.2659   15.9052   22.8680 H   0  0  0  0  0  0  0  0  0  0  0  0
   20.1353   15.9531   22.3195 C   0  0  0  0  0  0  0  0  0  0  0  0
   19.3076   15.2304   22.3002 H   0  0  0  0  0  0  0  0  0  0  0  0
   20.3414   16.2118   21.2715 H   0  0  0  0  0  0  0  0  0  0  0  0
   19.6733   17.2142   23.0894 C   0  0  0  0  0  0  0  0  0  0  0  0
   18.7187   17.5418   22.6587 H   0  0  0  0  0  0  0  0  0  0  0  0
   19.4674   16.9497   24.1356 H   0  0  0  0  0  0  0  0  0  0  0  0
   20.6949   18.3787   23.0350 C   0  0  0  0  0  0  0  0  0  0  0  0
   20.8982   18.6462   21.9889 H   0  0  0  0  0  0  0  0  0  0  0  0
   21.6503   18.0443   23.4592 H   0  0  0  0  0  0  0  0  0  0  0  0
   20.2429   19.6385   23.8144 C   0  0  0  0  0  0  0  0  0  0  0  0
   20.0259   19.3679   24.8571 H   0  0  0  0  0  0  0  0  0  0  0  0
   21.0876   20.3392   23.8474 H   0  0  0  0  0  0  0  0  0  0  0  0
   19.0138   20.3475   23.1916 C   0  0  0  0  0  0  0  0  0  0  0  0
   18.1504   19.6711   23.1973 H   0  0  0  0  0  0  0  0  0  0  0  0
   19.2136   20.5942   22.1404 H   0  0  0  0  0  0  0  0  0  0  0  0
   18.6174   21.6272   23.9532 C   0  0  0  0  0  0  0  0  0  0  0  0
   17.6913   22.0272   23.5312 H   0  0  0  0  0  0  0  0  0  0  0  0
   18.4374   21.3889   25.0049 H   0  0  0  0  0  0  0  0  0  0  0  0
   19.6610   22.7254   23.8905 N   0  3  0  0  0  0  0  0  0  0  0  0
   20.5494   22.4296   24.3065 H   0  0  0  0  0  0  0  0  0  0  0  0
   19.3591   23.5665   24.3943 H   0  0  0  0  0  0  0  0  0  0  0  0
   19.8576   23.0091   22.9252 H   0  0  0  0  0  0  0  0  0  0  0  0
  1  2  1  0  0  0  0
  1  3  1  0  0  0  0
  1  4  1  0  0  0  0
  1  5  1  0  0  0  0
  5  6  1  0  0  0  0
  5  7  1  0  0  0  0
  5  8  1  0  0  0  0
  8  9  1  0  0  0  0
  8 10  1  0  0  0  0
  8 11  1  0  0  0  0
 11 12  1  0  0  0  0
 11 13  1  0  0  0  0
 11 14  1  0  0  0  0
 14 15  1  0  0  0  0
 14 16  1  0  0  0  0
 14 17  1  0  0  0  0
 17 18  1  0  0  0  0
 17 19  1  0  0  0  0
 17 20  1  0  0  0  0
 20 21  1  0  0  0  0
 20 22  1  0  0  0  0
 20 23  1  0  0  0  0
 23 24  1  0  0  0  0
 23 25  1  0  0  0  0
 23 26  1  0  0  0  0
M  END
> <VConfSearch Rank>
808

> <Conf_Id>
112

> <Delta U+W>
1.422

> <U+W>
-4.130

> <U>
49.323

> <W>
-53.453

> <W(PB)>
-55.749

> <W(SA)>
2.296

> <Valence>
3.408

> <Coulomb>
44.893

> <VdW>
1.021

> <VdW6>
-7.481

> <VdW12>
8.503

> <Bond>
0.239

> <Angle>
1.013

> <Pdih>
2.156

> <Idih>
0.000

> <Tether>
0.000

$$$$
VeraChem MOL file


 26 25  0  0  0  0  0  0  0  0999 V2000     
   23.6365   18.3729   23.0179 C   0  0  0  0  0  0  0  0  0  0  0  0
   24.6788   18.0372   23.0938 H   0  0  0  0  0  0  0  0  0  0  0  0
   23.1940   17.8801   22.1432 H   0  0  0  0  0  0  0  0  0  0  0  0
   23.6448   19.4554   22.8356 H   0  0  0  0  0  0  0  0  0  0  0  0
   22.8630   18.0332   24.3121 C   0  0  0  0  0  0  0  0  0  0  0  0
   23.4074   18.4505   25.1707 H   0  0  0  0  0  0  0  0  0  0  0  0
   22.8474   16.9441   24.4580 H   0  0  0  0  0  0  0  0  0  0  0  0
   21.4167   18.5842   24.3247 C   0  0  0  0  0  0  0  0  0  0  0  0
   20.9766   18.3872   25.3119 H   0  0  0  0  0  0  0  0  0  0  0  0
   21.4488   19.6755   24.2100 H   0  0  0  0  0  0  0  0  0  0  0  0
   20.5128   17.9588   23.2322 C   0  0  0  0  0  0  0  0  0  0  0  0
   20.5974   16.8645   23.2822 H   0  0  0  0  0  0  0  0  0  0  0  0
   20.8685   18.2518   22.2356 H   0  0  0  0  0  0  0  0  0  0  0  0
   19.0189   18.3419   23.3721 C   0  0  0  0  0  0  0  0  0  0  0  0
   18.4468   17.7606   22.6370 H   0  0  0  0  0  0  0  0  0  0  0  0
   18.6514   18.0356   24.3613 H   0  0  0  0  0  0  0  0  0  0  0  0
   18.7465   19.8522   23.1590 C   0  0  0  0  0  0  0  0  0  0  0  0
   19.1333   20.1706   22.1819 H   0  0  0  0  0  0  0  0  0  0  0  0
   19.2838   20.4370   23.9158 H   0  0  0  0  0  0  0  0  0  0  0  0
   17.2500   20.2059   23.2596 C   0  0  0  0  0  0  0  0  0  0  0  0
   16.8572   19.8734   24.2243 H   0  0  0  0  0  0  0  0  0  0  0  0
   17.1297   21.2910   23.1985 H   0  0  0  0  0  0  0  0  0  0  0  0
   16.4000   19.5883   22.1664 N   0  3  0  0  0  0  0  0  0  0  0  0
   16.4364   18.5646   22.1894 H   0  0  0  0  0  0  0  0  0  0  0  0
   16.7074   19.8819   21.2335 H   0  0  0  0  0  0  0  0  0  0  0  0
   15.4136   19.8556   22.2546 H   0  0  0  0  0  0  0  0  0  0  0  0
  1  2  1  0  0  0  0
  1  3  1  0  0  0  0
  1  4  1  0  0  0  0
  1  5  1  0  0  0  0
  5  6  1  0  0  0  0
  5  7  1  0  0  0  0
  5  8  1  0  0  0  0
  8  9  1  0  0  0  0
  8 10  1  0  0  0  0
  8 11  1  0  0  0  0
 11 12  1  0  0  0  0
 11 13  1  0  0  0  0
 11 14  1  0  0  0  0
 14 15  1  0  0  0  0
 14 16  1  0  0  0  0
 14 17  1  0  0  0  0
 17 18  1  0  0  0  0
 17 19  1  0  0  0  0
 17 20  1  0  0  0  0
 20 21  1  0  0  0  0
 20 22  1  0  0  0  0
 20 23  1  0  0  0  0
 23 24  1  0  0  0  0
 23 25  1  0  0  0  0
 23 26  1  0  0  0  0
M  END
> <VConfSearch Rank>
809

> <Conf_Id>
130

> <Delta U+W>
1.282

> <U+W>
-4.270

> <U>
49.153

> <W>
-53.422

> <W(PB)>
-55.725

> <W(SA)>
2.303

> <Valence>
3.298

> <Coulomb>
44.907

> <VdW>
0.948

> <VdW6>
-7.574

> <VdW12>
8.522

> <Bond>
0.229

> <Angle>
0.912

> <Pdih>
2.157

> <Idih>
0.000

> <Tether>
0.000

$$$$
VeraChem MOL file


 26 25  0  0  0  0  0  0  0  0999 V2000     
   23.2227   19.3950   22.1880 C   0  0  0  0  0  0  0  0  0  0  0  0
   23.3631   20.4789   22.0855 H   0  0  0  0  0  0  0  0  0  0  0  0
   24.1264   18.9015   21.8078 H   0  0  0  0  0  0  0  0  0  0  0  0
   22.3865   19.0937   21.5448 H   0  0  0  0  0  0  0  0  0  0  0  0
   22.9720   19.0045   23.6621 C   0  0  0  0  0  0  0  0  0  0  0  0
   23.8807   19.2155   24.2429 H   0  0  0  0  0  0  0  0  0  0  0  0
   22.8143   17.9204   23.7369 H   0  0  0  0  0  0  0  0  0  0  0  0
   21.7866   19.7656   24.3090 C   0  0  0  0  0  0  0  0  0  0  0  0
   21.6933   19.4500   25.3573 H   0  0  0  0  0  0  0  0  0  0  0  0
   22.0286   20.8369   24.3388 H   0  0  0  0  0  0  0  0  0  0  0  0
   20.4163   19.5866   23.6051 C   0  0  0  0  0  0  0  0  0  0  0  0
   20.4630   19.9945   22.5868 H   0  0  0  0  0  0  0  0  0  0  0  0
   19.6794   20.1985   24.1416 H   0  0  0  0  0  0  0  0  0  0  0  0
   19.9316   18.1153   23.5589 C   0  0  0  0  0  0  0  0  0  0  0  0
   20.6530   17.5081   22.9968 H   0  0  0  0  0  0  0  0  0  0  0  0
   19.9012   17.7021   24.5766 H   0  0  0  0  0  0  0  0  0  0  0  0
   18.5439   17.9544   22.8945 C   0  0  0  0  0  0  0  0  0  0  0  0
   18.3162   16.8841   22.8019 H   0  0  0  0  0  0  0  0  0  0  0  0
   18.5743   18.3587   21.8739 H   0  0  0  0  0  0  0  0  0  0  0  0
   17.4173   18.6394   23.6907 C   0  0  0  0  0  0  0  0  0  0  0  0
   17.3883   18.2375   24.7070 H   0  0  0  0  0  0  0  0  0  0  0  0
   17.6059   19.7143   23.7505 H   0  0  0  0  0  0  0  0  0  0  0  0
   16.0491   18.4422   23.0706 N   0  3  0  0  0  0  0  0  0  0  0  0
   16.0018   18.8238   22.1201 H   0  0  0  0  0  0  0  0  0  0  0  0
   15.3135   18.9054   23.6153 H   0  0  0  0  0  0  0  0  0  0  0  0
   15.7961   17.4505   23.0106 H   0  0  0  0  0  0  0  0  0  0  0  0
  1  2  1  0  0  0  0
  1  3  1  0  0  0  0
  1  4  1  0  0  0  0
  1  5  1  0  0  0  0
  5  6  1  0  0  0  0
  5  7  1  0  0  0  0
  5  8  1  0  0  0  0
  8  9  1  0  0  0  0
  8 10  1  0  0  0  0
  8 11  1  0  0  0  0
 11 12  1  0  0  0  0
 11 13  1  0  0  0  0
 11 14  1  0  0  0  0
 14 15  1  0  0  0  0
 14 16  1  0  0  0  0
 14 17  1  0  0  0  0
 17 18  1  0  0  0  0
 17 19  1  0  0  0  0
 17 20  1  0  0  0  0
 20 21  1  0  0  0  0
 20 22  1  0  0  0  0
 20 23  1  0  0  0  0
 23 24  1  0  0  0  0
 23 25  1  0  0  0  0
 23 26  1  0  0  0  0
M  END
> <VConfSearch Rank>
810

> <Conf_Id>
111

> <Delta U+W>
1.290

> <U+W>
-4.262

> <U>
49.209

> <W>
-53.471

> <W(PB)>
-55.745

> <W(SA)>
2.274

> <Valence>
3.465

> <Coulomb>
44.958

> <VdW>
0.786

> <VdW6>
-7.903

> <VdW12>
8.689

> <Bond>
0.237

> <Angle>
1.212

> <Pdih>
2.015

> <Idih>
0.000

> <Tether>
0.000

$$$$
VeraChem MOL file


 26 25  0  0  0  0  0  0  0  0999 V2000     
   18.0114   18.3557   26.6909 C   0  0  0  0  0  0  0  0  0  0  0  0
   18.5739   19.1360   27.2199 H   0  0  0  0  0  0  0  0  0  0  0  0
   16.9472   18.6243   26.7166 H   0  0  0  0  0  0  0  0  0  0  0  0
   18.1349   17.4164   27.2455 H   0  0  0  0  0  0  0  0  0  0  0  0
   18.5102   18.2006   25.2385 C   0  0  0  0  0  0  0  0  0  0  0  0
   17.9497   17.3944   24.7451 H   0  0  0  0  0  0  0  0  0  0  0  0
   19.5640   17.8925   25.2552 H   0  0  0  0  0  0  0  0  0  0  0  0
   18.3498   19.5144   24.4375 C   0  0  0  0  0  0  0  0  0  0  0  0
   17.3042   19.8457   24.5016 H   0  0  0  0  0  0  0  0  0  0  0  0
   18.9528   20.3071   24.9015 H   0  0  0  0  0  0  0  0  0  0  0  0
   18.7306   19.3799   22.9426 C   0  0  0  0  0  0  0  0  0  0  0  0
   18.4753   20.3196   22.4333 H   0  0  0  0  0  0  0  0  0  0  0  0
   18.1147   18.5990   22.4755 H   0  0  0  0  0  0  0  0  0  0  0  0
   20.2296   19.0727   22.7106 C   0  0  0  0  0  0  0  0  0  0  0  0
   20.8376   19.8241   23.2316 H   0  0  0  0  0  0  0  0  0  0  0  0
   20.4839   18.0968   23.1447 H   0  0  0  0  0  0  0  0  0  0  0  0
   20.5843   19.0615   21.2048 C   0  0  0  0  0  0  0  0  0  0  0  0
   20.3721   20.0430   20.7601 H   0  0  0  0  0  0  0  0  0  0  0  0
   19.9427   18.3370   20.6857 H   0  0  0  0  0  0  0  0  0  0  0  0
   22.0555   18.6859   20.9423 C   0  0  0  0  0  0  0  0  0  0  0  0
   22.2718   17.7113   21.3882 H   0  0  0  0  0  0  0  0  0  0  0  0
   22.2244   18.6128   19.8645 H   0  0  0  0  0  0  0  0  0  0  0  0
   23.0494   19.6878   21.4964 N   0  3  0  0  0  0  0  0  0  0  0  0
   24.0175   19.4154   21.2941 H   0  0  0  0  0  0  0  0  0  0  0  0
   22.9697   19.7788   22.5139 H   0  0  0  0  0  0  0  0  0  0  0  0
   22.9115   20.6217   21.0966 H   0  0  0  0  0  0  0  0  0  0  0  0
  1  2  1  0  0  0  0
  1  3  1  0  0  0  0
  1  4  1  0  0  0  0
  1  5  1  0  0  0  0
  5  6  1  0  0  0  0
  5  7  1  0  0  0  0
  5  8  1  0  0  0  0
  8  9  1  0  0  0  0
  8 10  1  0  0  0  0
  8 11  1  0  0  0  0
 11 12  1  0  0  0  0
 11 13  1  0  0  0  0
 11 14  1  0  0  0  0
 14 15  1  0  0  0  0
 14 16  1  0  0  0  0
 14 17  1  0  0  0  0
 17 18  1  0  0  0  0
 17 19  1  0  0  0  0
 17 20  1  0  0  0  0
 20 21  1  0  0  0  0
 20 22  1  0  0  0  0
 20 23  1  0  0  0  0
 23 24  1  0  0  0  0
 23 25  1  0  0  0  0
 23 26  1  0  0  0  0
M  END
> <VConfSearch Rank>
811

> <Conf_Id>
105

> <Delta U+W>
0.736

> <U+W>
-4.817

> <U>
48.735

> <W>
-53.552

> <W(PB)>
-55.889

> <W(SA)>
2.337

> <Valence>
2.803

> <Coulomb>
45.123

> <VdW>
0.809

> <VdW6>
-6.953

> <VdW12>
7.761

> <Bond>
0.188

> <Angle>
0.699

> <Pdih>
1.917

> <Idih>
0.000

> <Tether>
0.000

$$$$
VeraChem MOL file


 26 25  0  0  0  0  0  0  0  0999 V2000     
   21.6425   18.2392   26.5637 C   0  0  0  0  0  0  0  0  0  0  0  0
   21.0499   18.0556   27.4694 H   0  0  0  0  0  0  0  0  0  0  0  0
   21.9255   17.2680   26.1374 H   0  0  0  0  0  0  0  0  0  0  0  0
   22.5629   18.7572   26.8630 H   0  0  0  0  0  0  0  0  0  0  0  0
   20.8497   19.0829   25.5430 C   0  0  0  0  0  0  0  0  0  0  0  0
   21.4878   19.2788   24.6710 H   0  0  0  0  0  0  0  0  0  0  0  0
   20.6067   20.0586   25.9865 H   0  0  0  0  0  0  0  0  0  0  0  0
   19.5490   18.3711   25.1025 C   0  0  0  0  0  0  0  0  0  0  0  0
   19.7931   17.4147   24.6219 H   0  0  0  0  0  0  0  0  0  0  0  0
   18.9623   18.1165   25.9959 H   0  0  0  0  0  0  0  0  0  0  0  0
   18.6590   19.2267   24.1639 C   0  0  0  0  0  0  0  0  0  0  0  0
   18.3210   20.1176   24.7110 H   0  0  0  0  0  0  0  0  0  0  0  0
   17.7493   18.6582   23.9263 H   0  0  0  0  0  0  0  0  0  0  0  0
   19.3273   19.6808   22.8402 C   0  0  0  0  0  0  0  0  0  0  0  0
   18.5992   20.2856   22.2838 H   0  0  0  0  0  0  0  0  0  0  0  0
   20.1716   20.3491   23.0556 H   0  0  0  0  0  0  0  0  0  0  0  0
   19.8045   18.5047   21.9518 C   0  0  0  0  0  0  0  0  0  0  0  0
   18.9684   17.8223   21.7491 H   0  0  0  0  0  0  0  0  0  0  0  0
   20.5648   17.9214   22.4861 H   0  0  0  0  0  0  0  0  0  0  0  0
   20.4182   18.9770   20.6196 C   0  0  0  0  0  0  0  0  0  0  0  0
   21.2388   19.6717   20.8181 H   0  0  0  0  0  0  0  0  0  0  0  0
   20.8236   18.1154   20.0823 H   0  0  0  0  0  0  0  0  0  0  0  0
   19.4290   19.6664   19.7003 N   0  3  0  0  0  0  0  0  0  0  0  0
   19.0356   20.5096   20.1292 H   0  0  0  0  0  0  0  0  0  0  0  0
   18.6431   19.0539   19.4590 H   0  0  0  0  0  0  0  0  0  0  0  0
   19.8661   19.9544   18.8181 H   0  0  0  0  0  0  0  0  0  0  0  0
  1  2  1  0  0  0  0
  1  3  1  0  0  0  0
  1  4  1  0  0  0  0
  1  5  1  0  0  0  0
  5  6  1  0  0  0  0
  5  7  1  0  0  0  0
  5  8  1  0  0  0  0
  8  9  1  0  0  0  0
  8 10  1  0  0  0  0
  8 11  1  0  0  0  0
 11 12  1  0  0  0  0
 11 13  1  0  0  0  0
 11 14  1  0  0  0  0
 14 15  1  0  0  0  0
 14 16  1  0  0  0  0
 14 17  1  0  0  0  0
 17 18  1  0  0  0  0
 17 19  1  0  0  0  0
 17 20  1  0  0  0  0
 20 21  1  0  0  0  0
 20 22  1  0  0  0  0
 20 23  1  0  0  0  0
 23 24  1  0  0  0  0
 23 25  1  0  0  0  0
 23 26  1  0  0  0  0
M  END
> <VConfSearch Rank>
812

> <Conf_Id>
144

> <Delta U+W>
1.073

> <U+W>
-4.479

> <U>
49.231

> <W>
-53.710

> <W(PB)>
-55.983

> <W(SA)>
2.273

> <Valence>
3.276

> <Coulomb>
45.175

> <VdW>
0.779

> <VdW6>
-7.944

> <VdW12>
8.723

> <Bond>
0.239

> <Angle>
1.155

> <Pdih>
1.883

> <Idih>
0.000

> <Tether>
0.000

$$$$
VeraChem MOL file


 26 25  0  0  0  0  0  0  0  0999 V2000     
   17.5395   20.8846   25.1859 C   0  0  0  0  0  0  0  0  0  0  0  0
   16.7713   20.1500   24.9155 H   0  0  0  0  0  0  0  0  0  0  0  0
   17.2164   21.3706   26.1156 H   0  0  0  0  0  0  0  0  0  0  0  0
   17.5739   21.6517   24.4014 H   0  0  0  0  0  0  0  0  0  0  0  0
   18.9228   20.2214   25.3760 C   0  0  0  0  0  0  0  0  0  0  0  0
   18.8556   19.4349   26.1407 H   0  0  0  0  0  0  0  0  0  0  0  0
   19.6210   20.9733   25.7697 H   0  0  0  0  0  0  0  0  0  0  0  0
   19.5130   19.6351   24.0704 C   0  0  0  0  0  0  0  0  0  0  0  0
   19.5586   20.4199   23.3029 H   0  0  0  0  0  0  0  0  0  0  0  0
   20.5471   19.3336   24.2786 H   0  0  0  0  0  0  0  0  0  0  0  0
   18.7277   18.4136   23.5315 C   0  0  0  0  0  0  0  0  0  0  0  0
   17.6691   18.6792   23.4180 H   0  0  0  0  0  0  0  0  0  0  0  0
   18.7613   17.6038   24.2733 H   0  0  0  0  0  0  0  0  0  0  0  0
   19.2272   17.8801   22.1635 C   0  0  0  0  0  0  0  0  0  0  0  0
   18.5710   17.0478   21.8737 H   0  0  0  0  0  0  0  0  0  0  0  0
   19.0934   18.6472   21.3880 H   0  0  0  0  0  0  0  0  0  0  0  0
   20.6891   17.3662   22.1549 C   0  0  0  0  0  0  0  0  0  0  0  0
   20.7809   16.5858   21.3878 H   0  0  0  0  0  0  0  0  0  0  0  0
   20.9271   16.8875   23.1141 H   0  0  0  0  0  0  0  0  0  0  0  0
   21.7150   18.4715   21.8365 C   0  0  0  0  0  0  0  0  0  0  0  0
   21.4965   18.9013   20.8552 H   0  0  0  0  0  0  0  0  0  0  0  0
   21.6551   19.2700   22.5783 H   0  0  0  0  0  0  0  0  0  0  0  0
   23.1426   17.9650   21.8154 N   0  3  0  0  0  0  0  0  0  0  0  0
   23.2771   17.2314   21.1119 H   0  0  0  0  0  0  0  0  0  0  0  0
   23.4217   17.5705   22.7196 H   0  0  0  0  0  0  0  0  0  0  0  0
   23.8094   18.7134   21.5972 H   0  0  0  0  0  0  0  0  0  0  0  0
  1  2  1  0  0  0  0
  1  3  1  0  0  0  0
  1  4  1  0  0  0  0
  1  5  1  0  0  0  0
  5  6  1  0  0  0  0
  5  7  1  0  0  0  0
  5  8  1  0  0  0  0
  8  9  1  0  0  0  0
  8 10  1  0  0  0  0
  8 11  1  0  0  0  0
 11 12  1  0  0  0  0
 11 13  1  0  0  0  0
 11 14  1  0  0  0  0
 14 15  1  0  0  0  0
 14 16  1  0  0  0  0
 14 17  1  0  0  0  0
 17 18  1  0  0  0  0
 17 19  1  0  0  0  0
 17 20  1  0  0  0  0
 20 21  1  0  0  0  0
 20 22  1  0  0  0  0
 20 23  1  0  0  0  0
 23 24  1  0  0  0  0
 23 25  1  0  0  0  0
 23 26  1  0  0  0  0
M  END
> <VConfSearch Rank>
813

> <Conf_Id>
93

> <Delta U+W>
3.253

> <U+W>
-2.300

> <U>
51.609

> <W>
-53.909

> <W(PB)>
-56.178

> <W(SA)>
2.270

> <Valence>
5.204

> <Coulomb>
45.645

> <VdW>
0.760

> <VdW6>
-7.997

> <VdW12>
8.758

> <Bond>
0.240

> <Angle>
1.456

> <Pdih>
3.507

> <Idih>
0.000

> <Tether>
0.000

$$$$
VeraChem MOL file


 26 25  0  0  0  0  0  0  0  0999 V2000     
   18.9198   16.2898   25.5357 C   0  0  0  0  0  0  0  0  0  0  0  0
   18.7317   15.6669   24.6528 H   0  0  0  0  0  0  0  0  0  0  0  0
   19.9592   16.1338   25.8523 H   0  0  0  0  0  0  0  0  0  0  0  0
   18.2666   15.9261   26.3395 H   0  0  0  0  0  0  0  0  0  0  0  0
   18.6438   17.7838   25.2504 C   0  0  0  0  0  0  0  0  0  0  0  0
   18.7208   18.3411   26.1945 H   0  0  0  0  0  0  0  0  0  0  0  0
   17.6090   17.9105   24.9028 H   0  0  0  0  0  0  0  0  0  0  0  0
   19.6220   18.4095   24.2265 C   0  0  0  0  0  0  0  0  0  0  0  0
   19.4431   19.4919   24.2138 H   0  0  0  0  0  0  0  0  0  0  0  0
   20.6556   18.2617   24.5681 H   0  0  0  0  0  0  0  0  0  0  0  0
   19.4545   17.8512   22.7914 C   0  0  0  0  0  0  0  0  0  0  0  0
   18.4433   18.0804   22.4279 H   0  0  0  0  0  0  0  0  0  0  0  0
   19.5300   16.7567   22.8125 H   0  0  0  0  0  0  0  0  0  0  0  0
   20.4994   18.3743   21.7715 C   0  0  0  0  0  0  0  0  0  0  0  0
   21.5081   18.0536   22.0670 H   0  0  0  0  0  0  0  0  0  0  0  0
   20.3003   17.8792   20.8109 H   0  0  0  0  0  0  0  0  0  0  0  0
   20.4768   19.9059   21.5376 C   0  0  0  0  0  0  0  0  0  0  0  0
   19.4466   20.2819   21.5945 H   0  0  0  0  0  0  0  0  0  0  0  0
   20.8247   20.1088   20.5160 H   0  0  0  0  0  0  0  0  0  0  0  0
   21.3856   20.6785   22.5137 C   0  0  0  0  0  0  0  0  0  0  0  0
   21.0723   20.5021   23.5443 H   0  0  0  0  0  0  0  0  0  0  0  0
   22.4164   20.3301   22.4068 H   0  0  0  0  0  0  0  0  0  0  0  0
   21.3728   22.1745   22.2753 N   0  3  0  0  0  0  0  0  0  0  0  0
   21.6909   22.4133   21.3303 H   0  0  0  0  0  0  0  0  0  0  0  0
   21.9869   22.6703   22.9307 H   0  0  0  0  0  0  0  0  0  0  0  0
   20.4342   22.5715   22.3868 H   0  0  0  0  0  0  0  0  0  0  0  0
  1  2  1  0  0  0  0
  1  3  1  0  0  0  0
  1  4  1  0  0  0  0
  1  5  1  0  0  0  0
  5  6  1  0  0  0  0
  5  7  1  0  0  0  0
  5  8  1  0  0  0  0
  8  9  1  0  0  0  0
  8 10  1  0  0  0  0
  8 11  1  0  0  0  0
 11 12  1  0  0  0  0
 11 13  1  0  0  0  0
 11 14  1  0  0  0  0
 14 15  1  0  0  0  0
 14 16  1  0  0  0  0
 14 17  1  0  0  0  0
 17 18  1  0  0  0  0
 17 19  1  0  0  0  0
 17 20  1  0  0  0  0
 20 21  1  0  0  0  0
 20 22  1  0  0  0  0
 20 23  1  0  0  0  0
 23 24  1  0  0  0  0
 23 25  1  0  0  0  0
 23 26  1  0  0  0  0
M  END
> <VConfSearch Rank>
814

> <Conf_Id>
94

> <Delta U+W>
3.247

> <U+W>
-2.305

> <U>
51.609

> <W>
-53.914

> <W(PB)>
-56.221

> <W(SA)>
2.307

> <Valence>
5.204

> <Coulomb>
45.645

> <VdW>
0.760

> <VdW6>
-7.997

> <VdW12>
8.757

> <Bond>
0.240

> <Angle>
1.456

> <Pdih>
3.508

> <Idih>
0.000

> <Tether>
0.000

$$$$
VeraChem MOL file


 26 25  0  0  0  0  0  0  0  0999 V2000     
   22.2952   20.6868   20.2808 C   0  0  0  0  0  0  0  0  0  0  0  0
   22.8761   19.8460   19.8797 H   0  0  0  0  0  0  0  0  0  0  0  0
   21.4108   20.8254   19.6452 H   0  0  0  0  0  0  0  0  0  0  0  0
   22.9124   21.5911   20.2013 H   0  0  0  0  0  0  0  0  0  0  0  0
   21.8894   20.4310   21.7478 C   0  0  0  0  0  0  0  0  0  0  0  0
   21.3400   21.3023   22.1312 H   0  0  0  0  0  0  0  0  0  0  0  0
   22.7939   20.3303   22.3639 H   0  0  0  0  0  0  0  0  0  0  0  0
   21.0191   19.1624   21.8878 C   0  0  0  0  0  0  0  0  0  0  0  0
   20.1174   19.2669   21.2686 H   0  0  0  0  0  0  0  0  0  0  0  0
   21.5717   18.2951   21.5006 H   0  0  0  0  0  0  0  0  0  0  0  0
   20.6112   18.9028   23.3556 C   0  0  0  0  0  0  0  0  0  0  0  0
   20.0665   19.7763   23.7378 H   0  0  0  0  0  0  0  0  0  0  0  0
   21.5139   18.7950   23.9728 H   0  0  0  0  0  0  0  0  0  0  0  0
   19.7378   17.6326   23.4925 C   0  0  0  0  0  0  0  0  0  0  0  0
   18.8222   17.7453   22.8967 H   0  0  0  0  0  0  0  0  0  0  0  0
   20.2773   16.7769   23.0634 H   0  0  0  0  0  0  0  0  0  0  0  0
   19.3737   17.2985   24.9609 C   0  0  0  0  0  0  0  0  0  0  0  0
   20.2943   17.1019   25.5262 H   0  0  0  0  0  0  0  0  0  0  0  0
   18.7933   16.3667   24.9879 H   0  0  0  0  0  0  0  0  0  0  0  0
   18.5797   18.4083   25.6797 C   0  0  0  0  0  0  0  0  0  0  0  0
   18.3874   18.1058   26.7127 H   0  0  0  0  0  0  0  0  0  0  0  0
   19.1671   19.3297   25.7001 H   0  0  0  0  0  0  0  0  0  0  0  0
   17.2438   18.7165   25.0329 N   0  3  0  0  0  0  0  0  0  0  0  0
   16.6334   17.8932   25.0100 H   0  0  0  0  0  0  0  0  0  0  0  0
   17.3576   19.0370   24.0663 H   0  0  0  0  0  0  0  0  0  0  0  0
   16.7367   19.4519   25.5372 H   0  0  0  0  0  0  0  0  0  0  0  0
  1  2  1  0  0  0  0
  1  3  1  0  0  0  0
  1  4  1  0  0  0  0
  1  5  1  0  0  0  0
  5  6  1  0  0  0  0
  5  7  1  0  0  0  0
  5  8  1  0  0  0  0
  8  9  1  0  0  0  0
  8 10  1  0  0  0  0
  8 11  1  0  0  0  0
 11 12  1  0  0  0  0
 11 13  1  0  0  0  0
 11 14  1  0  0  0  0
 14 15  1  0  0  0  0
 14 16  1  0  0  0  0
 14 17  1  0  0  0  0
 17 18  1  0  0  0  0
 17 19  1  0  0  0  0
 17 20  1  0  0  0  0
 20 21  1  0  0  0  0
 20 22  1  0  0  0  0
 20 23  1  0  0  0  0
 23 24  1  0  0  0  0
 23 25  1  0  0  0  0
 23 26  1  0  0  0  0
M  END
> <VConfSearch Rank>
815

> <Conf_Id>
83

> <Delta U+W>
0.559

> <U+W>
-4.994

> <U>
48.668

> <W>
-53.661

> <W(PB)>
-55.972

> <W(SA)>
2.311

> <Valence>
2.543

> <Coulomb>
45.478

> <VdW>
0.646

> <VdW6>
-7.096

> <VdW12>
7.742

> <Bond>
0.176

> <Angle>
0.630

> <Pdih>
1.738

> <Idih>
0.000

> <Tether>
0.000

$$$$
VeraChem MOL file


 26 25  0  0  0  0  0  0  0  0999 V2000     
   18.8046   19.6352   19.6025 C   0  0  0  0  0  0  0  0  0  0  0  0
   19.5265   20.0120   18.8662 H   0  0  0  0  0  0  0  0  0  0  0  0
   18.5807   18.5888   19.3574 H   0  0  0  0  0  0  0  0  0  0  0  0
   17.8780   20.2131   19.4917 H   0  0  0  0  0  0  0  0  0  0  0  0
   19.3577   19.7622   21.0379 C   0  0  0  0  0  0  0  0  0  0  0  0
   18.5934   19.4148   21.7455 H   0  0  0  0  0  0  0  0  0  0  0  0
   19.5441   20.8214   21.2638 H   0  0  0  0  0  0  0  0  0  0  0  0
   20.6628   18.9516   21.2196 C   0  0  0  0  0  0  0  0  0  0  0  0
   20.4636   17.8850   21.0465 H   0  0  0  0  0  0  0  0  0  0  0  0
   21.3835   19.2591   20.4492 H   0  0  0  0  0  0  0  0  0  0  0  0
   21.3213   19.1381   22.6087 C   0  0  0  0  0  0  0  0  0  0  0  0
   21.5334   20.2034   22.7749 H   0  0  0  0  0  0  0  0  0  0  0  0
   22.2943   18.6275   22.6024 H   0  0  0  0  0  0  0  0  0  0  0  0
   20.4696   18.5862   23.7772 C   0  0  0  0  0  0  0  0  0  0  0  0
   19.5237   19.1385   23.8381 H   0  0  0  0  0  0  0  0  0  0  0  0
   20.2158   17.5351   23.5817 H   0  0  0  0  0  0  0  0  0  0  0  0
   21.2157   18.6925   25.1284 C   0  0  0  0  0  0  0  0  0  0  0  0
   21.4504   19.7427   25.3471 H   0  0  0  0  0  0  0  0  0  0  0  0
   22.1763   18.1653   25.0563 H   0  0  0  0  0  0  0  0  0  0  0  0
   20.4164   18.0890   26.2995 C   0  0  0  0  0  0  0  0  0  0  0  0
   20.1743   17.0455   26.0810 H   0  0  0  0  0  0  0  0  0  0  0  0
   21.0270   18.1146   27.2062 H   0  0  0  0  0  0  0  0  0  0  0  0
   19.1220   18.8203   26.5969 N   0  3  0  0  0  0  0  0  0  0  0  0
   18.4828   18.8019   25.7963 H   0  0  0  0  0  0  0  0  0  0  0  0
   19.2861   19.8046   26.8320 H   0  0  0  0  0  0  0  0  0  0  0  0
   18.6224   18.4025   27.3895 H   0  0  0  0  0  0  0  0  0  0  0  0
  1  2  1  0  0  0  0
  1  3  1  0  0  0  0
  1  4  1  0  0  0  0
  1  5  1  0  0  0  0
  5  6  1  0  0  0  0
  5  7  1  0  0  0  0
  5  8  1  0  0  0  0
  8  9  1  0  0  0  0
  8 10  1  0  0  0  0
  8 11  1  0  0  0  0
 11 12  1  0  0  0  0
 11 13  1  0  0  0  0
 11 14  1  0  0  0  0
 14 15  1  0  0  0  0
 14 16  1  0  0  0  0
 14 17  1  0  0  0  0
 17 18  1  0  0  0  0
 17 19  1  0  0  0  0
 17 20  1  0  0  0  0
 20 21  1  0  0  0  0
 20 22  1  0  0  0  0
 20 23  1  0  0  0  0
 23 24  1  0  0  0  0
 23 25  1  0  0  0  0
 23 26  1  0  0  0  0
M  END
> <VConfSearch Rank>
816

> <Conf_Id>
18

> <Delta U+W>
0.759

> <U+W>
-4.793

> <U>
48.945

> <W>
-53.738

> <W(PB)>
-56.051

> <W(SA)>
2.313

> <Valence>
2.802

> <Coulomb>
45.335

> <VdW>
0.807

> <VdW6>
-6.962

> <VdW12>
7.769

> <Bond>
0.189

> <Angle>
0.696

> <Pdih>
1.917

> <Idih>
0.000

> <Tether>
0.000

$$$$
VeraChem MOL file


 26 25  0  0  0  0  0  0  0  0999 V2000     
   18.0696   15.8640   21.5529 C   0  0  0  0  0  0  0  0  0  0  0  0
   17.8733   16.3634   20.5952 H   0  0  0  0  0  0  0  0  0  0  0  0
   18.6455   14.9514   21.3510 H   0  0  0  0  0  0  0  0  0  0  0  0
   17.1041   15.5648   21.9812 H   0  0  0  0  0  0  0  0  0  0  0  0
   18.8288   16.7975   22.5196 C   0  0  0  0  0  0  0  0  0  0  0  0
   18.9844   16.2813   23.4772 H   0  0  0  0  0  0  0  0  0  0  0  0
   18.2047   17.6763   22.7287 H   0  0  0  0  0  0  0  0  0  0  0  0
   20.1922   17.2363   21.9349 C   0  0  0  0  0  0  0  0  0  0  0  0
   20.7659   16.3411   21.6578 H   0  0  0  0  0  0  0  0  0  0  0  0
   20.0326   17.7996   21.0051 H   0  0  0  0  0  0  0  0  0  0  0  0
   21.0447   18.0808   22.9138 C   0  0  0  0  0  0  0  0  0  0  0  0
   22.0337   18.2411   22.4626 H   0  0  0  0  0  0  0  0  0  0  0  0
   21.2162   17.5110   23.8375 H   0  0  0  0  0  0  0  0  0  0  0  0
   20.4177   19.4540   23.2554 C   0  0  0  0  0  0  0  0  0  0  0  0
   20.1997   19.9990   22.3264 H   0  0  0  0  0  0  0  0  0  0  0  0
   19.4614   19.3052   23.7719 H   0  0  0  0  0  0  0  0  0  0  0  0
   21.3555   20.3056   24.1435 C   0  0  0  0  0  0  0  0  0  0  0  0
   22.3232   20.4278   23.6389 H   0  0  0  0  0  0  0  0  0  0  0  0
   21.5582   19.7819   25.0872 H   0  0  0  0  0  0  0  0  0  0  0  0
   20.7836   21.7047   24.4439 C   0  0  0  0  0  0  0  0  0  0  0  0
   21.5241   22.2874   24.9986 H   0  0  0  0  0  0  0  0  0  0  0  0
   20.5732   22.2255   23.5059 H   0  0  0  0  0  0  0  0  0  0  0  0
   19.5093   21.6805   25.2651 N   0  3  0  0  0  0  0  0  0  0  0  0
   19.6489   21.2215   26.1711 H   0  0  0  0  0  0  0  0  0  0  0  0
   18.7566   21.1792   24.7836 H   0  0  0  0  0  0  0  0  0  0  0  0
   19.1637   22.6267   25.4589 H   0  0  0  0  0  0  0  0  0  0  0  0
  1  2  1  0  0  0  0
  1  3  1  0  0  0  0
  1  4  1  0  0  0  0
  1  5  1  0  0  0  0
  5  6  1  0  0  0  0
  5  7  1  0  0  0  0
  5  8  1  0  0  0  0
  8  9  1  0  0  0  0
  8 10  1  0  0  0  0
  8 11  1  0  0  0  0
 11 12  1  0  0  0  0
 11 13  1  0  0  0  0
 11 14  1  0  0  0  0
 14 15  1  0  0  0  0
 14 16  1  0  0  0  0
 14 17  1  0  0  0  0
 17 18  1  0  0  0  0
 17 19  1  0  0  0  0
 17 20  1  0  0  0  0
 20 21  1  0  0  0  0
 20 22  1  0  0  0  0
 20 23  1  0  0  0  0
 23 24  1  0  0  0  0
 23 25  1  0  0  0  0
 23 26  1  0  0  0  0
M  END
> <VConfSearch Rank>
817

> <Conf_Id>
17

> <Delta U+W>
0.843

> <U+W>
-4.709

> <U>
48.945

> <W>
-53.653

> <W(PB)>
-55.991

> <W(SA)>
2.338

> <Valence>
2.802

> <Coulomb>
45.335

> <VdW>
0.807

> <VdW6>
-6.962

> <VdW12>
7.769

> <Bond>
0.189

> <Angle>
0.696

> <Pdih>
1.917

> <Idih>
0.000

> <Tether>
0.000

$$$$
VeraChem MOL file


 26 25  0  0  0  0  0  0  0  0999 V2000     
   18.6784   21.9567   22.3302 C   0  0  0  0  0  0  0  0  0  0  0  0
   19.7488   21.7917   22.5052 H   0  0  0  0  0  0  0  0  0  0  0  0
   18.4375   21.6108   21.3167 H   0  0  0  0  0  0  0  0  0  0  0  0
   18.5019   23.0395   22.3661 H   0  0  0  0  0  0  0  0  0  0  0  0
   17.8119   21.2325   23.3854 C   0  0  0  0  0  0  0  0  0  0  0  0
   16.7626   21.5272   23.2441 H   0  0  0  0  0  0  0  0  0  0  0  0
   18.0937   21.5726   24.3917 H   0  0  0  0  0  0  0  0  0  0  0  0
   17.9086   19.6896   23.3081 C   0  0  0  0  0  0  0  0  0  0  0  0
   17.1819   19.2596   24.0111 H   0  0  0  0  0  0  0  0  0  0  0  0
   17.6064   19.3529   22.3068 H   0  0  0  0  0  0  0  0  0  0  0  0
   19.3178   19.1424   23.6394 C   0  0  0  0  0  0  0  0  0  0  0  0
   19.6363   19.5216   24.6202 H   0  0  0  0  0  0  0  0  0  0  0  0
   20.0393   19.5160   22.9021 H   0  0  0  0  0  0  0  0  0  0  0  0
   19.3425   17.5950   23.6510 C   0  0  0  0  0  0  0  0  0  0  0  0
   18.5882   17.2265   24.3600 H   0  0  0  0  0  0  0  0  0  0  0  0
   19.0527   17.2123   22.6624 H   0  0  0  0  0  0  0  0  0  0  0  0
   20.7198   17.0123   24.0463 C   0  0  0  0  0  0  0  0  0  0  0  0
   20.6363   15.9198   24.1204 H   0  0  0  0  0  0  0  0  0  0  0  0
   21.0012   17.3745   25.0441 H   0  0  0  0  0  0  0  0  0  0  0  0
   21.8277   17.3646   23.0359 C   0  0  0  0  0  0  0  0  0  0  0  0
   21.5480   17.0035   22.0425 H   0  0  0  0  0  0  0  0  0  0  0  0
   21.9522   18.4493   22.9858 H   0  0  0  0  0  0  0  0  0  0  0  0
   23.1698   16.7591   23.3929 N   0  3  0  0  0  0  0  0  0  0  0  0
   23.8932   17.0051   22.7084 H   0  0  0  0  0  0  0  0  0  0  0  0
   23.1295   15.7352   23.4293 H   0  0  0  0  0  0  0  0  0  0  0  0
   23.5029   17.0806   24.3077 H   0  0  0  0  0  0  0  0  0  0  0  0
  1  2  1  0  0  0  0
  1  3  1  0  0  0  0
  1  4  1  0  0  0  0
  1  5  1  0  0  0  0
  5  6  1  0  0  0  0
  5  7  1  0  0  0  0
  5  8  1  0  0  0  0
  8  9  1  0  0  0  0
  8 10  1  0  0  0  0
  8 11  1  0  0  0  0
 11 12  1  0  0  0  0
 11 13  1  0  0  0  0
 11 14  1  0  0  0  0
 14 15  1  0  0  0  0
 14 16  1  0  0  0  0
 14 17  1  0  0  0  0
 17 18  1  0  0  0  0
 17 19  1  0  0  0  0
 17 20  1  0  0  0  0
 20 21  1  0  0  0  0
 20 22  1  0  0  0  0
 20 23  1  0  0  0  0
 23 24  1  0  0  0  0
 23 25  1  0  0  0  0
 23 26  1  0  0  0  0
M  END
> <VConfSearch Rank>
818

> <Conf_Id>
96

> <Delta U+W>
0.912

> <U+W>
-4.640

> <U>
48.723

> <W>
-53.364

> <W(PB)>
-55.683

> <W(SA)>
2.320

> <Valence>
2.962

> <Coulomb>
44.993

> <VdW>
0.768

> <VdW6>
-7.008

> <VdW12>
7.776

> <Bond>
0.188

> <Angle>
0.757

> <Pdih>
2.018

> <Idih>
0.000

> <Tether>
0.000

$$$$
VeraChem MOL file


 26 25  0  0  0  0  0  0  0  0999 V2000     
   23.2241   20.1347   22.4412 C   0  0  0  0  0  0  0  0  0  0  0  0
   24.1505   20.2134   21.8575 H   0  0  0  0  0  0  0  0  0  0  0  0
   23.4095   20.5810   23.4268 H   0  0  0  0  0  0  0  0  0  0  0  0
   23.0125   19.0674   22.5806 H   0  0  0  0  0  0  0  0  0  0  0  0
   22.0647   20.8537   21.7147 C   0  0  0  0  0  0  0  0  0  0  0  0
   21.8784   20.3691   20.7460 H   0  0  0  0  0  0  0  0  0  0  0  0
   22.3737   21.8838   21.4885 H   0  0  0  0  0  0  0  0  0  0  0  0
   20.7550   20.8980   22.5384 C   0  0  0  0  0  0  0  0  0  0  0  0
   20.9416   21.4013   23.4972 H   0  0  0  0  0  0  0  0  0  0  0  0
   20.0261   21.5193   22.0000 H   0  0  0  0  0  0  0  0  0  0  0  0
   20.1390   19.5014   22.7933 C   0  0  0  0  0  0  0  0  0  0  0  0
   20.8351   18.8959   23.3870 H   0  0  0  0  0  0  0  0  0  0  0  0
   19.9997   18.9825   21.8350 H   0  0  0  0  0  0  0  0  0  0  0  0
   18.7810   19.6008   23.5291 C   0  0  0  0  0  0  0  0  0  0  0  0
   18.9215   20.0933   24.5014 H   0  0  0  0  0  0  0  0  0  0  0  0
   18.1025   20.2431   22.9508 H   0  0  0  0  0  0  0  0  0  0  0  0
   18.1023   18.2269   23.7400 C   0  0  0  0  0  0  0  0  0  0  0  0
   17.9393   17.7427   22.7679 H   0  0  0  0  0  0  0  0  0  0  0  0
   17.1099   18.3842   24.1832 H   0  0  0  0  0  0  0  0  0  0  0  0
   18.9187   17.2933   24.6533 C   0  0  0  0  0  0  0  0  0  0  0  0
   19.8933   17.0921   24.2012 H   0  0  0  0  0  0  0  0  0  0  0  0
   19.0806   17.7750   25.6214 H   0  0  0  0  0  0  0  0  0  0  0  0
   18.2381   15.9626   24.9009 N   0  3  0  0  0  0  0  0  0  0  0  0
   18.0807   15.4458   24.0295 H   0  0  0  0  0  0  0  0  0  0  0  0
   17.3247   16.0787   25.3521 H   0  0  0  0  0  0  0  0  0  0  0  0
   18.7972   15.3562   25.5109 H   0  0  0  0  0  0  0  0  0  0  0  0
  1  2  1  0  0  0  0
  1  3  1  0  0  0  0
  1  4  1  0  0  0  0
  1  5  1  0  0  0  0
  5  6  1  0  0  0  0
  5  7  1  0  0  0  0
  5  8  1  0  0  0  0
  8  9  1  0  0  0  0
  8 10  1  0  0  0  0
  8 11  1  0  0  0  0
 11 12  1  0  0  0  0
 11 13  1  0  0  0  0
 11 14  1  0  0  0  0
 14 15  1  0  0  0  0
 14 16  1  0  0  0  0
 14 17  1  0  0  0  0
 17 18  1  0  0  0  0
 17 19  1  0  0  0  0
 17 20  1  0  0  0  0
 20 21  1  0  0  0  0
 20 22  1  0  0  0  0
 20 23  1  0  0  0  0
 23 24  1  0  0  0  0
 23 25  1  0  0  0  0
 23 26  1  0  0  0  0
M  END
> <VConfSearch Rank>
819

> <Conf_Id>
133

> <Delta U+W>
0.844

> <U+W>
-4.708

> <U>
48.723

> <W>
-53.431

> <W(PB)>
-55.776

> <W(SA)>
2.344

> <Valence>
2.962

> <Coulomb>
44.993

> <VdW>
0.768

> <VdW6>
-7.008

> <VdW12>
7.776

> <Bond>
0.188

> <Angle>
0.756

> <Pdih>
2.018

> <Idih>
0.000

> <Tether>
0.000

$$$$
VeraChem MOL file


 26 25  0  0  0  0  0  0  0  0999 V2000     
   22.6750   18.5125   25.2480 C   0  0  0  0  0  0  0  0  0  0  0  0
   23.1810   19.4186   25.6057 H   0  0  0  0  0  0  0  0  0  0  0  0
   21.6259   18.5556   25.5663 H   0  0  0  0  0  0  0  0  0  0  0  0
   23.1365   17.6505   25.7467 H   0  0  0  0  0  0  0  0  0  0  0  0
   22.7956   18.3785   23.7131 C   0  0  0  0  0  0  0  0  0  0  0  0
   22.2657   17.4772   23.3769 H   0  0  0  0  0  0  0  0  0  0  0  0
   23.8517   18.2196   23.4540 H   0  0  0  0  0  0  0  0  0  0  0  0
   22.2810   19.6216   22.9433 C   0  0  0  0  0  0  0  0  0  0  0  0
   22.9077   20.4852   23.2052 H   0  0  0  0  0  0  0  0  0  0  0  0
   22.4301   19.4578   21.8671 H   0  0  0  0  0  0  0  0  0  0  0  0
   20.7962   19.9903   23.1959 C   0  0  0  0  0  0  0  0  0  0  0  0
   20.5610   20.8917   22.6133 H   0  0  0  0  0  0  0  0  0  0  0  0
   20.6530   20.2662   24.2491 H   0  0  0  0  0  0  0  0  0  0  0  0
   19.8049   18.8670   22.8086 C   0  0  0  0  0  0  0  0  0  0  0  0
   19.9822   18.5631   21.7675 H   0  0  0  0  0  0  0  0  0  0  0  0
   19.9797   17.9817   23.4343 H   0  0  0  0  0  0  0  0  0  0  0  0
   18.3362   19.3166   22.9711 C   0  0  0  0  0  0  0  0  0  0  0  0
   18.1460   20.1956   22.3409 H   0  0  0  0  0  0  0  0  0  0  0  0
   18.1557   19.6201   24.0110 H   0  0  0  0  0  0  0  0  0  0  0  0
   17.3577   18.1921   22.5890 C   0  0  0  0  0  0  0  0  0  0  0  0
   17.5233   17.8978   21.5491 H   0  0  0  0  0  0  0  0  0  0  0  0
   17.5321   17.3202   23.2253 H   0  0  0  0  0  0  0  0  0  0  0  0
   15.9045   18.5947   22.7354 N   0  3  0  0  0  0  0  0  0  0  0  0
   15.2698   17.8317   22.4758 H   0  0  0  0  0  0  0  0  0  0  0  0
   15.6678   19.3951   22.1400 H   0  0  0  0  0  0  0  0  0  0  0  0
   15.6761   18.8578   23.6997 H   0  0  0  0  0  0  0  0  0  0  0  0
  1  2  1  0  0  0  0
  1  3  1  0  0  0  0
  1  4  1  0  0  0  0
  1  5  1  0  0  0  0
  5  6  1  0  0  0  0
  5  7  1  0  0  0  0
  5  8  1  0  0  0  0
  8  9  1  0  0  0  0
  8 10  1  0  0  0  0
  8 11  1  0  0  0  0
 11 12  1  0  0  0  0
 11 13  1  0  0  0  0
 11 14  1  0  0  0  0
 14 15  1  0  0  0  0
 14 16  1  0  0  0  0
 14 17  1  0  0  0  0
 17 18  1  0  0  0  0
 17 19  1  0  0  0  0
 17 20  1  0  0  0  0
 20 21  1  0  0  0  0
 20 22  1  0  0  0  0
 20 23  1  0  0  0  0
 23 24  1  0  0  0  0
 23 25  1  0  0  0  0
 23 26  1  0  0  0  0
M  END
> <VConfSearch Rank>
820

> <Conf_Id>
106

> <Delta U+W>
0.767

> <U+W>
-4.785

> <U>
48.494

> <W>
-53.279

> <W(PB)>
-55.569

> <W(SA)>
2.290

> <Valence>
3.117

> <Coulomb>
44.693

> <VdW>
0.684

> <VdW6>
-7.347

> <VdW12>
8.030

> <Bond>
0.208

> <Angle>
1.039

> <Pdih>
1.870

> <Idih>
0.000

> <Tether>
0.000

$$$$
VeraChem MOL file


 26 25  0  0  0  0  0  0  0  0999 V2000     
   21.0888   18.2048   27.5948 C   0  0  0  0  0  0  0  0  0  0  0  0
   21.6819   17.3019   27.3994 H   0  0  0  0  0  0  0  0  0  0  0  0
   21.7773   19.0566   27.6700 H   0  0  0  0  0  0  0  0  0  0  0  0
   20.5980   18.0813   28.5689 H   0  0  0  0  0  0  0  0  0  0  0  0
   20.0431   18.4332   26.4828 C   0  0  0  0  0  0  0  0  0  0  0  0
   19.4439   19.3227   26.7230 H   0  0  0  0  0  0  0  0  0  0  0  0
   19.3490   17.5815   26.4546 H   0  0  0  0  0  0  0  0  0  0  0  0
   20.7081   18.6102   25.0998 C   0  0  0  0  0  0  0  0  0  0  0  0
   21.4027   19.4610   25.1336 H   0  0  0  0  0  0  0  0  0  0  0  0
   21.3076   17.7197   24.8651 H   0  0  0  0  0  0  0  0  0  0  0  0
   19.6641   18.8393   23.9835 C   0  0  0  0  0  0  0  0  0  0  0  0
   19.0649   19.7298   24.2191 H   0  0  0  0  0  0  0  0  0  0  0  0
   18.9697   17.9883   23.9507 H   0  0  0  0  0  0  0  0  0  0  0  0
   20.3299   19.0162   22.6001 C   0  0  0  0  0  0  0  0  0  0  0  0
   21.0245   19.8672   22.6325 H   0  0  0  0  0  0  0  0  0  0  0  0
   20.9292   18.1257   22.3640 H   0  0  0  0  0  0  0  0  0  0  0  0
   19.2871   19.2453   21.4839 C   0  0  0  0  0  0  0  0  0  0  0  0
   18.6895   20.1376   21.7134 H   0  0  0  0  0  0  0  0  0  0  0  0
   18.5940   18.3943   21.4449 H   0  0  0  0  0  0  0  0  0  0  0  0
   19.9606   19.4198   20.1114 C   0  0  0  0  0  0  0  0  0  0  0  0
   20.6395   20.2764   20.1406 H   0  0  0  0  0  0  0  0  0  0  0  0
   20.5438   18.5266   19.8712 H   0  0  0  0  0  0  0  0  0  0  0  0
   18.9693   19.6470   18.9884 N   0  3  0  0  0  0  0  0  0  0  0  0
   19.4385   19.7607   18.0832 H   0  0  0  0  0  0  0  0  0  0  0  0
   18.4061   20.4902   19.1404 H   0  0  0  0  0  0  0  0  0  0  0  0
   18.3170   18.8621   18.8896 H   0  0  0  0  0  0  0  0  0  0  0  0
  1  2  1  0  0  0  0
  1  3  1  0  0  0  0
  1  4  1  0  0  0  0
  1  5  1  0  0  0  0
  5  6  1  0  0  0  0
  5  7  1  0  0  0  0
  5  8  1  0  0  0  0
  8  9  1  0  0  0  0
  8 10  1  0  0  0  0
  8 11  1  0  0  0  0
 11 12  1  0  0  0  0
 11 13  1  0  0  0  0
 11 14  1  0  0  0  0
 14 15  1  0  0  0  0
 14 16  1  0  0  0  0
 14 17  1  0  0  0  0
 17 18  1  0  0  0  0
 17 19  1  0  0  0  0
 17 20  1  0  0  0  0
 20 21  1  0  0  0  0
 20 22  1  0  0  0  0
 20 23  1  0  0  0  0
 23 24  1  0  0  0  0
 23 25  1  0  0  0  0
 23 26  1  0  0  0  0
M  END
> <VConfSearch Rank>
821

> <Conf_Id>
25

> <Delta U+W>
0.000

> <U+W>
-5.552

> <U>
47.192

> <W>
-52.745

> <W(PB)>
-55.134

> <W(SA)>
2.389

> <Valence>
2.156

> <Coulomb>
44.449

> <VdW>
0.587

> <VdW6>
-5.761

> <VdW12>
6.348

> <Bond>
0.129

> <Angle>
0.393

> <Pdih>
1.634

> <Idih>
0.000

> <Tether>
0.000

$$$$
VeraChem MOL file


 26 25  0  0  0  0  0  0  0  0999 V2000     
   21.5003   23.0328   23.6481 C   0  0  0  0  0  0  0  0  0  0  0  0
   22.1540   22.8230   24.5048 H   0  0  0  0  0  0  0  0  0  0  0  0
   22.0964   22.9359   22.7313 H   0  0  0  0  0  0  0  0  0  0  0  0
   21.1680   24.0762   23.7254 H   0  0  0  0  0  0  0  0  0  0  0  0
   20.2897   22.0756   23.6265 C   0  0  0  0  0  0  0  0  0  0  0  0
   19.6377   22.3315   22.7795 H   0  0  0  0  0  0  0  0  0  0  0  0
   19.6948   22.2195   24.5393 H   0  0  0  0  0  0  0  0  0  0  0  0
   20.7299   20.5988   23.5182 C   0  0  0  0  0  0  0  0  0  0  0  0
   21.3261   20.4605   22.6056 H   0  0  0  0  0  0  0  0  0  0  0  0
   21.3831   20.3483   24.3655 H   0  0  0  0  0  0  0  0  0  0  0  0
   19.5202   19.6372   23.4961 C   0  0  0  0  0  0  0  0  0  0  0  0
   18.8676   19.8882   22.6485 H   0  0  0  0  0  0  0  0  0  0  0  0
   18.9242   19.7772   24.4086 H   0  0  0  0  0  0  0  0  0  0  0  0
   19.9609   18.1598   23.3884 C   0  0  0  0  0  0  0  0  0  0  0  0
   20.5601   18.0268   22.4777 H   0  0  0  0  0  0  0  0  0  0  0  0
   20.6112   17.9081   24.2378 H   0  0  0  0  0  0  0  0  0  0  0  0
   18.7486   17.1991   23.3656 C   0  0  0  0  0  0  0  0  0  0  0  0
   18.1078   17.4217   22.5020 H   0  0  0  0  0  0  0  0  0  0  0  0
   18.1359   17.3654   24.2616 H   0  0  0  0  0  0  0  0  0  0  0  0
   19.1649   15.7159   23.3283 C   0  0  0  0  0  0  0  0  0  0  0  0
   19.8081   15.4925   24.1838 H   0  0  0  0  0  0  0  0  0  0  0  0
   18.2731   15.0871   23.3989 H   0  0  0  0  0  0  0  0  0  0  0  0
   19.9065   15.3215   22.0662 N   0  3  0  0  0  0  0  0  0  0  0  0
   20.7773   15.8503   21.9564 H   0  0  0  0  0  0  0  0  0  0  0  0
   19.3430   15.4871   21.2259 H   0  0  0  0  0  0  0  0  0  0  0  0
   20.1575   14.3269   22.0672 H   0  0  0  0  0  0  0  0  0  0  0  0
  1  2  1  0  0  0  0
  1  3  1  0  0  0  0
  1  4  1  0  0  0  0
  1  5  1  0  0  0  0
  5  6  1  0  0  0  0
  5  7  1  0  0  0  0
  5  8  1  0  0  0  0
  8  9  1  0  0  0  0
  8 10  1  0  0  0  0
  8 11  1  0  0  0  0
 11 12  1  0  0  0  0
 11 13  1  0  0  0  0
 11 14  1  0  0  0  0
 14 15  1  0  0  0  0
 14 16  1  0  0  0  0
 14 17  1  0  0  0  0
 17 18  1  0  0  0  0
 17 19  1  0  0  0  0
 17 20  1  0  0  0  0
 20 21  1  0  0  0  0
 20 22  1  0  0  0  0
 20 23  1  0  0  0  0
 23 24  1  0  0  0  0
 23 25  1  0  0  0  0
 23 26  1  0  0  0  0
M  END
> <VConfSearch Rank>
822

> <Conf_Id>
20

> <Delta U+W>
0.150

> <U+W>
-5.403

> <U>
47.845

> <W>
-53.248

> <W(PB)>
-55.599

> <W(SA)>
2.351

> <Valence>
2.258

> <Coulomb>
44.893

> <VdW>
0.694

> <VdW6>
-6.285

> <VdW12>
6.979

> <Bond>
0.149

> <Angle>
0.434

> <Pdih>
1.675

> <Idih>
0.000

> <Tether>
0.000

$$$$
VeraChem MOL file


 26 25  0  0  0  0  0  0  0  0999 V2000     
   20.4360   14.7596   22.2290 C   0  0  0  0  0  0  0  0  0  0  0  0
   20.6746   14.4955   23.2676 H   0  0  0  0  0  0  0  0  0  0  0  0
   19.3668   14.5717   22.0654 H   0  0  0  0  0  0  0  0  0  0  0  0
   21.0010   14.0859   21.5717 H   0  0  0  0  0  0  0  0  0  0  0  0
   20.7918   16.2325   21.9354 C   0  0  0  0  0  0  0  0  0  0  0  0
   20.5741   16.4570   20.8818 H   0  0  0  0  0  0  0  0  0  0  0  0
   21.8717   16.3814   22.0747 H   0  0  0  0  0  0  0  0  0  0  0  0
   20.0094   17.2029   22.8479 C   0  0  0  0  0  0  0  0  0  0  0  0
   18.9306   17.0487   22.7068 H   0  0  0  0  0  0  0  0  0  0  0  0
   20.2284   16.9729   23.8998 H   0  0  0  0  0  0  0  0  0  0  0  0
   20.3631   18.6789   22.5568 C   0  0  0  0  0  0  0  0  0  0  0  0
   20.1449   18.9072   21.5043 H   0  0  0  0  0  0  0  0  0  0  0  0
   21.4419   18.8323   22.6984 H   0  0  0  0  0  0  0  0  0  0  0  0
   19.5797   19.6494   23.4693 C   0  0  0  0  0  0  0  0  0  0  0  0
   18.5008   19.4980   23.3254 H   0  0  0  0  0  0  0  0  0  0  0  0
   19.7975   19.4136   24.5195 H   0  0  0  0  0  0  0  0  0  0  0  0
   19.9358   21.1263   23.1769 C   0  0  0  0  0  0  0  0  0  0  0  0
   19.7498   21.3421   22.1164 H   0  0  0  0  0  0  0  0  0  0  0  0
   21.0071   21.2963   23.3481 H   0  0  0  0  0  0  0  0  0  0  0  0
   19.1157   22.1160   24.0268 C   0  0  0  0  0  0  0  0  0  0  0  0
   19.3487   23.1387   23.7180 H   0  0  0  0  0  0  0  0  0  0  0  0
   18.0483   21.9453   23.8631 H   0  0  0  0  0  0  0  0  0  0  0  0
   19.3861   22.0125   25.5150 N   0  3  0  0  0  0  0  0  0  0  0  0
   20.3720   22.1862   25.7360 H   0  0  0  0  0  0  0  0  0  0  0  0
   19.1526   21.0838   25.8797 H   0  0  0  0  0  0  0  0  0  0  0  0
   18.8350   22.6924   26.0502 H   0  0  0  0  0  0  0  0  0  0  0  0
  1  2  1  0  0  0  0
  1  3  1  0  0  0  0
  1  4  1  0  0  0  0
  1  5  1  0  0  0  0
  5  6  1  0  0  0  0
  5  7  1  0  0  0  0
  5  8  1  0  0  0  0
  8  9  1  0  0  0  0
  8 10  1  0  0  0  0
  8 11  1  0  0  0  0
 11 12  1  0  0  0  0
 11 13  1  0  0  0  0
 11 14  1  0  0  0  0
 14 15  1  0  0  0  0
 14 16  1  0  0  0  0
 14 17  1  0  0  0  0
 17 18  1  0  0  0  0
 17 19  1  0  0  0  0
 17 20  1  0  0  0  0
 20 21  1  0  0  0  0
 20 22  1  0  0  0  0
 20 23  1  0  0  0  0
 23 24  1  0  0  0  0
 23 25  1  0  0  0  0
 23 26  1  0  0  0  0
M  END
> <VConfSearch Rank>
823

> <Conf_Id>
19

> <Delta U+W>
0.162

> <U+W>
-5.391

> <U>
47.845

> <W>
-53.235

> <W(PB)>
-55.585

> <W(SA)>
2.349

> <Valence>
2.258

> <Coulomb>
44.893

> <VdW>
0.694

> <VdW6>
-6.285

> <VdW12>
6.979

> <Bond>
0.149

> <Angle>
0.434

> <Pdih>
1.675

> <Idih>
0.000

> <Tether>
0.000

$$$$
VeraChem MOL file


 26 25  0  0  0  0  0  0  0  0999 V2000     
   22.9715   20.9625   21.0860 C   0  0  0  0  0  0  0  0  0  0  0  0
   24.0038   20.7944   21.4197 H   0  0  0  0  0  0  0  0  0  0  0  0
   22.8196   20.4072   20.1512 H   0  0  0  0  0  0  0  0  0  0  0  0
   22.8591   22.0318   20.8648 H   0  0  0  0  0  0  0  0  0  0  0  0
   21.9601   20.5197   22.1645 C   0  0  0  0  0  0  0  0  0  0  0  0
   20.9441   20.7411   21.8117 H   0  0  0  0  0  0  0  0  0  0  0  0
   22.1175   21.1124   23.0765 H   0  0  0  0  0  0  0  0  0  0  0  0
   22.0968   19.0135   22.4901 C   0  0  0  0  0  0  0  0  0  0  0  0
   21.8873   18.4194   21.5899 H   0  0  0  0  0  0  0  0  0  0  0  0
   23.1396   18.8011   22.7634 H   0  0  0  0  0  0  0  0  0  0  0  0
   21.1814   18.5434   23.6472 C   0  0  0  0  0  0  0  0  0  0  0  0
   21.4023   19.1276   24.5512 H   0  0  0  0  0  0  0  0  0  0  0  0
   21.4314   17.5003   23.8856 H   0  0  0  0  0  0  0  0  0  0  0  0
   19.6716   18.6374   23.3197 C   0  0  0  0  0  0  0  0  0  0  0  0
   19.3877   19.6849   23.1534 H   0  0  0  0  0  0  0  0  0  0  0  0
   19.4637   18.0976   22.3854 H   0  0  0  0  0  0  0  0  0  0  0  0
   18.8013   18.0544   24.4548 C   0  0  0  0  0  0  0  0  0  0  0  0
   19.0054   18.5922   25.3904 H   0  0  0  0  0  0  0  0  0  0  0  0
   19.0677   17.0024   24.6229 H   0  0  0  0  0  0  0  0  0  0  0  0
   17.3020   18.1552   24.1233 C   0  0  0  0  0  0  0  0  0  0  0  0
   17.0280   19.2028   23.9715 H   0  0  0  0  0  0  0  0  0  0  0  0
   17.0913   17.6073   23.2009 H   0  0  0  0  0  0  0  0  0  0  0  0
   16.4138   17.5930   25.2144 N   0  3  0  0  0  0  0  0  0  0  0  0
   16.5440   18.0848   26.1046 H   0  0  0  0  0  0  0  0  0  0  0  0
   16.6029   16.6003   25.3875 H   0  0  0  0  0  0  0  0  0  0  0  0
   15.4195   17.6699   24.9736 H   0  0  0  0  0  0  0  0  0  0  0  0
  1  2  1  0  0  0  0
  1  3  1  0  0  0  0
  1  4  1  0  0  0  0
  1  5  1  0  0  0  0
  5  6  1  0  0  0  0
  5  7  1  0  0  0  0
  5  8  1  0  0  0  0
  8  9  1  0  0  0  0
  8 10  1  0  0  0  0
  8 11  1  0  0  0  0
 11 12  1  0  0  0  0
 11 13  1  0  0  0  0
 11 14  1  0  0  0  0
 14 15  1  0  0  0  0
 14 16  1  0  0  0  0
 14 17  1  0  0  0  0
 17 18  1  0  0  0  0
 17 19  1  0  0  0  0
 17 20  1  0  0  0  0
 20 21  1  0  0  0  0
 20 22  1  0  0  0  0
 20 23  1  0  0  0  0
 23 24  1  0  0  0  0
 23 25  1  0  0  0  0
 23 26  1  0  0  0  0
M  END
> <VConfSearch Rank>
824

> <Conf_Id>
37

> <Delta U+W>
0.565

> <U+W>
-4.988

> <U>
48.035

> <W>
-53.022

> <W(PB)>
-55.379

> <W(SA)>
2.357

> <Valence>
2.701

> <Coulomb>
44.622

> <VdW>
0.712

> <VdW6>
-6.418

> <VdW12>
7.129

> <Bond>
0.168

> <Angle>
0.659

> <Pdih>
1.875

> <Idih>
0.000

> <Tether>
0.000

$$$$
VeraChem MOL file


 26 25  0  0  0  0  0  0  0  0999 V2000     
   23.0198   20.1548   21.0139 C   0  0  0  0  0  0  0  0  0  0  0  0
   22.2182   20.2782   20.2740 H   0  0  0  0  0  0  0  0  0  0  0  0
   23.1416   21.1061   21.5480 H   0  0  0  0  0  0  0  0  0  0  0  0
   23.9517   19.9518   20.4703 H   0  0  0  0  0  0  0  0  0  0  0  0
   22.6990   19.0058   21.9933 C   0  0  0  0  0  0  0  0  0  0  0  0
   23.5336   18.8843   22.6979 H   0  0  0  0  0  0  0  0  0  0  0  0
   22.6158   18.0630   21.4347 H   0  0  0  0  0  0  0  0  0  0  0  0
   21.3911   19.2669   22.7729 C   0  0  0  0  0  0  0  0  0  0  0  0
   21.4799   20.2091   23.3311 H   0  0  0  0  0  0  0  0  0  0  0  0
   20.5682   19.3954   22.0577 H   0  0  0  0  0  0  0  0  0  0  0  0
   21.0664   18.1133   23.7523 C   0  0  0  0  0  0  0  0  0  0  0  0
   21.9317   17.9481   24.4092 H   0  0  0  0  0  0  0  0  0  0  0  0
   20.9230   17.1796   23.1910 H   0  0  0  0  0  0  0  0  0  0  0  0
   19.8244   18.3826   24.6370 C   0  0  0  0  0  0  0  0  0  0  0  0
   19.7396   17.5721   25.3743 H   0  0  0  0  0  0  0  0  0  0  0  0
   19.9749   19.3071   25.2117 H   0  0  0  0  0  0  0  0  0  0  0  0
   18.5030   18.4744   23.8383 C   0  0  0  0  0  0  0  0  0  0  0  0
   18.3779   17.5720   23.2252 H   0  0  0  0  0  0  0  0  0  0  0  0
   18.5339   19.3306   23.1529 H   0  0  0  0  0  0  0  0  0  0  0  0
   17.2920   18.6272   24.7755 C   0  0  0  0  0  0  0  0  0  0  0  0
   17.2394   17.7697   25.4518 H   0  0  0  0  0  0  0  0  0  0  0  0
   17.4040   19.5334   25.3769 H   0  0  0  0  0  0  0  0  0  0  0  0
   15.9743   18.7185   24.0331 N   0  3  0  0  0  0  0  0  0  0  0  0
   15.7955   17.8820   23.4678 H   0  0  0  0  0  0  0  0  0  0  0  0
   15.9480   19.5233   23.3985 H   0  0  0  0  0  0  0  0  0  0  0  0
   15.1813   18.8192   24.6760 H   0  0  0  0  0  0  0  0  0  0  0  0
  1  2  1  0  0  0  0
  1  3  1  0  0  0  0
  1  4  1  0  0  0  0
  1  5  1  0  0  0  0
  5  6  1  0  0  0  0
  5  7  1  0  0  0  0
  5  8  1  0  0  0  0
  8  9  1  0  0  0  0
  8 10  1  0  0  0  0
  8 11  1  0  0  0  0
 11 12  1  0  0  0  0
 11 13  1  0  0  0  0
 11 14  1  0  0  0  0
 14 15  1  0  0  0  0
 14 16  1  0  0  0  0
 14 17  1  0  0  0  0
 17 18  1  0  0  0  0
 17 19  1  0  0  0  0
 17 20  1  0  0  0  0
 20 21  1  0  0  0  0
 20 22  1  0  0  0  0
 20 23  1  0  0  0  0
 23 24  1  0  0  0  0
 23 25  1  0  0  0  0
 23 26  1  0  0  0  0
M  END
> <VConfSearch Rank>
825

> <Conf_Id>
35

> <Delta U+W>
0.587

> <U+W>
-4.965

> <U>
48.214

> <W>
-53.179

> <W(PB)>
-55.527

> <W(SA)>
2.348

> <Valence>
2.697

> <Coulomb>
44.819

> <VdW>
0.699

> <VdW6>
-6.437

> <VdW12>
7.136

> <Bond>
0.168

> <Angle>
0.657

> <Pdih>
1.872

> <Idih>
0.000

> <Tether>
0.000

$$$$
VeraChem MOL file


 26 25  0  0  0  0  0  0  0  0999 V2000     
   16.7885   18.0703   21.1313 C   0  0  0  0  0  0  0  0  0  0  0  0
   16.5274   19.1155   20.9201 H   0  0  0  0  0  0  0  0  0  0  0  0
   17.5473   17.7536   20.4039 H   0  0  0  0  0  0  0  0  0  0  0  0
   15.8909   17.4594   20.9693 H   0  0  0  0  0  0  0  0  0  0  0  0
   17.3040   17.9086   22.5771 C   0  0  0  0  0  0  0  0  0  0  0  0
   17.5251   16.8492   22.7691 H   0  0  0  0  0  0  0  0  0  0  0  0
   16.5116   18.1997   23.2809 H   0  0  0  0  0  0  0  0  0  0  0  0
   18.5679   18.7594   22.8325 C   0  0  0  0  0  0  0  0  0  0  0  0
   19.3473   18.4652   22.1176 H   0  0  0  0  0  0  0  0  0  0  0  0
   18.3412   19.8174   22.6413 H   0  0  0  0  0  0  0  0  0  0  0  0
   19.0879   18.5947   24.2809 C   0  0  0  0  0  0  0  0  0  0  0  0
   19.3668   17.5468   24.4578 H   0  0  0  0  0  0  0  0  0  0  0  0
   18.2714   18.8188   24.9813 H   0  0  0  0  0  0  0  0  0  0  0  0
   20.2875   19.5146   24.6169 C   0  0  0  0  0  0  0  0  0  0  0  0
   20.0033   20.5639   24.4568 H   0  0  0  0  0  0  0  0  0  0  0  0
   20.5122   19.4164   25.6882 H   0  0  0  0  0  0  0  0  0  0  0  0
   21.5634   19.1901   23.8050 C   0  0  0  0  0  0  0  0  0  0  0  0
   21.3857   19.3621   22.7360 H   0  0  0  0  0  0  0  0  0  0  0  0
   21.8184   18.1288   23.9251 H   0  0  0  0  0  0  0  0  0  0  0  0
   22.7517   20.0556   24.2602 C   0  0  0  0  0  0  0  0  0  0  0  0
   22.5088   21.1134   24.1273 H   0  0  0  0  0  0  0  0  0  0  0  0
   22.9509   19.8790   25.3206 H   0  0  0  0  0  0  0  0  0  0  0  0
   24.0250   19.7679   23.4911 N   0  3  0  0  0  0  0  0  0  0  0  0
   23.9127   19.9419   22.4869 H   0  0  0  0  0  0  0  0  0  0  0  0
   24.3234   18.7928   23.5972 H   0  0  0  0  0  0  0  0  0  0  0  0
   24.8035   20.3547   23.8104 H   0  0  0  0  0  0  0  0  0  0  0  0
  1  2  1  0  0  0  0
  1  3  1  0  0  0  0
  1  4  1  0  0  0  0
  1  5  1  0  0  0  0
  5  6  1  0  0  0  0
  5  7  1  0  0  0  0
  5  8  1  0  0  0  0
  8  9  1  0  0  0  0
  8 10  1  0  0  0  0
  8 11  1  0  0  0  0
 11 12  1  0  0  0  0
 11 13  1  0  0  0  0
 11 14  1  0  0  0  0
 14 15  1  0  0  0  0
 14 16  1  0  0  0  0
 14 17  1  0  0  0  0
 17 18  1  0  0  0  0
 17 19  1  0  0  0  0
 17 20  1  0  0  0  0
 20 21  1  0  0  0  0
 20 22  1  0  0  0  0
 20 23  1  0  0  0  0
 23 24  1  0  0  0  0
 23 25  1  0  0  0  0
 23 26  1  0  0  0  0
M  END
> <VConfSearch Rank>
826

> <Conf_Id>
36

> <Delta U+W>
0.565

> <U+W>
-4.987

> <U>
48.214

> <W>
-53.201

> <W(PB)>
-55.543

> <W(SA)>
2.342

> <Valence>
2.697

> <Coulomb>
44.819

> <VdW>
0.698

> <VdW6>
-6.437

> <VdW12>
7.136

> <Bond>
0.168

> <Angle>
0.657

> <Pdih>
1.872

> <Idih>
0.000

> <Tether>
0.000

$$$$
VeraChem MOL file


 26 25  0  0  0  0  0  0  0  0999 V2000     
   22.7620   17.2724   26.1437 C   0  0  0  0  0  0  0  0  0  0  0  0
   23.7274   17.4206   25.6424 H   0  0  0  0  0  0  0  0  0  0  0  0
   22.9105   17.4432   27.2179 H   0  0  0  0  0  0  0  0  0  0  0  0
   22.4630   16.2250   26.0072 H   0  0  0  0  0  0  0  0  0  0  0  0
   21.6920   18.2325   25.5821 C   0  0  0  0  0  0  0  0  0  0  0  0
   22.0029   19.2710   25.7634 H   0  0  0  0  0  0  0  0  0  0  0  0
   20.7483   18.0846   26.1256 H   0  0  0  0  0  0  0  0  0  0  0  0
   21.4634   18.0130   24.0702 C   0  0  0  0  0  0  0  0  0  0  0  0
   22.4102   18.1592   23.5320 H   0  0  0  0  0  0  0  0  0  0  0  0
   21.1548   16.9733   23.8936 H   0  0  0  0  0  0  0  0  0  0  0  0
   20.3928   18.9729   23.5039 C   0  0  0  0  0  0  0  0  0  0  0  0
   20.7039   20.0122   23.6787 H   0  0  0  0  0  0  0  0  0  0  0  0
   19.4517   18.8257   24.0504 H   0  0  0  0  0  0  0  0  0  0  0  0
   20.1651   18.7496   21.9895 C   0  0  0  0  0  0  0  0  0  0  0  0
   21.1232   18.8517   21.4613 H   0  0  0  0  0  0  0  0  0  0  0  0
   19.8217   17.7206   21.8138 H   0  0  0  0  0  0  0  0  0  0  0  0
   19.1518   19.7435   21.3747 C   0  0  0  0  0  0  0  0  0  0  0  0
   19.1089   19.5828   20.2892 H   0  0  0  0  0  0  0  0  0  0  0  0
   19.5051   20.7721   21.5266 H   0  0  0  0  0  0  0  0  0  0  0  0
   17.7363   19.5900   21.9622 C   0  0  0  0  0  0  0  0  0  0  0  0
   17.3839   18.5662   21.8101 H   0  0  0  0  0  0  0  0  0  0  0  0
   17.7573   19.7912   23.0363 H   0  0  0  0  0  0  0  0  0  0  0  0
   16.7283   20.5299   21.3332 N   0  3  0  0  0  0  0  0  0  0  0  0
   15.7930   20.4120   21.7378 H   0  0  0  0  0  0  0  0  0  0  0  0
   16.6384   20.3740   20.3238 H   0  0  0  0  0  0  0  0  0  0  0  0
   16.9885   21.5129   21.4646 H   0  0  0  0  0  0  0  0  0  0  0  0
  1  2  1  0  0  0  0
  1  3  1  0  0  0  0
  1  4  1  0  0  0  0
  1  5  1  0  0  0  0
  5  6  1  0  0  0  0
  5  7  1  0  0  0  0
  5  8  1  0  0  0  0
  8  9  1  0  0  0  0
  8 10  1  0  0  0  0
  8 11  1  0  0  0  0
 11 12  1  0  0  0  0
 11 13  1  0  0  0  0
 11 14  1  0  0  0  0
 14 15  1  0  0  0  0
 14 16  1  0  0  0  0
 14 17  1  0  0  0  0
 17 18  1  0  0  0  0
 17 19  1  0  0  0  0
 17 20  1  0  0  0  0
 20 21  1  0  0  0  0
 20 22  1  0  0  0  0
 20 23  1  0  0  0  0
 23 24  1  0  0  0  0
 23 25  1  0  0  0  0
 23 26  1  0  0  0  0
M  END
> <VConfSearch Rank>
827

> <Conf_Id>
44

> <Delta U+W>
0.371

> <U+W>
-5.181

> <U>
48.002

> <W>
-53.183

> <W(PB)>
-55.533

> <W(SA)>
2.350

> <Valence>
2.459

> <Coulomb>
44.901

> <VdW>
0.643

> <VdW6>
-6.362

> <VdW12>
7.005

> <Bond>
0.151

> <Angle>
0.519

> <Pdih>
1.789

> <Idih>
0.000

> <Tether>
0.000

$$$$
VeraChem MOL file


 26 25  0  0  0  0  0  0  0  0999 V2000     
   16.0958   19.4117   23.3847 C   0  0  0  0  0  0  0  0  0  0  0  0
   15.8956   18.3518   23.5889 H   0  0  0  0  0  0  0  0  0  0  0  0
   15.1652   19.9679   23.5563 H   0  0  0  0  0  0  0  0  0  0  0  0
   16.3498   19.5158   22.3227 H   0  0  0  0  0  0  0  0  0  0  0  0
   17.2227   19.9502   24.2955 C   0  0  0  0  0  0  0  0  0  0  0  0
   16.8681   19.9433   25.3357 H   0  0  0  0  0  0  0  0  0  0  0  0
   17.4283   21.0010   24.0482 H   0  0  0  0  0  0  0  0  0  0  0  0
   18.5311   19.1268   24.2133 C   0  0  0  0  0  0  0  0  0  0  0  0
   19.2132   19.4987   24.9883 H   0  0  0  0  0  0  0  0  0  0  0  0
   18.3201   18.0779   24.4627 H   0  0  0  0  0  0  0  0  0  0  0  0
   19.2242   19.2068   22.8291 C   0  0  0  0  0  0  0  0  0  0  0  0
   19.4389   20.2553   22.5811 H   0  0  0  0  0  0  0  0  0  0  0  0
   18.5358   18.8416   22.0562 H   0  0  0  0  0  0  0  0  0  0  0  0
   20.5272   18.3744   22.7379 C   0  0  0  0  0  0  0  0  0  0  0  0
   20.3149   17.3287   22.9999 H   0  0  0  0  0  0  0  0  0  0  0  0
   20.8545   18.3691   21.6898 H   0  0  0  0  0  0  0  0  0  0  0  0
   21.6739   18.9145   23.6294 C   0  0  0  0  0  0  0  0  0  0  0  0
   21.3745   18.8797   24.6840 H   0  0  0  0  0  0  0  0  0  0  0  0
   21.8710   19.9684   23.3925 H   0  0  0  0  0  0  0  0  0  0  0  0
   22.9750   18.1024   23.4799 C   0  0  0  0  0  0  0  0  0  0  0  0
   23.7129   18.4653   24.2006 H   0  0  0  0  0  0  0  0  0  0  0  0
   22.7782   17.0487   23.6950 H   0  0  0  0  0  0  0  0  0  0  0  0
   23.5988   18.1933   22.1008 N   0  3  0  0  0  0  0  0  0  0  0  0
   22.9718   17.8319   21.3755 H   0  0  0  0  0  0  0  0  0  0  0  0
   24.4694   17.6543   22.0406 H   0  0  0  0  0  0  0  0  0  0  0  0
   23.8277   19.1605   21.8495 H   0  0  0  0  0  0  0  0  0  0  0  0
  1  2  1  0  0  0  0
  1  3  1  0  0  0  0
  1  4  1  0  0  0  0
  1  5  1  0  0  0  0
  5  6  1  0  0  0  0
  5  7  1  0  0  0  0
  5  8  1  0  0  0  0
  8  9  1  0  0  0  0
  8 10  1  0  0  0  0
  8 11  1  0  0  0  0
 11 12  1  0  0  0  0
 11 13  1  0  0  0  0
 11 14  1  0  0  0  0
 14 15  1  0  0  0  0
 14 16  1  0  0  0  0
 14 17  1  0  0  0  0
 17 18  1  0  0  0  0
 17 19  1  0  0  0  0
 17 20  1  0  0  0  0
 20 21  1  0  0  0  0
 20 22  1  0  0  0  0
 20 23  1  0  0  0  0
 23 24  1  0  0  0  0
 23 25  1  0  0  0  0
 23 26  1  0  0  0  0
M  END
> <VConfSearch Rank>
828

> <Conf_Id>
112

> <Delta U+W>
1.422

> <U+W>
-4.130

> <U>
49.323

> <W>
-53.453

> <W(PB)>
-55.749

> <W(SA)>
2.296

> <Valence>
3.408

> <Coulomb>
44.893

> <VdW>
1.021

> <VdW6>
-7.481

> <VdW12>
8.503

> <Bond>
0.239

> <Angle>
1.013

> <Pdih>
2.156

> <Idih>
0.000

> <Tether>
0.000

$$$$
VeraChem MOL file


 26 25  0  0  0  0  0  0  0  0999 V2000     
   19.2501   15.3279   22.5536 C   0  0  0  0  0  0  0  0  0  0  0  0
   19.2232   14.2984   22.1737 H   0  0  0  0  0  0  0  0  0  0  0  0
   19.8580   15.3268   23.4669 H   0  0  0  0  0  0  0  0  0  0  0  0
   18.2250   15.6135   22.8228 H   0  0  0  0  0  0  0  0  0  0  0  0
   19.8312   16.2832   21.4867 C   0  0  0  0  0  0  0  0  0  0  0  0
   19.2608   16.1635   20.5550 H   0  0  0  0  0  0  0  0  0  0  0  0
   20.8650   15.9920   21.2537 H   0  0  0  0  0  0  0  0  0  0  0  0
   19.7887   17.7719   21.9081 C   0  0  0  0  0  0  0  0  0  0  0  0
   20.1238   18.3846   21.0599 H   0  0  0  0  0  0  0  0  0  0  0  0
   18.7475   18.0577   22.1068 H   0  0  0  0  0  0  0  0  0  0  0  0
   20.6733   18.0855   23.1413 C   0  0  0  0  0  0  0  0  0  0  0  0
   21.6785   17.6749   22.9733 H   0  0  0  0  0  0  0  0  0  0  0  0
   20.2754   17.5771   24.0295 H   0  0  0  0  0  0  0  0  0  0  0  0
   20.8055   19.5996   23.4383 C   0  0  0  0  0  0  0  0  0  0  0  0
   21.5403   19.7268   24.2442 H   0  0  0  0  0  0  0  0  0  0  0  0
   21.2197   20.1123   22.5591 H   0  0  0  0  0  0  0  0  0  0  0  0
   19.4690   20.2668   23.8498 C   0  0  0  0  0  0  0  0  0  0  0  0
   19.0370   19.7438   24.7132 H   0  0  0  0  0  0  0  0  0  0  0  0
   18.7425   20.1782   23.0326 H   0  0  0  0  0  0  0  0  0  0  0  0
   19.6296   21.7628   24.1825 C   0  0  0  0  0  0  0  0  0  0  0  0
   20.0769   22.2833   23.3313 H   0  0  0  0  0  0  0  0  0  0  0  0
   18.6449   22.1996   24.3698 H   0  0  0  0  0  0  0  0  0  0  0  0
   20.4890   22.0299   25.4027 N   0  3  0  0  0  0  0  0  0  0  0  0
   21.4434   21.6779   25.2798 H   0  0  0  0  0  0  0  0  0  0  0  0
   20.1068   21.5833   26.2427 H   0  0  0  0  0  0  0  0  0  0  0  0
   20.5628   23.0330   25.6041 H   0  0  0  0  0  0  0  0  0  0  0  0
  1  2  1  0  0  0  0
  1  3  1  0  0  0  0
  1  4  1  0  0  0  0
  1  5  1  0  0  0  0
  5  6  1  0  0  0  0
  5  7  1  0  0  0  0
  5  8  1  0  0  0  0
  8  9  1  0  0  0  0
  8 10  1  0  0  0  0
  8 11  1  0  0  0  0
 11 12  1  0  0  0  0
 11 13  1  0  0  0  0
 11 14  1  0  0  0  0
 14 15  1  0  0  0  0
 14 16  1  0  0  0  0
 14 17  1  0  0  0  0
 17 18  1  0  0  0  0
 17 19  1  0  0  0  0
 17 20  1  0  0  0  0
 20 21  1  0  0  0  0
 20 22  1  0  0  0  0
 20 23  1  0  0  0  0
 23 24  1  0  0  0  0
 23 25  1  0  0  0  0
 23 26  1  0  0  0  0
M  END
> <VConfSearch Rank>
829

> <Conf_Id>
130

> <Delta U+W>
1.282

> <U+W>
-4.270

> <U>
49.153

> <W>
-53.422

> <W(PB)>
-55.725

> <W(SA)>
2.303

> <Valence>
3.298

> <Coulomb>
44.907

> <VdW>
0.948

> <VdW6>
-7.574

> <VdW12>
8.522

> <Bond>
0.229

> <Angle>
0.912

> <Pdih>
2.157

> <Idih>
0.000

> <Tether>
0.000

$$$$
VeraChem MOL file


 26 25  0  0  0  0  0  0  0  0999 V2000     
   23.1608   17.4733   23.3655 C   0  0  0  0  0  0  0  0  0  0  0  0
   23.8197   18.1250   22.7774 H   0  0  0  0  0  0  0  0  0  0  0  0
   23.7403   16.5899   23.6634 H   0  0  0  0  0  0  0  0  0  0  0  0
   22.3463   17.1301   22.7155 H   0  0  0  0  0  0  0  0  0  0  0  0
   22.6185   18.2102   24.6110 C   0  0  0  0  0  0  0  0  0  0  0  0
   23.4576   18.4267   25.2867 H   0  0  0  0  0  0  0  0  0  0  0  0
   21.9468   17.5464   25.1715 H   0  0  0  0  0  0  0  0  0  0  0  0
   21.9001   19.5423   24.2757 C   0  0  0  0  0  0  0  0  0  0  0  0
   21.5699   20.0117   25.2125 H   0  0  0  0  0  0  0  0  0  0  0  0
   22.6292   20.2353   23.8337 H   0  0  0  0  0  0  0  0  0  0  0  0
   20.6868   19.4220   23.3173 C   0  0  0  0  0  0  0  0  0  0  0  0
   21.0188   19.0516   22.3385 H   0  0  0  0  0  0  0  0  0  0  0  0
   20.2956   20.4324   23.1406 H   0  0  0  0  0  0  0  0  0  0  0  0
   19.5536   18.5168   23.8637 C   0  0  0  0  0  0  0  0  0  0  0  0
   19.9360   17.4987   24.0124 H   0  0  0  0  0  0  0  0  0  0  0  0
   19.2333   18.8778   24.8508 H   0  0  0  0  0  0  0  0  0  0  0  0
   18.3304   18.4400   22.9199 C   0  0  0  0  0  0  0  0  0  0  0  0
   17.6200   17.7033   23.3182 H   0  0  0  0  0  0  0  0  0  0  0  0
   18.6467   18.0710   21.9351 H   0  0  0  0  0  0  0  0  0  0  0  0
   17.6125   19.7934   22.7609 C   0  0  0  0  0  0  0  0  0  0  0  0
   17.2990   20.1609   23.7417 H   0  0  0  0  0  0  0  0  0  0  0  0
   18.2942   20.5254   22.3203 H   0  0  0  0  0  0  0  0  0  0  0  0
   16.3845   19.7126   21.8773 N   0  3  0  0  0  0  0  0  0  0  0  0
   16.6158   19.3972   20.9295 H   0  0  0  0  0  0  0  0  0  0  0  0
   15.9213   20.6231   21.7844 H   0  0  0  0  0  0  0  0  0  0  0  0
   15.6874   19.0600   22.2507 H   0  0  0  0  0  0  0  0  0  0  0  0
  1  2  1  0  0  0  0
  1  3  1  0  0  0  0
  1  4  1  0  0  0  0
  1  5  1  0  0  0  0
  5  6  1  0  0  0  0
  5  7  1  0  0  0  0
  5  8  1  0  0  0  0
  8  9  1  0  0  0  0
  8 10  1  0  0  0  0
  8 11  1  0  0  0  0
 11 12  1  0  0  0  0
 11 13  1  0  0  0  0
 11 14  1  0  0  0  0
 14 15  1  0  0  0  0
 14 16  1  0  0  0  0
 14 17  1  0  0  0  0
 17 18  1  0  0  0  0
 17 19  1  0  0  0  0
 17 20  1  0  0  0  0
 20 21  1  0  0  0  0
 20 22  1  0  0  0  0
 20 23  1  0  0  0  0
 23 24  1  0  0  0  0
 23 25  1  0  0  0  0
 23 26  1  0  0  0  0
M  END
> <VConfSearch Rank>
830

> <Conf_Id>
111

> <Delta U+W>
1.290

> <U+W>
-4.262

> <U>
49.209

> <W>
-53.471

> <W(PB)>
-55.745

> <W(SA)>
2.274

> <Valence>
3.465

> <Coulomb>
44.958

> <VdW>
0.786

> <VdW6>
-7.903

> <VdW12>
8.689

> <Bond>
0.237

> <Angle>
1.212

> <Pdih>
2.015

> <Idih>
0.000

> <Tether>
0.000

$$$$
VeraChem MOL file


 26 25  0  0  0  0  0  0  0  0999 V2000     
   18.1543   21.1453   26.1054 C   0  0  0  0  0  0  0  0  0  0  0  0
   17.1996   20.6253   25.9526 H   0  0  0  0  0  0  0  0  0  0  0  0
   18.4700   20.9827   27.1442 H   0  0  0  0  0  0  0  0  0  0  0  0
   17.9777   22.2205   25.9716 H   0  0  0  0  0  0  0  0  0  0  0  0
   19.2248   20.6415   25.1142 C   0  0  0  0  0  0  0  0  0  0  0  0
   20.1582   21.1999   25.2714 H   0  0  0  0  0  0  0  0  0  0  0  0
   18.8921   20.8585   24.0905 H   0  0  0  0  0  0  0  0  0  0  0  0
   19.4880   19.1262   25.2811 C   0  0  0  0  0  0  0  0  0  0  0  0
   19.7413   18.9218   26.3305 H   0  0  0  0  0  0  0  0  0  0  0  0
   18.5668   18.5649   25.0719 H   0  0  0  0  0  0  0  0  0  0  0  0
   20.6349   18.5936   24.3873 C   0  0  0  0  0  0  0  0  0  0  0  0
   20.8271   17.5458   24.6567 H   0  0  0  0  0  0  0  0  0  0  0  0
   21.5597   19.1437   24.6099 H   0  0  0  0  0  0  0  0  0  0  0  0
   20.3288   18.6760   22.8725 C   0  0  0  0  0  0  0  0  0  0  0  0
   19.3726   18.1758   22.6691 H   0  0  0  0  0  0  0  0  0  0  0  0
   20.2130   19.7250   22.5699 H   0  0  0  0  0  0  0  0  0  0  0  0
   21.4510   18.0289   22.0267 C   0  0  0  0  0  0  0  0  0  0  0  0
   21.5563   16.9676   22.2887 H   0  0  0  0  0  0  0  0  0  0  0  0
   22.4095   18.5078   22.2674 H   0  0  0  0  0  0  0  0  0  0  0  0
   21.2064   18.1621   20.5111 C   0  0  0  0  0  0  0  0  0  0  0  0
   21.0959   19.2174   20.2474 H   0  0  0  0  0  0  0  0  0  0  0  0
   22.0678   17.7635   19.9684 H   0  0  0  0  0  0  0  0  0  0  0  0
   19.9747   17.4239   20.0245 N   0  3  0  0  0  0  0  0  0  0  0  0
   19.8477   17.5220   19.0113 H   0  0  0  0  0  0  0  0  0  0  0  0
   19.1211   17.7752   20.4692 H   0  0  0  0  0  0  0  0  0  0  0  0
   20.0294   16.4197   20.2236 H   0  0  0  0  0  0  0  0  0  0  0  0
  1  2  1  0  0  0  0
  1  3  1  0  0  0  0
  1  4  1  0  0  0  0
  1  5  1  0  0  0  0
  5  6  1  0  0  0  0
  5  7  1  0  0  0  0
  5  8  1  0  0  0  0
  8  9  1  0  0  0  0
  8 10  1  0  0  0  0
  8 11  1  0  0  0  0
 11 12  1  0  0  0  0
 11 13  1  0  0  0  0
 11 14  1  0  0  0  0
 14 15  1  0  0  0  0
 14 16  1  0  0  0  0
 14 17  1  0  0  0  0
 17 18  1  0  0  0  0
 17 19  1  0  0  0  0
 17 20  1  0  0  0  0
 20 21  1  0  0  0  0
 20 22  1  0  0  0  0
 20 23  1  0  0  0  0
 23 24  1  0  0  0  0
 23 25  1  0  0  0  0
 23 26  1  0  0  0  0
M  END
> <VConfSearch Rank>
831

> <Conf_Id>
105

> <Delta U+W>
0.736

> <U+W>
-4.817

> <U>
48.735

> <W>
-53.552

> <W(PB)>
-55.889

> <W(SA)>
2.337

> <Valence>
2.803

> <Coulomb>
45.123

> <VdW>
0.809

> <VdW6>
-6.953

> <VdW12>
7.761

> <Bond>
0.188

> <Angle>
0.699

> <Pdih>
1.917

> <Idih>
0.000

> <Tether>
0.000

$$$$
VeraChem MOL file


 26 25  0  0  0  0  0  0  0  0999 V2000     
   17.1353   20.2609   21.2989 C   0  0  0  0  0  0  0  0  0  0  0  0
   16.0995   20.1272   21.6374 H   0  0  0  0  0  0  0  0  0  0  0  0
   17.4632   21.2673   21.5901 H   0  0  0  0  0  0  0  0  0  0  0  0
   17.1404   20.2088   20.2024 H   0  0  0  0  0  0  0  0  0  0  0  0
   18.0597   19.1810   21.9000 C   0  0  0  0  0  0  0  0  0  0  0  0
   19.0755   19.3234   21.5077 H   0  0  0  0  0  0  0  0  0  0  0  0
   17.7253   18.1883   21.5677 H   0  0  0  0  0  0  0  0  0  0  0  0
   18.0725   19.2373   23.4457 C   0  0  0  0  0  0  0  0  0  0  0  0
   18.4457   20.2145   23.7791 H   0  0  0  0  0  0  0  0  0  0  0  0
   17.0392   19.1698   23.8131 H   0  0  0  0  0  0  0  0  0  0  0  0
   18.8973   18.1001   24.1027 C   0  0  0  0  0  0  0  0  0  0  0  0
   18.4285   17.1365   23.8599 H   0  0  0  0  0  0  0  0  0  0  0  0
   18.8278   18.2001   25.1946 H   0  0  0  0  0  0  0  0  0  0  0  0
   20.3933   18.0402   23.6982 C   0  0  0  0  0  0  0  0  0  0  0  0
   20.8504   17.1881   24.2182 H   0  0  0  0  0  0  0  0  0  0  0  0
   20.4841   17.8222   22.6258 H   0  0  0  0  0  0  0  0  0  0  0  0
   21.1790   19.3315   24.0380 C   0  0  0  0  0  0  0  0  0  0  0  0
   21.0758   19.5653   25.1059 H   0  0  0  0  0  0  0  0  0  0  0  0
   20.7538   20.1798   23.4871 H   0  0  0  0  0  0  0  0  0  0  0  0
   22.6732   19.2309   23.6750 C   0  0  0  0  0  0  0  0  0  0  0  0
   22.7788   18.9792   22.6163 H   0  0  0  0  0  0  0  0  0  0  0  0
   23.1528   20.1987   23.8446 H   0  0  0  0  0  0  0  0  0  0  0  0
   23.4311   18.1960   24.4833 N   0  3  0  0  0  0  0  0  0  0  0  0
   23.0557   17.2533   24.3413 H   0  0  0  0  0  0  0  0  0  0  0  0
   23.3872   18.3915   25.4887 H   0  0  0  0  0  0  0  0  0  0  0  0
   24.4240   18.1654   24.2272 H   0  0  0  0  0  0  0  0  0  0  0  0
  1  2  1  0  0  0  0
  1  3  1  0  0  0  0
  1  4  1  0  0  0  0
  1  5  1  0  0  0  0
  5  6  1  0  0  0  0
  5  7  1  0  0  0  0
  5  8  1  0  0  0  0
  8  9  1  0  0  0  0
  8 10  1  0  0  0  0
  8 11  1  0  0  0  0
 11 12  1  0  0  0  0
 11 13  1  0  0  0  0
 11 14  1  0  0  0  0
 14 15  1  0  0  0  0
 14 16  1  0  0  0  0
 14 17  1  0  0  0  0
 17 18  1  0  0  0  0
 17 19  1  0  0  0  0
 17 20  1  0  0  0  0
 20 21  1  0  0  0  0
 20 22  1  0  0  0  0
 20 23  1  0  0  0  0
 23 24  1  0  0  0  0
 23 25  1  0  0  0  0
 23 26  1  0  0  0  0
M  END
> <VConfSearch Rank>
832

> <Conf_Id>
144

> <Delta U+W>
1.073

> <U+W>
-4.479

> <U>
49.231

> <W>
-53.710

> <W(PB)>
-55.983

> <W(SA)>
2.273

> <Valence>
3.276

> <Coulomb>
45.175

> <VdW>
0.779

> <VdW6>
-7.944

> <VdW12>
8.723

> <Bond>
0.239

> <Angle>
1.155

> <Pdih>
1.883

> <Idih>
0.000

> <Tether>
0.000

$$$$
VeraChem MOL file


 26 25  0  0  0  0  0  0  0  0999 V2000     
   16.9155   20.9241   23.4927 C   0  0  0  0  0  0  0  0  0  0  0  0
   16.9938   21.0980   22.4126 H   0  0  0  0  0  0  0  0  0  0  0  0
   15.8598   21.0432   23.7688 H   0  0  0  0  0  0  0  0  0  0  0  0
   17.4873   21.7057   24.0097 H   0  0  0  0  0  0  0  0  0  0  0  0
   17.4199   19.5160   23.8829 C   0  0  0  0  0  0  0  0  0  0  0  0
   16.8567   18.7528   23.3279 H   0  0  0  0  0  0  0  0  0  0  0  0
   17.2000   19.3470   24.9463 H   0  0  0  0  0  0  0  0  0  0  0  0
   18.9382   19.3171   23.6550 C   0  0  0  0  0  0  0  0  0  0  0  0
   19.4957   20.0949   24.1947 H   0  0  0  0  0  0  0  0  0  0  0  0
   19.2189   18.3559   24.1032 H   0  0  0  0  0  0  0  0  0  0  0  0
   19.3437   19.3170   22.1600 C   0  0  0  0  0  0  0  0  0  0  0  0
   18.9751   20.2323   21.6800 H   0  0  0  0  0  0  0  0  0  0  0  0
   18.8455   18.4821   21.6484 H   0  0  0  0  0  0  0  0  0  0  0  0
   20.8720   19.2374   21.9080 C   0  0  0  0  0  0  0  0  0  0  0  0
   21.0307   19.2850   20.8217 H   0  0  0  0  0  0  0  0  0  0  0  0
   21.3689   20.1269   22.3196 H   0  0  0  0  0  0  0  0  0  0  0  0
   21.5575   17.9531   22.4390 C   0  0  0  0  0  0  0  0  0  0  0  0
   22.4316   17.7377   21.8100 H   0  0  0  0  0  0  0  0  0  0  0  0
   20.8819   17.0936   22.3355 H   0  0  0  0  0  0  0  0  0  0  0  0
   22.0395   18.0856   23.8969 C   0  0  0  0  0  0  0  0  0  0  0  0
   22.7519   18.9114   23.9728 H   0  0  0  0  0  0  0  0  0  0  0  0
   21.1973   18.3015   24.5569 H   0  0  0  0  0  0  0  0  0  0  0  0
   22.7213   16.8339   24.4104 N   0  3  0  0  0  0  0  0  0  0  0  0
   23.5463   16.5920   23.8519 H   0  0  0  0  0  0  0  0  0  0  0  0
   22.0953   16.0222   24.3910 H   0  0  0  0  0  0  0  0  0  0  0  0
   23.0390   16.9432   25.3797 H   0  0  0  0  0  0  0  0  0  0  0  0
  1  2  1  0  0  0  0
  1  3  1  0  0  0  0
  1  4  1  0  0  0  0
  1  5  1  0  0  0  0
  5  6  1  0  0  0  0
  5  7  1  0  0  0  0
  5  8  1  0  0  0  0
  8  9  1  0  0  0  0
  8 10  1  0  0  0  0
  8 11  1  0  0  0  0
 11 12  1  0  0  0  0
 11 13  1  0  0  0  0
 11 14  1  0  0  0  0
 14 15  1  0  0  0  0
 14 16  1  0  0  0  0
 14 17  1  0  0  0  0
 17 18  1  0  0  0  0
 17 19  1  0  0  0  0
 17 20  1  0  0  0  0
 20 21  1  0  0  0  0
 20 22  1  0  0  0  0
 20 23  1  0  0  0  0
 23 24  1  0  0  0  0
 23 25  1  0  0  0  0
 23 26  1  0  0  0  0
M  END
> <VConfSearch Rank>
833

> <Conf_Id>
93

> <Delta U+W>
3.253

> <U+W>
-2.300

> <U>
51.609

> <W>
-53.909

> <W(PB)>
-56.178

> <W(SA)>
2.270

> <Valence>
5.204

> <Coulomb>
45.645

> <VdW>
0.760

> <VdW6>
-7.997

> <VdW12>
8.758

> <Bond>
0.240

> <Angle>
1.456

> <Pdih>
3.507

> <Idih>
0.000

> <Tether>
0.000

$$$$
VeraChem MOL file


 26 25  0  0  0  0  0  0  0  0999 V2000     
   18.0734   21.4611   21.4836 C   0  0  0  0  0  0  0  0  0  0  0  0
   17.1784   20.8659   21.7020 H   0  0  0  0  0  0  0  0  0  0  0  0
   18.2315   22.1625   22.3131 H   0  0  0  0  0  0  0  0  0  0  0  0
   17.8638   22.0505   20.5817 H   0  0  0  0  0  0  0  0  0  0  0  0
   19.3156   20.5667   21.2673 C   0  0  0  0  0  0  0  0  0  0  0  0
   20.1475   21.1987   20.9262 H   0  0  0  0  0  0  0  0  0  0  0  0
   19.1213   19.8511   20.4562 H   0  0  0  0  0  0  0  0  0  0  0  0
   19.7617   19.8083   22.5410 C   0  0  0  0  0  0  0  0  0  0  0  0
   20.7273   19.3343   22.3251 H   0  0  0  0  0  0  0  0  0  0  0  0
   19.9342   20.5260   23.3546 H   0  0  0  0  0  0  0  0  0  0  0  0
   18.7553   18.7230   22.9980 C   0  0  0  0  0  0  0  0  0  0  0  0
   18.6557   17.9645   22.2094 H   0  0  0  0  0  0  0  0  0  0  0  0
   17.7610   19.1716   23.1168 H   0  0  0  0  0  0  0  0  0  0  0  0
   19.1205   18.0297   24.3365 C   0  0  0  0  0  0  0  0  0  0  0  0
   19.1131   18.7628   25.1552 H   0  0  0  0  0  0  0  0  0  0  0  0
   18.3173   17.3169   24.5694 H   0  0  0  0  0  0  0  0  0  0  0  0
   20.4632   17.2564   24.3287 C   0  0  0  0  0  0  0  0  0  0  0  0
   20.6296   16.7976   23.3450 H   0  0  0  0  0  0  0  0  0  0  0  0
   20.3949   16.4299   25.0487 H   0  0  0  0  0  0  0  0  0  0  0  0
   21.6671   18.1345   24.7228 C   0  0  0  0  0  0  0  0  0  0  0  0
   21.7696   18.9713   24.0295 H   0  0  0  0  0  0  0  0  0  0  0  0
   21.5106   18.5405   25.7258 H   0  0  0  0  0  0  0  0  0  0  0  0
   22.9773   17.3739   24.7278 N   0  3  0  0  0  0  0  0  0  0  0  0
   22.9608   16.5892   25.3875 H   0  0  0  0  0  0  0  0  0  0  0  0
   23.7651   17.9733   24.9971 H   0  0  0  0  0  0  0  0  0  0  0  0
   23.1983   16.9870   23.8044 H   0  0  0  0  0  0  0  0  0  0  0  0
  1  2  1  0  0  0  0
  1  3  1  0  0  0  0
  1  4  1  0  0  0  0
  1  5  1  0  0  0  0
  5  6  1  0  0  0  0
  5  7  1  0  0  0  0
  5  8  1  0  0  0  0
  8  9  1  0  0  0  0
  8 10  1  0  0  0  0
  8 11  1  0  0  0  0
 11 12  1  0  0  0  0
 11 13  1  0  0  0  0
 11 14  1  0  0  0  0
 14 15  1  0  0  0  0
 14 16  1  0  0  0  0
 14 17  1  0  0  0  0
 17 18  1  0  0  0  0
 17 19  1  0  0  0  0
 17 20  1  0  0  0  0
 20 21  1  0  0  0  0
 20 22  1  0  0  0  0
 20 23  1  0  0  0  0
 23 24  1  0  0  0  0
 23 25  1  0  0  0  0
 23 26  1  0  0  0  0
M  END
> <VConfSearch Rank>
834

> <Conf_Id>
94

> <Delta U+W>
3.247

> <U+W>
-2.305

> <U>
51.609

> <W>
-53.914

> <W(PB)>
-56.221

> <W(SA)>
2.307

> <Valence>
5.204

> <Coulomb>
45.645

> <VdW>
0.760

> <VdW6>
-7.997

> <VdW12>
8.757

> <Bond>
0.240

> <Angle>
1.456

> <Pdih>
3.508

> <Idih>
0.000

> <Tether>
0.000

$$$$
VeraChem MOL file


 26 25  0  0  0  0  0  0  0  0999 V2000     
   20.1037   14.9859   24.2226 C   0  0  0  0  0  0  0  0  0  0  0  0
   19.0522   14.6898   24.1139 H   0  0  0  0  0  0  0  0  0  0  0  0
   20.6303   14.7243   23.2955 H   0  0  0  0  0  0  0  0  0  0  0  0
   20.5388   14.3914   25.0364 H   0  0  0  0  0  0  0  0  0  0  0  0
   20.2269   16.4946   24.5238 C   0  0  0  0  0  0  0  0  0  0  0  0
   21.2862   16.7536   24.6608 H   0  0  0  0  0  0  0  0  0  0  0  0
   19.7203   16.7194   25.4728 H   0  0  0  0  0  0  0  0  0  0  0  0
   19.6214   17.3551   23.3927 C   0  0  0  0  0  0  0  0  0  0  0  0
   20.1296   17.1254   22.4459 H   0  0  0  0  0  0  0  0  0  0  0  0
   18.5635   17.0904   23.2580 H   0  0  0  0  0  0  0  0  0  0  0  0
   19.7425   18.8666   23.6911 C   0  0  0  0  0  0  0  0  0  0  0  0
   20.8012   19.1221   23.8320 H   0  0  0  0  0  0  0  0  0  0  0  0
   19.2310   19.0953   24.6362 H   0  0  0  0  0  0  0  0  0  0  0  0
   19.1371   19.7261   22.5555 C   0  0  0  0  0  0  0  0  0  0  0  0
   19.6615   19.5193   21.6129 H   0  0  0  0  0  0  0  0  0  0  0  0
   18.0923   19.4261   22.3950 H   0  0  0  0  0  0  0  0  0  0  0  0
   19.1722   21.2456   22.8560 C   0  0  0  0  0  0  0  0  0  0  0  0
   18.5714   21.4512   23.7519 H   0  0  0  0  0  0  0  0  0  0  0  0
   18.6900   21.7896   22.0329 H   0  0  0  0  0  0  0  0  0  0  0  0
   20.5908   21.8110   23.0715 C   0  0  0  0  0  0  0  0  0  0  0  0
   20.5249   22.8775   23.3032 H   0  0  0  0  0  0  0  0  0  0  0  0
   21.0646   21.3088   23.9188 H   0  0  0  0  0  0  0  0  0  0  0  0
   21.4970   21.6558   21.8662 N   0  3  0  0  0  0  0  0  0  0  0  0
   21.1181   22.1328   21.0417 H   0  0  0  0  0  0  0  0  0  0  0  0
   21.6251   20.6707   21.6149 H   0  0  0  0  0  0  0  0  0  0  0  0
   22.4294   22.0475   22.0373 H   0  0  0  0  0  0  0  0  0  0  0  0
  1  2  1  0  0  0  0
  1  3  1  0  0  0  0
  1  4  1  0  0  0  0
  1  5  1  0  0  0  0
  5  6  1  0  0  0  0
  5  7  1  0  0  0  0
  5  8  1  0  0  0  0
  8  9  1  0  0  0  0
  8 10  1  0  0  0  0
  8 11  1  0  0  0  0
 11 12  1  0  0  0  0
 11 13  1  0  0  0  0
 11 14  1  0  0  0  0
 14 15  1  0  0  0  0
 14 16  1  0  0  0  0
 14 17  1  0  0  0  0
 17 18  1  0  0  0  0
 17 19  1  0  0  0  0
 17 20  1  0  0  0  0
 20 21  1  0  0  0  0
 20 22  1  0  0  0  0
 20 23  1  0  0  0  0
 23 24  1  0  0  0  0
 23 25  1  0  0  0  0
 23 26  1  0  0  0  0
M  END
> <VConfSearch Rank>
835

> <Conf_Id>
83

> <Delta U+W>
0.559

> <U+W>
-4.994

> <U>
48.668

> <W>
-53.661

> <W(PB)>
-55.972

> <W(SA)>
2.311

> <Valence>
2.543

> <Coulomb>
45.478

> <VdW>
0.646

> <VdW6>
-7.096

> <VdW12>
7.742

> <Bond>
0.176

> <Angle>
0.630

> <Pdih>
1.738

> <Idih>
0.000

> <Tether>
0.000

$$$$
VeraChem MOL file


 26 25  0  0  0  0  0  0  0  0999 V2000     
   23.9644   19.6102   23.4490 C   0  0  0  0  0  0  0  0  0  0  0  0
   24.3784   20.0050   24.3860 H   0  0  0  0  0  0  0  0  0  0  0  0
   24.2678   18.5592   23.3571 H   0  0  0  0  0  0  0  0  0  0  0  0
   24.4196   20.1663   22.6191 H   0  0  0  0  0  0  0  0  0  0  0  0
   22.4274   19.7482   23.4191 C   0  0  0  0  0  0  0  0  0  0  0  0
   22.0562   19.3818   22.4529 H   0  0  0  0  0  0  0  0  0  0  0  0
   22.1559   20.8112   23.4831 H   0  0  0  0  0  0  0  0  0  0  0  0
   21.7626   18.9684   24.5781 C   0  0  0  0  0  0  0  0  0  0  0  0
   21.9898   17.8976   24.4826 H   0  0  0  0  0  0  0  0  0  0  0  0
   22.2081   19.2939   25.5284 H   0  0  0  0  0  0  0  0  0  0  0  0
   20.2293   19.1684   24.6620 C   0  0  0  0  0  0  0  0  0  0  0  0
   20.0036   20.2381   24.7721 H   0  0  0  0  0  0  0  0  0  0  0  0
   19.8657   18.6809   25.5772 H   0  0  0  0  0  0  0  0  0  0  0  0
   19.4623   18.5947   23.4463 C   0  0  0  0  0  0  0  0  0  0  0  0
   19.7654   19.1244   22.5347 H   0  0  0  0  0  0  0  0  0  0  0  0
   19.7309   17.5382   23.3083 H   0  0  0  0  0  0  0  0  0  0  0  0
   17.9306   18.7166   23.6274 C   0  0  0  0  0  0  0  0  0  0  0  0
   17.6476   19.7718   23.7390 H   0  0  0  0  0  0  0  0  0  0  0  0
   17.6325   18.2124   24.5563 H   0  0  0  0  0  0  0  0  0  0  0  0
   17.1410   18.0927   22.4604 C   0  0  0  0  0  0  0  0  0  0  0  0
   17.4267   17.0440   22.3416 H   0  0  0  0  0  0  0  0  0  0  0  0
   16.0716   18.1313   22.6848 H   0  0  0  0  0  0  0  0  0  0  0  0
   17.3573   18.7927   21.1329 N   0  3  0  0  0  0  0  0  0  0  0  0
   18.3392   18.7604   20.8420 H   0  0  0  0  0  0  0  0  0  0  0  0
   17.0852   19.7803   21.1746 H   0  0  0  0  0  0  0  0  0  0  0  0
   16.8073   18.3620   20.3817 H   0  0  0  0  0  0  0  0  0  0  0  0
  1  2  1  0  0  0  0
  1  3  1  0  0  0  0
  1  4  1  0  0  0  0
  1  5  1  0  0  0  0
  5  6  1  0  0  0  0
  5  7  1  0  0  0  0
  5  8  1  0  0  0  0
  8  9  1  0  0  0  0
  8 10  1  0  0  0  0
  8 11  1  0  0  0  0
 11 12  1  0  0  0  0
 11 13  1  0  0  0  0
 11 14  1  0  0  0  0
 14 15  1  0  0  0  0
 14 16  1  0  0  0  0
 14 17  1  0  0  0  0
 17 18  1  0  0  0  0
 17 19  1  0  0  0  0
 17 20  1  0  0  0  0
 20 21  1  0  0  0  0
 20 22  1  0  0  0  0
 20 23  1  0  0  0  0
 23 24  1  0  0  0  0
 23 25  1  0  0  0  0
 23 26  1  0  0  0  0
M  END
> <VConfSearch Rank>
836

> <Conf_Id>
18

> <Delta U+W>
0.759

> <U+W>
-4.793

> <U>
48.945

> <W>
-53.738

> <W(PB)>
-56.051

> <W(SA)>
2.313

> <Valence>
2.802

> <Coulomb>
45.335

> <VdW>
0.807

> <VdW6>
-6.962

> <VdW12>
7.769

> <Bond>
0.189

> <Angle>
0.696

> <Pdih>
1.917

> <Idih>
0.000

> <Tether>
0.000

$$$$
VeraChem MOL file


 26 25  0  0  0  0  0  0  0  0999 V2000     
   20.4585   15.8430   25.7137 C   0  0  0  0  0  0  0  0  0  0  0  0
   19.4409   15.8355   26.1256 H   0  0  0  0  0  0  0  0  0  0  0  0
   20.6570   14.8566   25.2746 H   0  0  0  0  0  0  0  0  0  0  0  0
   21.1584   15.9876   26.5469 H   0  0  0  0  0  0  0  0  0  0  0  0
   20.6230   16.9620   24.6633 C   0  0  0  0  0  0  0  0  0  0  0  0
   21.6572   16.9632   24.2916 H   0  0  0  0  0  0  0  0  0  0  0  0
   20.4575   17.9327   25.1490 H   0  0  0  0  0  0  0  0  0  0  0  0
   19.6427   16.7816   23.4802 C   0  0  0  0  0  0  0  0  0  0  0  0
   19.7702   15.7735   23.0622 H   0  0  0  0  0  0  0  0  0  0  0  0
   18.6077   16.8348   23.8452 H   0  0  0  0  0  0  0  0  0  0  0  0
   19.8458   17.8127   22.3428 C   0  0  0  0  0  0  0  0  0  0  0  0
   19.1950   17.5343   21.5023 H   0  0  0  0  0  0  0  0  0  0  0  0
   20.8769   17.7487   21.9684 H   0  0  0  0  0  0  0  0  0  0  0  0
   19.5317   19.2687   22.7631 C   0  0  0  0  0  0  0  0  0  0  0  0
   18.5184   19.3182   23.1852 H   0  0  0  0  0  0  0  0  0  0  0  0
   20.2242   19.5826   23.5540 H   0  0  0  0  0  0  0  0  0  0  0  0
   19.6392   20.2448   21.5675 C   0  0  0  0  0  0  0  0  0  0  0  0
   18.9683   19.9120   20.7644 H   0  0  0  0  0  0  0  0  0  0  0  0
   20.6566   20.2236   21.1547 H   0  0  0  0  0  0  0  0  0  0  0  0
   19.2666   21.6918   21.9442 C   0  0  0  0  0  0  0  0  0  0  0  0
   19.2771   22.3143   21.0453 H   0  0  0  0  0  0  0  0  0  0  0  0
   18.2570   21.7149   22.3630 H   0  0  0  0  0  0  0  0  0  0  0  0
   20.2084   22.3230   22.9509 N   0  3  0  0  0  0  0  0  0  0  0  0
   21.1730   22.3505   22.6046 H   0  0  0  0  0  0  0  0  0  0  0  0
   20.2185   21.8079   23.8365 H   0  0  0  0  0  0  0  0  0  0  0  0
   19.9408   23.2891   23.1686 H   0  0  0  0  0  0  0  0  0  0  0  0
  1  2  1  0  0  0  0
  1  3  1  0  0  0  0
  1  4  1  0  0  0  0
  1  5  1  0  0  0  0
  5  6  1  0  0  0  0
  5  7  1  0  0  0  0
  5  8  1  0  0  0  0
  8  9  1  0  0  0  0
  8 10  1  0  0  0  0
  8 11  1  0  0  0  0
 11 12  1  0  0  0  0
 11 13  1  0  0  0  0
 11 14  1  0  0  0  0
 14 15  1  0  0  0  0
 14 16  1  0  0  0  0
 14 17  1  0  0  0  0
 17 18  1  0  0  0  0
 17 19  1  0  0  0  0
 17 20  1  0  0  0  0
 20 21  1  0  0  0  0
 20 22  1  0  0  0  0
 20 23  1  0  0  0  0
 23 24  1  0  0  0  0
 23 25  1  0  0  0  0
 23 26  1  0  0  0  0
M  END
> <VConfSearch Rank>
837

> <Conf_Id>
17

> <Delta U+W>
0.843

> <U+W>
-4.709

> <U>
48.945

> <W>
-53.653

> <W(PB)>
-55.991

> <W(SA)>
2.338

> <Valence>
2.802

> <Coulomb>
45.335

> <VdW>
0.807

> <VdW6>
-6.962

> <VdW12>
7.769

> <Bond>
0.189

> <Angle>
0.696

> <Pdih>
1.917

> <Idih>
0.000

> <Tether>
0.000

$$$$
VeraChem MOL file


 26 25  0  0  0  0  0  0  0  0999 V2000     
   16.5488   19.5364   22.9446 C   0  0  0  0  0  0  0  0  0  0  0  0
   17.2917   19.8826   22.2154 H   0  0  0  0  0  0  0  0  0  0  0  0
   16.3027   18.4913   22.7161 H   0  0  0  0  0  0  0  0  0  0  0  0
   15.6402   20.1348   22.7987 H   0  0  0  0  0  0  0  0  0  0  0  0
   17.0649   19.6817   24.3943 C   0  0  0  0  0  0  0  0  0  0  0  0
   16.2461   19.4417   25.0869 H   0  0  0  0  0  0  0  0  0  0  0  0
   17.3337   20.7296   24.5876 H   0  0  0  0  0  0  0  0  0  0  0  0
   18.2700   18.7645   24.7138 C   0  0  0  0  0  0  0  0  0  0  0  0
   18.4969   18.8486   25.7856 H   0  0  0  0  0  0  0  0  0  0  0  0
   17.9900   17.7165   24.5386 H   0  0  0  0  0  0  0  0  0  0  0  0
   19.5402   19.1084   23.8994 C   0  0  0  0  0  0  0  0  0  0  0  0
   19.7881   20.1697   24.0388 H   0  0  0  0  0  0  0  0  0  0  0  0
   19.3409   18.9641   22.8302 H   0  0  0  0  0  0  0  0  0  0  0  0
   20.7459   18.2361   24.3243 C   0  0  0  0  0  0  0  0  0  0  0  0
   20.9137   18.3523   25.4040 H   0  0  0  0  0  0  0  0  0  0  0  0
   20.5125   17.1752   24.1586 H   0  0  0  0  0  0  0  0  0  0  0  0
   22.0515   18.5996   23.5786 C   0  0  0  0  0  0  0  0  0  0  0  0
   22.8763   18.0055   23.9942 H   0  0  0  0  0  0  0  0  0  0  0  0
   22.2999   19.6536   23.7617 H   0  0  0  0  0  0  0  0  0  0  0  0
   21.9622   18.3444   22.0623 C   0  0  0  0  0  0  0  0  0  0  0  0
   21.7155   17.2949   21.8798 H   0  0  0  0  0  0  0  0  0  0  0  0
   21.1736   18.9643   21.6281 H   0  0  0  0  0  0  0  0  0  0  0  0
   23.2526   18.6553   21.3319 N   0  3  0  0  0  0  0  0  0  0  0  0
   23.1724   18.4788   20.3245 H   0  0  0  0  0  0  0  0  0  0  0  0
   24.0323   18.0840   21.6736 H   0  0  0  0  0  0  0  0  0  0  0  0
   23.5270   19.6371   21.4419 H   0  0  0  0  0  0  0  0  0  0  0  0
  1  2  1  0  0  0  0
  1  3  1  0  0  0  0
  1  4  1  0  0  0  0
  1  5  1  0  0  0  0
  5  6  1  0  0  0  0
  5  7  1  0  0  0  0
  5  8  1  0  0  0  0
  8  9  1  0  0  0  0
  8 10  1  0  0  0  0
  8 11  1  0  0  0  0
 11 12  1  0  0  0  0
 11 13  1  0  0  0  0
 11 14  1  0  0  0  0
 14 15  1  0  0  0  0
 14 16  1  0  0  0  0
 14 17  1  0  0  0  0
 17 18  1  0  0  0  0
 17 19  1  0  0  0  0
 17 20  1  0  0  0  0
 20 21  1  0  0  0  0
 20 22  1  0  0  0  0
 20 23  1  0  0  0  0
 23 24  1  0  0  0  0
 23 25  1  0  0  0  0
 23 26  1  0  0  0  0
M  END
> <VConfSearch Rank>
838

> <Conf_Id>
96

> <Delta U+W>
0.912

> <U+W>
-4.640

> <U>
48.723

> <W>
-53.364

> <W(PB)>
-55.683

> <W(SA)>
2.320

> <Valence>
2.962

> <Coulomb>
44.993

> <VdW>
0.768

> <VdW6>
-7.008

> <VdW12>
7.776

> <Bond>
0.188

> <Angle>
0.757

> <Pdih>
2.018

> <Idih>
0.000

> <Tether>
0.000

$$$$
VeraChem MOL file


 26 25  0  0  0  0  0  0  0  0999 V2000     
   22.4160   19.4961   25.8185 C   0  0  0  0  0  0  0  0  0  0  0  0
   23.3995   19.6915   26.2650 H   0  0  0  0  0  0  0  0  0  0  0  0
   21.7695   19.0775   26.6007 H   0  0  0  0  0  0  0  0  0  0  0  0
   22.5529   18.7345   25.0408 H   0  0  0  0  0  0  0  0  0  0  0  0
   21.8168   20.7979   25.2397 C   0  0  0  0  0  0  0  0  0  0  0  0
   22.4653   21.1791   24.4385 H   0  0  0  0  0  0  0  0  0  0  0  0
   21.8150   21.5664   26.0254 H   0  0  0  0  0  0  0  0  0  0  0  0
   20.3729   20.6283   24.7084 C   0  0  0  0  0  0  0  0  0  0  0  0
   19.7243   20.2664   25.5181 H   0  0  0  0  0  0  0  0  0  0  0  0
   19.9885   21.6173   24.4232 H   0  0  0  0  0  0  0  0  0  0  0  0
   20.2707   19.6760   23.4928 C   0  0  0  0  0  0  0  0  0  0  0  0
   20.5920   18.6691   23.7872 H   0  0  0  0  0  0  0  0  0  0  0  0
   20.9574   20.0139   22.7045 H   0  0  0  0  0  0  0  0  0  0  0  0
   18.8295   19.6169   22.9319 C   0  0  0  0  0  0  0  0  0  0  0  0
   18.1441   19.2512   23.7091 H   0  0  0  0  0  0  0  0  0  0  0  0
   18.4979   20.6334   22.6788 H   0  0  0  0  0  0  0  0  0  0  0  0
   18.7035   18.7272   21.6728 C   0  0  0  0  0  0  0  0  0  0  0  0
   19.3703   19.1046   20.8861 H   0  0  0  0  0  0  0  0  0  0  0  0
   17.6803   18.8058   21.2821 H   0  0  0  0  0  0  0  0  0  0  0  0
   19.0217   17.2469   21.9554 C   0  0  0  0  0  0  0  0  0  0  0  0
   20.0535   17.1494   22.3026 H   0  0  0  0  0  0  0  0  0  0  0  0
   18.3575   16.8708   22.7382 H   0  0  0  0  0  0  0  0  0  0  0  0
   18.8563   16.3620   20.7367 N   0  3  0  0  0  0  0  0  0  0  0  0
   19.4749   16.6473   19.9705 H   0  0  0  0  0  0  0  0  0  0  0  0
   17.8972   16.3855   20.3749 H   0  0  0  0  0  0  0  0  0  0  0  0
   19.0724   15.3812   20.9457 H   0  0  0  0  0  0  0  0  0  0  0  0
  1  2  1  0  0  0  0
  1  3  1  0  0  0  0
  1  4  1  0  0  0  0
  1  5  1  0  0  0  0
  5  6  1  0  0  0  0
  5  7  1  0  0  0  0
  5  8  1  0  0  0  0
  8  9  1  0  0  0  0
  8 10  1  0  0  0  0
  8 11  1  0  0  0  0
 11 12  1  0  0  0  0
 11 13  1  0  0  0  0
 11 14  1  0  0  0  0
 14 15  1  0  0  0  0
 14 16  1  0  0  0  0
 14 17  1  0  0  0  0
 17 18  1  0  0  0  0
 17 19  1  0  0  0  0
 17 20  1  0  0  0  0
 20 21  1  0  0  0  0
 20 22  1  0  0  0  0
 20 23  1  0  0  0  0
 23 24  1  0  0  0  0
 23 25  1  0  0  0  0
 23 26  1  0  0  0  0
M  END
> <VConfSearch Rank>
839

> <Conf_Id>
133

> <Delta U+W>
0.844

> <U+W>
-4.708

> <U>
48.723

> <W>
-53.431

> <W(PB)>
-55.776

> <W(SA)>
2.344

> <Valence>
2.962

> <Coulomb>
44.993

> <VdW>
0.768

> <VdW6>
-7.008

> <VdW12>
7.776

> <Bond>
0.188

> <Angle>
0.756

> <Pdih>
2.018

> <Idih>
0.000

> <Tether>
0.000

$$$$
VeraChem MOL file


 26 25  0  0  0  0  0  0  0  0999 V2000     
   20.4099   18.2409   20.0651 C   0  0  0  0  0  0  0  0  0  0  0  0
   21.2023   17.5295   19.7987 H   0  0  0  0  0  0  0  0  0  0  0  0
   19.7239   17.7464   20.7641 H   0  0  0  0  0  0  0  0  0  0  0  0
   19.8437   18.4705   19.1532 H   0  0  0  0  0  0  0  0  0  0  0  0
   21.0038   19.5316   20.6729 C   0  0  0  0  0  0  0  0  0  0  0  0
   20.1928   20.2185   20.9495 H   0  0  0  0  0  0  0  0  0  0  0  0
   21.5861   20.0513   19.8992 H   0  0  0  0  0  0  0  0  0  0  0  0
   21.9255   19.2718   21.8918 C   0  0  0  0  0  0  0  0  0  0  0  0
   22.7938   18.6854   21.5611 H   0  0  0  0  0  0  0  0  0  0  0  0
   22.3278   20.2323   22.2422 H   0  0  0  0  0  0  0  0  0  0  0  0
   21.2572   18.5402   23.0846 C   0  0  0  0  0  0  0  0  0  0  0  0
   22.0126   18.3998   23.8700 H   0  0  0  0  0  0  0  0  0  0  0  0
   20.9485   17.5315   22.7796 H   0  0  0  0  0  0  0  0  0  0  0  0
   20.0480   19.3015   23.6787 C   0  0  0  0  0  0  0  0  0  0  0  0
   20.3506   20.3248   23.9408 H   0  0  0  0  0  0  0  0  0  0  0  0
   19.2527   19.3859   22.9262 H   0  0  0  0  0  0  0  0  0  0  0  0
   19.4836   18.5944   24.9305 C   0  0  0  0  0  0  0  0  0  0  0  0
   20.2675   18.5139   25.6955 H   0  0  0  0  0  0  0  0  0  0  0  0
   19.1793   17.5715   24.6714 H   0  0  0  0  0  0  0  0  0  0  0  0
   18.2787   19.3551   25.5114 C   0  0  0  0  0  0  0  0  0  0  0  0
   18.5811   20.3694   25.7857 H   0  0  0  0  0  0  0  0  0  0  0  0
   17.4886   19.4233   24.7587 H   0  0  0  0  0  0  0  0  0  0  0  0
   17.6956   18.6919   26.7426 N   0  3  0  0  0  0  0  0  0  0  0  0
   16.8945   19.2145   27.1134 H   0  0  0  0  0  0  0  0  0  0  0  0
   18.3826   18.6217   27.5004 H   0  0  0  0  0  0  0  0  0  0  0  0
   17.3660   17.7414   26.5448 H   0  0  0  0  0  0  0  0  0  0  0  0
  1  2  1  0  0  0  0
  1  3  1  0  0  0  0
  1  4  1  0  0  0  0
  1  5  1  0  0  0  0
  5  6  1  0  0  0  0
  5  7  1  0  0  0  0
  5  8  1  0  0  0  0
  8  9  1  0  0  0  0
  8 10  1  0  0  0  0
  8 11  1  0  0  0  0
 11 12  1  0  0  0  0
 11 13  1  0  0  0  0
 11 14  1  0  0  0  0
 14 15  1  0  0  0  0
 14 16  1  0  0  0  0
 14 17  1  0  0  0  0
 17 18  1  0  0  0  0
 17 19  1  0  0  0  0
 17 20  1  0  0  0  0
 20 21  1  0  0  0  0
 20 22  1  0  0  0  0
 20 23  1  0  0  0  0
 23 24  1  0  0  0  0
 23 25  1  0  0  0  0
 23 26  1  0  0  0  0
M  END
> <VConfSearch Rank>
840

> <Conf_Id>
106

> <Delta U+W>
0.767

> <U+W>
-4.785

> <U>
48.494

> <W>
-53.279

> <W(PB)>
-55.569

> <W(SA)>
2.290

> <Valence>
3.117

> <Coulomb>
44.693

> <VdW>
0.684

> <VdW6>
-7.347

> <VdW12>
8.030

> <Bond>
0.208

> <Angle>
1.039

> <Pdih>
1.870

> <Idih>
0.000

> <Tether>
0.000

$$$$
VeraChem MOL file


 26 25  0  0  0  0  0  0  0  0999 V2000     
   15.5569   19.2798   22.7901 C   0  0  0  0  0  0  0  0  0  0  0  0
   15.4667   20.2198   23.3499 H   0  0  0  0  0  0  0  0  0  0  0  0
   15.5953   19.5215   21.7199 H   0  0  0  0  0  0  0  0  0  0  0  0
   14.6476   18.6917   22.9703 H   0  0  0  0  0  0  0  0  0  0  0  0
   16.8106   18.4923   23.2263 C   0  0  0  0  0  0  0  0  0  0  0  0
   16.8551   17.5430   22.6743 H   0  0  0  0  0  0  0  0  0  0  0  0
   16.7274   18.2358   24.2918 H   0  0  0  0  0  0  0  0  0  0  0  0
   18.1058   19.2983   22.9834 C   0  0  0  0  0  0  0  0  0  0  0  0
   18.1832   19.5544   21.9176 H   0  0  0  0  0  0  0  0  0  0  0  0
   18.0556   20.2471   23.5353 H   0  0  0  0  0  0  0  0  0  0  0  0
   19.3635   18.5129   23.4189 C   0  0  0  0  0  0  0  0  0  0  0  0
   19.4127   17.5641   22.8667 H   0  0  0  0  0  0  0  0  0  0  0  0
   19.2850   18.2568   24.4846 H   0  0  0  0  0  0  0  0  0  0  0  0
   20.6590   19.3198   23.1757 C   0  0  0  0  0  0  0  0  0  0  0  0
   20.7378   19.5761   22.1100 H   0  0  0  0  0  0  0  0  0  0  0  0
   20.6101   20.2687   23.7280 H   0  0  0  0  0  0  0  0  0  0  0  0
   21.9164   18.5354   23.6107 C   0  0  0  0  0  0  0  0  0  0  0  0
   21.9718   17.5886   23.0570 H   0  0  0  0  0  0  0  0  0  0  0  0
   21.8439   18.2817   24.6768 H   0  0  0  0  0  0  0  0  0  0  0  0
   23.2000   19.3478   23.3645 C   0  0  0  0  0  0  0  0  0  0  0  0
   23.2850   19.5886   22.3013 H   0  0  0  0  0  0  0  0  0  0  0  0
   23.1565   20.2843   23.9270 H   0  0  0  0  0  0  0  0  0  0  0  0
   24.4573   18.6112   23.7792 N   0  3  0  0  0  0  0  0  0  0  0  0
   25.3004   19.1697   23.6068 H   0  0  0  0  0  0  0  0  0  0  0  0
   24.5721   17.7315   23.2652 H   0  0  0  0  0  0  0  0  0  0  0  0
   24.4525   18.3789   24.7778 H   0  0  0  0  0  0  0  0  0  0  0  0
  1  2  1  0  0  0  0
  1  3  1  0  0  0  0
  1  4  1  0  0  0  0
  1  5  1  0  0  0  0
  5  6  1  0  0  0  0
  5  7  1  0  0  0  0
  5  8  1  0  0  0  0
  8  9  1  0  0  0  0
  8 10  1  0  0  0  0
  8 11  1  0  0  0  0
 11 12  1  0  0  0  0
 11 13  1  0  0  0  0
 11 14  1  0  0  0  0
 14 15  1  0  0  0  0
 14 16  1  0  0  0  0
 14 17  1  0  0  0  0
 17 18  1  0  0  0  0
 17 19  1  0  0  0  0
 17 20  1  0  0  0  0
 20 21  1  0  0  0  0
 20 22  1  0  0  0  0
 20 23  1  0  0  0  0
 23 24  1  0  0  0  0
 23 25  1  0  0  0  0
 23 26  1  0  0  0  0
M  END
> <VConfSearch Rank>
841

> <Conf_Id>
25

> <Delta U+W>
0.000

> <U+W>
-5.552

> <U>
47.192

> <W>
-52.745

> <W(PB)>
-55.134

> <W(SA)>
2.389

> <Valence>
2.156

> <Coulomb>
44.449

> <VdW>
0.587

> <VdW6>
-5.761

> <VdW12>
6.348

> <Bond>
0.129

> <Angle>
0.393

> <Pdih>
1.634

> <Idih>
0.000

> <Tether>
0.000

$$$$
VeraChem MOL file


 26 25  0  0  0  0  0  0  0  0999 V2000     
   17.5698   22.4188   22.3625 C   0  0  0  0  0  0  0  0  0  0  0  0
   16.6408   21.8466   22.2409 H   0  0  0  0  0  0  0  0  0  0  0  0
   17.6213   22.7705   23.4012 H   0  0  0  0  0  0  0  0  0  0  0  0
   17.5104   23.3002   21.7108 H   0  0  0  0  0  0  0  0  0  0  0  0
   18.8014   21.5595   22.0060 C   0  0  0  0  0  0  0  0  0  0  0  0
   19.7113   22.1681   22.1043 H   0  0  0  0  0  0  0  0  0  0  0  0
   18.7383   21.2514   20.9529 H   0  0  0  0  0  0  0  0  0  0  0  0
   18.9088   20.3111   22.9093 C   0  0  0  0  0  0  0  0  0  0  0  0
   18.9691   20.6241   23.9609 H   0  0  0  0  0  0  0  0  0  0  0  0
   17.9962   19.7072   22.8094 H   0  0  0  0  0  0  0  0  0  0  0  0
   20.1410   19.4481   22.5553 C   0  0  0  0  0  0  0  0  0  0  0  0
   21.0532   20.0526   22.6557 H   0  0  0  0  0  0  0  0  0  0  0  0
   20.0801   19.1366   21.5033 H   0  0  0  0  0  0  0  0  0  0  0  0
   20.2479   18.1988   23.4589 C   0  0  0  0  0  0  0  0  0  0  0  0
   20.3034   18.5157   24.5089 H   0  0  0  0  0  0  0  0  0  0  0  0
   19.3369   17.5928   23.3562 H   0  0  0  0  0  0  0  0  0  0  0  0
   21.4824   17.3369   23.1035 C   0  0  0  0  0  0  0  0  0  0  0  0
   22.4014   17.9240   23.2328 H   0  0  0  0  0  0  0  0  0  0  0  0
   21.4367   17.0561   22.0428 H   0  0  0  0  0  0  0  0  0  0  0  0
   21.5719   16.0492   23.9451 C   0  0  0  0  0  0  0  0  0  0  0  0
   20.6556   15.4653   23.8231 H   0  0  0  0  0  0  0  0  0  0  0  0
   22.4114   15.4436   23.5931 H   0  0  0  0  0  0  0  0  0  0  0  0
   21.7759   16.3010   25.4262 N   0  3  0  0  0  0  0  0  0  0  0  0
   21.0013   16.8360   25.8307 H   0  0  0  0  0  0  0  0  0  0  0  0
   22.6363   16.8281   25.6079 H   0  0  0  0  0  0  0  0  0  0  0  0
   21.8442   15.4248   25.9554 H   0  0  0  0  0  0  0  0  0  0  0  0
  1  2  1  0  0  0  0
  1  3  1  0  0  0  0
  1  4  1  0  0  0  0
  1  5  1  0  0  0  0
  5  6  1  0  0  0  0
  5  7  1  0  0  0  0
  5  8  1  0  0  0  0
  8  9  1  0  0  0  0
  8 10  1  0  0  0  0
  8 11  1  0  0  0  0
 11 12  1  0  0  0  0
 11 13  1  0  0  0  0
 11 14  1  0  0  0  0
 14 15  1  0  0  0  0
 14 16  1  0  0  0  0
 14 17  1  0  0  0  0
 17 18  1  0  0  0  0
 17 19  1  0  0  0  0
 17 20  1  0  0  0  0
 20 21  1  0  0  0  0
 20 22  1  0  0  0  0
 20 23  1  0  0  0  0
 23 24  1  0  0  0  0
 23 25  1  0  0  0  0
 23 26  1  0  0  0  0
M  END
> <VConfSearch Rank>
842

> <Conf_Id>
20

> <Delta U+W>
0.150

> <U+W>
-5.403

> <U>
47.845

> <W>
-53.248

> <W(PB)>
-55.599

> <W(SA)>
2.351

> <Valence>
2.258

> <Coulomb>
44.893

> <VdW>
0.694

> <VdW6>
-6.285

> <VdW12>
6.979

> <Bond>
0.149

> <Angle>
0.434

> <Pdih>
1.675

> <Idih>
0.000

> <Tether>
0.000

$$$$
VeraChem MOL file


 26 25  0  0  0  0  0  0  0  0999 V2000     
   17.1435   20.2340   26.2885 C   0  0  0  0  0  0  0  0  0  0  0  0
   17.7438   21.1272   26.5053 H   0  0  0  0  0  0  0  0  0  0  0  0
   16.3556   20.5157   25.5778 H   0  0  0  0  0  0  0  0  0  0  0  0
   16.6587   19.9191   27.2217 H   0  0  0  0  0  0  0  0  0  0  0  0
   18.0224   19.0992   25.7211 C   0  0  0  0  0  0  0  0  0  0  0  0
   17.4012   18.2095   25.5465 H   0  0  0  0  0  0  0  0  0  0  0  0
   18.7787   18.8164   26.4667 H   0  0  0  0  0  0  0  0  0  0  0  0
   18.7171   19.5166   24.4060 C   0  0  0  0  0  0  0  0  0  0  0  0
   17.9573   19.8005   23.6647 H   0  0  0  0  0  0  0  0  0  0  0  0
   19.3348   20.4075   24.5850 H   0  0  0  0  0  0  0  0  0  0  0  0
   19.5982   18.3827   23.8348 C   0  0  0  0  0  0  0  0  0  0  0  0
   18.9796   17.4920   23.6573 H   0  0  0  0  0  0  0  0  0  0  0  0
   20.3580   18.0996   24.5765 H   0  0  0  0  0  0  0  0  0  0  0  0
   20.2924   18.8004   22.5187 C   0  0  0  0  0  0  0  0  0  0  0  0
   19.5325   19.0806   21.7760 H   0  0  0  0  0  0  0  0  0  0  0  0
   20.9051   19.6935   22.7007 H   0  0  0  0  0  0  0  0  0  0  0  0
   21.1747   17.6644   21.9491 C   0  0  0  0  0  0  0  0  0  0  0  0
   20.5614   16.7648   21.8056 H   0  0  0  0  0  0  0  0  0  0  0  0
   21.9578   17.3976   22.6713 H   0  0  0  0  0  0  0  0  0  0  0  0
   21.8225   18.0328   20.6004 C   0  0  0  0  0  0  0  0  0  0  0  0
   22.3620   17.1662   20.2085 H   0  0  0  0  0  0  0  0  0  0  0  0
   21.0455   18.3046   19.8808 H   0  0  0  0  0  0  0  0  0  0  0  0
   22.8050   19.1840   20.6894 N   0  3  0  0  0  0  0  0  0  0  0  0
   23.5741   18.9792   21.3356 H   0  0  0  0  0  0  0  0  0  0  0  0
   22.3541   20.0437   21.0174 H   0  0  0  0  0  0  0  0  0  0  0  0
   23.2274   19.3953   19.7787 H   0  0  0  0  0  0  0  0  0  0  0  0
  1  2  1  0  0  0  0
  1  3  1  0  0  0  0
  1  4  1  0  0  0  0
  1  5  1  0  0  0  0
  5  6  1  0  0  0  0
  5  7  1  0  0  0  0
  5  8  1  0  0  0  0
  8  9  1  0  0  0  0
  8 10  1  0  0  0  0
  8 11  1  0  0  0  0
 11 12  1  0  0  0  0
 11 13  1  0  0  0  0
 11 14  1  0  0  0  0
 14 15  1  0  0  0  0
 14 16  1  0  0  0  0
 14 17  1  0  0  0  0
 17 18  1  0  0  0  0
 17 19  1  0  0  0  0
 17 20  1  0  0  0  0
 20 21  1  0  0  0  0
 20 22  1  0  0  0  0
 20 23  1  0  0  0  0
 23 24  1  0  0  0  0
 23 25  1  0  0  0  0
 23 26  1  0  0  0  0
M  END
> <VConfSearch Rank>
843

> <Conf_Id>
19

> <Delta U+W>
0.162

> <U+W>
-5.391

> <U>
47.845

> <W>
-53.235

> <W(PB)>
-55.585

> <W(SA)>
2.349

> <Valence>
2.258

> <Coulomb>
44.893

> <VdW>
0.694

> <VdW6>
-6.285

> <VdW12>
6.979

> <Bond>
0.149

> <Angle>
0.434

> <Pdih>
1.675

> <Idih>
0.000

> <Tether>
0.000

$$$$
VeraChem MOL file


 26 25  0  0  0  0  0  0  0  0999 V2000     
   15.9210   18.1201   23.0417 C   0  0  0  0  0  0  0  0  0  0  0  0
   15.2554   18.9772   23.2077 H   0  0  0  0  0  0  0  0  0  0  0  0
   15.9128   17.8832   21.9698 H   0  0  0  0  0  0  0  0  0  0  0  0
   15.5026   17.2598   23.5802 H   0  0  0  0  0  0  0  0  0  0  0  0
   17.3527   18.4255   23.5310 C   0  0  0  0  0  0  0  0  0  0  0  0
   17.9760   17.5332   23.3864 H   0  0  0  0  0  0  0  0  0  0  0  0
   17.3327   18.6294   24.6107 H   0  0  0  0  0  0  0  0  0  0  0  0
   17.9653   19.6329   22.7825 C   0  0  0  0  0  0  0  0  0  0  0  0
   18.0338   19.4076   21.7093 H   0  0  0  0  0  0  0  0  0  0  0  0
   17.2857   20.4914   22.8741 H   0  0  0  0  0  0  0  0  0  0  0  0
   19.3579   20.0512   23.3151 C   0  0  0  0  0  0  0  0  0  0  0  0
   19.2854   20.2912   24.3849 H   0  0  0  0  0  0  0  0  0  0  0  0
   19.6578   20.9801   22.8105 H   0  0  0  0  0  0  0  0  0  0  0  0
   20.4533   18.9807   23.0924 C   0  0  0  0  0  0  0  0  0  0  0  0
   20.2075   18.0693   23.6531 H   0  0  0  0  0  0  0  0  0  0  0  0
   20.4856   18.7033   22.0295 H   0  0  0  0  0  0  0  0  0  0  0  0
   21.8450   19.4837   23.5350 C   0  0  0  0  0  0  0  0  0  0  0  0
   21.8171   19.7609   24.5973 H   0  0  0  0  0  0  0  0  0  0  0  0
   22.1079   20.3893   22.9721 H   0  0  0  0  0  0  0  0  0  0  0  0
   22.9274   18.4124   23.3140 C   0  0  0  0  0  0  0  0  0  0  0  0
   22.6788   17.5143   23.8858 H   0  0  0  0  0  0  0  0  0  0  0  0
   22.9699   18.1451   22.2546 H   0  0  0  0  0  0  0  0  0  0  0  0
   24.3089   18.8685   23.7369 N   0  3  0  0  0  0  0  0  0  0  0  0
   24.3436   19.1096   24.7328 H   0  0  0  0  0  0  0  0  0  0  0  0
   24.6145   19.6966   23.2151 H   0  0  0  0  0  0  0  0  0  0  0  0
   25.0147   18.1405   23.5813 H   0  0  0  0  0  0  0  0  0  0  0  0
  1  2  1  0  0  0  0
  1  3  1  0  0  0  0
  1  4  1  0  0  0  0
  1  5  1  0  0  0  0
  5  6  1  0  0  0  0
  5  7  1  0  0  0  0
  5  8  1  0  0  0  0
  8  9  1  0  0  0  0
  8 10  1  0  0  0  0
  8 11  1  0  0  0  0
 11 12  1  0  0  0  0
 11 13  1  0  0  0  0
 11 14  1  0  0  0  0
 14 15  1  0  0  0  0
 14 16  1  0  0  0  0
 14 17  1  0  0  0  0
 17 18  1  0  0  0  0
 17 19  1  0  0  0  0
 17 20  1  0  0  0  0
 20 21  1  0  0  0  0
 20 22  1  0  0  0  0
 20 23  1  0  0  0  0
 23 24  1  0  0  0  0
 23 25  1  0  0  0  0
 23 26  1  0  0  0  0
M  END
> <VConfSearch Rank>
844

> <Conf_Id>
37

> <Delta U+W>
0.565

> <U+W>
-4.988

> <U>
48.035

> <W>
-53.022

> <W(PB)>
-55.379

> <W(SA)>
2.357

> <Valence>
2.701

> <Coulomb>
44.622

> <VdW>
0.712

> <VdW6>
-6.418

> <VdW12>
7.129

> <Bond>
0.168

> <Angle>
0.659

> <Pdih>
1.875

> <Idih>
0.000

> <Tether>
0.000

$$$$
VeraChem MOL file


 26 25  0  0  0  0  0  0  0  0999 V2000     
   22.7384   21.7314   22.6917 C   0  0  0  0  0  0  0  0  0  0  0  0
   22.5892   21.8835   23.7687 H   0  0  0  0  0  0  0  0  0  0  0  0
   23.5630   21.0191   22.5579 H   0  0  0  0  0  0  0  0  0  0  0  0
   23.0474   22.6903   22.2557 H   0  0  0  0  0  0  0  0  0  0  0  0
   21.4473   21.2180   22.0196 C   0  0  0  0  0  0  0  0  0  0  0  0
   21.6176   21.1094   20.9393 H   0  0  0  0  0  0  0  0  0  0  0  0
   20.6508   21.9655   22.1414 H   0  0  0  0  0  0  0  0  0  0  0  0
   20.9903   19.8677   22.6148 C   0  0  0  0  0  0  0  0  0  0  0  0
   21.7889   19.1236   22.4888 H   0  0  0  0  0  0  0  0  0  0  0  0
   20.8329   19.9879   23.6946 H   0  0  0  0  0  0  0  0  0  0  0  0
   19.6934   19.3541   21.9442 C   0  0  0  0  0  0  0  0  0  0  0  0
   19.8452   19.3142   20.8567 H   0  0  0  0  0  0  0  0  0  0  0  0
   18.8785   20.0710   22.1155 H   0  0  0  0  0  0  0  0  0  0  0  0
   19.2590   17.9493   22.4299 C   0  0  0  0  0  0  0  0  0  0  0  0
   18.4051   17.6193   21.8219 H   0  0  0  0  0  0  0  0  0  0  0  0
   20.0672   17.2287   22.2427 H   0  0  0  0  0  0  0  0  0  0  0  0
   18.8579   17.9067   23.9231 C   0  0  0  0  0  0  0  0  0  0  0  0
   18.0858   18.6623   24.1204 H   0  0  0  0  0  0  0  0  0  0  0  0
   19.7212   18.1528   24.5540 H   0  0  0  0  0  0  0  0  0  0  0  0
   18.3272   16.5181   24.3207 C   0  0  0  0  0  0  0  0  0  0  0  0
   17.4543   16.2692   23.7112 H   0  0  0  0  0  0  0  0  0  0  0  0
   19.0984   15.7641   24.1413 H   0  0  0  0  0  0  0  0  0  0  0  0
   17.9197   16.4328   25.7775 N   0  3  0  0  0  0  0  0  0  0  0  0
   17.1755   17.1002   26.0059 H   0  0  0  0  0  0  0  0  0  0  0  0
   18.7052   16.6294   26.4064 H   0  0  0  0  0  0  0  0  0  0  0  0
   17.5689   15.5000   26.0208 H   0  0  0  0  0  0  0  0  0  0  0  0
  1  2  1  0  0  0  0
  1  3  1  0  0  0  0
  1  4  1  0  0  0  0
  1  5  1  0  0  0  0
  5  6  1  0  0  0  0
  5  7  1  0  0  0  0
  5  8  1  0  0  0  0
  8  9  1  0  0  0  0
  8 10  1  0  0  0  0
  8 11  1  0  0  0  0
 11 12  1  0  0  0  0
 11 13  1  0  0  0  0
 11 14  1  0  0  0  0
 14 15  1  0  0  0  0
 14 16  1  0  0  0  0
 14 17  1  0  0  0  0
 17 18  1  0  0  0  0
 17 19  1  0  0  0  0
 17 20  1  0  0  0  0
 20 21  1  0  0  0  0
 20 22  1  0  0  0  0
 20 23  1  0  0  0  0
 23 24  1  0  0  0  0
 23 25  1  0  0  0  0
 23 26  1  0  0  0  0
M  END
> <VConfSearch Rank>
845

> <Conf_Id>
35

> <Delta U+W>
0.587

> <U+W>
-4.965

> <U>
48.214

> <W>
-53.179

> <W(PB)>
-55.527

> <W(SA)>
2.348

> <Valence>
2.697

> <Coulomb>
44.819

> <VdW>
0.699

> <VdW6>
-6.437

> <VdW12>
7.136

> <Bond>
0.168

> <Angle>
0.657

> <Pdih>
1.872

> <Idih>
0.000

> <Tether>
0.000

$$$$
VeraChem MOL file


 26 25  0  0  0  0  0  0  0  0999 V2000     
   16.4459   20.2506   22.0617 C   0  0  0  0  0  0  0  0  0  0  0  0
   16.8140   20.6709   21.1166 H   0  0  0  0  0  0  0  0  0  0  0  0
   16.2906   19.1732   21.9192 H   0  0  0  0  0  0  0  0  0  0  0  0
   15.4705   20.7062   22.2759 H   0  0  0  0  0  0  0  0  0  0  0  0
   17.4381   20.5209   23.2126 C   0  0  0  0  0  0  0  0  0  0  0  0
   17.0280   20.1187   24.1496 H   0  0  0  0  0  0  0  0  0  0  0  0
   17.5457   21.6055   23.3534 H   0  0  0  0  0  0  0  0  0  0  0  0
   18.8210   19.8904   22.9359 C   0  0  0  0  0  0  0  0  0  0  0  0
   18.6980   18.8096   22.7883 H   0  0  0  0  0  0  0  0  0  0  0  0
   19.2276   20.2970   21.9997 H   0  0  0  0  0  0  0  0  0  0  0  0
   19.8154   20.1575   24.0915 C   0  0  0  0  0  0  0  0  0  0  0  0
   19.4372   19.7045   25.0183 H   0  0  0  0  0  0  0  0  0  0  0  0
   19.8666   21.2395   24.2759 H   0  0  0  0  0  0  0  0  0  0  0  0
   21.2475   19.6408   23.8085 C   0  0  0  0  0  0  0  0  0  0  0  0
   21.6328   20.1070   22.8910 H   0  0  0  0  0  0  0  0  0  0  0  0
   21.9054   19.9744   24.6231 H   0  0  0  0  0  0  0  0  0  0  0  0
   21.3384   18.1013   23.6890 C   0  0  0  0  0  0  0  0  0  0  0  0
   20.7535   17.7534   22.8283 H   0  0  0  0  0  0  0  0  0  0  0  0
   20.9069   17.6347   24.5846 H   0  0  0  0  0  0  0  0  0  0  0  0
   22.7964   17.6378   23.5234 C   0  0  0  0  0  0  0  0  0  0  0  0
   23.2255   18.0871   22.6237 H   0  0  0  0  0  0  0  0  0  0  0  0
   23.3861   17.9625   24.3849 H   0  0  0  0  0  0  0  0  0  0  0  0
   22.9314   16.1333   23.4049 N   0  3  0  0  0  0  0  0  0  0  0  0
   22.4210   15.7662   22.5950 H   0  0  0  0  0  0  0  0  0  0  0  0
   22.5697   15.6507   24.2340 H   0  0  0  0  0  0  0  0  0  0  0  0
   23.9103   15.8463   23.2959 H   0  0  0  0  0  0  0  0  0  0  0  0
  1  2  1  0  0  0  0
  1  3  1  0  0  0  0
  1  4  1  0  0  0  0
  1  5  1  0  0  0  0
  5  6  1  0  0  0  0
  5  7  1  0  0  0  0
  5  8  1  0  0  0  0
  8  9  1  0  0  0  0
  8 10  1  0  0  0  0
  8 11  1  0  0  0  0
 11 12  1  0  0  0  0
 11 13  1  0  0  0  0
 11 14  1  0  0  0  0
 14 15  1  0  0  0  0
 14 16  1  0  0  0  0
 14 17  1  0  0  0  0
 17 18  1  0  0  0  0
 17 19  1  0  0  0  0
 17 20  1  0  0  0  0
 20 21  1  0  0  0  0
 20 22  1  0  0  0  0
 20 23  1  0  0  0  0
 23 24  1  0  0  0  0
 23 25  1  0  0  0  0
 23 26  1  0  0  0  0
M  END
> <VConfSearch Rank>
846

> <Conf_Id>
36

> <Delta U+W>
0.565

> <U+W>
-4.987

> <U>
48.214

> <W>
-53.201

> <W(PB)>
-55.543

> <W(SA)>
2.342

> <Valence>
2.697

> <Coulomb>
44.819

> <VdW>
0.698

> <VdW6>
-6.437

> <VdW12>
7.136

> <Bond>
0.168

> <Angle>
0.657

> <Pdih>
1.872

> <Idih>
0.000

> <Tether>
0.000

$$$$
VeraChem MOL file


 26 25  0  0  0  0  0  0  0  0999 V2000     
   20.4604   14.6186   23.4354 C   0  0  0  0  0  0  0  0  0  0  0  0
   20.7263   14.3763   22.3981 H   0  0  0  0  0  0  0  0  0  0  0  0
   21.0336   13.9536   24.0943 H   0  0  0  0  0  0  0  0  0  0  0  0
   19.3946   14.3958   23.5761 H   0  0  0  0  0  0  0  0  0  0  0  0
   20.7649   16.0975   23.7552 C   0  0  0  0  0  0  0  0  0  0  0  0
   21.8421   16.2814   23.6384 H   0  0  0  0  0  0  0  0  0  0  0  0
   20.5208   16.3006   24.8074 H   0  0  0  0  0  0  0  0  0  0  0  0
   19.9700   17.0559   22.8408 C   0  0  0  0  0  0  0  0  0  0  0  0
   20.2153   16.8469   21.7903 H   0  0  0  0  0  0  0  0  0  0  0  0
   18.8940   16.8671   22.9595 H   0  0  0  0  0  0  0  0  0  0  0  0
   20.2725   18.5380   23.1578 C   0  0  0  0  0  0  0  0  0  0  0  0
   21.3482   18.7260   23.0362 H   0  0  0  0  0  0  0  0  0  0  0  0
   20.0310   18.7378   24.2103 H   0  0  0  0  0  0  0  0  0  0  0  0
   19.4738   19.4955   22.2412 C   0  0  0  0  0  0  0  0  0  0  0  0
   19.6874   19.2523   21.1911 H   0  0  0  0  0  0  0  0  0  0  0  0
   18.3964   19.3335   22.3845 H   0  0  0  0  0  0  0  0  0  0  0  0
   19.8076   20.9865   22.4825 C   0  0  0  0  0  0  0  0  0  0  0  0
   19.2733   21.5957   21.7413 H   0  0  0  0  0  0  0  0  0  0  0  0
   20.8796   21.1564   22.3152 H   0  0  0  0  0  0  0  0  0  0  0  0
   19.4223   21.4614   23.8961 C   0  0  0  0  0  0  0  0  0  0  0  0
   18.3548   21.2933   24.0624 H   0  0  0  0  0  0  0  0  0  0  0  0
   19.9813   20.8923   24.6432 H   0  0  0  0  0  0  0  0  0  0  0  0
   19.7054   22.9320   24.1250 N   0  3  0  0  0  0  0  0  0  0  0  0
   19.4420   23.2281   25.0712 H   0  0  0  0  0  0  0  0  0  0  0  0
   19.1867   23.5274   23.4710 H   0  0  0  0  0  0  0  0  0  0  0  0
   20.7001   23.1522   24.0095 H   0  0  0  0  0  0  0  0  0  0  0  0
  1  2  1  0  0  0  0
  1  3  1  0  0  0  0
  1  4  1  0  0  0  0
  1  5  1  0  0  0  0
  5  6  1  0  0  0  0
  5  7  1  0  0  0  0
  5  8  1  0  0  0  0
  8  9  1  0  0  0  0
  8 10  1  0  0  0  0
  8 11  1  0  0  0  0
 11 12  1  0  0  0  0
 11 13  1  0  0  0  0
 11 14  1  0  0  0  0
 14 15  1  0  0  0  0
 14 16  1  0  0  0  0
 14 17  1  0  0  0  0
 17 18  1  0  0  0  0
 17 19  1  0  0  0  0
 17 20  1  0  0  0  0
 20 21  1  0  0  0  0
 20 22  1  0  0  0  0
 20 23  1  0  0  0  0
 23 24  1  0  0  0  0
 23 25  1  0  0  0  0
 23 26  1  0  0  0  0
M  END
> <VConfSearch Rank>
847

> <Conf_Id>
44

> <Delta U+W>
0.371

> <U+W>
-5.181

> <U>
48.002

> <W>
-53.183

> <W(PB)>
-55.533

> <W(SA)>
2.350

> <Valence>
2.459

> <Coulomb>
44.901

> <VdW>
0.643

> <VdW6>
-6.362

> <VdW12>
7.005

> <Bond>
0.151

> <Angle>
0.519

> <Pdih>
1.789

> <Idih>
0.000

> <Tether>
0.000

$$$$
VeraChem MOL file


 26 25  0  0  0  0  0  0  0  0999 V2000     
   22.3216   18.4535   26.3812 C   0  0  0  0  0  0  0  0  0  0  0  0
   21.5714   17.8915   26.9527 H   0  0  0  0  0  0  0  0  0  0  0  0
   23.2848   18.3471   26.8969 H   0  0  0  0  0  0  0  0  0  0  0  0
   22.0502   19.5159   26.4080 H   0  0  0  0  0  0  0  0  0  0  0  0
   22.4244   17.9280   24.9312 C   0  0  0  0  0  0  0  0  0  0  0  0
   22.8224   16.9039   24.9554 H   0  0  0  0  0  0  0  0  0  0  0  0
   23.1548   18.5281   24.3708 H   0  0  0  0  0  0  0  0  0  0  0  0
   21.0706   17.9151   24.1805 C   0  0  0  0  0  0  0  0  0  0  0  0
   21.2210   17.4025   23.2220 H   0  0  0  0  0  0  0  0  0  0  0  0
   20.3449   17.3129   24.7441 H   0  0  0  0  0  0  0  0  0  0  0  0
   20.4922   19.3309   23.9275 C   0  0  0  0  0  0  0  0  0  0  0  0
   21.2161   19.9321   23.3605 H   0  0  0  0  0  0  0  0  0  0  0  0
   20.3510   19.8428   24.8881 H   0  0  0  0  0  0  0  0  0  0  0  0
   19.1314   19.3229   23.1878 C   0  0  0  0  0  0  0  0  0  0  0  0
   18.4118   18.7097   23.7478 H   0  0  0  0  0  0  0  0  0  0  0  0
   18.7348   20.3467   23.1946 H   0  0  0  0  0  0  0  0  0  0  0  0
   19.2216   18.8185   21.7253 C   0  0  0  0  0  0  0  0  0  0  0  0
   19.5722   17.7794   21.7099 H   0  0  0  0  0  0  0  0  0  0  0  0
   19.9611   19.4087   21.1680 H   0  0  0  0  0  0  0  0  0  0  0  0
   17.8659   18.8715   20.9944 C   0  0  0  0  0  0  0  0  0  0  0  0
   17.9694   18.4142   20.0065 H   0  0  0  0  0  0  0  0  0  0  0  0
   17.1217   18.3017   21.5572 H   0  0  0  0  0  0  0  0  0  0  0  0
   17.3319   20.2765   20.7950 N   0  3  0  0  0  0  0  0  0  0  0  0
   17.1743   20.7535   21.6880 H   0  0  0  0  0  0  0  0  0  0  0  0
   16.4373   20.2760   20.2931 H   0  0  0  0  0  0  0  0  0  0  0  0
   17.9796   20.8564   20.2515 H   0  0  0  0  0  0  0  0  0  0  0  0
  1  2  1  0  0  0  0
  1  3  1  0  0  0  0
  1  4  1  0  0  0  0
  1  5  1  0  0  0  0
  5  6  1  0  0  0  0
  5  7  1  0  0  0  0
  5  8  1  0  0  0  0
  8  9  1  0  0  0  0
  8 10  1  0  0  0  0
  8 11  1  0  0  0  0
 11 12  1  0  0  0  0
 11 13  1  0  0  0  0
 11 14  1  0  0  0  0
 14 15  1  0  0  0  0
 14 16  1  0  0  0  0
 14 17  1  0  0  0  0
 17 18  1  0  0  0  0
 17 19  1  0  0  0  0
 17 20  1  0  0  0  0
 20 21  1  0  0  0  0
 20 22  1  0  0  0  0
 20 23  1  0  0  0  0
 23 24  1  0  0  0  0
 23 25  1  0  0  0  0
 23 26  1  0  0  0  0
M  END
> <VConfSearch Rank>
848

> <Conf_Id>
112

> <Delta U+W>
1.422

> <U+W>
-4.130

> <U>
49.323

> <W>
-53.453

> <W(PB)>
-55.749

> <W(SA)>
2.296

> <Valence>
3.408

> <Coulomb>
44.893

> <VdW>
1.021

> <VdW6>
-7.481

> <VdW12>
8.503

> <Bond>
0.239

> <Angle>
1.013

> <Pdih>
2.156

> <Idih>
0.000

> <Tether>
0.000

$$$$
VeraChem MOL file


 26 25  0  0  0  0  0  0  0  0999 V2000     
   17.9630   20.0322   20.4260 C   0  0  0  0  0  0  0  0  0  0  0  0
   17.3704   20.1354   19.5078 H   0  0  0  0  0  0  0  0  0  0  0  0
   17.2608   19.9051   21.2593 H   0  0  0  0  0  0  0  0  0  0  0  0
   18.5120   20.9704   20.5785 H   0  0  0  0  0  0  0  0  0  0  0  0
   18.9318   18.8334   20.3128 C   0  0  0  0  0  0  0  0  0  0  0  0
   19.5340   18.9488   19.4007 H   0  0  0  0  0  0  0  0  0  0  0  0
   18.3576   17.9049   20.1864 H   0  0  0  0  0  0  0  0  0  0  0  0
   19.8853   18.6989   21.5245 C   0  0  0  0  0  0  0  0  0  0  0  0
   20.6006   17.8909   21.3179 H   0  0  0  0  0  0  0  0  0  0  0  0
   20.4748   19.6201   21.6197 H   0  0  0  0  0  0  0  0  0  0  0  0
   19.1484   18.3967   22.8539 C   0  0  0  0  0  0  0  0  0  0  0  0
   18.4656   17.5499   22.6991 H   0  0  0  0  0  0  0  0  0  0  0  0
   18.5218   19.2517   23.1402 H   0  0  0  0  0  0  0  0  0  0  0  0
   20.1016   18.0502   24.0241 C   0  0  0  0  0  0  0  0  0  0  0  0
   19.4908   17.7355   24.8806 H   0  0  0  0  0  0  0  0  0  0  0  0
   20.7200   17.1839   23.7510 H   0  0  0  0  0  0  0  0  0  0  0  0
   21.0133   19.2293   24.4473 C   0  0  0  0  0  0  0  0  0  0  0  0
   20.4024   20.1066   24.6983 H   0  0  0  0  0  0  0  0  0  0  0  0
   21.6551   19.5228   23.6074 H   0  0  0  0  0  0  0  0  0  0  0  0
   21.9233   18.8782   25.6403 C   0  0  0  0  0  0  0  0  0  0  0  0
   22.5196   17.9937   25.4007 H   0  0  0  0  0  0  0  0  0  0  0  0
   22.6078   19.7094   25.8303 H   0  0  0  0  0  0  0  0  0  0  0  0
   21.1683   18.6033   26.9262 N   0  3  0  0  0  0  0  0  0  0  0  0
   20.5316   17.8063   26.8300 H   0  0  0  0  0  0  0  0  0  0  0  0
   20.6044   19.4088   27.2162 H   0  0  0  0  0  0  0  0  0  0  0  0
   21.8038   18.3877   27.7020 H   0  0  0  0  0  0  0  0  0  0  0  0
  1  2  1  0  0  0  0
  1  3  1  0  0  0  0
  1  4  1  0  0  0  0
  1  5  1  0  0  0  0
  5  6  1  0  0  0  0
  5  7  1  0  0  0  0
  5  8  1  0  0  0  0
  8  9  1  0  0  0  0
  8 10  1  0  0  0  0
  8 11  1  0  0  0  0
 11 12  1  0  0  0  0
 11 13  1  0  0  0  0
 11 14  1  0  0  0  0
 14 15  1  0  0  0  0
 14 16  1  0  0  0  0
 14 17  1  0  0  0  0
 17 18  1  0  0  0  0
 17 19  1  0  0  0  0
 17 20  1  0  0  0  0
 20 21  1  0  0  0  0
 20 22  1  0  0  0  0
 20 23  1  0  0  0  0
 23 24  1  0  0  0  0
 23 25  1  0  0  0  0
 23 26  1  0  0  0  0
M  END
> <VConfSearch Rank>
849

> <Conf_Id>
130

> <Delta U+W>
1.282

> <U+W>
-4.270

> <U>
49.153

> <W>
-53.422

> <W(PB)>
-55.725

> <W(SA)>
2.303

> <Valence>
3.298

> <Coulomb>
44.907

> <VdW>
0.948

> <VdW6>
-7.574

> <VdW12>
8.522

> <Bond>
0.229

> <Angle>
0.912

> <Pdih>
2.157

> <Idih>
0.000

> <Tether>
0.000

$$$$
VeraChem MOL file


 26 25  0  0  0  0  0  0  0  0999 V2000     
   19.7808   18.3142   19.9272 C   0  0  0  0  0  0  0  0  0  0  0  0
   19.4763   19.2588   19.4582 H   0  0  0  0  0  0  0  0  0  0  0  0
   19.8064   17.5437   19.1457 H   0  0  0  0  0  0  0  0  0  0  0  0
   19.0091   18.0246   20.6512 H   0  0  0  0  0  0  0  0  0  0  0  0
   21.1656   18.4492   20.5998 C   0  0  0  0  0  0  0  0  0  0  0  0
   21.9216   18.6202   19.8207 H   0  0  0  0  0  0  0  0  0  0  0  0
   21.4394   17.4998   21.0789 H   0  0  0  0  0  0  0  0  0  0  0  0
   21.2434   19.6099   21.6244 C   0  0  0  0  0  0  0  0  0  0  0  0
   22.2618   19.6520   22.0346 H   0  0  0  0  0  0  0  0  0  0  0  0
   21.0942   20.5603   21.0937 H   0  0  0  0  0  0  0  0  0  0  0  0
   20.2309   19.5327   22.7965 C   0  0  0  0  0  0  0  0  0  0  0  0
   19.2053   19.5954   22.4094 H   0  0  0  0  0  0  0  0  0  0  0  0
   20.3717   20.4234   23.4227 H   0  0  0  0  0  0  0  0  0  0  0  0
   20.3862   18.2592   23.6660 C   0  0  0  0  0  0  0  0  0  0  0  0
   20.2158   17.3687   23.0473 H   0  0  0  0  0  0  0  0  0  0  0  0
   21.4171   18.1880   24.0394 H   0  0  0  0  0  0  0  0  0  0  0  0
   19.4010   18.2146   24.8578 C   0  0  0  0  0  0  0  0  0  0  0  0
   19.4958   17.2431   25.3610 H   0  0  0  0  0  0  0  0  0  0  0  0
   18.3694   18.2768   24.4864 H   0  0  0  0  0  0  0  0  0  0  0  0
   19.6520   19.3366   25.8828 C   0  0  0  0  0  0  0  0  0  0  0  0
   20.6796   19.2750   26.2513 H   0  0  0  0  0  0  0  0  0  0  0  0
   19.5143   20.3110   25.4074 H   0  0  0  0  0  0  0  0  0  0  0  0
   18.7221   19.2673   27.0768 N   0  3  0  0  0  0  0  0  0  0  0  0
   17.7381   19.3465   26.7999 H   0  0  0  0  0  0  0  0  0  0  0  0
   18.9054   20.0221   27.7469 H   0  0  0  0  0  0  0  0  0  0  0  0
   18.8216   18.3841   27.5879 H   0  0  0  0  0  0  0  0  0  0  0  0
  1  2  1  0  0  0  0
  1  3  1  0  0  0  0
  1  4  1  0  0  0  0
  1  5  1  0  0  0  0
  5  6  1  0  0  0  0
  5  7  1  0  0  0  0
  5  8  1  0  0  0  0
  8  9  1  0  0  0  0
  8 10  1  0  0  0  0
  8 11  1  0  0  0  0
 11 12  1  0  0  0  0
 11 13  1  0  0  0  0
 11 14  1  0  0  0  0
 14 15  1  0  0  0  0
 14 16  1  0  0  0  0
 14 17  1  0  0  0  0
 17 18  1  0  0  0  0
 17 19  1  0  0  0  0
 17 20  1  0  0  0  0
 20 21  1  0  0  0  0
 20 22  1  0  0  0  0
 20 23  1  0  0  0  0
 23 24  1  0  0  0  0
 23 25  1  0  0  0  0
 23 26  1  0  0  0  0
M  END
> <VConfSearch Rank>
850

> <Conf_Id>
111

> <Delta U+W>
1.290

> <U+W>
-4.262

> <U>
49.209

> <W>
-53.471

> <W(PB)>
-55.745

> <W(SA)>
2.274

> <Valence>
3.465

> <Coulomb>
44.958

> <VdW>
0.786

> <VdW6>
-7.903

> <VdW12>
8.689

> <Bond>
0.237

> <Angle>
1.212

> <Pdih>
2.015

> <Idih>
0.000

> <Tether>
0.000

$$$$
VeraChem MOL file


 26 25  0  0  0  0  0  0  0  0999 V2000     
   21.4355   17.8996   26.8324 C   0  0  0  0  0  0  0  0  0  0  0  0
   22.3879   18.4173   26.6588 H   0  0  0  0  0  0  0  0  0  0  0  0
   20.9669   18.3357   27.7243 H   0  0  0  0  0  0  0  0  0  0  0  0
   21.6587   16.8471   27.0500 H   0  0  0  0  0  0  0  0  0  0  0  0
   20.5085   18.0175   25.6040 C   0  0  0  0  0  0  0  0  0  0  0  0
   19.5775   17.4660   25.7961 H   0  0  0  0  0  0  0  0  0  0  0  0
   20.9932   17.5352   24.7449 H   0  0  0  0  0  0  0  0  0  0  0  0
   20.1830   19.4937   25.2751 C   0  0  0  0  0  0  0  0  0  0  0  0
   19.7733   19.9770   26.1728 H   0  0  0  0  0  0  0  0  0  0  0  0
   21.1094   20.0319   25.0314 H   0  0  0  0  0  0  0  0  0  0  0  0
   19.1653   19.6621   24.1201 C   0  0  0  0  0  0  0  0  0  0  0  0
   18.9076   20.7270   24.0369 H   0  0  0  0  0  0  0  0  0  0  0  0
   18.2331   19.1381   24.3727 H   0  0  0  0  0  0  0  0  0  0  0  0
   19.6921   19.1632   22.7530 C   0  0  0  0  0  0  0  0  0  0  0  0
   20.6539   19.6473   22.5376 H   0  0  0  0  0  0  0  0  0  0  0  0
   19.8791   18.0822   22.7951 H   0  0  0  0  0  0  0  0  0  0  0  0
   18.6888   19.4565   21.6125 C   0  0  0  0  0  0  0  0  0  0  0  0
   18.5177   20.5381   21.5297 H   0  0  0  0  0  0  0  0  0  0  0  0
   17.7186   19.0035   21.8566 H   0  0  0  0  0  0  0  0  0  0  0  0
   19.1561   18.9047   20.2518 C   0  0  0  0  0  0  0  0  0  0  0  0
   19.3325   17.8286   20.3318 H   0  0  0  0  0  0  0  0  0  0  0  0
   18.3731   19.0673   19.5062 H   0  0  0  0  0  0  0  0  0  0  0  0
   20.4255   19.5523   19.7340 N   0  3  0  0  0  0  0  0  0  0  0  0
   20.7020   19.1723   18.8222 H   0  0  0  0  0  0  0  0  0  0  0  0
   21.2140   19.4058   20.3717 H   0  0  0  0  0  0  0  0  0  0  0  0
   20.3152   20.5646   19.6154 H   0  0  0  0  0  0  0  0  0  0  0  0
  1  2  1  0  0  0  0
  1  3  1  0  0  0  0
  1  4  1  0  0  0  0
  1  5  1  0  0  0  0
  5  6  1  0  0  0  0
  5  7  1  0  0  0  0
  5  8  1  0  0  0  0
  8  9  1  0  0  0  0
  8 10  1  0  0  0  0
  8 11  1  0  0  0  0
 11 12  1  0  0  0  0
 11 13  1  0  0  0  0
 11 14  1  0  0  0  0
 14 15  1  0  0  0  0
 14 16  1  0  0  0  0
 14 17  1  0  0  0  0
 17 18  1  0  0  0  0
 17 19  1  0  0  0  0
 17 20  1  0  0  0  0
 20 21  1  0  0  0  0
 20 22  1  0  0  0  0
 20 23  1  0  0  0  0
 23 24  1  0  0  0  0
 23 25  1  0  0  0  0
 23 26  1  0  0  0  0
M  END
> <VConfSearch Rank>
851

> <Conf_Id>
105

> <Delta U+W>
0.736

> <U+W>
-4.817

> <U>
48.735

> <W>
-53.552

> <W(PB)>
-55.889

> <W(SA)>
2.337

> <Valence>
2.803

> <Coulomb>
45.123

> <VdW>
0.809

> <VdW6>
-6.953

> <VdW12>
7.761

> <Bond>
0.188

> <Angle>
0.699

> <Pdih>
1.917

> <Idih>
0.000

> <Tether>
0.000

$$$$
VeraChem MOL file


 26 25  0  0  0  0  0  0  0  0999 V2000     
   23.6771   18.6866   23.8467 C   0  0  0  0  0  0  0  0  0  0  0  0
   24.3585   18.4444   23.0207 H   0  0  0  0  0  0  0  0  0  0  0  0
   23.6798   19.7758   23.9841 H   0  0  0  0  0  0  0  0  0  0  0  0
   24.0799   18.2306   24.7603 H   0  0  0  0  0  0  0  0  0  0  0  0
   22.2519   18.1674   23.5613 C   0  0  0  0  0  0  0  0  0  0  0  0
   21.6114   18.3926   24.4244 H   0  0  0  0  0  0  0  0  0  0  0  0
   22.2759   17.0736   23.4582 H   0  0  0  0  0  0  0  0  0  0  0  0
   21.6606   18.7998   22.2794 C   0  0  0  0  0  0  0  0  0  0  0  0
   21.5977   19.8895   22.3974 H   0  0  0  0  0  0  0  0  0  0  0  0
   22.3545   18.6282   21.4449 H   0  0  0  0  0  0  0  0  0  0  0  0
   20.2747   18.2262   21.8852 C   0  0  0  0  0  0  0  0  0  0  0  0
   20.3874   17.1596   21.6468 H   0  0  0  0  0  0  0  0  0  0  0  0
   19.9460   18.7080   20.9541 H   0  0  0  0  0  0  0  0  0  0  0  0
   19.1594   18.3813   22.9517 C   0  0  0  0  0  0  0  0  0  0  0  0
   18.2446   17.9232   22.5534 H   0  0  0  0  0  0  0  0  0  0  0  0
   19.4170   17.8064   23.8510 H   0  0  0  0  0  0  0  0  0  0  0  0
   18.8712   19.8540   23.3369 C   0  0  0  0  0  0  0  0  0  0  0  0
   18.6319   20.4385   22.4387 H   0  0  0  0  0  0  0  0  0  0  0  0
   19.7700   20.3048   23.7760 H   0  0  0  0  0  0  0  0  0  0  0  0
   17.7255   19.9877   24.3586 C   0  0  0  0  0  0  0  0  0  0  0  0
   17.9524   19.3912   25.2464 H   0  0  0  0  0  0  0  0  0  0  0  0
   17.6340   21.0334   24.6649 H   0  0  0  0  0  0  0  0  0  0  0  0
   16.3762   19.5463   23.8264 N   0  3  0  0  0  0  0  0  0  0  0  0
   16.3797   18.5586   23.5540 H   0  0  0  0  0  0  0  0  0  0  0  0
   16.0968   20.0874   23.0017 H   0  0  0  0  0  0  0  0  0  0  0  0
   15.6347   19.6621   24.5258 H   0  0  0  0  0  0  0  0  0  0  0  0
  1  2  1  0  0  0  0
  1  3  1  0  0  0  0
  1  4  1  0  0  0  0
  1  5  1  0  0  0  0
  5  6  1  0  0  0  0
  5  7  1  0  0  0  0
  5  8  1  0  0  0  0
  8  9  1  0  0  0  0
  8 10  1  0  0  0  0
  8 11  1  0  0  0  0
 11 12  1  0  0  0  0
 11 13  1  0  0  0  0
 11 14  1  0  0  0  0
 14 15  1  0  0  0  0
 14 16  1  0  0  0  0
 14 17  1  0  0  0  0
 17 18  1  0  0  0  0
 17 19  1  0  0  0  0
 17 20  1  0  0  0  0
 20 21  1  0  0  0  0
 20 22  1  0  0  0  0
 20 23  1  0  0  0  0
 23 24  1  0  0  0  0
 23 25  1  0  0  0  0
 23 26  1  0  0  0  0
M  END
> <VConfSearch Rank>
852

> <Conf_Id>
144

> <Delta U+W>
1.073

> <U+W>
-4.479

> <U>
49.231

> <W>
-53.710

> <W(PB)>
-55.983

> <W(SA)>
2.273

> <Valence>
3.276

> <Coulomb>
45.175

> <VdW>
0.779

> <VdW6>
-7.944

> <VdW12>
8.723

> <Bond>
0.239

> <Angle>
1.155

> <Pdih>
1.883

> <Idih>
0.000

> <Tether>
0.000

$$$$
VeraChem MOL file


 26 25  0  0  0  0  0  0  0  0999 V2000     
   22.4374   17.2144   25.4072 C   0  0  0  0  0  0  0  0  0  0  0  0
   22.6918   18.1926   25.8330 H   0  0  0  0  0  0  0  0  0  0  0  0
   22.7026   16.4529   26.1520 H   0  0  0  0  0  0  0  0  0  0  0  0
   23.0654   17.0503   24.5219 H   0  0  0  0  0  0  0  0  0  0  0  0
   20.9366   17.1198   25.0494 C   0  0  0  0  0  0  0  0  0  0  0  0
   20.3285   17.3212   25.9424 H   0  0  0  0  0  0  0  0  0  0  0  0
   20.7116   16.0861   24.7517 H   0  0  0  0  0  0  0  0  0  0  0  0
   20.5129   18.0677   23.9011 C   0  0  0  0  0  0  0  0  0  0  0  0
   21.1376   17.8768   23.0177 H   0  0  0  0  0  0  0  0  0  0  0  0
   19.4825   17.8136   23.6227 H   0  0  0  0  0  0  0  0  0  0  0  0
   20.5799   19.5677   24.2818 C   0  0  0  0  0  0  0  0  0  0  0  0
   21.5823   19.8059   24.6591 H   0  0  0  0  0  0  0  0  0  0  0  0
   19.8869   19.7634   25.1116 H   0  0  0  0  0  0  0  0  0  0  0  0
   20.2739   20.5420   23.1144 C   0  0  0  0  0  0  0  0  0  0  0  0
   20.3917   21.5649   23.4982 H   0  0  0  0  0  0  0  0  0  0  0  0
   21.0297   20.4329   22.3242 H   0  0  0  0  0  0  0  0  0  0  0  0
   18.8525   20.4149   22.5105 C   0  0  0  0  0  0  0  0  0  0  0  0
   18.5539   21.3930   22.1102 H   0  0  0  0  0  0  0  0  0  0  0  0
   18.1279   20.1680   23.2979 H   0  0  0  0  0  0  0  0  0  0  0  0
   18.7735   19.3862   21.3655 C   0  0  0  0  0  0  0  0  0  0  0  0
   19.4614   19.6753   20.5664 H   0  0  0  0  0  0  0  0  0  0  0  0
   19.0646   18.3970   21.7233 H   0  0  0  0  0  0  0  0  0  0  0  0
   17.3864   19.2727   20.7672 N   0  3  0  0  0  0  0  0  0  0  0  0
   17.0635   20.1652   20.3795 H   0  0  0  0  0  0  0  0  0  0  0  0
   16.6931   18.9774   21.4624 H   0  0  0  0  0  0  0  0  0  0  0  0
   17.3552   18.5875   20.0043 H   0  0  0  0  0  0  0  0  0  0  0  0
  1  2  1  0  0  0  0
  1  3  1  0  0  0  0
  1  4  1  0  0  0  0
  1  5  1  0  0  0  0
  5  6  1  0  0  0  0
  5  7  1  0  0  0  0
  5  8  1  0  0  0  0
  8  9  1  0  0  0  0
  8 10  1  0  0  0  0
  8 11  1  0  0  0  0
 11 12  1  0  0  0  0
 11 13  1  0  0  0  0
 11 14  1  0  0  0  0
 14 15  1  0  0  0  0
 14 16  1  0  0  0  0
 14 17  1  0  0  0  0
 17 18  1  0  0  0  0
 17 19  1  0  0  0  0
 17 20  1  0  0  0  0
 20 21  1  0  0  0  0
 20 22  1  0  0  0  0
 20 23  1  0  0  0  0
 23 24  1  0  0  0  0
 23 25  1  0  0  0  0
 23 26  1  0  0  0  0
M  END
> <VConfSearch Rank>
853

> <Conf_Id>
93

> <Delta U+W>
3.253

> <U+W>
-2.300

> <U>
51.609

> <W>
-53.909

> <W(PB)>
-56.178

> <W(SA)>
2.270

> <Valence>
5.204

> <Coulomb>
45.645

> <VdW>
0.760

> <VdW6>
-7.997

> <VdW12>
8.758

> <Bond>
0.240

> <Angle>
1.456

> <Pdih>
3.507

> <Idih>
0.000

> <Tether>
0.000

$$$$
VeraChem MOL file


 26 25  0  0  0  0  0  0  0  0999 V2000     
   18.6739   20.6011   26.2597 C   0  0  0  0  0  0  0  0  0  0  0  0
   19.4287   21.3874   26.1374 H   0  0  0  0  0  0  0  0  0  0  0  0
   17.7874   20.8808   25.6760 H   0  0  0  0  0  0  0  0  0  0  0  0
   18.3860   20.5842   27.3189 H   0  0  0  0  0  0  0  0  0  0  0  0
   19.2128   19.2191   25.8247 C   0  0  0  0  0  0  0  0  0  0  0  0
   18.4689   18.4541   26.0878 H   0  0  0  0  0  0  0  0  0  0  0  0
   20.1185   18.9764   26.3979 H   0  0  0  0  0  0  0  0  0  0  0  0
   19.5086   19.1193   24.3084 C   0  0  0  0  0  0  0  0  0  0  0  0
   19.7318   18.0694   24.0812 H   0  0  0  0  0  0  0  0  0  0  0  0
   18.6063   19.3832   23.7399 H   0  0  0  0  0  0  0  0  0  0  0  0
   20.6978   20.0006   23.8517 C   0  0  0  0  0  0  0  0  0  0  0  0
   21.6121   19.6711   24.3641 H   0  0  0  0  0  0  0  0  0  0  0  0
   20.5283   21.0376   24.1676 H   0  0  0  0  0  0  0  0  0  0  0  0
   20.9405   20.0101   22.3199 C   0  0  0  0  0  0  0  0  0  0  0  0
   20.0729   20.4435   21.8033 H   0  0  0  0  0  0  0  0  0  0  0  0
   21.7764   20.6954   22.1219 H   0  0  0  0  0  0  0  0  0  0  0  0
   21.2913   18.6323   21.7036 C   0  0  0  0  0  0  0  0  0  0  0  0
   21.8962   18.0460   22.4080 H   0  0  0  0  0  0  0  0  0  0  0  0
   21.9188   18.7952   20.8172 H   0  0  0  0  0  0  0  0  0  0  0  0
   20.0479   17.8325   21.2677 C   0  0  0  0  0  0  0  0  0  0  0  0
   19.3952   17.6496   22.1232 H   0  0  0  0  0  0  0  0  0  0  0  0
   19.4852   18.4068   20.5268 H   0  0  0  0  0  0  0  0  0  0  0  0
   20.3929   16.4914   20.6532 N   0  3  0  0  0  0  0  0  0  0  0  0
   20.9807   16.5934   19.8193 H   0  0  0  0  0  0  0  0  0  0  0  0
   19.5535   15.9768   20.3652 H   0  0  0  0  0  0  0  0  0  0  0  0
   20.9018   15.8899   21.3091 H   0  0  0  0  0  0  0  0  0  0  0  0
  1  2  1  0  0  0  0
  1  3  1  0  0  0  0
  1  4  1  0  0  0  0
  1  5  1  0  0  0  0
  5  6  1  0  0  0  0
  5  7  1  0  0  0  0
  5  8  1  0  0  0  0
  8  9  1  0  0  0  0
  8 10  1  0  0  0  0
  8 11  1  0  0  0  0
 11 12  1  0  0  0  0
 11 13  1  0  0  0  0
 11 14  1  0  0  0  0
 14 15  1  0  0  0  0
 14 16  1  0  0  0  0
 14 17  1  0  0  0  0
 17 18  1  0  0  0  0
 17 19  1  0  0  0  0
 17 20  1  0  0  0  0
 20 21  1  0  0  0  0
 20 22  1  0  0  0  0
 20 23  1  0  0  0  0
 23 24  1  0  0  0  0
 23 25  1  0  0  0  0
 23 26  1  0  0  0  0
M  END
> <VConfSearch Rank>
854

> <Conf_Id>
94

> <Delta U+W>
3.247

> <U+W>
-2.305

> <U>
51.609

> <W>
-53.914

> <W(PB)>
-56.221

> <W(SA)>
2.307

> <Valence>
5.204

> <Coulomb>
45.645

> <VdW>
0.760

> <VdW6>
-7.997

> <VdW12>
8.757

> <Bond>
0.240

> <Angle>
1.456

> <Pdih>
3.508

> <Idih>
0.000

> <Tether>
0.000

$$$$
VeraChem MOL file


 26 25  0  0  0  0  0  0  0  0999 V2000     
   20.6000   23.0177   23.4923 C   0  0  0  0  0  0  0  0  0  0  0  0
   20.7129   23.3202   22.4430 H   0  0  0  0  0  0  0  0  0  0  0  0
   19.5537   23.1774   23.7835 H   0  0  0  0  0  0  0  0  0  0  0  0
   21.2250   23.6816   24.1035 H   0  0  0  0  0  0  0  0  0  0  0  0
   21.0128   21.5440   23.6922 C   0  0  0  0  0  0  0  0  0  0  0  0
   20.9218   21.2810   24.7554 H   0  0  0  0  0  0  0  0  0  0  0  0
   22.0720   21.4227   23.4252 H   0  0  0  0  0  0  0  0  0  0  0  0
   20.1478   20.5872   22.8421 C   0  0  0  0  0  0  0  0  0  0  0  0
   19.0900   20.7135   23.1110 H   0  0  0  0  0  0  0  0  0  0  0  0
   20.2402   20.8561   21.7807 H   0  0  0  0  0  0  0  0  0  0  0  0
   20.5586   19.1105   23.0393 C   0  0  0  0  0  0  0  0  0  0  0  0
   20.4712   18.8514   24.1028 H   0  0  0  0  0  0  0  0  0  0  0  0
   21.6156   18.9850   22.7667 H   0  0  0  0  0  0  0  0  0  0  0  0
   19.6891   18.1543   22.1882 C   0  0  0  0  0  0  0  0  0  0  0  0
   18.6338   18.2580   22.4740 H   0  0  0  0  0  0  0  0  0  0  0  0
   19.7501   18.4554   21.1332 H   0  0  0  0  0  0  0  0  0  0  0  0
   20.1231   16.6713   22.3024 C   0  0  0  0  0  0  0  0  0  0  0  0
   21.1512   16.5656   21.9313 H   0  0  0  0  0  0  0  0  0  0  0  0
   19.4952   16.0576   21.6429 H   0  0  0  0  0  0  0  0  0  0  0  0
   20.0539   16.1048   23.7352 C   0  0  0  0  0  0  0  0  0  0  0  0
   20.3998   15.0676   23.7323 H   0  0  0  0  0  0  0  0  0  0  0  0
   20.7114   16.6795   24.3926 H   0  0  0  0  0  0  0  0  0  0  0  0
   18.6599   16.1246   24.3303 N   0  3  0  0  0  0  0  0  0  0  0  0
   17.9996   15.5755   23.7705 H   0  0  0  0  0  0  0  0  0  0  0  0
   18.2884   17.0777   24.3895 H   0  0  0  0  0  0  0  0  0  0  0  0
   18.6449   15.7352   25.2792 H   0  0  0  0  0  0  0  0  0  0  0  0
  1  2  1  0  0  0  0
  1  3  1  0  0  0  0
  1  4  1  0  0  0  0
  1  5  1  0  0  0  0
  5  6  1  0  0  0  0
  5  7  1  0  0  0  0
  5  8  1  0  0  0  0
  8  9  1  0  0  0  0
  8 10  1  0  0  0  0
  8 11  1  0  0  0  0
 11 12  1  0  0  0  0
 11 13  1  0  0  0  0
 11 14  1  0  0  0  0
 14 15  1  0  0  0  0
 14 16  1  0  0  0  0
 14 17  1  0  0  0  0
 17 18  1  0  0  0  0
 17 19  1  0  0  0  0
 17 20  1  0  0  0  0
 20 21  1  0  0  0  0
 20 22  1  0  0  0  0
 20 23  1  0  0  0  0
 23 24  1  0  0  0  0
 23 25  1  0  0  0  0
 23 26  1  0  0  0  0
M  END
> <VConfSearch Rank>
855

> <Conf_Id>
83

> <Delta U+W>
0.559

> <U+W>
-4.994

> <U>
48.668

> <W>
-53.661

> <W(PB)>
-55.972

> <W(SA)>
2.311

> <Valence>
2.543

> <Coulomb>
45.478

> <VdW>
0.646

> <VdW6>
-7.096

> <VdW12>
7.742

> <Bond>
0.176

> <Angle>
0.630

> <Pdih>
1.738

> <Idih>
0.000

> <Tether>
0.000

$$$$
VeraChem MOL file


 26 25  0  0  0  0  0  0  0  0999 V2000     
   18.7855   17.6457   26.7401 C   0  0  0  0  0  0  0  0  0  0  0  0
   18.0330   16.8463   26.7355 H   0  0  0  0  0  0  0  0  0  0  0  0
   19.7388   17.2160   27.0745 H   0  0  0  0  0  0  0  0  0  0  0  0
   18.4758   18.3953   27.4797 H   0  0  0  0  0  0  0  0  0  0  0  0
   18.9256   18.2847   25.3422 C   0  0  0  0  0  0  0  0  0  0  0  0
   19.6545   19.1040   25.3972 H   0  0  0  0  0  0  0  0  0  0  0  0
   17.9654   18.7310   25.0480 H   0  0  0  0  0  0  0  0  0  0  0  0
   19.3661   17.2470   24.2827 C   0  0  0  0  0  0  0  0  0  0  0  0
   20.3516   16.8409   24.5491 H   0  0  0  0  0  0  0  0  0  0  0  0
   18.6679   16.3988   24.3028 H   0  0  0  0  0  0  0  0  0  0  0  0
   19.4095   17.8114   22.8413 C   0  0  0  0  0  0  0  0  0  0  0  0
   18.4197   18.2043   22.5703 H   0  0  0  0  0  0  0  0  0  0  0  0
   19.6114   16.9816   22.1500 H   0  0  0  0  0  0  0  0  0  0  0  0
   20.4812   18.9094   22.6379 C   0  0  0  0  0  0  0  0  0  0  0  0
   20.2490   19.7743   23.2716 H   0  0  0  0  0  0  0  0  0  0  0  0
   21.4610   18.5296   22.9591 H   0  0  0  0  0  0  0  0  0  0  0  0
   20.5637   19.3610   21.1604 C   0  0  0  0  0  0  0  0  0  0  0  0
   19.5965   19.7680   20.8367 H   0  0  0  0  0  0  0  0  0  0  0  0
   20.7656   18.4892   20.5239 H   0  0  0  0  0  0  0  0  0  0  0  0
   21.6692   20.4067   20.9178 C   0  0  0  0  0  0  0  0  0  0  0  0
   22.6324   20.0073   21.2467 H   0  0  0  0  0  0  0  0  0  0  0  0
   21.7367   20.6212   19.8478 H   0  0  0  0  0  0  0  0  0  0  0  0
   21.4349   21.7215   21.6357 N   0  3  0  0  0  0  0  0  0  0  0  0
   21.3988   21.5980   22.6522 H   0  0  0  0  0  0  0  0  0  0  0  0
   20.5522   22.1585   21.3513 H   0  0  0  0  0  0  0  0  0  0  0  0
   22.1805   22.3989   21.4419 H   0  0  0  0  0  0  0  0  0  0  0  0
  1  2  1  0  0  0  0
  1  3  1  0  0  0  0
  1  4  1  0  0  0  0
  1  5  1  0  0  0  0
  5  6  1  0  0  0  0
  5  7  1  0  0  0  0
  5  8  1  0  0  0  0
  8  9  1  0  0  0  0
  8 10  1  0  0  0  0
  8 11  1  0  0  0  0
 11 12  1  0  0  0  0
 11 13  1  0  0  0  0
 11 14  1  0  0  0  0
 14 15  1  0  0  0  0
 14 16  1  0  0  0  0
 14 17  1  0  0  0  0
 17 18  1  0  0  0  0
 17 19  1  0  0  0  0
 17 20  1  0  0  0  0
 20 21  1  0  0  0  0
 20 22  1  0  0  0  0
 20 23  1  0  0  0  0
 23 24  1  0  0  0  0
 23 25  1  0  0  0  0
 23 26  1  0  0  0  0
M  END
> <VConfSearch Rank>
856

> <Conf_Id>
18

> <Delta U+W>
0.759

> <U+W>
-4.793

> <U>
48.945

> <W>
-53.738

> <W(PB)>
-56.051

> <W(SA)>
2.313

> <Valence>
2.802

> <Coulomb>
45.335

> <VdW>
0.807

> <VdW6>
-6.962

> <VdW12>
7.769

> <Bond>
0.189

> <Angle>
0.696

> <Pdih>
1.917

> <Idih>
0.000

> <Tether>
0.000

$$$$
VeraChem MOL file


 26 25  0  0  0  0  0  0  0  0999 V2000     
   19.2056   21.6309   25.9870 C   0  0  0  0  0  0  0  0  0  0  0  0
   20.0425   22.2918   25.7261 H   0  0  0  0  0  0  0  0  0  0  0  0
   18.2751   22.2069   25.9004 H   0  0  0  0  0  0  0  0  0  0  0  0
   19.3231   21.3372   27.0382 H   0  0  0  0  0  0  0  0  0  0  0  0
   19.1760   20.3870   25.0737 C   0  0  0  0  0  0  0  0  0  0  0  0
   18.3475   19.7320   25.3774 H   0  0  0  0  0  0  0  0  0  0  0  0
   20.1031   19.8170   25.2191 H   0  0  0  0  0  0  0  0  0  0  0  0
   19.0156   20.7767   23.5851 C   0  0  0  0  0  0  0  0  0  0  0  0
   18.1270   21.4140   23.4774 H   0  0  0  0  0  0  0  0  0  0  0  0
   19.8723   21.3868   23.2674 H   0  0  0  0  0  0  0  0  0  0  0  0
   18.8641   19.5610   22.6379 C   0  0  0  0  0  0  0  0  0  0  0  0
   18.6357   19.9334   21.6297 H   0  0  0  0  0  0  0  0  0  0  0  0
   17.9984   18.9593   22.9475 H   0  0  0  0  0  0  0  0  0  0  0  0
   20.1254   18.6665   22.5714 C   0  0  0  0  0  0  0  0  0  0  0  0
   20.9982   19.2817   22.3125 H   0  0  0  0  0  0  0  0  0  0  0  0
   20.3218   18.2307   23.5588 H   0  0  0  0  0  0  0  0  0  0  0  0
   19.9681   17.5328   21.5304 C   0  0  0  0  0  0  0  0  0  0  0  0
   19.7409   17.9690   20.5486 H   0  0  0  0  0  0  0  0  0  0  0  0
   19.1142   16.8948   21.7949 H   0  0  0  0  0  0  0  0  0  0  0  0
   21.2355   16.6667   21.3964 C   0  0  0  0  0  0  0  0  0  0  0  0
   21.0956   15.9420   20.5897 H   0  0  0  0  0  0  0  0  0  0  0  0
   22.0891   17.3004   21.1410 H   0  0  0  0  0  0  0  0  0  0  0  0
   21.5829   15.8933   22.6533 N   0  3  0  0  0  0  0  0  0  0  0  0
   20.8256   15.2612   22.9329 H   0  0  0  0  0  0  0  0  0  0  0  0
   21.7652   16.5174   23.4452 H   0  0  0  0  0  0  0  0  0  0  0  0
   22.4220   15.3171   22.5258 H   0  0  0  0  0  0  0  0  0  0  0  0
  1  2  1  0  0  0  0
  1  3  1  0  0  0  0
  1  4  1  0  0  0  0
  1  5  1  0  0  0  0
  5  6  1  0  0  0  0
  5  7  1  0  0  0  0
  5  8  1  0  0  0  0
  8  9  1  0  0  0  0
  8 10  1  0  0  0  0
  8 11  1  0  0  0  0
 11 12  1  0  0  0  0
 11 13  1  0  0  0  0
 11 14  1  0  0  0  0
 14 15  1  0  0  0  0
 14 16  1  0  0  0  0
 14 17  1  0  0  0  0
 17 18  1  0  0  0  0
 17 19  1  0  0  0  0
 17 20  1  0  0  0  0
 20 21  1  0  0  0  0
 20 22  1  0  0  0  0
 20 23  1  0  0  0  0
 23 24  1  0  0  0  0
 23 25  1  0  0  0  0
 23 26  1  0  0  0  0
M  END
> <VConfSearch Rank>
857

> <Conf_Id>
17

> <Delta U+W>
0.843

> <U+W>
-4.709

> <U>
48.945

> <W>
-53.653

> <W(PB)>
-55.991

> <W(SA)>
2.338

> <Valence>
2.802

> <Coulomb>
45.335

> <VdW>
0.807

> <VdW6>
-6.962

> <VdW12>
7.769

> <Bond>
0.189

> <Angle>
0.696

> <Pdih>
1.917

> <Idih>
0.000

> <Tether>
0.000

$$$$
VeraChem MOL file


 26 25  0  0  0  0  0  0  0  0999 V2000     
   22.8261   20.2691   22.0310 C   0  0  0  0  0  0  0  0  0  0  0  0
   21.8724   20.8111   22.0316 H   0  0  0  0  0  0  0  0  0  0  0  0
   23.2884   20.3839   23.0200 H   0  0  0  0  0  0  0  0  0  0  0  0
   23.4808   20.7552   21.2961 H   0  0  0  0  0  0  0  0  0  0  0  0
   22.6316   18.7770   21.6781 C   0  0  0  0  0  0  0  0  0  0  0  0
   23.6193   18.3077   21.5682 H   0  0  0  0  0  0  0  0  0  0  0  0
   22.1394   18.6897   20.6993 H   0  0  0  0  0  0  0  0  0  0  0  0
   21.8252   17.9927   22.7413 C   0  0  0  0  0  0  0  0  0  0  0  0
   21.8324   16.9284   22.4684 H   0  0  0  0  0  0  0  0  0  0  0  0
   22.3319   18.0658   23.7135 H   0  0  0  0  0  0  0  0  0  0  0  0
   20.3594   18.4696   22.8796 C   0  0  0  0  0  0  0  0  0  0  0  0
   19.8711   18.4414   21.8958 H   0  0  0  0  0  0  0  0  0  0  0  0
   20.3434   19.5141   23.2151 H   0  0  0  0  0  0  0  0  0  0  0  0
   19.5641   17.5926   23.8765 C   0  0  0  0  0  0  0  0  0  0  0  0
   19.6197   16.5424   23.5584 H   0  0  0  0  0  0  0  0  0  0  0  0
   20.0330   17.6418   24.8691 H   0  0  0  0  0  0  0  0  0  0  0  0
   18.0755   17.9978   23.9885 C   0  0  0  0  0  0  0  0  0  0  0  0
   17.5591   17.2800   24.6396 H   0  0  0  0  0  0  0  0  0  0  0  0
   17.5985   17.9269   23.0019 H   0  0  0  0  0  0  0  0  0  0  0  0
   17.8856   19.4175   24.5549 C   0  0  0  0  0  0  0  0  0  0  0  0
   18.3600   19.4880   25.5374 H   0  0  0  0  0  0  0  0  0  0  0  0
   18.3570   20.1471   23.8914 H   0  0  0  0  0  0  0  0  0  0  0  0
   16.4289   19.8039   24.7098 N   0  3  0  0  0  0  0  0  0  0  0  0
   16.3242   20.7517   25.0881 H   0  0  0  0  0  0  0  0  0  0  0  0
   15.9317   19.1722   25.3462 H   0  0  0  0  0  0  0  0  0  0  0  0
   15.9307   19.7833   23.8140 H   0  0  0  0  0  0  0  0  0  0  0  0
  1  2  1  0  0  0  0
  1  3  1  0  0  0  0
  1  4  1  0  0  0  0
  1  5  1  0  0  0  0
  5  6  1  0  0  0  0
  5  7  1  0  0  0  0
  5  8  1  0  0  0  0
  8  9  1  0  0  0  0
  8 10  1  0  0  0  0
  8 11  1  0  0  0  0
 11 12  1  0  0  0  0
 11 13  1  0  0  0  0
 11 14  1  0  0  0  0
 14 15  1  0  0  0  0
 14 16  1  0  0  0  0
 14 17  1  0  0  0  0
 17 18  1  0  0  0  0
 17 19  1  0  0  0  0
 17 20  1  0  0  0  0
 20 21  1  0  0  0  0
 20 22  1  0  0  0  0
 20 23  1  0  0  0  0
 23 24  1  0  0  0  0
 23 25  1  0  0  0  0
 23 26  1  0  0  0  0
M  END
> <VConfSearch Rank>
858

> <Conf_Id>
96

> <Delta U+W>
0.912

> <U+W>
-4.640

> <U>
48.723

> <W>
-53.364

> <W(PB)>
-55.683

> <W(SA)>
2.320

> <Valence>
2.962

> <Coulomb>
44.993

> <VdW>
0.768

> <VdW6>
-7.008

> <VdW12>
7.776

> <Bond>
0.188

> <Angle>
0.757

> <Pdih>
2.018

> <Idih>
0.000

> <Tether>
0.000

$$$$
VeraChem MOL file


 26 25  0  0  0  0  0  0  0  0999 V2000     
   21.3817   16.8442   25.7043 C   0  0  0  0  0  0  0  0  0  0  0  0
   22.1007   16.1562   26.1675 H   0  0  0  0  0  0  0  0  0  0  0  0
   20.4146   16.7059   26.2048 H   0  0  0  0  0  0  0  0  0  0  0  0
   21.2715   16.5473   24.6540 H   0  0  0  0  0  0  0  0  0  0  0  0
   21.8708   18.3047   25.8336 C   0  0  0  0  0  0  0  0  0  0  0  0
   22.8232   18.4243   25.2984 H   0  0  0  0  0  0  0  0  0  0  0  0
   22.0842   18.5140   26.8911 H   0  0  0  0  0  0  0  0  0  0  0  0
   20.8467   19.3449   25.3188 C   0  0  0  0  0  0  0  0  0  0  0  0
   19.9030   19.2348   25.8707 H   0  0  0  0  0  0  0  0  0  0  0  0
   21.2250   20.3501   25.5509 H   0  0  0  0  0  0  0  0  0  0  0  0
   20.5768   19.2447   23.7982 C   0  0  0  0  0  0  0  0  0  0  0  0
   20.1379   18.2661   23.5670 H   0  0  0  0  0  0  0  0  0  0  0  0
   21.5286   19.3061   23.2528 H   0  0  0  0  0  0  0  0  0  0  0  0
   19.6285   20.3664   23.3104 C   0  0  0  0  0  0  0  0  0  0  0  0
   18.6647   20.2901   23.8328 H   0  0  0  0  0  0  0  0  0  0  0  0
   20.0530   21.3426   23.5826 H   0  0  0  0  0  0  0  0  0  0  0  0
   19.3906   20.3388   21.7822 C   0  0  0  0  0  0  0  0  0  0  0  0
   20.3501   20.4386   21.2574 H   0  0  0  0  0  0  0  0  0  0  0  0
   18.7859   21.2110   21.5001 H   0  0  0  0  0  0  0  0  0  0  0  0
   18.6748   19.0579   21.3139 C   0  0  0  0  0  0  0  0  0  0  0  0
   19.2879   18.1840   21.5485 H   0  0  0  0  0  0  0  0  0  0  0  0
   17.7192   18.9588   21.8358 H   0  0  0  0  0  0  0  0  0  0  0  0
   18.3979   19.0446   19.8244 N   0  3  0  0  0  0  0  0  0  0  0  0
   19.2610   19.1083   19.2747 H   0  0  0  0  0  0  0  0  0  0  0  0
   17.8004   19.8276   19.5398 H   0  0  0  0  0  0  0  0  0  0  0  0
   17.9211   18.1842   19.5331 H   0  0  0  0  0  0  0  0  0  0  0  0
  1  2  1  0  0  0  0
  1  3  1  0  0  0  0
  1  4  1  0  0  0  0
  1  5  1  0  0  0  0
  5  6  1  0  0  0  0
  5  7  1  0  0  0  0
  5  8  1  0  0  0  0
  8  9  1  0  0  0  0
  8 10  1  0  0  0  0
  8 11  1  0  0  0  0
 11 12  1  0  0  0  0
 11 13  1  0  0  0  0
 11 14  1  0  0  0  0
 14 15  1  0  0  0  0
 14 16  1  0  0  0  0
 14 17  1  0  0  0  0
 17 18  1  0  0  0  0
 17 19  1  0  0  0  0
 17 20  1  0  0  0  0
 20 21  1  0  0  0  0
 20 22  1  0  0  0  0
 20 23  1  0  0  0  0
 23 24  1  0  0  0  0
 23 25  1  0  0  0  0
 23 26  1  0  0  0  0
M  END
> <VConfSearch Rank>
859

> <Conf_Id>
133

> <Delta U+W>
0.844

> <U+W>
-4.708

> <U>
48.723

> <W>
-53.431

> <W(PB)>
-55.776

> <W(SA)>
2.344

> <Valence>
2.962

> <Coulomb>
44.993

> <VdW>
0.768

> <VdW6>
-7.008

> <VdW12>
7.776

> <Bond>
0.188

> <Angle>
0.756

> <Pdih>
2.018

> <Idih>
0.000

> <Tether>
0.000

$$$$
VeraChem MOL file


 26 25  0  0  0  0  0  0  0  0999 V2000     
   18.8505   18.7454   20.1515 C   0  0  0  0  0  0  0  0  0  0  0  0
   19.5152   18.2886   19.4069 H   0  0  0  0  0  0  0  0  0  0  0  0
   18.6887   18.0207   20.9592 H   0  0  0  0  0  0  0  0  0  0  0  0
   17.8806   18.9260   19.6704 H   0  0  0  0  0  0  0  0  0  0  0  0
   19.4434   20.0678   20.6880 C   0  0  0  0  0  0  0  0  0  0  0  0
   18.7718   20.4952   21.4446 H   0  0  0  0  0  0  0  0  0  0  0  0
   19.4757   20.7991   19.8683 H   0  0  0  0  0  0  0  0  0  0  0  0
   20.8731   19.9127   21.2665 C   0  0  0  0  0  0  0  0  0  0  0  0
   21.5505   19.6022   20.4591 H   0  0  0  0  0  0  0  0  0  0  0  0
   21.2303   20.8982   21.5957 H   0  0  0  0  0  0  0  0  0  0  0  0
   21.0080   18.9096   22.4413 C   0  0  0  0  0  0  0  0  0  0  0  0
   22.0629   18.8761   22.7466 H   0  0  0  0  0  0  0  0  0  0  0  0
   20.7610   17.8961   22.0983 H   0  0  0  0  0  0  0  0  0  0  0  0
   20.1393   19.2739   23.6691 C   0  0  0  0  0  0  0  0  0  0  0  0
   20.3575   20.3047   23.9809 H   0  0  0  0  0  0  0  0  0  0  0  0
   19.0757   19.2401   23.3981 H   0  0  0  0  0  0  0  0  0  0  0  0
   20.3881   18.3138   24.8531 C   0  0  0  0  0  0  0  0  0  0  0  0
   21.4474   18.3472   25.1408 H   0  0  0  0  0  0  0  0  0  0  0  0
   20.1699   17.2826   24.5447 H   0  0  0  0  0  0  0  0  0  0  0  0
   19.5167   18.6801   26.0674 C   0  0  0  0  0  0  0  0  0  0  0  0
   19.7423   19.7008   26.3878 H   0  0  0  0  0  0  0  0  0  0  0  0
   18.4601   18.6319   25.7903 H   0  0  0  0  0  0  0  0  0  0  0  0
   19.7320   17.7598   27.2516 N   0  3  0  0  0  0  0  0  0  0  0  0
   19.1423   18.0212   28.0493 H   0  0  0  0  0  0  0  0  0  0  0  0
   20.7033   17.7797   27.5794 H   0  0  0  0  0  0  0  0  0  0  0  0
   19.5103   16.7851   27.0234 H   0  0  0  0  0  0  0  0  0  0  0  0
  1  2  1  0  0  0  0
  1  3  1  0  0  0  0
  1  4  1  0  0  0  0
  1  5  1  0  0  0  0
  5  6  1  0  0  0  0
  5  7  1  0  0  0  0
  5  8  1  0  0  0  0
  8  9  1  0  0  0  0
  8 10  1  0  0  0  0
  8 11  1  0  0  0  0
 11 12  1  0  0  0  0
 11 13  1  0  0  0  0
 11 14  1  0  0  0  0
 14 15  1  0  0  0  0
 14 16  1  0  0  0  0
 14 17  1  0  0  0  0
 17 18  1  0  0  0  0
 17 19  1  0  0  0  0
 17 20  1  0  0  0  0
 20 21  1  0  0  0  0
 20 22  1  0  0  0  0
 20 23  1  0  0  0  0
 23 24  1  0  0  0  0
 23 25  1  0  0  0  0
 23 26  1  0  0  0  0
M  END
> <VConfSearch Rank>
860

> <Conf_Id>
106

> <Delta U+W>
0.767

> <U+W>
-4.785

> <U>
48.494

> <W>
-53.279

> <W(PB)>
-55.569

> <W(SA)>
2.290

> <Valence>
3.117

> <Coulomb>
44.693

> <VdW>
0.684

> <VdW6>
-7.347

> <VdW12>
8.030

> <Bond>
0.208

> <Angle>
1.039

> <Pdih>
1.870

> <Idih>
0.000

> <Tether>
0.000

$$$$
VeraChem MOL file


 26 25  0  0  0  0  0  0  0  0999 V2000     
   23.2124   22.0744   23.1297 C   0  0  0  0  0  0  0  0  0  0  0  0
   23.8468   21.6119   23.8971 H   0  0  0  0  0  0  0  0  0  0  0  0
   23.5954   21.7772   22.1447 H   0  0  0  0  0  0  0  0  0  0  0  0
   23.3172   23.1636   23.2174 H   0  0  0  0  0  0  0  0  0  0  0  0
   21.7375   21.6533   23.3016 C   0  0  0  0  0  0  0  0  0  0  0  0
   21.1236   22.1576   22.5421 H   0  0  0  0  0  0  0  0  0  0  0  0
   21.3730   21.9937   24.2810 H   0  0  0  0  0  0  0  0  0  0  0  0
   21.5618   20.1232   23.1826 C   0  0  0  0  0  0  0  0  0  0  0  0
   21.9297   19.7875   22.2032 H   0  0  0  0  0  0  0  0  0  0  0  0
   22.1789   19.6236   23.9422 H   0  0  0  0  0  0  0  0  0  0  0  0
   20.0860   19.6977   23.3540 C   0  0  0  0  0  0  0  0  0  0  0  0
   19.4695   20.1979   22.5943 H   0  0  0  0  0  0  0  0  0  0  0  0
   19.7187   20.0343   24.3335 H   0  0  0  0  0  0  0  0  0  0  0  0
   19.9108   18.1667   23.2351 C   0  0  0  0  0  0  0  0  0  0  0  0
   20.2780   17.8297   22.2556 H   0  0  0  0  0  0  0  0  0  0  0  0
   20.5271   17.6661   23.9949 H   0  0  0  0  0  0  0  0  0  0  0  0
   18.4360   17.7407   23.4063 C   0  0  0  0  0  0  0  0  0  0  0  0
   17.8175   18.2348   22.6451 H   0  0  0  0  0  0  0  0  0  0  0  0
   18.0668   18.0712   24.3863 H   0  0  0  0  0  0  0  0  0  0  0  0
   18.2732   16.2152   23.2863 C   0  0  0  0  0  0  0  0  0  0  0  0
   18.6243   15.8834   22.3054 H   0  0  0  0  0  0  0  0  0  0  0  0
   18.8747   15.7192   24.0529 H   0  0  0  0  0  0  0  0  0  0  0  0
   16.8383   15.7568   23.4488 N   0  3  0  0  0  0  0  0  0  0  0  0
   16.7520   14.7380   23.3655 H   0  0  0  0  0  0  0  0  0  0  0  0
   16.2231   16.1673   22.7387 H   0  0  0  0  0  0  0  0  0  0  0  0
   16.4561   16.0145   24.3647 H   0  0  0  0  0  0  0  0  0  0  0  0
  1  2  1  0  0  0  0
  1  3  1  0  0  0  0
  1  4  1  0  0  0  0
  1  5  1  0  0  0  0
  5  6  1  0  0  0  0
  5  7  1  0  0  0  0
  5  8  1  0  0  0  0
  8  9  1  0  0  0  0
  8 10  1  0  0  0  0
  8 11  1  0  0  0  0
 11 12  1  0  0  0  0
 11 13  1  0  0  0  0
 11 14  1  0  0  0  0
 14 15  1  0  0  0  0
 14 16  1  0  0  0  0
 14 17  1  0  0  0  0
 17 18  1  0  0  0  0
 17 19  1  0  0  0  0
 17 20  1  0  0  0  0
 20 21  1  0  0  0  0
 20 22  1  0  0  0  0
 20 23  1  0  0  0  0
 23 24  1  0  0  0  0
 23 25  1  0  0  0  0
 23 26  1  0  0  0  0
M  END
> <VConfSearch Rank>
861

> <Conf_Id>
25

> <Delta U+W>
0.000

> <U+W>
-5.552

> <U>
47.192

> <W>
-52.745

> <W(PB)>
-55.134

> <W(SA)>
2.389

> <Valence>
2.156

> <Coulomb>
44.449

> <VdW>
0.587

> <VdW6>
-5.761

> <VdW12>
6.348

> <Bond>
0.129

> <Angle>
0.393

> <Pdih>
1.634

> <Idih>
0.000

> <Tether>
0.000

$$$$
VeraChem MOL file


 26 25  0  0  0  0  0  0  0  0999 V2000     
   23.4257   19.6670   25.8623 C   0  0  0  0  0  0  0  0  0  0  0  0
   23.0273   20.5878   26.3081 H   0  0  0  0  0  0  0  0  0  0  0  0
   23.1433   18.8248   26.5074 H   0  0  0  0  0  0  0  0  0  0  0  0
   24.5211   19.7391   25.8626 H   0  0  0  0  0  0  0  0  0  0  0  0
   22.8929   19.4697   24.4273 C   0  0  0  0  0  0  0  0  0  0  0  0
   23.3347   18.5604   23.9962 H   0  0  0  0  0  0  0  0  0  0  0  0
   23.2196   20.3097   23.7984 H   0  0  0  0  0  0  0  0  0  0  0  0
   21.3519   19.3651   24.3985 C   0  0  0  0  0  0  0  0  0  0  0  0
   21.0301   18.5257   25.0304 H   0  0  0  0  0  0  0  0  0  0  0  0
   20.9150   20.2752   24.8324 H   0  0  0  0  0  0  0  0  0  0  0  0
   20.8146   19.1674   22.9631 C   0  0  0  0  0  0  0  0  0  0  0  0
   21.2519   18.2570   22.5299 H   0  0  0  0  0  0  0  0  0  0  0  0
   21.1380   20.0068   22.3319 H   0  0  0  0  0  0  0  0  0  0  0  0
   19.2729   19.0633   22.9345 C   0  0  0  0  0  0  0  0  0  0  0  0
   18.9552   18.2263   23.5705 H   0  0  0  0  0  0  0  0  0  0  0  0
   18.8357   19.9750   23.3650 H   0  0  0  0  0  0  0  0  0  0  0  0
   18.7372   18.8645   21.4969 C   0  0  0  0  0  0  0  0  0  0  0  0
   19.1438   17.9389   21.0681 H   0  0  0  0  0  0  0  0  0  0  0  0
   19.0907   19.6865   20.8602 H   0  0  0  0  0  0  0  0  0  0  0  0
   17.1980   18.8274   21.4348 C   0  0  0  0  0  0  0  0  0  0  0  0
   16.7899   19.7452   21.8666 H   0  0  0  0  0  0  0  0  0  0  0  0
   16.8785   18.7705   20.3907 H   0  0  0  0  0  0  0  0  0  0  0  0
   16.5857   17.6498   22.1676 N   0  3  0  0  0  0  0  0  0  0  0  0
   16.8166   17.6620   23.1659 H   0  0  0  0  0  0  0  0  0  0  0  0
   16.9142   16.7545   21.7912 H   0  0  0  0  0  0  0  0  0  0  0  0
   15.5624   17.6473   22.0962 H   0  0  0  0  0  0  0  0  0  0  0  0
  1  2  1  0  0  0  0
  1  3  1  0  0  0  0
  1  4  1  0  0  0  0
  1  5  1  0  0  0  0
  5  6  1  0  0  0  0
  5  7  1  0  0  0  0
  5  8  1  0  0  0  0
  8  9  1  0  0  0  0
  8 10  1  0  0  0  0
  8 11  1  0  0  0  0
 11 12  1  0  0  0  0
 11 13  1  0  0  0  0
 11 14  1  0  0  0  0
 14 15  1  0  0  0  0
 14 16  1  0  0  0  0
 14 17  1  0  0  0  0
 17 18  1  0  0  0  0
 17 19  1  0  0  0  0
 17 20  1  0  0  0  0
 20 21  1  0  0  0  0
 20 22  1  0  0  0  0
 20 23  1  0  0  0  0
 23 24  1  0  0  0  0
 23 25  1  0  0  0  0
 23 26  1  0  0  0  0
M  END
> <VConfSearch Rank>
862

> <Conf_Id>
20

> <Delta U+W>
0.150

> <U+W>
-5.403

> <U>
47.845

> <W>
-53.248

> <W(PB)>
-55.599

> <W(SA)>
2.351

> <Valence>
2.258

> <Coulomb>
44.893

> <VdW>
0.694

> <VdW6>
-6.285

> <VdW12>
6.979

> <Bond>
0.149

> <Angle>
0.434

> <Pdih>
1.675

> <Idih>
0.000

> <Tether>
0.000

$$$$
VeraChem MOL file


 26 25  0  0  0  0  0  0  0  0999 V2000     
   23.5355   18.1748   25.5622 C   0  0  0  0  0  0  0  0  0  0  0  0
   23.9427   17.5290   24.7733 H   0  0  0  0  0  0  0  0  0  0  0  0
   23.9525   19.1816   25.4291 H   0  0  0  0  0  0  0  0  0  0  0  0
   23.8871   17.7894   26.5280 H   0  0  0  0  0  0  0  0  0  0  0  0
   21.9931   18.2025   25.5154 C   0  0  0  0  0  0  0  0  0  0  0  0
   21.6147   18.8282   26.3359 H   0  0  0  0  0  0  0  0  0  0  0  0
   21.6049   17.1884   25.6851 H   0  0  0  0  0  0  0  0  0  0  0  0
   21.4712   18.7416   24.1650 C   0  0  0  0  0  0  0  0  0  0  0  0
   21.8636   19.7544   23.9989 H   0  0  0  0  0  0  0  0  0  0  0  0
   21.8540   18.1144   23.3480 H   0  0  0  0  0  0  0  0  0  0  0  0
   19.9269   18.7708   24.1144 C   0  0  0  0  0  0  0  0  0  0  0  0
   19.5453   19.3972   24.9326 H   0  0  0  0  0  0  0  0  0  0  0  0
   19.5353   17.7576   24.2804 H   0  0  0  0  0  0  0  0  0  0  0  0
   19.4051   19.3108   22.7636 C   0  0  0  0  0  0  0  0  0  0  0  0
   19.7944   20.3253   22.5992 H   0  0  0  0  0  0  0  0  0  0  0  0
   19.7935   18.6843   21.9496 H   0  0  0  0  0  0  0  0  0  0  0  0
   17.8591   19.3384   22.7147 C   0  0  0  0  0  0  0  0  0  0  0  0
   17.4793   19.9362   23.5539 H   0  0  0  0  0  0  0  0  0  0  0  0
   17.4600   18.3239   22.8468 H   0  0  0  0  0  0  0  0  0  0  0  0
   17.3155   19.9383   21.4036 C   0  0  0  0  0  0  0  0  0  0  0  0
   16.2259   20.0091   21.4617 H   0  0  0  0  0  0  0  0  0  0  0  0
   17.7158   20.9464   21.2662 H   0  0  0  0  0  0  0  0  0  0  0  0
   17.6580   19.1239   20.1715 N   0  3  0  0  0  0  0  0  0  0  0  0
   17.2879   18.1697   20.2307 H   0  0  0  0  0  0  0  0  0  0  0  0
   18.6708   19.0484   20.0357 H   0  0  0  0  0  0  0  0  0  0  0  0
   17.2712   19.5427   19.3187 H   0  0  0  0  0  0  0  0  0  0  0  0
  1  2  1  0  0  0  0
  1  3  1  0  0  0  0
  1  4  1  0  0  0  0
  1  5  1  0  0  0  0
  5  6  1  0  0  0  0
  5  7  1  0  0  0  0
  5  8  1  0  0  0  0
  8  9  1  0  0  0  0
  8 10  1  0  0  0  0
  8 11  1  0  0  0  0
 11 12  1  0  0  0  0
 11 13  1  0  0  0  0
 11 14  1  0  0  0  0
 14 15  1  0  0  0  0
 14 16  1  0  0  0  0
 14 17  1  0  0  0  0
 17 18  1  0  0  0  0
 17 19  1  0  0  0  0
 17 20  1  0  0  0  0
 20 21  1  0  0  0  0
 20 22  1  0  0  0  0
 20 23  1  0  0  0  0
 23 24  1  0  0  0  0
 23 25  1  0  0  0  0
 23 26  1  0  0  0  0
M  END
> <VConfSearch Rank>
863

> <Conf_Id>
19

> <Delta U+W>
0.162

> <U+W>
-5.391

> <U>
47.845

> <W>
-53.235

> <W(PB)>
-55.585

> <W(SA)>
2.349

> <Valence>
2.258

> <Coulomb>
44.893

> <VdW>
0.694

> <VdW6>
-6.285

> <VdW12>
6.979

> <Bond>
0.149

> <Angle>
0.434

> <Pdih>
1.675

> <Idih>
0.000

> <Tether>
0.000

$$$$
VeraChem MOL file


 26 25  0  0  0  0  0  0  0  0999 V2000     
   22.8596   16.9885   25.6822 C   0  0  0  0  0  0  0  0  0  0  0  0
   23.0643   17.4582   26.6532 H   0  0  0  0  0  0  0  0  0  0  0  0
   22.2624   16.0844   25.8588 H   0  0  0  0  0  0  0  0  0  0  0  0
   23.8195   16.6792   25.2488 H   0  0  0  0  0  0  0  0  0  0  0  0
   22.1240   17.9630   24.7379 C   0  0  0  0  0  0  0  0  0  0  0  0
   21.9744   17.4726   23.7669 H   0  0  0  0  0  0  0  0  0  0  0  0
   22.7575   18.8426   24.5571 H   0  0  0  0  0  0  0  0  0  0  0  0
   20.7648   18.4100   25.3263 C   0  0  0  0  0  0  0  0  0  0  0  0
   20.1124   17.5357   25.4576 H   0  0  0  0  0  0  0  0  0  0  0  0
   20.9300   18.8243   26.3305 H   0  0  0  0  0  0  0  0  0  0  0  0
   20.0385   19.4760   24.4697 C   0  0  0  0  0  0  0  0  0  0  0  0
   20.6856   20.3562   24.3519 H   0  0  0  0  0  0  0  0  0  0  0  0
   19.1508   19.8175   25.0199 H   0  0  0  0  0  0  0  0  0  0  0  0
   19.6006   18.9589   23.0782 C   0  0  0  0  0  0  0  0  0  0  0  0
   20.4826   18.6843   22.4847 H   0  0  0  0  0  0  0  0  0  0  0  0
   18.9988   18.0471   23.1974 H   0  0  0  0  0  0  0  0  0  0  0  0
   18.7832   20.0168   22.3045 C   0  0  0  0  0  0  0  0  0  0  0  0
   19.3817   20.9295   22.1823 H   0  0  0  0  0  0  0  0  0  0  0  0
   17.8909   20.2914   22.8830 H   0  0  0  0  0  0  0  0  0  0  0  0
   18.3551   19.4965   20.9210 C   0  0  0  0  0  0  0  0  0  0  0  0
   19.2409   19.2374   20.3348 H   0  0  0  0  0  0  0  0  0  0  0  0
   17.7450   18.5968   21.0387 H   0  0  0  0  0  0  0  0  0  0  0  0
   17.5499   20.5072   20.1300 N   0  3  0  0  0  0  0  0  0  0  0  0
   18.0788   21.3691   19.9608 H   0  0  0  0  0  0  0  0  0  0  0  0
   16.6870   20.7730   20.6158 H   0  0  0  0  0  0  0  0  0  0  0  0
   17.2749   20.1407   19.2121 H   0  0  0  0  0  0  0  0  0  0  0  0
  1  2  1  0  0  0  0
  1  3  1  0  0  0  0
  1  4  1  0  0  0  0
  1  5  1  0  0  0  0
  5  6  1  0  0  0  0
  5  7  1  0  0  0  0
  5  8  1  0  0  0  0
  8  9  1  0  0  0  0
  8 10  1  0  0  0  0
  8 11  1  0  0  0  0
 11 12  1  0  0  0  0
 11 13  1  0  0  0  0
 11 14  1  0  0  0  0
 14 15  1  0  0  0  0
 14 16  1  0  0  0  0
 14 17  1  0  0  0  0
 17 18  1  0  0  0  0
 17 19  1  0  0  0  0
 17 20  1  0  0  0  0
 20 21  1  0  0  0  0
 20 22  1  0  0  0  0
 20 23  1  0  0  0  0
 23 24  1  0  0  0  0
 23 25  1  0  0  0  0
 23 26  1  0  0  0  0
M  END
> <VConfSearch Rank>
864

> <Conf_Id>
37

> <Delta U+W>
0.565

> <U+W>
-4.988

> <U>
48.035

> <W>
-53.022

> <W(PB)>
-55.379

> <W(SA)>
2.357

> <Valence>
2.701

> <Coulomb>
44.622

> <VdW>
0.712

> <VdW6>
-6.418

> <VdW12>
7.129

> <Bond>
0.168

> <Angle>
0.659

> <Pdih>
1.875

> <Idih>
0.000

> <Tether>
0.000

$$$$
VeraChem MOL file


 26 25  0  0  0  0  0  0  0  0999 V2000     
   16.0677   20.0405   23.4012 C   0  0  0  0  0  0  0  0  0  0  0  0
   16.3420   20.3152   24.4281 H   0  0  0  0  0  0  0  0  0  0  0  0
   16.2170   20.9194   22.7605 H   0  0  0  0  0  0  0  0  0  0  0  0
   14.9978   19.7950   23.3925 H   0  0  0  0  0  0  0  0  0  0  0  0
   16.9055   18.8431   22.9044 C   0  0  0  0  0  0  0  0  0  0  0  0
   16.5843   18.5702   21.8894 H   0  0  0  0  0  0  0  0  0  0  0  0
   16.7101   17.9710   23.5440 H   0  0  0  0  0  0  0  0  0  0  0  0
   18.4169   19.1624   22.9059 C   0  0  0  0  0  0  0  0  0  0  0  0
   18.6073   20.0334   22.2637 H   0  0  0  0  0  0  0  0  0  0  0  0
   18.7222   19.4421   23.9226 H   0  0  0  0  0  0  0  0  0  0  0  0
   19.2581   17.9609   22.4117 C   0  0  0  0  0  0  0  0  0  0  0  0
   18.8871   17.6461   21.4265 H   0  0  0  0  0  0  0  0  0  0  0  0
   19.1117   17.1043   23.0842 H   0  0  0  0  0  0  0  0  0  0  0  0
   20.7702   18.2716   22.2891 C   0  0  0  0  0  0  0  0  0  0  0  0
   21.2667   17.4080   21.8251 H   0  0  0  0  0  0  0  0  0  0  0  0
   20.9180   19.1172   21.6030 H   0  0  0  0  0  0  0  0  0  0  0  0
   21.4523   18.5741   23.6440 C   0  0  0  0  0  0  0  0  0  0  0  0
   21.2615   17.7515   24.3460 H   0  0  0  0  0  0  0  0  0  0  0  0
   21.0273   19.4836   24.0869 H   0  0  0  0  0  0  0  0  0  0  0  0
   22.9705   18.7613   23.4768 C   0  0  0  0  0  0  0  0  0  0  0  0
   23.4090   17.8536   23.0533 H   0  0  0  0  0  0  0  0  0  0  0  0
   23.1659   19.5901   22.7910 H   0  0  0  0  0  0  0  0  0  0  0  0
   23.6798   19.0575   24.7825 N   0  3  0  0  0  0  0  0  0  0  0  0
   23.5575   18.3012   25.4639 H   0  0  0  0  0  0  0  0  0  0  0  0
   23.3322   19.9172   25.2199 H   0  0  0  0  0  0  0  0  0  0  0  0
   24.6897   19.1781   24.6485 H   0  0  0  0  0  0  0  0  0  0  0  0
  1  2  1  0  0  0  0
  1  3  1  0  0  0  0
  1  4  1  0  0  0  0
  1  5  1  0  0  0  0
  5  6  1  0  0  0  0
  5  7  1  0  0  0  0
  5  8  1  0  0  0  0
  8  9  1  0  0  0  0
  8 10  1  0  0  0  0
  8 11  1  0  0  0  0
 11 12  1  0  0  0  0
 11 13  1  0  0  0  0
 11 14  1  0  0  0  0
 14 15  1  0  0  0  0
 14 16  1  0  0  0  0
 14 17  1  0  0  0  0
 17 18  1  0  0  0  0
 17 19  1  0  0  0  0
 17 20  1  0  0  0  0
 20 21  1  0  0  0  0
 20 22  1  0  0  0  0
 20 23  1  0  0  0  0
 23 24  1  0  0  0  0
 23 25  1  0  0  0  0
 23 26  1  0  0  0  0
M  END
> <VConfSearch Rank>
865

> <Conf_Id>
35

> <Delta U+W>
0.587

> <U+W>
-4.965

> <U>
48.214

> <W>
-53.179

> <W(PB)>
-55.527

> <W(SA)>
2.348

> <Valence>
2.697

> <Coulomb>
44.819

> <VdW>
0.699

> <VdW6>
-6.437

> <VdW12>
7.136

> <Bond>
0.168

> <Angle>
0.657

> <Pdih>
1.872

> <Idih>
0.000

> <Tether>
0.000

$$$$
VeraChem MOL file


 26 25  0  0  0  0  0  0  0  0999 V2000     
   16.0885   19.5601   23.5805 C   0  0  0  0  0  0  0  0  0  0  0  0
   16.0875   20.4775   22.9774 H   0  0  0  0  0  0  0  0  0  0  0  0
   16.0727   18.7013   22.8967 H   0  0  0  0  0  0  0  0  0  0  0  0
   15.1605   19.5413   24.1666 H   0  0  0  0  0  0  0  0  0  0  0  0
   17.3205   19.5079   24.5087 C   0  0  0  0  0  0  0  0  0  0  0  0
   17.2766   18.5970   25.1221 H   0  0  0  0  0  0  0  0  0  0  0  0
   17.2897   20.3593   25.2029 H   0  0  0  0  0  0  0  0  0  0  0  0
   18.6416   19.5340   23.7084 C   0  0  0  0  0  0  0  0  0  0  0  0
   18.6552   18.6845   23.0132 H   0  0  0  0  0  0  0  0  0  0  0  0
   18.6817   20.4471   23.0986 H   0  0  0  0  0  0  0  0  0  0  0  0
   19.8775   19.4775   24.6382 C   0  0  0  0  0  0  0  0  0  0  0  0
   19.8687   18.5394   25.2102 H   0  0  0  0  0  0  0  0  0  0  0  0
   19.8070   20.2888   25.3760 H   0  0  0  0  0  0  0  0  0  0  0  0
   21.2248   19.6145   23.8872 C   0  0  0  0  0  0  0  0  0  0  0  0
   21.2409   20.5610   23.3291 H   0  0  0  0  0  0  0  0  0  0  0  0
   22.0322   19.6811   24.6298 H   0  0  0  0  0  0  0  0  0  0  0  0
   21.5216   18.4381   22.9277 C   0  0  0  0  0  0  0  0  0  0  0  0
   20.7716   18.4040   22.1276 H   0  0  0  0  0  0  0  0  0  0  0  0
   21.4556   17.4885   23.4752 H   0  0  0  0  0  0  0  0  0  0  0  0
   22.9195   18.5686   22.2978 C   0  0  0  0  0  0  0  0  0  0  0  0
   22.9849   19.5054   21.7378 H   0  0  0  0  0  0  0  0  0  0  0  0
   23.6781   18.5848   23.0851 H   0  0  0  0  0  0  0  0  0  0  0  0
   23.2527   17.4336   21.3511 N   0  3  0  0  0  0  0  0  0  0  0  0
   22.5909   17.3806   20.5698 H   0  0  0  0  0  0  0  0  0  0  0  0
   23.2352   16.5240   21.8240 H   0  0  0  0  0  0  0  0  0  0  0  0
   24.1880   17.5399   20.9433 H   0  0  0  0  0  0  0  0  0  0  0  0
  1  2  1  0  0  0  0
  1  3  1  0  0  0  0
  1  4  1  0  0  0  0
  1  5  1  0  0  0  0
  5  6  1  0  0  0  0
  5  7  1  0  0  0  0
  5  8  1  0  0  0  0
  8  9  1  0  0  0  0
  8 10  1  0  0  0  0
  8 11  1  0  0  0  0
 11 12  1  0  0  0  0
 11 13  1  0  0  0  0
 11 14  1  0  0  0  0
 14 15  1  0  0  0  0
 14 16  1  0  0  0  0
 14 17  1  0  0  0  0
 17 18  1  0  0  0  0
 17 19  1  0  0  0  0
 17 20  1  0  0  0  0
 20 21  1  0  0  0  0
 20 22  1  0  0  0  0
 20 23  1  0  0  0  0
 23 24  1  0  0  0  0
 23 25  1  0  0  0  0
 23 26  1  0  0  0  0
M  END
> <VConfSearch Rank>
866

> <Conf_Id>
36

> <Delta U+W>
0.565

> <U+W>
-4.987

> <U>
48.214

> <W>
-53.201

> <W(PB)>
-55.543

> <W(SA)>
2.342

> <Valence>
2.697

> <Coulomb>
44.819

> <VdW>
0.698

> <VdW6>
-6.437

> <VdW12>
7.136

> <Bond>
0.168

> <Angle>
0.657

> <Pdih>
1.872

> <Idih>
0.000

> <Tether>
0.000

$$$$
VeraChem MOL file


 26 25  0  0  0  0  0  0  0  0999 V2000     
   17.5212   19.3489   26.7692 C   0  0  0  0  0  0  0  0  0  0  0  0
   17.6397   20.4158   26.9991 H   0  0  0  0  0  0  0  0  0  0  0  0
   16.4829   19.0698   26.9908 H   0  0  0  0  0  0  0  0  0  0  0  0
   18.1744   18.7793   27.4430 H   0  0  0  0  0  0  0  0  0  0  0  0
   17.8600   19.0588   25.2917 C   0  0  0  0  0  0  0  0  0  0  0  0
   17.1691   19.6155   24.6431 H   0  0  0  0  0  0  0  0  0  0  0  0
   17.6996   17.9916   25.0837 H   0  0  0  0  0  0  0  0  0  0  0  0
   19.3174   19.4431   24.9528 C   0  0  0  0  0  0  0  0  0  0  0  0
   19.4733   20.5099   25.1652 H   0  0  0  0  0  0  0  0  0  0  0  0
   20.0042   18.8857   25.6048 H   0  0  0  0  0  0  0  0  0  0  0  0
   19.6605   19.1544   23.4739 C   0  0  0  0  0  0  0  0  0  0  0  0
   18.9747   19.7144   22.8231 H   0  0  0  0  0  0  0  0  0  0  0  0
   19.4964   18.0883   23.2674 H   0  0  0  0  0  0  0  0  0  0  0  0
   21.1213   19.5392   23.1379 C   0  0  0  0  0  0  0  0  0  0  0  0
   21.2850   20.5949   23.3949 H   0  0  0  0  0  0  0  0  0  0  0  0
   21.8117   18.9566   23.7637 H   0  0  0  0  0  0  0  0  0  0  0  0
   21.4766   19.3310   21.6469 C   0  0  0  0  0  0  0  0  0  0  0  0
   22.4930   19.7059   21.4671 H   0  0  0  0  0  0  0  0  0  0  0  0
   20.8044   19.9319   21.0199 H   0  0  0  0  0  0  0  0  0  0  0  0
   21.4021   17.8536   21.2179 C   0  0  0  0  0  0  0  0  0  0  0  0
   22.0721   17.2553   21.8413 H   0  0  0  0  0  0  0  0  0  0  0  0
   20.3833   17.4804   21.3503 H   0  0  0  0  0  0  0  0  0  0  0  0
   21.7918   17.6364   19.7701 N   0  3  0  0  0  0  0  0  0  0  0  0
   21.7357   16.6471   19.5046 H   0  0  0  0  0  0  0  0  0  0  0  0
   22.7527   17.9413   19.5832 H   0  0  0  0  0  0  0  0  0  0  0  0
   21.1813   18.1527   19.1284 H   0  0  0  0  0  0  0  0  0  0  0  0
  1  2  1  0  0  0  0
  1  3  1  0  0  0  0
  1  4  1  0  0  0  0
  1  5  1  0  0  0  0
  5  6  1  0  0  0  0
  5  7  1  0  0  0  0
  5  8  1  0  0  0  0
  8  9  1  0  0  0  0
  8 10  1  0  0  0  0
  8 11  1  0  0  0  0
 11 12  1  0  0  0  0
 11 13  1  0  0  0  0
 11 14  1  0  0  0  0
 14 15  1  0  0  0  0
 14 16  1  0  0  0  0
 14 17  1  0  0  0  0
 17 18  1  0  0  0  0
 17 19  1  0  0  0  0
 17 20  1  0  0  0  0
 20 21  1  0  0  0  0
 20 22  1  0  0  0  0
 20 23  1  0  0  0  0
 23 24  1  0  0  0  0
 23 25  1  0  0  0  0
 23 26  1  0  0  0  0
M  END
> <VConfSearch Rank>
867

> <Conf_Id>
44

> <Delta U+W>
0.371

> <U+W>
-5.181

> <U>
48.002

> <W>
-53.183

> <W(PB)>
-55.533

> <W(SA)>
2.350

> <Valence>
2.459

> <Coulomb>
44.901

> <VdW>
0.643

> <VdW6>
-6.362

> <VdW12>
7.005

> <Bond>
0.151

> <Angle>
0.519

> <Pdih>
1.789

> <Idih>
0.000

> <Tether>
0.000

$$$$
VeraChem MOL file


 26 25  0  0  0  0  0  0  0  0999 V2000     
   16.8705   20.0010   25.4026 C   0  0  0  0  0  0  0  0  0  0  0  0
   16.1820   19.3453   24.8540 H   0  0  0  0  0  0  0  0  0  0  0  0
   16.3489   20.3599   26.2993 H   0  0  0  0  0  0  0  0  0  0  0  0
   17.0863   20.8752   24.7762 H   0  0  0  0  0  0  0  0  0  0  0  0
   18.1622   19.2478   25.7943 C   0  0  0  0  0  0  0  0  0  0  0  0
   17.9063   18.4647   26.5216 H   0  0  0  0  0  0  0  0  0  0  0  0
   18.8487   19.9335   26.3103 H   0  0  0  0  0  0  0  0  0  0  0  0
   18.8834   18.5903   24.5926 C   0  0  0  0  0  0  0  0  0  0  0  0
   19.6999   17.9717   24.9861 H   0  0  0  0  0  0  0  0  0  0  0  0
   18.1933   17.9051   24.0814 H   0  0  0  0  0  0  0  0  0  0  0  0
   19.4509   19.6155   23.5777 C   0  0  0  0  0  0  0  0  0  0  0  0
   20.1441   20.2985   24.0877 H   0  0  0  0  0  0  0  0  0  0  0  0
   18.6323   20.2372   23.1928 H   0  0  0  0  0  0  0  0  0  0  0  0
   20.1625   18.9623   22.3670 C   0  0  0  0  0  0  0  0  0  0  0  0
   19.4735   18.2685   21.8656 H   0  0  0  0  0  0  0  0  0  0  0  0
   20.3882   19.7523   21.6386 H   0  0  0  0  0  0  0  0  0  0  0  0
   21.4711   18.2211   22.7404 C   0  0  0  0  0  0  0  0  0  0  0  0
   21.2499   17.3989   23.4317 H   0  0  0  0  0  0  0  0  0  0  0  0
   22.1523   18.9018   23.2681 H   0  0  0  0  0  0  0  0  0  0  0  0
   22.1881   17.6270   21.5124 C   0  0  0  0  0  0  0  0  0  0  0  0
   23.0455   17.0357   21.8451 H   0  0  0  0  0  0  0  0  0  0  0  0
   21.5061   16.9644   20.9727 H   0  0  0  0  0  0  0  0  0  0  0  0
   22.7011   18.6699   20.5386 N   0  3  0  0  0  0  0  0  0  0  0  0
   21.9402   19.2394   20.1558 H   0  0  0  0  0  0  0  0  0  0  0  0
   23.1851   18.2414   19.7421 H   0  0  0  0  0  0  0  0  0  0  0  0
   23.3660   19.3113   20.9831 H   0  0  0  0  0  0  0  0  0  0  0  0
  1  2  1  0  0  0  0
  1  3  1  0  0  0  0
  1  4  1  0  0  0  0
  1  5  1  0  0  0  0
  5  6  1  0  0  0  0
  5  7  1  0  0  0  0
  5  8  1  0  0  0  0
  8  9  1  0  0  0  0
  8 10  1  0  0  0  0
  8 11  1  0  0  0  0
 11 12  1  0  0  0  0
 11 13  1  0  0  0  0
 11 14  1  0  0  0  0
 14 15  1  0  0  0  0
 14 16  1  0  0  0  0
 14 17  1  0  0  0  0
 17 18  1  0  0  0  0
 17 19  1  0  0  0  0
 17 20  1  0  0  0  0
 20 21  1  0  0  0  0
 20 22  1  0  0  0  0
 20 23  1  0  0  0  0
 23 24  1  0  0  0  0
 23 25  1  0  0  0  0
 23 26  1  0  0  0  0
M  END
> <VConfSearch Rank>
868

> <Conf_Id>
112

> <Delta U+W>
1.422

> <U+W>
-4.130

> <U>
49.323

> <W>
-53.453

> <W(PB)>
-55.749

> <W(SA)>
2.296

> <Valence>
3.408

> <Coulomb>
44.893

> <VdW>
1.021

> <VdW6>
-7.481

> <VdW12>
8.503

> <Bond>
0.239

> <Angle>
1.013

> <Pdih>
2.156

> <Idih>
0.000

> <Tether>
0.000

$$$$
VeraChem MOL file


 26 25  0  0  0  0  0  0  0  0999 V2000     
   23.2384   17.3097   22.5050 C   0  0  0  0  0  0  0  0  0  0  0  0
   24.1396   16.8959   22.0343 H   0  0  0  0  0  0  0  0  0  0  0  0
   23.4612   18.3453   22.7906 H   0  0  0  0  0  0  0  0  0  0  0  0
   23.0431   16.7348   23.4195 H   0  0  0  0  0  0  0  0  0  0  0  0
   22.0380   17.2348   21.5345 C   0  0  0  0  0  0  0  0  0  0  0  0
   21.9270   16.1981   21.1869 H   0  0  0  0  0  0  0  0  0  0  0  0
   22.2477   17.8379   20.6401 H   0  0  0  0  0  0  0  0  0  0  0  0
   20.7038   17.6908   22.1728 C   0  0  0  0  0  0  0  0  0  0  0  0
   19.8932   17.5117   21.4532 H   0  0  0  0  0  0  0  0  0  0  0  0
   20.4908   17.0598   23.0455 H   0  0  0  0  0  0  0  0  0  0  0  0
   20.6988   19.1859   22.5809 C   0  0  0  0  0  0  0  0  0  0  0  0
   21.0408   19.7896   21.7290 H   0  0  0  0  0  0  0  0  0  0  0  0
   21.4194   19.3576   23.3914 H   0  0  0  0  0  0  0  0  0  0  0  0
   19.3065   19.7021   23.0202 C   0  0  0  0  0  0  0  0  0  0  0  0
   19.3764   20.7875   23.1707 H   0  0  0  0  0  0  0  0  0  0  0  0
   18.5838   19.5492   22.2067 H   0  0  0  0  0  0  0  0  0  0  0  0
   18.7818   19.0352   24.3165 C   0  0  0  0  0  0  0  0  0  0  0  0
   19.5107   19.1631   25.1277 H   0  0  0  0  0  0  0  0  0  0  0  0
   18.6715   17.9549   24.1601 H   0  0  0  0  0  0  0  0  0  0  0  0
   17.4155   19.5928   24.7603 C   0  0  0  0  0  0  0  0  0  0  0  0
   16.6919   19.4838   23.9480 H   0  0  0  0  0  0  0  0  0  0  0  0
   17.0527   19.0208   25.6187 H   0  0  0  0  0  0  0  0  0  0  0  0
   17.4527   21.0534   25.1656 N   0  3  0  0  0  0  0  0  0  0  0  0
   17.7499   21.6551   24.3914 H   0  0  0  0  0  0  0  0  0  0  0  0
   18.1011   21.2164   25.9428 H   0  0  0  0  0  0  0  0  0  0  0  0
   16.5315   21.3878   25.4689 H   0  0  0  0  0  0  0  0  0  0  0  0
  1  2  1  0  0  0  0
  1  3  1  0  0  0  0
  1  4  1  0  0  0  0
  1  5  1  0  0  0  0
  5  6  1  0  0  0  0
  5  7  1  0  0  0  0
  5  8  1  0  0  0  0
  8  9  1  0  0  0  0
  8 10  1  0  0  0  0
  8 11  1  0  0  0  0
 11 12  1  0  0  0  0
 11 13  1  0  0  0  0
 11 14  1  0  0  0  0
 14 15  1  0  0  0  0
 14 16  1  0  0  0  0
 14 17  1  0  0  0  0
 17 18  1  0  0  0  0
 17 19  1  0  0  0  0
 17 20  1  0  0  0  0
 20 21  1  0  0  0  0
 20 22  1  0  0  0  0
 20 23  1  0  0  0  0
 23 24  1  0  0  0  0
 23 25  1  0  0  0  0
 23 26  1  0  0  0  0
M  END
> <VConfSearch Rank>
869

> <Conf_Id>
130

> <Delta U+W>
1.282

> <U+W>
-4.270

> <U>
49.153

> <W>
-53.422

> <W(PB)>
-55.725

> <W(SA)>
2.303

> <Valence>
3.298

> <Coulomb>
44.907

> <VdW>
0.948

> <VdW6>
-7.574

> <VdW12>
8.522

> <Bond>
0.229

> <Angle>
0.912

> <Pdih>
2.157

> <Idih>
0.000

> <Tether>
0.000

$$$$
VeraChem MOL file


 26 25  0  0  0  0  0  0  0  0999 V2000     
   21.2406   21.8332   24.5680 C   0  0  0  0  0  0  0  0  0  0  0  0
   21.8586   22.2910   23.7848 H   0  0  0  0  0  0  0  0  0  0  0  0
   21.3271   22.4530   25.4698 H   0  0  0  0  0  0  0  0  0  0  0  0
   21.6588   20.8467   24.8040 H   0  0  0  0  0  0  0  0  0  0  0  0
   19.7647   21.7300   24.1215 C   0  0  0  0  0  0  0  0  0  0  0  0
   19.3564   22.7445   24.0136 H   0  0  0  0  0  0  0  0  0  0  0  0
   19.1709   21.2511   24.9113 H   0  0  0  0  0  0  0  0  0  0  0  0
   19.5774   20.9787   22.7785 C   0  0  0  0  0  0  0  0  0  0  0  0
   18.5089   20.9725   22.5226 H   0  0  0  0  0  0  0  0  0  0  0  0
   20.0733   21.5501   21.9819 H   0  0  0  0  0  0  0  0  0  0  0  0
   20.1108   19.5228   22.7496 C   0  0  0  0  0  0  0  0  0  0  0  0
   21.1985   19.5200   22.9001 H   0  0  0  0  0  0  0  0  0  0  0  0
   19.9450   19.1231   21.7407 H   0  0  0  0  0  0  0  0  0  0  0  0
   19.4352   18.5950   23.7911 C   0  0  0  0  0  0  0  0  0  0  0  0
   19.6258   18.9773   24.8023 H   0  0  0  0  0  0  0  0  0  0  0  0
   18.3455   18.6111   23.6511 H   0  0  0  0  0  0  0  0  0  0  0  0
   19.9431   17.1355   23.7231 C   0  0  0  0  0  0  0  0  0  0  0  0
   19.5025   16.5669   24.5529 H   0  0  0  0  0  0  0  0  0  0  0  0
   21.0310   17.1160   23.8716 H   0  0  0  0  0  0  0  0  0  0  0  0
   19.5881   16.4406   22.3951 C   0  0  0  0  0  0  0  0  0  0  0  0
   18.5050   16.4614   22.2471 H   0  0  0  0  0  0  0  0  0  0  0  0
   20.0599   16.9686   21.5625 H   0  0  0  0  0  0  0  0  0  0  0  0
   20.0396   14.9953   22.3434 N   0  3  0  0  0  0  0  0  0  0  0  0
   21.0555   14.9083   22.4502 H   0  0  0  0  0  0  0  0  0  0  0  0
   19.7938   14.5510   21.4520 H   0  0  0  0  0  0  0  0  0  0  0  0
   19.6089   14.4338   23.0853 H   0  0  0  0  0  0  0  0  0  0  0  0
  1  2  1  0  0  0  0
  1  3  1  0  0  0  0
  1  4  1  0  0  0  0
  1  5  1  0  0  0  0
  5  6  1  0  0  0  0
  5  7  1  0  0  0  0
  5  8  1  0  0  0  0
  8  9  1  0  0  0  0
  8 10  1  0  0  0  0
  8 11  1  0  0  0  0
 11 12  1  0  0  0  0
 11 13  1  0  0  0  0
 11 14  1  0  0  0  0
 14 15  1  0  0  0  0
 14 16  1  0  0  0  0
 14 17  1  0  0  0  0
 17 18  1  0  0  0  0
 17 19  1  0  0  0  0
 17 20  1  0  0  0  0
 20 21  1  0  0  0  0
 20 22  1  0  0  0  0
 20 23  1  0  0  0  0
 23 24  1  0  0  0  0
 23 25  1  0  0  0  0
 23 26  1  0  0  0  0
M  END
> <VConfSearch Rank>
870

> <Conf_Id>
111

> <Delta U+W>
1.290

> <U+W>
-4.262

> <U>
49.209

> <W>
-53.471

> <W(PB)>
-55.745

> <W(SA)>
2.274

> <Valence>
3.465

> <Coulomb>
44.958

> <VdW>
0.786

> <VdW6>
-7.903

> <VdW12>
8.689

> <Bond>
0.237

> <Angle>
1.212

> <Pdih>
2.015

> <Idih>
0.000

> <Tether>
0.000

$$$$
VeraChem MOL file


 26 25  0  0  0  0  0  0  0  0999 V2000     
   21.0476   18.8565   27.1242 C   0  0  0  0  0  0  0  0  0  0  0  0
   20.3913   17.9997   27.3254 H   0  0  0  0  0  0  0  0  0  0  0  0
   22.0793   18.5577   27.3512 H   0  0  0  0  0  0  0  0  0  0  0  0
   20.7707   19.6628   27.8157 H   0  0  0  0  0  0  0  0  0  0  0  0
   20.9144   19.3249   25.6596 C   0  0  0  0  0  0  0  0  0  0  0  0
   21.5594   20.1997   25.4970 H   0  0  0  0  0  0  0  0  0  0  0  0
   19.8815   19.6532   25.4835 H   0  0  0  0  0  0  0  0  0  0  0  0
   21.2957   18.2026   24.6654 C   0  0  0  0  0  0  0  0  0  0  0  0
   22.3016   17.8351   24.9111 H   0  0  0  0  0  0  0  0  0  0  0  0
   20.6164   17.3485   24.7926 H   0  0  0  0  0  0  0  0  0  0  0  0
   21.2879   18.6564   23.1849 C   0  0  0  0  0  0  0  0  0  0  0  0
   21.6813   17.8365   22.5682 H   0  0  0  0  0  0  0  0  0  0  0  0
   21.9807   19.4993   23.0554 H   0  0  0  0  0  0  0  0  0  0  0  0
   19.8839   19.0485   22.6648 C   0  0  0  0  0  0  0  0  0  0  0  0
   19.1849   18.2230   22.8534 H   0  0  0  0  0  0  0  0  0  0  0  0
   19.5089   19.9195   23.2181 H   0  0  0  0  0  0  0  0  0  0  0  0
   19.9069   19.3832   21.1545 C   0  0  0  0  0  0  0  0  0  0  0  0
   20.2439   18.5102   20.5799 H   0  0  0  0  0  0  0  0  0  0  0  0
   20.6387   20.1811   20.9703 H   0  0  0  0  0  0  0  0  0  0  0  0
   18.5358   19.8477   20.6267 C   0  0  0  0  0  0  0  0  0  0  0  0
   18.1947   20.7140   21.2000 H   0  0  0  0  0  0  0  0  0  0  0  0
   18.6331   20.1485   19.5799 H   0  0  0  0  0  0  0  0  0  0  0  0
   17.4604   18.7815   20.7004 N   0  3  0  0  0  0  0  0  0  0  0  0
   16.5648   19.1180   20.3303 H   0  0  0  0  0  0  0  0  0  0  0  0
   17.2916   18.4784   21.6645 H   0  0  0  0  0  0  0  0  0  0  0  0
   17.7133   17.9478   20.1601 H   0  0  0  0  0  0  0  0  0  0  0  0
  1  2  1  0  0  0  0
  1  3  1  0  0  0  0
  1  4  1  0  0  0  0
  1  5  1  0  0  0  0
  5  6  1  0  0  0  0
  5  7  1  0  0  0  0
  5  8  1  0  0  0  0
  8  9  1  0  0  0  0
  8 10  1  0  0  0  0
  8 11  1  0  0  0  0
 11 12  1  0  0  0  0
 11 13  1  0  0  0  0
 11 14  1  0  0  0  0
 14 15  1  0  0  0  0
 14 16  1  0  0  0  0
 14 17  1  0  0  0  0
 17 18  1  0  0  0  0
 17 19  1  0  0  0  0
 17 20  1  0  0  0  0
 20 21  1  0  0  0  0
 20 22  1  0  0  0  0
 20 23  1  0  0  0  0
 23 24  1  0  0  0  0
 23 25  1  0  0  0  0
 23 26  1  0  0  0  0
M  END
> <VConfSearch Rank>
871

> <Conf_Id>
105

> <Delta U+W>
0.736

> <U+W>
-4.817

> <U>
48.735

> <W>
-53.552

> <W(PB)>
-55.889

> <W(SA)>
2.337

> <Valence>
2.803

> <Coulomb>
45.123

> <VdW>
0.809

> <VdW6>
-6.953

> <VdW12>
7.761

> <Bond>
0.188

> <Angle>
0.699

> <Pdih>
1.917

> <Idih>
0.000

> <Tether>
0.000

$$$$
VeraChem MOL file


 26 25  0  0  0  0  0  0  0  0999 V2000     
   18.3812   15.7290   22.4195 C   0  0  0  0  0  0  0  0  0  0  0  0
   17.3492   15.5090   22.7222 H   0  0  0  0  0  0  0  0  0  0  0  0
   18.3644   16.0871   21.3818 H   0  0  0  0  0  0  0  0  0  0  0  0
   18.9466   14.7883   22.4424 H   0  0  0  0  0  0  0  0  0  0  0  0
   19.0239   16.7739   23.3561 C   0  0  0  0  0  0  0  0  0  0  0  0
   20.0647   16.9371   23.0465 H   0  0  0  0  0  0  0  0  0  0  0  0
   19.0539   16.3764   24.3802 H   0  0  0  0  0  0  0  0  0  0  0  0
   18.2464   18.1110   23.3376 C   0  0  0  0  0  0  0  0  0  0  0  0
   18.2512   18.5298   22.3228 H   0  0  0  0  0  0  0  0  0  0  0  0
   17.1920   17.9132   23.5753 H   0  0  0  0  0  0  0  0  0  0  0  0
   18.7845   19.1574   24.3479 C   0  0  0  0  0  0  0  0  0  0  0  0
   18.6507   18.7679   25.3665 H   0  0  0  0  0  0  0  0  0  0  0  0
   18.1596   20.0590   24.2876 H   0  0  0  0  0  0  0  0  0  0  0  0
   20.2700   19.5627   24.1625 C   0  0  0  0  0  0  0  0  0  0  0  0
   20.5223   20.2900   24.9454 H   0  0  0  0  0  0  0  0  0  0  0  0
   20.9206   18.6954   24.3364 H   0  0  0  0  0  0  0  0  0  0  0  0
   20.5759   20.1761   22.7731 C   0  0  0  0  0  0  0  0  0  0  0  0
   19.9147   21.0324   22.5854 H   0  0  0  0  0  0  0  0  0  0  0  0
   20.3669   19.4385   21.9882 H   0  0  0  0  0  0  0  0  0  0  0  0
   22.0449   20.6187   22.6293 C   0  0  0  0  0  0  0  0  0  0  0  0
   22.7062   19.7725   22.8345 H   0  0  0  0  0  0  0  0  0  0  0  0
   22.2242   20.9502   21.6029 H   0  0  0  0  0  0  0  0  0  0  0  0
   22.4347   21.7562   23.5528 N   0  3  0  0  0  0  0  0  0  0  0  0
   22.3264   21.4994   24.5388 H   0  0  0  0  0  0  0  0  0  0  0  0
   21.8611   22.5906   23.3920 H   0  0  0  0  0  0  0  0  0  0  0  0
   23.4129   22.0354   23.4211 H   0  0  0  0  0  0  0  0  0  0  0  0
  1  2  1  0  0  0  0
  1  3  1  0  0  0  0
  1  4  1  0  0  0  0
  1  5  1  0  0  0  0
  5  6  1  0  0  0  0
  5  7  1  0  0  0  0
  5  8  1  0  0  0  0
  8  9  1  0  0  0  0
  8 10  1  0  0  0  0
  8 11  1  0  0  0  0
 11 12  1  0  0  0  0
 11 13  1  0  0  0  0
 11 14  1  0  0  0  0
 14 15  1  0  0  0  0
 14 16  1  0  0  0  0
 14 17  1  0  0  0  0
 17 18  1  0  0  0  0
 17 19  1  0  0  0  0
 17 20  1  0  0  0  0
 20 21  1  0  0  0  0
 20 22  1  0  0  0  0
 20 23  1  0  0  0  0
 23 24  1  0  0  0  0
 23 25  1  0  0  0  0
 23 26  1  0  0  0  0
M  END
> <VConfSearch Rank>
872

> <Conf_Id>
144

> <Delta U+W>
1.073

> <U+W>
-4.479

> <U>
49.231

> <W>
-53.710

> <W(PB)>
-55.983

> <W(SA)>
2.273

> <Valence>
3.276

> <Coulomb>
45.175

> <VdW>
0.779

> <VdW6>
-7.944

> <VdW12>
8.723

> <Bond>
0.239

> <Angle>
1.155

> <Pdih>
1.883

> <Idih>
0.000

> <Tether>
0.000

$$$$
VeraChem MOL file


 26 25  0  0  0  0  0  0  0  0999 V2000     
   18.1026   15.7366   23.3003 C   0  0  0  0  0  0  0  0  0  0  0  0
   17.4452   16.1635   24.0674 H   0  0  0  0  0  0  0  0  0  0  0  0
   17.5348   14.9551   22.7791 H   0  0  0  0  0  0  0  0  0  0  0  0
   18.9513   15.2552   23.8032 H   0  0  0  0  0  0  0  0  0  0  0  0
   18.5859   16.8110   22.2996 C   0  0  0  0  0  0  0  0  0  0  0  0
   17.7196   17.3021   21.8347 H   0  0  0  0  0  0  0  0  0  0  0  0
   19.1296   16.3122   21.4850 H   0  0  0  0  0  0  0  0  0  0  0  0
   19.5145   17.8750   22.9340 C   0  0  0  0  0  0  0  0  0  0  0  0
   20.3678   17.3779   23.4153 H   0  0  0  0  0  0  0  0  0  0  0  0
   19.9215   18.4889   22.1208 H   0  0  0  0  0  0  0  0  0  0  0  0
   18.7952   18.7945   23.9521 C   0  0  0  0  0  0  0  0  0  0  0  0
   18.2979   18.1803   24.7133 H   0  0  0  0  0  0  0  0  0  0  0  0
   17.9979   19.3503   23.4398 H   0  0  0  0  0  0  0  0  0  0  0  0
   19.7271   19.7917   24.6887 C   0  0  0  0  0  0  0  0  0  0  0  0
   19.1107   20.3532   25.4043 H   0  0  0  0  0  0  0  0  0  0  0  0
   20.4613   19.2438   25.2956 H   0  0  0  0  0  0  0  0  0  0  0  0
   20.4506   20.8110   23.7728 C   0  0  0  0  0  0  0  0  0  0  0  0
   20.6369   21.7275   24.3483 H   0  0  0  0  0  0  0  0  0  0  0  0
   19.7988   21.0972   22.9367 H   0  0  0  0  0  0  0  0  0  0  0  0
   21.8041   20.2943   23.2467 C   0  0  0  0  0  0  0  0  0  0  0  0
   22.4605   20.0645   24.0903 H   0  0  0  0  0  0  0  0  0  0  0  0
   21.6621   19.3800   22.6675 H   0  0  0  0  0  0  0  0  0  0  0  0
   22.5165   21.2969   22.3621 N   0  3  0  0  0  0  0  0  0  0  0  0
   22.7120   22.1726   22.8583 H   0  0  0  0  0  0  0  0  0  0  0  0
   21.9626   21.5370   21.5334 H   0  0  0  0  0  0  0  0  0  0  0  0
   23.4165   20.9371   22.0262 H   0  0  0  0  0  0  0  0  0  0  0  0
  1  2  1  0  0  0  0
  1  3  1  0  0  0  0
  1  4  1  0  0  0  0
  1  5  1  0  0  0  0
  5  6  1  0  0  0  0
  5  7  1  0  0  0  0
  5  8  1  0  0  0  0
  8  9  1  0  0  0  0
  8 10  1  0  0  0  0
  8 11  1  0  0  0  0
 11 12  1  0  0  0  0
 11 13  1  0  0  0  0
 11 14  1  0  0  0  0
 14 15  1  0  0  0  0
 14 16  1  0  0  0  0
 14 17  1  0  0  0  0
 17 18  1  0  0  0  0
 17 19  1  0  0  0  0
 17 20  1  0  0  0  0
 20 21  1  0  0  0  0
 20 22  1  0  0  0  0
 20 23  1  0  0  0  0
 23 24  1  0  0  0  0
 23 25  1  0  0  0  0
 23 26  1  0  0  0  0
M  END
> <VConfSearch Rank>
873

> <Conf_Id>
93

> <Delta U+W>
3.253

> <U+W>
-2.300

> <U>
51.609

> <W>
-53.909

> <W(PB)>
-56.178

> <W(SA)>
2.270

> <Valence>
5.204

> <Coulomb>
45.645

> <VdW>
0.760

> <VdW6>
-7.997

> <VdW12>
8.758

> <Bond>
0.240

> <Angle>
1.456

> <Pdih>
3.507

> <Idih>
0.000

> <Tether>
0.000

$$$$
VeraChem MOL file


 26 25  0  0  0  0  0  0  0  0999 V2000     
   22.0969   21.5849   21.7480 C   0  0  0  0  0  0  0  0  0  0  0  0
   21.2920   21.7415   21.0197 H   0  0  0  0  0  0  0  0  0  0  0  0
   21.9033   22.2251   22.6184 H   0  0  0  0  0  0  0  0  0  0  0  0
   23.0313   21.9252   21.2831 H   0  0  0  0  0  0  0  0  0  0  0  0
   22.2104   20.1004   22.1640 C   0  0  0  0  0  0  0  0  0  0  0  0
   23.1067   19.9788   22.7882 H   0  0  0  0  0  0  0  0  0  0  0  0
   22.3696   19.4764   21.2735 H   0  0  0  0  0  0  0  0  0  0  0  0
   20.9840   19.5837   22.9548 C   0  0  0  0  0  0  0  0  0  0  0  0
   21.2291   18.5833   23.3329 H   0  0  0  0  0  0  0  0  0  0  0  0
   20.8164   20.2233   23.8322 H   0  0  0  0  0  0  0  0  0  0  0  0
   19.6911   19.5018   22.1056 C   0  0  0  0  0  0  0  0  0  0  0  0
   19.8431   18.7935   21.2796 H   0  0  0  0  0  0  0  0  0  0  0  0
   19.4960   20.4759   21.6398 H   0  0  0  0  0  0  0  0  0  0  0  0
   18.4225   19.0998   22.9022 C   0  0  0  0  0  0  0  0  0  0  0  0
   18.1962   19.8621   23.6607 H   0  0  0  0  0  0  0  0  0  0  0  0
   17.5746   19.1158   22.2035 H   0  0  0  0  0  0  0  0  0  0  0  0
   18.4785   17.6976   23.5594 C   0  0  0  0  0  0  0  0  0  0  0  0
   19.0357   17.0016   22.9183 H   0  0  0  0  0  0  0  0  0  0  0  0
   17.4559   17.3033   23.6296 H   0  0  0  0  0  0  0  0  0  0  0  0
   19.0798   17.7202   24.9783 C   0  0  0  0  0  0  0  0  0  0  0  0
   20.0998   18.1082   24.9522 H   0  0  0  0  0  0  0  0  0  0  0  0
   18.4826   18.3756   25.6180 H   0  0  0  0  0  0  0  0  0  0  0  0
   19.1217   16.3508   25.6248 N   0  3  0  0  0  0  0  0  0  0  0  0
   18.1860   15.9407   25.7115 H   0  0  0  0  0  0  0  0  0  0  0  0
   19.5200   16.3871   26.5694 H   0  0  0  0  0  0  0  0  0  0  0  0
   19.6914   15.6907   25.0855 H   0  0  0  0  0  0  0  0  0  0  0  0
  1  2  1  0  0  0  0
  1  3  1  0  0  0  0
  1  4  1  0  0  0  0
  1  5  1  0  0  0  0
  5  6  1  0  0  0  0
  5  7  1  0  0  0  0
  5  8  1  0  0  0  0
  8  9  1  0  0  0  0
  8 10  1  0  0  0  0
  8 11  1  0  0  0  0
 11 12  1  0  0  0  0
 11 13  1  0  0  0  0
 11 14  1  0  0  0  0
 14 15  1  0  0  0  0
 14 16  1  0  0  0  0
 14 17  1  0  0  0  0
 17 18  1  0  0  0  0
 17 19  1  0  0  0  0
 17 20  1  0  0  0  0
 20 21  1  0  0  0  0
 20 22  1  0  0  0  0
 20 23  1  0  0  0  0
 23 24  1  0  0  0  0
 23 25  1  0  0  0  0
 23 26  1  0  0  0  0
M  END
> <VConfSearch Rank>
874

> <Conf_Id>
94

> <Delta U+W>
3.247

> <U+W>
-2.305

> <U>
51.609

> <W>
-53.914

> <W(PB)>
-56.221

> <W(SA)>
2.307

> <Valence>
5.204

> <Coulomb>
45.645

> <VdW>
0.760

> <VdW6>
-7.997

> <VdW12>
8.757

> <Bond>
0.240

> <Angle>
1.456

> <Pdih>
3.508

> <Idih>
0.000

> <Tether>
0.000

$$$$
VeraChem MOL file


 26 25  0  0  0  0  0  0  0  0999 V2000     
   17.9939   15.4946   23.8998 C   0  0  0  0  0  0  0  0  0  0  0  0
   17.7438   15.1569   22.8856 H   0  0  0  0  0  0  0  0  0  0  0  0
   18.9001   14.9657   24.2226 H   0  0  0  0  0  0  0  0  0  0  0  0
   17.1741   15.1961   24.5661 H   0  0  0  0  0  0  0  0  0  0  0  0
   18.1998   17.0237   23.9403 C   0  0  0  0  0  0  0  0  0  0  0  0
   18.4146   17.3353   24.9722 H   0  0  0  0  0  0  0  0  0  0  0  0
   17.2673   17.5250   23.6454 H   0  0  0  0  0  0  0  0  0  0  0  0
   19.3491   17.4710   23.0102 C   0  0  0  0  0  0  0  0  0  0  0  0
   20.2785   16.9658   23.3075 H   0  0  0  0  0  0  0  0  0  0  0  0
   19.1309   17.1547   21.9807 H   0  0  0  0  0  0  0  0  0  0  0  0
   19.5580   19.0018   23.0477 C   0  0  0  0  0  0  0  0  0  0  0  0
   19.7680   19.3113   24.0802 H   0  0  0  0  0  0  0  0  0  0  0  0
   18.6290   19.5055   22.7468 H   0  0  0  0  0  0  0  0  0  0  0  0
   20.7113   19.4468   22.1167 C   0  0  0  0  0  0  0  0  0  0  0  0
   21.6476   18.9649   22.4285 H   0  0  0  0  0  0  0  0  0  0  0  0
   20.5093   19.0893   21.0975 H   0  0  0  0  0  0  0  0  0  0  0  0
   20.8992   20.9840   22.0707 C   0  0  0  0  0  0  0  0  0  0  0  0
   19.9864   21.4484   21.6744 H   0  0  0  0  0  0  0  0  0  0  0  0
   21.7005   21.2306   21.3616 H   0  0  0  0  0  0  0  0  0  0  0  0
   21.2230   21.6187   23.4385 C   0  0  0  0  0  0  0  0  0  0  0  0
   21.3133   22.7023   23.3233 H   0  0  0  0  0  0  0  0  0  0  0  0
   20.4097   21.4192   24.1410 H   0  0  0  0  0  0  0  0  0  0  0  0
   22.5117   21.1113   24.0546 N   0  3  0  0  0  0  0  0  0  0  0  0
   23.3200   21.2961   23.4518 H   0  0  0  0  0  0  0  0  0  0  0  0
   22.4794   20.1001   24.2176 H   0  0  0  0  0  0  0  0  0  0  0  0
   22.7034   21.5568   24.9585 H   0  0  0  0  0  0  0  0  0  0  0  0
  1  2  1  0  0  0  0
  1  3  1  0  0  0  0
  1  4  1  0  0  0  0
  1  5  1  0  0  0  0
  5  6  1  0  0  0  0
  5  7  1  0  0  0  0
  5  8  1  0  0  0  0
  8  9  1  0  0  0  0
  8 10  1  0  0  0  0
  8 11  1  0  0  0  0
 11 12  1  0  0  0  0
 11 13  1  0  0  0  0
 11 14  1  0  0  0  0
 14 15  1  0  0  0  0
 14 16  1  0  0  0  0
 14 17  1  0  0  0  0
 17 18  1  0  0  0  0
 17 19  1  0  0  0  0
 17 20  1  0  0  0  0
 20 21  1  0  0  0  0
 20 22  1  0  0  0  0
 20 23  1  0  0  0  0
 23 24  1  0  0  0  0
 23 25  1  0  0  0  0
 23 26  1  0  0  0  0
M  END
> <VConfSearch Rank>
875

> <Conf_Id>
83

> <Delta U+W>
0.559

> <U+W>
-4.994

> <U>
48.668

> <W>
-53.661

> <W(PB)>
-55.972

> <W(SA)>
2.311

> <Valence>
2.543

> <Coulomb>
45.478

> <VdW>
0.646

> <VdW6>
-7.096

> <VdW12>
7.742

> <Bond>
0.176

> <Angle>
0.630

> <Pdih>
1.738

> <Idih>
0.000

> <Tether>
0.000

$$$$
VeraChem MOL file


 26 25  0  0  0  0  0  0  0  0999 V2000     
   20.3399   18.0497   27.0869 C   0  0  0  0  0  0  0  0  0  0  0  0
   19.6059   17.3425   27.4948 H   0  0  0  0  0  0  0  0  0  0  0  0
   21.3101   17.5394   27.0275 H   0  0  0  0  0  0  0  0  0  0  0  0
   20.4386   18.8800   27.7981 H   0  0  0  0  0  0  0  0  0  0  0  0
   19.9006   18.5684   25.7012 C   0  0  0  0  0  0  0  0  0  0  0  0
   20.6369   19.3016   25.3463 H   0  0  0  0  0  0  0  0  0  0  0  0
   18.9429   19.0987   25.7977 H   0  0  0  0  0  0  0  0  0  0  0  0
   19.7588   17.4153   24.6797 C   0  0  0  0  0  0  0  0  0  0  0  0
   20.7300   16.9199   24.5429 H   0  0  0  0  0  0  0  0  0  0  0  0
   19.0810   16.6552   25.0921 H   0  0  0  0  0  0  0  0  0  0  0  0
   19.2086   17.8679   23.3047 C   0  0  0  0  0  0  0  0  0  0  0  0
   18.2308   18.3502   23.4407 H   0  0  0  0  0  0  0  0  0  0  0  0
   19.0286   16.9737   22.6920 H   0  0  0  0  0  0  0  0  0  0  0  0
   20.1594   18.8202   22.5400 C   0  0  0  0  0  0  0  0  0  0  0  0
   20.2896   19.7484   23.1100 H   0  0  0  0  0  0  0  0  0  0  0  0
   21.1512   18.3554   22.4519 H   0  0  0  0  0  0  0  0  0  0  0  0
   19.6205   19.1541   21.1287 C   0  0  0  0  0  0  0  0  0  0  0  0
   18.6408   19.6442   21.2062 H   0  0  0  0  0  0  0  0  0  0  0  0
   19.4613   18.2222   20.5699 H   0  0  0  0  0  0  0  0  0  0  0  0
   20.5806   20.0480   20.3203 C   0  0  0  0  0  0  0  0  0  0  0  0
   21.5594   19.5662   20.2483 H   0  0  0  0  0  0  0  0  0  0  0  0
   20.1891   20.1773   19.3076 H   0  0  0  0  0  0  0  0  0  0  0  0
   20.7779   21.4282   20.9160 N   0  3  0  0  0  0  0  0  0  0  0  0
   21.1806   21.3817   21.8570 H   0  0  0  0  0  0  0  0  0  0  0  0
   19.8933   21.9412   20.9892 H   0  0  0  0  0  0  0  0  0  0  0  0
   21.4102   22.0014   20.3469 H   0  0  0  0  0  0  0  0  0  0  0  0
  1  2  1  0  0  0  0
  1  3  1  0  0  0  0
  1  4  1  0  0  0  0
  1  5  1  0  0  0  0
  5  6  1  0  0  0  0
  5  7  1  0  0  0  0
  5  8  1  0  0  0  0
  8  9  1  0  0  0  0
  8 10  1  0  0  0  0
  8 11  1  0  0  0  0
 11 12  1  0  0  0  0
 11 13  1  0  0  0  0
 11 14  1  0  0  0  0
 14 15  1  0  0  0  0
 14 16  1  0  0  0  0
 14 17  1  0  0  0  0
 17 18  1  0  0  0  0
 17 19  1  0  0  0  0
 17 20  1  0  0  0  0
 20 21  1  0  0  0  0
 20 22  1  0  0  0  0
 20 23  1  0  0  0  0
 23 24  1  0  0  0  0
 23 25  1  0  0  0  0
 23 26  1  0  0  0  0
M  END
> <VConfSearch Rank>
876

> <Conf_Id>
18

> <Delta U+W>
0.759

> <U+W>
-4.793

> <U>
48.945

> <W>
-53.738

> <W(PB)>
-56.051

> <W(SA)>
2.313

> <Valence>
2.802

> <Coulomb>
45.335

> <VdW>
0.807

> <VdW6>
-6.962

> <VdW12>
7.769

> <Bond>
0.189

> <Angle>
0.696

> <Pdih>
1.917

> <Idih>
0.000

> <Tether>
0.000

$$$$
VeraChem MOL file


 26 25  0  0  0  0  0  0  0  0999 V2000     
   22.1342   21.6726   21.5702 C   0  0  0  0  0  0  0  0  0  0  0  0
   23.0787   21.1132   21.5815 H   0  0  0  0  0  0  0  0  0  0  0  0
   21.9099   21.9439   20.5303 H   0  0  0  0  0  0  0  0  0  0  0  0
   22.2857   22.6015   22.1353 H   0  0  0  0  0  0  0  0  0  0  0  0
   20.9896   20.8404   22.1864 C   0  0  0  0  0  0  0  0  0  0  0  0
   20.0662   21.4362   22.1878 H   0  0  0  0  0  0  0  0  0  0  0  0
   21.2317   20.6248   23.2354 H   0  0  0  0  0  0  0  0  0  0  0  0
   20.7603   19.5229   21.4085 C   0  0  0  0  0  0  0  0  0  0  0  0
   20.6011   19.7587   20.3472 H   0  0  0  0  0  0  0  0  0  0  0  0
   21.6667   18.9035   21.4536 H   0  0  0  0  0  0  0  0  0  0  0  0
   19.5469   18.7055   21.9159 C   0  0  0  0  0  0  0  0  0  0  0  0
   19.3901   17.8583   21.2340 H   0  0  0  0  0  0  0  0  0  0  0  0
   18.6385   19.3208   21.8568 H   0  0  0  0  0  0  0  0  0  0  0  0
   19.7210   18.1676   23.3567 C   0  0  0  0  0  0  0  0  0  0  0  0
   20.6573   17.5964   23.4244 H   0  0  0  0  0  0  0  0  0  0  0  0
   19.8065   19.0077   24.0569 H   0  0  0  0  0  0  0  0  0  0  0  0
   18.5366   17.2654   23.7772 C   0  0  0  0  0  0  0  0  0  0  0  0
   18.4328   16.4420   23.0580 H   0  0  0  0  0  0  0  0  0  0  0  0
   17.5981   17.8345   23.7395 H   0  0  0  0  0  0  0  0  0  0  0  0
   18.7167   16.6627   25.1839 C   0  0  0  0  0  0  0  0  0  0  0  0
   17.8959   15.9701   25.3892 H   0  0  0  0  0  0  0  0  0  0  0  0
   19.6544   16.1021   25.2269 H   0  0  0  0  0  0  0  0  0  0  0  0
   18.7345   17.6956   26.2936 N   0  3  0  0  0  0  0  0  0  0  0  0
   17.8675   18.2421   26.3190 H   0  0  0  0  0  0  0  0  0  0  0  0
   19.5080   18.3585   26.1832 H   0  0  0  0  0  0  0  0  0  0  0  0
   18.8414   17.2607   27.2165 H   0  0  0  0  0  0  0  0  0  0  0  0
  1  2  1  0  0  0  0
  1  3  1  0  0  0  0
  1  4  1  0  0  0  0
  1  5  1  0  0  0  0
  5  6  1  0  0  0  0
  5  7  1  0  0  0  0
  5  8  1  0  0  0  0
  8  9  1  0  0  0  0
  8 10  1  0  0  0  0
  8 11  1  0  0  0  0
 11 12  1  0  0  0  0
 11 13  1  0  0  0  0
 11 14  1  0  0  0  0
 14 15  1  0  0  0  0
 14 16  1  0  0  0  0
 14 17  1  0  0  0  0
 17 18  1  0  0  0  0
 17 19  1  0  0  0  0
 17 20  1  0  0  0  0
 20 21  1  0  0  0  0
 20 22  1  0  0  0  0
 20 23  1  0  0  0  0
 23 24  1  0  0  0  0
 23 25  1  0  0  0  0
 23 26  1  0  0  0  0
M  END
> <VConfSearch Rank>
877

> <Conf_Id>
17

> <Delta U+W>
0.843

> <U+W>
-4.709

> <U>
48.945

> <W>
-53.653

> <W(PB)>
-55.991

> <W(SA)>
2.338

> <Valence>
2.802

> <Coulomb>
45.335

> <VdW>
0.807

> <VdW6>
-6.962

> <VdW12>
7.769

> <Bond>
0.189

> <Angle>
0.696

> <Pdih>
1.917

> <Idih>
0.000

> <Tether>
0.000

$$$$
VeraChem MOL file


 26 25  0  0  0  0  0  0  0  0999 V2000     
   18.4078   16.6740   25.4998 C   0  0  0  0  0  0  0  0  0  0  0  0
   19.4507   16.5540   25.1816 H   0  0  0  0  0  0  0  0  0  0  0  0
   18.3795   17.4017   26.3211 H   0  0  0  0  0  0  0  0  0  0  0  0
   18.0709   15.7074   25.8961 H   0  0  0  0  0  0  0  0  0  0  0  0
   17.5044   17.1224   24.3285 C   0  0  0  0  0  0  0  0  0  0  0  0
   16.4578   17.1079   24.6634 H   0  0  0  0  0  0  0  0  0  0  0  0
   17.5746   16.3946   23.5080 H   0  0  0  0  0  0  0  0  0  0  0  0
   17.8372   18.5392   23.8015 C   0  0  0  0  0  0  0  0  0  0  0  0
   17.0817   18.8189   23.0543 H   0  0  0  0  0  0  0  0  0  0  0  0
   17.7458   19.2660   24.6205 H   0  0  0  0  0  0  0  0  0  0  0  0
   19.2432   18.6458   23.1637 C   0  0  0  0  0  0  0  0  0  0  0  0
   19.3474   17.8845   22.3784 H   0  0  0  0  0  0  0  0  0  0  0  0
   20.0072   18.4309   23.9213 H   0  0  0  0  0  0  0  0  0  0  0  0
   19.4924   20.0487   22.5595 C   0  0  0  0  0  0  0  0  0  0  0  0
   18.7001   20.2755   21.8328 H   0  0  0  0  0  0  0  0  0  0  0  0
   19.4180   20.8104   23.3481 H   0  0  0  0  0  0  0  0  0  0  0  0
   20.8626   20.1708   21.8521 C   0  0  0  0  0  0  0  0  0  0  0  0
   20.9298   21.1570   21.3738 H   0  0  0  0  0  0  0  0  0  0  0  0
   20.9305   19.4260   21.0479 H   0  0  0  0  0  0  0  0  0  0  0  0
   22.0494   19.9988   22.8188 C   0  0  0  0  0  0  0  0  0  0  0  0
   21.9823   20.7407   23.6192 H   0  0  0  0  0  0  0  0  0  0  0  0
   22.0197   19.0031   23.2684 H   0  0  0  0  0  0  0  0  0  0  0  0
   23.3944   20.1624   22.1410 N   0  3  0  0  0  0  0  0  0  0  0  0
   24.1708   20.0444   22.8011 H   0  0  0  0  0  0  0  0  0  0  0  0
   23.4996   21.0912   21.7198 H   0  0  0  0  0  0  0  0  0  0  0  0
   23.5316   19.4746   21.3930 H   0  0  0  0  0  0  0  0  0  0  0  0
  1  2  1  0  0  0  0
  1  3  1  0  0  0  0
  1  4  1  0  0  0  0
  1  5  1  0  0  0  0
  5  6  1  0  0  0  0
  5  7  1  0  0  0  0
  5  8  1  0  0  0  0
  8  9  1  0  0  0  0
  8 10  1  0  0  0  0
  8 11  1  0  0  0  0
 11 12  1  0  0  0  0
 11 13  1  0  0  0  0
 11 14  1  0  0  0  0
 14 15  1  0  0  0  0
 14 16  1  0  0  0  0
 14 17  1  0  0  0  0
 17 18  1  0  0  0  0
 17 19  1  0  0  0  0
 17 20  1  0  0  0  0
 20 21  1  0  0  0  0
 20 22  1  0  0  0  0
 20 23  1  0  0  0  0
 23 24  1  0  0  0  0
 23 25  1  0  0  0  0
 23 26  1  0  0  0  0
M  END
> <VConfSearch Rank>
878

> <Conf_Id>
96

> <Delta U+W>
0.912

> <U+W>
-4.640

> <U>
48.723

> <W>
-53.364

> <W(PB)>
-55.683

> <W(SA)>
2.320

> <Valence>
2.962

> <Coulomb>
44.993

> <VdW>
0.768

> <VdW6>
-7.008

> <VdW12>
7.776

> <Bond>
0.188

> <Angle>
0.757

> <Pdih>
2.018

> <Idih>
0.000

> <Tether>
0.000

$$$$
VeraChem MOL file


 26 25  0  0  0  0  0  0  0  0999 V2000     
   18.3632   21.6802   21.9927 C   0  0  0  0  0  0  0  0  0  0  0  0
   17.7802   22.6103   21.9889 H   0  0  0  0  0  0  0  0  0  0  0  0
   18.2571   21.2135   21.0048 H   0  0  0  0  0  0  0  0  0  0  0  0
   17.9140   21.0131   22.7388 H   0  0  0  0  0  0  0  0  0  0  0  0
   19.8467   21.9734   22.3125 C   0  0  0  0  0  0  0  0  0  0  0  0
   19.9288   22.4103   23.3175 H   0  0  0  0  0  0  0  0  0  0  0  0
   20.2146   22.7380   21.6140 H   0  0  0  0  0  0  0  0  0  0  0  0
   20.7574   20.7263   22.2077 C   0  0  0  0  0  0  0  0  0  0  0  0
   20.6875   20.3050   21.1953 H   0  0  0  0  0  0  0  0  0  0  0  0
   21.8007   21.0453   22.3383 H   0  0  0  0  0  0  0  0  0  0  0  0
   20.4283   19.6326   23.2520 C   0  0  0  0  0  0  0  0  0  0  0  0
   19.4088   19.2623   23.0869 H   0  0  0  0  0  0  0  0  0  0  0  0
   20.4514   20.0699   24.2596 H   0  0  0  0  0  0  0  0  0  0  0  0
   21.4267   18.4523   23.1782 C   0  0  0  0  0  0  0  0  0  0  0  0
   21.3851   17.9936   22.1805 H   0  0  0  0  0  0  0  0  0  0  0  0
   22.4492   18.8352   23.3016 H   0  0  0  0  0  0  0  0  0  0  0  0
   21.1698   17.3711   24.2542 C   0  0  0  0  0  0  0  0  0  0  0  0
   21.2340   17.8222   25.2534 H   0  0  0  0  0  0  0  0  0  0  0  0
   21.9658   16.6166   24.1981 H   0  0  0  0  0  0  0  0  0  0  0  0
   19.8055   16.6761   24.0863 C   0  0  0  0  0  0  0  0  0  0  0  0
   19.0014   17.4099   24.1851 H   0  0  0  0  0  0  0  0  0  0  0  0
   19.7416   16.2265   23.0918 H   0  0  0  0  0  0  0  0  0  0  0  0
   19.5665   15.5846   25.1094 N   0  3  0  0  0  0  0  0  0  0  0  0
   19.5874   15.9480   26.0679 H   0  0  0  0  0  0  0  0  0  0  0  0
   20.2743   14.8451   25.0516 H   0  0  0  0  0  0  0  0  0  0  0  0
   18.6536   15.1347   24.9805 H   0  0  0  0  0  0  0  0  0  0  0  0
  1  2  1  0  0  0  0
  1  3  1  0  0  0  0
  1  4  1  0  0  0  0
  1  5  1  0  0  0  0
  5  6  1  0  0  0  0
  5  7  1  0  0  0  0
  5  8  1  0  0  0  0
  8  9  1  0  0  0  0
  8 10  1  0  0  0  0
  8 11  1  0  0  0  0
 11 12  1  0  0  0  0
 11 13  1  0  0  0  0
 11 14  1  0  0  0  0
 14 15  1  0  0  0  0
 14 16  1  0  0  0  0
 14 17  1  0  0  0  0
 17 18  1  0  0  0  0
 17 19  1  0  0  0  0
 17 20  1  0  0  0  0
 20 21  1  0  0  0  0
 20 22  1  0  0  0  0
 20 23  1  0  0  0  0
 23 24  1  0  0  0  0
 23 25  1  0  0  0  0
 23 26  1  0  0  0  0
M  END
> <VConfSearch Rank>
879

> <Conf_Id>
133

> <Delta U+W>
0.844

> <U+W>
-4.708

> <U>
48.723

> <W>
-53.431

> <W(PB)>
-55.776

> <W(SA)>
2.344

> <Valence>
2.962

> <Coulomb>
44.993

> <VdW>
0.768

> <VdW6>
-7.008

> <VdW12>
7.776

> <Bond>
0.188

> <Angle>
0.756

> <Pdih>
2.018

> <Idih>
0.000

> <Tether>
0.000

$$$$
VeraChem MOL file


 26 25  0  0  0  0  0  0  0  0999 V2000     
   16.6378   19.4758   23.0728 C   0  0  0  0  0  0  0  0  0  0  0  0
   15.9801   18.6074   22.9372 H   0  0  0  0  0  0  0  0  0  0  0  0
   17.2285   19.3214   23.9843 H   0  0  0  0  0  0  0  0  0  0  0  0
   16.0028   20.3562   23.2356 H   0  0  0  0  0  0  0  0  0  0  0  0
   17.5449   19.6832   21.8389 C   0  0  0  0  0  0  0  0  0  0  0  0
   18.2066   20.5437   22.0057 H   0  0  0  0  0  0  0  0  0  0  0  0
   16.9158   19.9510   20.9786 H   0  0  0  0  0  0  0  0  0  0  0  0
   18.3783   18.4298   21.4686 C   0  0  0  0  0  0  0  0  0  0  0  0
   17.6928   17.6188   21.1867 H   0  0  0  0  0  0  0  0  0  0  0  0
   18.9684   18.6507   20.5685 H   0  0  0  0  0  0  0  0  0  0  0  0
   19.3285   17.9132   22.5798 C   0  0  0  0  0  0  0  0  0  0  0  0
   19.8436   17.0183   22.2044 H   0  0  0  0  0  0  0  0  0  0  0  0
   18.7438   17.5823   23.4484 H   0  0  0  0  0  0  0  0  0  0  0  0
   20.3846   18.9534   23.0242 C   0  0  0  0  0  0  0  0  0  0  0  0
   20.9368   19.3149   22.1456 H   0  0  0  0  0  0  0  0  0  0  0  0
   19.8868   19.8248   23.4699 H   0  0  0  0  0  0  0  0  0  0  0  0
   21.3770   18.3616   24.0490 C   0  0  0  0  0  0  0  0  0  0  0  0
   21.8898   17.4951   23.6104 H   0  0  0  0  0  0  0  0  0  0  0  0
   20.8280   18.0002   24.9288 H   0  0  0  0  0  0  0  0  0  0  0  0
   22.4201   19.4039   24.4891 C   0  0  0  0  0  0  0  0  0  0  0  0
   22.9801   19.7547   23.6181 H   0  0  0  0  0  0  0  0  0  0  0  0
   21.9151   20.2615   24.9419 H   0  0  0  0  0  0  0  0  0  0  0  0
   23.4134   18.8609   25.4961 N   0  3  0  0  0  0  0  0  0  0  0  0
   24.0990   19.5709   25.7758 H   0  0  0  0  0  0  0  0  0  0  0  0
   23.9424   18.0668   25.1210 H   0  0  0  0  0  0  0  0  0  0  0  0
   22.9516   18.5383   26.3528 H   0  0  0  0  0  0  0  0  0  0  0  0
  1  2  1  0  0  0  0
  1  3  1  0  0  0  0
  1  4  1  0  0  0  0
  1  5  1  0  0  0  0
  5  6  1  0  0  0  0
  5  7  1  0  0  0  0
  5  8  1  0  0  0  0
  8  9  1  0  0  0  0
  8 10  1  0  0  0  0
  8 11  1  0  0  0  0
 11 12  1  0  0  0  0
 11 13  1  0  0  0  0
 11 14  1  0  0  0  0
 14 15  1  0  0  0  0
 14 16  1  0  0  0  0
 14 17  1  0  0  0  0
 17 18  1  0  0  0  0
 17 19  1  0  0  0  0
 17 20  1  0  0  0  0
 20 21  1  0  0  0  0
 20 22  1  0  0  0  0
 20 23  1  0  0  0  0
 23 24  1  0  0  0  0
 23 25  1  0  0  0  0
 23 26  1  0  0  0  0
M  END
> <VConfSearch Rank>
880

> <Conf_Id>
106

> <Delta U+W>
0.767

> <U+W>
-4.785

> <U>
48.494

> <W>
-53.279

> <W(PB)>
-55.569

> <W(SA)>
2.290

> <Valence>
3.117

> <Coulomb>
44.693

> <VdW>
0.684

> <VdW6>
-7.347

> <VdW12>
8.030

> <Bond>
0.208

> <Angle>
1.039

> <Pdih>
1.870

> <Idih>
0.000

> <Tether>
0.000

$$$$
VeraChem MOL file


 26 25  0  0  0  0  0  0  0  0999 V2000     
   19.4095   19.5111   27.7081 C   0  0  0  0  0  0  0  0  0  0  0  0
   20.3498   20.0552   27.8660 H   0  0  0  0  0  0  0  0  0  0  0  0
   18.6018   20.2473   27.6034 H   0  0  0  0  0  0  0  0  0  0  0  0
   19.2089   18.9165   28.6088 H   0  0  0  0  0  0  0  0  0  0  0  0
   19.4966   18.6024   26.4635 C   0  0  0  0  0  0  0  0  0  0  0  0
   18.5551   18.0467   26.3513 H   0  0  0  0  0  0  0  0  0  0  0  0
   20.2896   17.8560   26.6119 H   0  0  0  0  0  0  0  0  0  0  0  0
   19.7788   19.4151   25.1804 C   0  0  0  0  0  0  0  0  0  0  0  0
   18.9849   20.1614   25.0377 H   0  0  0  0  0  0  0  0  0  0  0  0
   20.7195   19.9705   25.2983 H   0  0  0  0  0  0  0  0  0  0  0  0
   19.8666   18.5086   23.9319 C   0  0  0  0  0  0  0  0  0  0  0  0
   18.9256   17.9534   23.8150 H   0  0  0  0  0  0  0  0  0  0  0  0
   20.6603   17.7624   24.0757 H   0  0  0  0  0  0  0  0  0  0  0  0
   20.1490   19.3221   22.6485 C   0  0  0  0  0  0  0  0  0  0  0  0
   19.3554   20.0686   22.5043 H   0  0  0  0  0  0  0  0  0  0  0  0
   21.0902   19.8775   22.7650 H   0  0  0  0  0  0  0  0  0  0  0  0
   20.2369   18.4168   21.4002 C   0  0  0  0  0  0  0  0  0  0  0  0
   19.2959   17.8640   21.2772 H   0  0  0  0  0  0  0  0  0  0  0  0
   21.0325   17.6725   21.5382 H   0  0  0  0  0  0  0  0  0  0  0  0
   20.5184   19.2367   20.1288 C   0  0  0  0  0  0  0  0  0  0  0  0
   19.7200   19.9683   19.9781 H   0  0  0  0  0  0  0  0  0  0  0  0
   21.4629   19.7762   20.2402 H   0  0  0  0  0  0  0  0  0  0  0  0
   20.6121   18.3830   18.8806 N   0  3  0  0  0  0  0  0  0  0  0  0
   20.8000   18.9485   18.0455 H   0  0  0  0  0  0  0  0  0  0  0  0
   19.7431   17.8687   18.7032 H   0  0  0  0  0  0  0  0  0  0  0  0
   21.3648   17.6900   18.9471 H   0  0  0  0  0  0  0  0  0  0  0  0
  1  2  1  0  0  0  0
  1  3  1  0  0  0  0
  1  4  1  0  0  0  0
  1  5  1  0  0  0  0
  5  6  1  0  0  0  0
  5  7  1  0  0  0  0
  5  8  1  0  0  0  0
  8  9  1  0  0  0  0
  8 10  1  0  0  0  0
  8 11  1  0  0  0  0
 11 12  1  0  0  0  0
 11 13  1  0  0  0  0
 11 14  1  0  0  0  0
 14 15  1  0  0  0  0
 14 16  1  0  0  0  0
 14 17  1  0  0  0  0
 17 18  1  0  0  0  0
 17 19  1  0  0  0  0
 17 20  1  0  0  0  0
 20 21  1  0  0  0  0
 20 22  1  0  0  0  0
 20 23  1  0  0  0  0
 23 24  1  0  0  0  0
 23 25  1  0  0  0  0
 23 26  1  0  0  0  0
M  END
> <VConfSearch Rank>
881

> <Conf_Id>
25

> <Delta U+W>
0.000

> <U+W>
-5.552

> <U>
47.192

> <W>
-52.745

> <W(PB)>
-55.134

> <W(SA)>
2.389

> <Valence>
2.156

> <Coulomb>
44.449

> <VdW>
0.587

> <VdW6>
-5.761

> <VdW12>
6.348

> <Bond>
0.129

> <Angle>
0.393

> <Pdih>
1.634

> <Idih>
0.000

> <Tether>
0.000

$$$$
VeraChem MOL file


 26 25  0  0  0  0  0  0  0  0999 V2000     
   22.6214   15.5237   23.1208 C   0  0  0  0  0  0  0  0  0  0  0  0
   21.8195   14.7916   23.2831 H   0  0  0  0  0  0  0  0  0  0  0  0
   22.7653   15.6388   22.0385 H   0  0  0  0  0  0  0  0  0  0  0  0
   23.5466   15.1089   23.5415 H   0  0  0  0  0  0  0  0  0  0  0  0
   22.2802   16.8759   23.7820 C   0  0  0  0  0  0  0  0  0  0  0  0
   23.1143   17.5758   23.6320 H   0  0  0  0  0  0  0  0  0  0  0  0
   22.1758   16.7351   24.8670 H   0  0  0  0  0  0  0  0  0  0  0  0
   20.9808   17.4822   23.2073 C   0  0  0  0  0  0  0  0  0  0  0  0
   21.0892   17.6188   22.1224 H   0  0  0  0  0  0  0  0  0  0  0  0
   20.1506   16.7782   23.3576 H   0  0  0  0  0  0  0  0  0  0  0  0
   20.6360   18.8365   23.8671 C   0  0  0  0  0  0  0  0  0  0  0  0
   21.4665   19.5400   23.7163 H   0  0  0  0  0  0  0  0  0  0  0  0
   20.5290   18.6988   24.9521 H   0  0  0  0  0  0  0  0  0  0  0  0
   19.3356   19.4425   23.2924 C   0  0  0  0  0  0  0  0  0  0  0  0
   19.4463   19.5732   22.2076 H   0  0  0  0  0  0  0  0  0  0  0  0
   18.5045   18.7401   23.4460 H   0  0  0  0  0  0  0  0  0  0  0  0
   18.9927   20.7984   23.9535 C   0  0  0  0  0  0  0  0  0  0  0  0
   19.8037   21.5181   23.7793 H   0  0  0  0  0  0  0  0  0  0  0  0
   18.9207   20.6649   25.0411 H   0  0  0  0  0  0  0  0  0  0  0  0
   17.6631   21.3890   23.4459 C   0  0  0  0  0  0  0  0  0  0  0  0
   16.8545   20.6722   23.6125 H   0  0  0  0  0  0  0  0  0  0  0  0
   17.4329   22.2990   24.0068 H   0  0  0  0  0  0  0  0  0  0  0  0
   17.6775   21.7484   21.9730 N   0  3  0  0  0  0  0  0  0  0  0  0
   17.8525   20.9285   21.3838 H   0  0  0  0  0  0  0  0  0  0  0  0
   18.4042   22.4383   21.7565 H   0  0  0  0  0  0  0  0  0  0  0  0
   16.7834   22.1502   21.6705 H   0  0  0  0  0  0  0  0  0  0  0  0
  1  2  1  0  0  0  0
  1  3  1  0  0  0  0
  1  4  1  0  0  0  0
  1  5  1  0  0  0  0
  5  6  1  0  0  0  0
  5  7  1  0  0  0  0
  5  8  1  0  0  0  0
  8  9  1  0  0  0  0
  8 10  1  0  0  0  0
  8 11  1  0  0  0  0
 11 12  1  0  0  0  0
 11 13  1  0  0  0  0
 11 14  1  0  0  0  0
 14 15  1  0  0  0  0
 14 16  1  0  0  0  0
 14 17  1  0  0  0  0
 17 18  1  0  0  0  0
 17 19  1  0  0  0  0
 17 20  1  0  0  0  0
 20 21  1  0  0  0  0
 20 22  1  0  0  0  0
 20 23  1  0  0  0  0
 23 24  1  0  0  0  0
 23 25  1  0  0  0  0
 23 26  1  0  0  0  0
M  END
> <VConfSearch Rank>
882

> <Conf_Id>
20

> <Delta U+W>
0.150

> <U+W>
-5.403

> <U>
47.845

> <W>
-53.248

> <W(PB)>
-55.599

> <W(SA)>
2.351

> <Valence>
2.258

> <Coulomb>
44.893

> <VdW>
0.694

> <VdW6>
-6.285

> <VdW12>
6.979

> <Bond>
0.149

> <Angle>
0.434

> <Pdih>
1.675

> <Idih>
0.000

> <Tether>
0.000

$$$$
VeraChem MOL file


 26 25  0  0  0  0  0  0  0  0999 V2000     
   17.2614   15.5450   23.4360 C   0  0  0  0  0  0  0  0  0  0  0  0
   16.3984   16.1988   23.6176 H   0  0  0  0  0  0  0  0  0  0  0  0
   17.3061   15.3285   22.3607 H   0  0  0  0  0  0  0  0  0  0  0  0
   17.0840   14.5985   23.9632 H   0  0  0  0  0  0  0  0  0  0  0  0
   18.5690   16.2038   23.9241 C   0  0  0  0  0  0  0  0  0  0  0  0
   19.4083   15.5133   23.7605 H   0  0  0  0  0  0  0  0  0  0  0  0
   18.5076   16.3769   25.0077 H   0  0  0  0  0  0  0  0  0  0  0  0
   18.8429   17.5391   23.1973 C   0  0  0  0  0  0  0  0  0  0  0  0
   18.9013   17.3613   22.1145 H   0  0  0  0  0  0  0  0  0  0  0  0
   18.0003   18.2249   23.3617 H   0  0  0  0  0  0  0  0  0  0  0  0
   20.1516   18.2019   23.6835 C   0  0  0  0  0  0  0  0  0  0  0  0
   20.9932   17.5146   23.5196 H   0  0  0  0  0  0  0  0  0  0  0  0
   20.0924   18.3796   24.7663 H   0  0  0  0  0  0  0  0  0  0  0  0
   20.4257   19.5373   22.9556 C   0  0  0  0  0  0  0  0  0  0  0  0
   20.4878   19.3590   21.8730 H   0  0  0  0  0  0  0  0  0  0  0  0
   19.5795   20.2182   23.1185 H   0  0  0  0  0  0  0  0  0  0  0  0
   21.7356   20.1996   23.4444 C   0  0  0  0  0  0  0  0  0  0  0  0
   22.5695   19.4975   23.3118 H   0  0  0  0  0  0  0  0  0  0  0  0
   21.6720   20.4110   24.5201 H   0  0  0  0  0  0  0  0  0  0  0  0
   22.0662   21.4981   22.6836 C   0  0  0  0  0  0  0  0  0  0  0  0
   23.0395   21.8730   23.0120 H   0  0  0  0  0  0  0  0  0  0  0  0
   22.1243   21.2920   21.6114 H   0  0  0  0  0  0  0  0  0  0  0  0
   21.0520   22.6050   22.8957 N   0  3  0  0  0  0  0  0  0  0  0  0
   20.9684   22.8603   23.8851 H   0  0  0  0  0  0  0  0  0  0  0  0
   20.1187   22.3319   22.5730 H   0  0  0  0  0  0  0  0  0  0  0  0
   21.3078   23.4583   22.3869 H   0  0  0  0  0  0  0  0  0  0  0  0
  1  2  1  0  0  0  0
  1  3  1  0  0  0  0
  1  4  1  0  0  0  0
  1  5  1  0  0  0  0
  5  6  1  0  0  0  0
  5  7  1  0  0  0  0
  5  8  1  0  0  0  0
  8  9  1  0  0  0  0
  8 10  1  0  0  0  0
  8 11  1  0  0  0  0
 11 12  1  0  0  0  0
 11 13  1  0  0  0  0
 11 14  1  0  0  0  0
 14 15  1  0  0  0  0
 14 16  1  0  0  0  0
 14 17  1  0  0  0  0
 17 18  1  0  0  0  0
 17 19  1  0  0  0  0
 17 20  1  0  0  0  0
 20 21  1  0  0  0  0
 20 22  1  0  0  0  0
 20 23  1  0  0  0  0
 23 24  1  0  0  0  0
 23 25  1  0  0  0  0
 23 26  1  0  0  0  0
M  END
> <VConfSearch Rank>
883

> <Conf_Id>
19

> <Delta U+W>
0.162

> <U+W>
-5.391

> <U>
47.845

> <W>
-53.235

> <W(PB)>
-55.585

> <W(SA)>
2.349

> <Valence>
2.258

> <Coulomb>
44.893

> <VdW>
0.694

> <VdW6>
-6.285

> <VdW12>
6.979

> <Bond>
0.149

> <Angle>
0.434

> <Pdih>
1.675

> <Idih>
0.000

> <Tether>
0.000

$$$$
VeraChem MOL file


 26 25  0  0  0  0  0  0  0  0999 V2000     
   22.5317   20.5888   26.2428 C   0  0  0  0  0  0  0  0  0  0  0  0
   23.4136   19.9851   26.4940 H   0  0  0  0  0  0  0  0  0  0  0  0
   22.8654   21.4528   25.6533 H   0  0  0  0  0  0  0  0  0  0  0  0
   22.1035   20.9657   27.1806 H   0  0  0  0  0  0  0  0  0  0  0  0
   21.4913   19.7554   25.4648 C   0  0  0  0  0  0  0  0  0  0  0  0
   20.6099   20.3800   25.2687 H   0  0  0  0  0  0  0  0  0  0  0  0
   21.1553   18.9166   26.0903 H   0  0  0  0  0  0  0  0  0  0  0  0
   22.0713   19.2165   24.1357 C   0  0  0  0  0  0  0  0  0  0  0  0
   22.3584   20.0570   23.4889 H   0  0  0  0  0  0  0  0  0  0  0  0
   22.9959   18.6624   24.3489 H   0  0  0  0  0  0  0  0  0  0  0  0
   21.1038   18.2798   23.3712 C   0  0  0  0  0  0  0  0  0  0  0  0
   20.8295   17.4315   24.0133 H   0  0  0  0  0  0  0  0  0  0  0  0
   21.6395   17.8547   22.5111 H   0  0  0  0  0  0  0  0  0  0  0  0
   19.8241   18.9895   22.8671 C   0  0  0  0  0  0  0  0  0  0  0  0
   19.2363   19.3546   23.7196 H   0  0  0  0  0  0  0  0  0  0  0  0
   20.1023   19.8693   22.2703 H   0  0  0  0  0  0  0  0  0  0  0  0
   18.9440   18.0480   22.0156 C   0  0  0  0  0  0  0  0  0  0  0  0
   18.6628   17.1678   22.6090 H   0  0  0  0  0  0  0  0  0  0  0  0
   19.5175   17.6851   21.1521 H   0  0  0  0  0  0  0  0  0  0  0  0
   17.6722   18.7598   21.5216 C   0  0  0  0  0  0  0  0  0  0  0  0
   17.0891   19.1085   22.3783 H   0  0  0  0  0  0  0  0  0  0  0  0
   17.9476   19.6278   20.9165 H   0  0  0  0  0  0  0  0  0  0  0  0
   16.7812   17.8678   20.6815 N   0  3  0  0  0  0  0  0  0  0  0  0
   16.4642   17.0439   21.2031 H   0  0  0  0  0  0  0  0  0  0  0  0
   17.2630   17.5271   19.8430 H   0  0  0  0  0  0  0  0  0  0  0  0
   15.9401   18.3611   20.3628 H   0  0  0  0  0  0  0  0  0  0  0  0
  1  2  1  0  0  0  0
  1  3  1  0  0  0  0
  1  4  1  0  0  0  0
  1  5  1  0  0  0  0
  5  6  1  0  0  0  0
  5  7  1  0  0  0  0
  5  8  1  0  0  0  0
  8  9  1  0  0  0  0
  8 10  1  0  0  0  0
  8 11  1  0  0  0  0
 11 12  1  0  0  0  0
 11 13  1  0  0  0  0
 11 14  1  0  0  0  0
 14 15  1  0  0  0  0
 14 16  1  0  0  0  0
 14 17  1  0  0  0  0
 17 18  1  0  0  0  0
 17 19  1  0  0  0  0
 17 20  1  0  0  0  0
 20 21  1  0  0  0  0
 20 22  1  0  0  0  0
 20 23  1  0  0  0  0
 23 24  1  0  0  0  0
 23 25  1  0  0  0  0
 23 26  1  0  0  0  0
M  END
> <VConfSearch Rank>
884

> <Conf_Id>
37

> <Delta U+W>
0.565

> <U+W>
-4.988

> <U>
48.035

> <W>
-53.022

> <W(PB)>
-55.379

> <W(SA)>
2.357

> <Valence>
2.701

> <Coulomb>
44.622

> <VdW>
0.712

> <VdW6>
-6.418

> <VdW12>
7.129

> <Bond>
0.168

> <Angle>
0.659

> <Pdih>
1.875

> <Idih>
0.000

> <Tether>
0.000

$$$$
VeraChem MOL file


 26 25  0  0  0  0  0  0  0  0999 V2000     
   19.2417   22.7110   22.1950 C   0  0  0  0  0  0  0  0  0  0  0  0
   18.1995   22.3992   22.3431 H   0  0  0  0  0  0  0  0  0  0  0  0
   19.6066   23.1425   23.1362 H   0  0  0  0  0  0  0  0  0  0  0  0
   19.2516   23.5030   21.4350 H   0  0  0  0  0  0  0  0  0  0  0  0
   20.1195   21.5208   21.7533 C   0  0  0  0  0  0  0  0  0  0  0  0
   21.1468   21.8708   21.5797 H   0  0  0  0  0  0  0  0  0  0  0  0
   19.7506   21.1319   20.7939 H   0  0  0  0  0  0  0  0  0  0  0  0
   20.1238   20.3909   22.8067 C   0  0  0  0  0  0  0  0  0  0  0  0
   20.4951   20.7840   23.7632 H   0  0  0  0  0  0  0  0  0  0  0  0
   19.0919   20.0573   22.9773 H   0  0  0  0  0  0  0  0  0  0  0  0
   21.0006   19.1953   22.3628 C   0  0  0  0  0  0  0  0  0  0  0  0
   22.0083   19.5611   22.1221 H   0  0  0  0  0  0  0  0  0  0  0  0
   20.5990   18.7655   21.4346 H   0  0  0  0  0  0  0  0  0  0  0  0
   21.1257   18.0862   23.4363 C   0  0  0  0  0  0  0  0  0  0  0  0
   21.8528   17.3411   23.0841 H   0  0  0  0  0  0  0  0  0  0  0  0
   21.5437   18.5122   24.3590 H   0  0  0  0  0  0  0  0  0  0  0  0
   19.7891   17.3737   23.7496 C   0  0  0  0  0  0  0  0  0  0  0  0
   19.3465   16.9921   22.8199 H   0  0  0  0  0  0  0  0  0  0  0  0
   19.0736   18.0845   24.1816 H   0  0  0  0  0  0  0  0  0  0  0  0
   19.9933   16.2087   24.7341 C   0  0  0  0  0  0  0  0  0  0  0  0
   20.6907   15.4833   24.3066 H   0  0  0  0  0  0  0  0  0  0  0  0
   20.4189   16.5862   25.6678 H   0  0  0  0  0  0  0  0  0  0  0  0
   18.7072   15.4803   25.0671 N   0  3  0  0  0  0  0  0  0  0  0  0
   18.2694   15.0767   24.2324 H   0  0  0  0  0  0  0  0  0  0  0  0
   18.0164   16.1023   25.4997 H   0  0  0  0  0  0  0  0  0  0  0  0
   18.8659   14.7081   25.7236 H   0  0  0  0  0  0  0  0  0  0  0  0
  1  2  1  0  0  0  0
  1  3  1  0  0  0  0
  1  4  1  0  0  0  0
  1  5  1  0  0  0  0
  5  6  1  0  0  0  0
  5  7  1  0  0  0  0
  5  8  1  0  0  0  0
  8  9  1  0  0  0  0
  8 10  1  0  0  0  0
  8 11  1  0  0  0  0
 11 12  1  0  0  0  0
 11 13  1  0  0  0  0
 11 14  1  0  0  0  0
 14 15  1  0  0  0  0
 14 16  1  0  0  0  0
 14 17  1  0  0  0  0
 17 18  1  0  0  0  0
 17 19  1  0  0  0  0
 17 20  1  0  0  0  0
 20 21  1  0  0  0  0
 20 22  1  0  0  0  0
 20 23  1  0  0  0  0
 23 24  1  0  0  0  0
 23 25  1  0  0  0  0
 23 26  1  0  0  0  0
M  END
> <VConfSearch Rank>
885

> <Conf_Id>
35

> <Delta U+W>
0.587

> <U+W>
-4.965

> <U>
48.214

> <W>
-53.179

> <W(PB)>
-55.527

> <W(SA)>
2.348

> <Valence>
2.697

> <Coulomb>
44.819

> <VdW>
0.699

> <VdW6>
-6.437

> <VdW12>
7.136

> <Bond>
0.168

> <Angle>
0.657

> <Pdih>
1.872

> <Idih>
0.000

> <Tether>
0.000

$$$$
VeraChem MOL file


 26 25  0  0  0  0  0  0  0  0999 V2000     
   16.4721   17.5175   22.2021 C   0  0  0  0  0  0  0  0  0  0  0  0
   16.2718   18.3098   21.4691 H   0  0  0  0  0  0  0  0  0  0  0  0
   17.1016   16.7576   21.7210 H   0  0  0  0  0  0  0  0  0  0  0  0
   15.5143   17.0473   22.4603 H   0  0  0  0  0  0  0  0  0  0  0  0
   17.1563   18.0881   23.4625 C   0  0  0  0  0  0  0  0  0  0  0  0
   17.3135   17.2793   24.1899 H   0  0  0  0  0  0  0  0  0  0  0  0
   16.4884   18.8186   23.9402 H   0  0  0  0  0  0  0  0  0  0  0  0
   18.5077   18.7571   23.1269 C   0  0  0  0  0  0  0  0  0  0  0  0
   19.1610   18.0198   22.6425 H   0  0  0  0  0  0  0  0  0  0  0  0
   18.3450   19.5660   22.4012 H   0  0  0  0  0  0  0  0  0  0  0  0
   19.1964   19.3259   24.3908 C   0  0  0  0  0  0  0  0  0  0  0  0
   19.4096   18.5104   25.0956 H   0  0  0  0  0  0  0  0  0  0  0  0
   18.4988   20.0023   24.9040 H   0  0  0  0  0  0  0  0  0  0  0  0
   20.5003   20.1047   24.0886 C   0  0  0  0  0  0  0  0  0  0  0  0
   20.2841   20.9310   23.3973 H   0  0  0  0  0  0  0  0  0  0  0  0
   20.8536   20.5673   25.0207 H   0  0  0  0  0  0  0  0  0  0  0  0
   21.6293   19.2209   23.5080 C   0  0  0  0  0  0  0  0  0  0  0  0
   21.3287   18.8144   22.5342 H   0  0  0  0  0  0  0  0  0  0  0  0
   21.8103   18.3671   24.1744 H   0  0  0  0  0  0  0  0  0  0  0  0
   22.9331   20.0200   23.3357 C   0  0  0  0  0  0  0  0  0  0  0  0
   22.7619   20.8623   22.6599 H   0  0  0  0  0  0  0  0  0  0  0  0
   23.2534   20.4151   24.3035 H   0  0  0  0  0  0  0  0  0  0  0  0
   24.0679   19.1902   22.7708 N   0  3  0  0  0  0  0  0  0  0  0  0
   23.8406   18.8110   21.8457 H   0  0  0  0  0  0  0  0  0  0  0  0
   24.2973   18.3945   23.3753 H   0  0  0  0  0  0  0  0  0  0  0  0
   24.9265   19.7415   22.6646 H   0  0  0  0  0  0  0  0  0  0  0  0
  1  2  1  0  0  0  0
  1  3  1  0  0  0  0
  1  4  1  0  0  0  0
  1  5  1  0  0  0  0
  5  6  1  0  0  0  0
  5  7  1  0  0  0  0
  5  8  1  0  0  0  0
  8  9  1  0  0  0  0
  8 10  1  0  0  0  0
  8 11  1  0  0  0  0
 11 12  1  0  0  0  0
 11 13  1  0  0  0  0
 11 14  1  0  0  0  0
 14 15  1  0  0  0  0
 14 16  1  0  0  0  0
 14 17  1  0  0  0  0
 17 18  1  0  0  0  0
 17 19  1  0  0  0  0
 17 20  1  0  0  0  0
 20 21  1  0  0  0  0
 20 22  1  0  0  0  0
 20 23  1  0  0  0  0
 23 24  1  0  0  0  0
 23 25  1  0  0  0  0
 23 26  1  0  0  0  0
M  END
> <VConfSearch Rank>
886

> <Conf_Id>
36

> <Delta U+W>
0.565

> <U+W>
-4.987

> <U>
48.214

> <W>
-53.201

> <W(PB)>
-55.543

> <W(SA)>
2.342

> <Valence>
2.697

> <Coulomb>
44.819

> <VdW>
0.698

> <VdW6>
-6.437

> <VdW12>
7.136

> <Bond>
0.168

> <Angle>
0.657

> <Pdih>
1.872

> <Idih>
0.000

> <Tether>
0.000

$$$$
VeraChem MOL file


 26 25  0  0  0  0  0  0  0  0999 V2000     
   19.2362   22.6424   25.2349 C   0  0  0  0  0  0  0  0  0  0  0  0
   19.7431   23.3557   24.5719 H   0  0  0  0  0  0  0  0  0  0  0  0
   18.3201   23.1198   25.6061 H   0  0  0  0  0  0  0  0  0  0  0  0
   19.8899   22.4521   26.0961 H   0  0  0  0  0  0  0  0  0  0  0  0
   18.9045   21.3320   24.4900 C   0  0  0  0  0  0  0  0  0  0  0  0
   18.2231   21.5495   23.6555 H   0  0  0  0  0  0  0  0  0  0  0  0
   18.3686   20.6529   25.1680 H   0  0  0  0  0  0  0  0  0  0  0  0
   20.1779   20.6390   23.9565 C   0  0  0  0  0  0  0  0  0  0  0  0
   20.7112   21.3229   23.2817 H   0  0  0  0  0  0  0  0  0  0  0  0
   20.8566   20.4253   24.7938 H   0  0  0  0  0  0  0  0  0  0  0  0
   19.8498   19.3265   23.2096 C   0  0  0  0  0  0  0  0  0  0  0  0
   19.1731   19.5419   22.3710 H   0  0  0  0  0  0  0  0  0  0  0  0
   19.3116   18.6508   23.8878 H   0  0  0  0  0  0  0  0  0  0  0  0
   21.1275   18.6340   22.6776 C   0  0  0  0  0  0  0  0  0  0  0  0
   21.6808   19.3375   22.0400 H   0  0  0  0  0  0  0  0  0  0  0  0
   21.7922   18.3867   23.5170 H   0  0  0  0  0  0  0  0  0  0  0  0
   20.8296   17.3543   21.8614 C   0  0  0  0  0  0  0  0  0  0  0  0
   21.7704   16.9703   21.4449 H   0  0  0  0  0  0  0  0  0  0  0  0
   20.1859   17.6028   21.0071 H   0  0  0  0  0  0  0  0  0  0  0  0
   20.1659   16.2506   22.7062 C   0  0  0  0  0  0  0  0  0  0  0  0
   20.8072   16.0022   23.5562 H   0  0  0  0  0  0  0  0  0  0  0  0
   19.2061   16.6051   23.0906 H   0  0  0  0  0  0  0  0  0  0  0  0
   19.9116   14.9779   21.9245 N   0  3  0  0  0  0  0  0  0  0  0  0
   19.4697   14.2563   22.5044 H   0  0  0  0  0  0  0  0  0  0  0  0
   20.7800   14.5750   21.5574 H   0  0  0  0  0  0  0  0  0  0  0  0
   19.2915   15.1386   21.1239 H   0  0  0  0  0  0  0  0  0  0  0  0
  1  2  1  0  0  0  0
  1  3  1  0  0  0  0
  1  4  1  0  0  0  0
  1  5  1  0  0  0  0
  5  6  1  0  0  0  0
  5  7  1  0  0  0  0
  5  8  1  0  0  0  0
  8  9  1  0  0  0  0
  8 10  1  0  0  0  0
  8 11  1  0  0  0  0
 11 12  1  0  0  0  0
 11 13  1  0  0  0  0
 11 14  1  0  0  0  0
 14 15  1  0  0  0  0
 14 16  1  0  0  0  0
 14 17  1  0  0  0  0
 17 18  1  0  0  0  0
 17 19  1  0  0  0  0
 17 20  1  0  0  0  0
 20 21  1  0  0  0  0
 20 22  1  0  0  0  0
 20 23  1  0  0  0  0
 23 24  1  0  0  0  0
 23 25  1  0  0  0  0
 23 26  1  0  0  0  0
M  END
> <VConfSearch Rank>
887

> <Conf_Id>
44

> <Delta U+W>
0.371

> <U+W>
-5.181

> <U>
48.002

> <W>
-53.183

> <W(PB)>
-55.533

> <W(SA)>
2.350

> <Valence>
2.459

> <Coulomb>
44.901

> <VdW>
0.643

> <VdW6>
-6.362

> <VdW12>
7.005

> <Bond>
0.151

> <Angle>
0.519

> <Pdih>
1.789

> <Idih>
0.000

> <Tether>
0.000

$$$$
VeraChem MOL file


 26 25  0  0  0  0  0  0  0  0999 V2000     
   16.9306   21.1960   22.4084 C   0  0  0  0  0  0  0  0  0  0  0  0
   16.7013   20.6484   21.4851 H   0  0  0  0  0  0  0  0  0  0  0  0
   16.0818   21.8573   22.6257 H   0  0  0  0  0  0  0  0  0  0  0  0
   17.8043   21.8329   22.2233 H   0  0  0  0  0  0  0  0  0  0  0  0
   17.1733   20.2241   23.5856 C   0  0  0  0  0  0  0  0  0  0  0  0
   16.2319   19.7044   23.8128 H   0  0  0  0  0  0  0  0  0  0  0  0
   17.4350   20.7938   24.4883 H   0  0  0  0  0  0  0  0  0  0  0  0
   18.2660   19.1657   23.2988 C   0  0  0  0  0  0  0  0  0  0  0  0
   18.2660   18.4472   24.1282 H   0  0  0  0  0  0  0  0  0  0  0  0
   17.9987   18.5985   22.3967 H   0  0  0  0  0  0  0  0  0  0  0  0
   19.6836   19.7714   23.1358 C   0  0  0  0  0  0  0  0  0  0  0  0
   19.9528   20.3354   24.0393 H   0  0  0  0  0  0  0  0  0  0  0  0
   19.6769   20.4951   22.3106 H   0  0  0  0  0  0  0  0  0  0  0  0
   20.7785   18.7177   22.8361 C   0  0  0  0  0  0  0  0  0  0  0  0
   20.5019   18.1441   21.9406 H   0  0  0  0  0  0  0  0  0  0  0  0
   21.7047   19.2516   22.5860 H   0  0  0  0  0  0  0  0  0  0  0  0
   21.0486   17.7488   24.0150 C   0  0  0  0  0  0  0  0  0  0  0  0
   20.1415   17.1757   24.2421 H   0  0  0  0  0  0  0  0  0  0  0  0
   21.2969   18.3176   24.9209 H   0  0  0  0  0  0  0  0  0  0  0  0
   22.1787   16.7459   23.7123 C   0  0  0  0  0  0  0  0  0  0  0  0
   22.2567   16.0296   24.5348 H   0  0  0  0  0  0  0  0  0  0  0  0
   21.9446   16.1919   22.7992 H   0  0  0  0  0  0  0  0  0  0  0  0
   23.5395   17.3911   23.5362 N   0  3  0  0  0  0  0  0  0  0  0  0
   23.5488   18.0508   22.7523 H   0  0  0  0  0  0  0  0  0  0  0  0
   24.2698   16.6949   23.3511 H   0  0  0  0  0  0  0  0  0  0  0  0
   23.8259   17.9100   24.3727 H   0  0  0  0  0  0  0  0  0  0  0  0
  1  2  1  0  0  0  0
  1  3  1  0  0  0  0
  1  4  1  0  0  0  0
  1  5  1  0  0  0  0
  5  6  1  0  0  0  0
  5  7  1  0  0  0  0
  5  8  1  0  0  0  0
  8  9  1  0  0  0  0
  8 10  1  0  0  0  0
  8 11  1  0  0  0  0
 11 12  1  0  0  0  0
 11 13  1  0  0  0  0
 11 14  1  0  0  0  0
 14 15  1  0  0  0  0
 14 16  1  0  0  0  0
 14 17  1  0  0  0  0
 17 18  1  0  0  0  0
 17 19  1  0  0  0  0
 17 20  1  0  0  0  0
 20 21  1  0  0  0  0
 20 22  1  0  0  0  0
 20 23  1  0  0  0  0
 23 24  1  0  0  0  0
 23 25  1  0  0  0  0
 23 26  1  0  0  0  0
M  END
> <VConfSearch Rank>
888

> <Conf_Id>
112

> <Delta U+W>
1.422

> <U+W>
-4.130

> <U>
49.323

> <W>
-53.453

> <W(PB)>
-55.749

> <W(SA)>
2.296

> <Valence>
3.408

> <Coulomb>
44.893

> <VdW>
1.021

> <VdW6>
-7.481

> <VdW12>
8.503

> <Bond>
0.239

> <Angle>
1.013

> <Pdih>
2.156

> <Idih>
0.000

> <Tether>
0.000

$$$$
VeraChem MOL file


 26 25  0  0  0  0  0  0  0  0999 V2000     
   20.0016   20.9855   26.3362 C   0  0  0  0  0  0  0  0  0  0  0  0
   20.1074   21.7812   27.0849 H   0  0  0  0  0  0  0  0  0  0  0  0
   18.9852   21.0493   25.9282 H   0  0  0  0  0  0  0  0  0  0  0  0
   20.1055   20.0224   26.8526 H   0  0  0  0  0  0  0  0  0  0  0  0
   21.0682   21.1398   25.2284 C   0  0  0  0  0  0  0  0  0  0  0  0
   22.0615   21.1865   25.6962 H   0  0  0  0  0  0  0  0  0  0  0  0
   20.9270   22.0989   24.7106 H   0  0  0  0  0  0  0  0  0  0  0  0
   21.0565   19.9828   24.2004 C   0  0  0  0  0  0  0  0  0  0  0  0
   21.9032   20.1177   23.5133 H   0  0  0  0  0  0  0  0  0  0  0  0
   21.2302   19.0351   24.7266 H   0  0  0  0  0  0  0  0  0  0  0  0
   19.7443   19.9052   23.3795 C   0  0  0  0  0  0  0  0  0  0  0  0
   19.5211   20.8992   22.9683 H   0  0  0  0  0  0  0  0  0  0  0  0
   18.9037   19.6459   24.0366 H   0  0  0  0  0  0  0  0  0  0  0  0
   19.8062   18.8930   22.2092 C   0  0  0  0  0  0  0  0  0  0  0  0
   18.8862   18.9964   21.6190 H   0  0  0  0  0  0  0  0  0  0  0  0
   20.6350   19.1569   21.5378 H   0  0  0  0  0  0  0  0  0  0  0  0
   19.9582   17.4223   22.6726 C   0  0  0  0  0  0  0  0  0  0  0  0
   19.1463   17.1592   23.3635 H   0  0  0  0  0  0  0  0  0  0  0  0
   20.8960   17.3032   23.2293 H   0  0  0  0  0  0  0  0  0  0  0  0
   19.9747   16.4274   21.4959 C   0  0  0  0  0  0  0  0  0  0  0  0
   20.7703   16.6977   20.7963 H   0  0  0  0  0  0  0  0  0  0  0  0
   20.1807   15.4225   21.8745 H   0  0  0  0  0  0  0  0  0  0  0  0
   18.6699   16.3683   20.7258 N   0  3  0  0  0  0  0  0  0  0  0  0
   18.4334   17.2739   20.3088 H   0  0  0  0  0  0  0  0  0  0  0  0
   17.8850   16.0969   21.3268 H   0  0  0  0  0  0  0  0  0  0  0  0
   18.7105   15.6869   19.9600 H   0  0  0  0  0  0  0  0  0  0  0  0
  1  2  1  0  0  0  0
  1  3  1  0  0  0  0
  1  4  1  0  0  0  0
  1  5  1  0  0  0  0
  5  6  1  0  0  0  0
  5  7  1  0  0  0  0
  5  8  1  0  0  0  0
  8  9  1  0  0  0  0
  8 10  1  0  0  0  0
  8 11  1  0  0  0  0
 11 12  1  0  0  0  0
 11 13  1  0  0  0  0
 11 14  1  0  0  0  0
 14 15  1  0  0  0  0
 14 16  1  0  0  0  0
 14 17  1  0  0  0  0
 17 18  1  0  0  0  0
 17 19  1  0  0  0  0
 17 20  1  0  0  0  0
 20 21  1  0  0  0  0
 20 22  1  0  0  0  0
 20 23  1  0  0  0  0
 23 24  1  0  0  0  0
 23 25  1  0  0  0  0
 23 26  1  0  0  0  0
M  END
> <VConfSearch Rank>
889

> <Conf_Id>
130

> <Delta U+W>
1.282

> <U+W>
-4.270

> <U>
49.153

> <W>
-53.422

> <W(PB)>
-55.725

> <W(SA)>
2.303

> <Valence>
3.298

> <Coulomb>
44.907

> <VdW>
0.948

> <VdW6>
-7.574

> <VdW12>
8.522

> <Bond>
0.229

> <Angle>
0.912

> <Pdih>
2.157

> <Idih>
0.000

> <Tether>
0.000

$$$$
VeraChem MOL file


 26 25  0  0  0  0  0  0  0  0999 V2000     
   22.3638   19.7945   25.6579 C   0  0  0  0  0  0  0  0  0  0  0  0
   23.3348   19.8444   25.1485 H   0  0  0  0  0  0  0  0  0  0  0  0
   22.5356   19.9723   26.7274 H   0  0  0  0  0  0  0  0  0  0  0  0
   21.9709   18.7756   25.5515 H   0  0  0  0  0  0  0  0  0  0  0  0
   21.3821   20.8420   25.0858 C   0  0  0  0  0  0  0  0  0  0  0  0
   21.7600   21.8465   25.3222 H   0  0  0  0  0  0  0  0  0  0  0  0
   20.4130   20.7595   25.5957 H   0  0  0  0  0  0  0  0  0  0  0  0
   21.1921   20.7361   23.5510 C   0  0  0  0  0  0  0  0  0  0  0  0
   20.5035   21.5275   23.2243 H   0  0  0  0  0  0  0  0  0  0  0  0
   22.1513   20.9517   23.0605 H   0  0  0  0  0  0  0  0  0  0  0  0
   20.6691   19.3695   23.0372 C   0  0  0  0  0  0  0  0  0  0  0  0
   21.3983   18.5807   23.2644 H   0  0  0  0  0  0  0  0  0  0  0  0
   20.6117   19.4208   21.9421 H   0  0  0  0  0  0  0  0  0  0  0  0
   19.2822   18.9822   23.6103 C   0  0  0  0  0  0  0  0  0  0  0  0
   19.3457   18.9012   24.7032 H   0  0  0  0  0  0  0  0  0  0  0  0
   18.5566   19.7795   23.3975 H   0  0  0  0  0  0  0  0  0  0  0  0
   18.7507   17.6390   23.0568 C   0  0  0  0  0  0  0  0  0  0  0  0
   17.8226   17.3800   23.5835 H   0  0  0  0  0  0  0  0  0  0  0  0
   19.4703   16.8389   23.2761 H   0  0  0  0  0  0  0  0  0  0  0  0
   18.4717   17.6853   21.5427 C   0  0  0  0  0  0  0  0  0  0  0  0
   17.7562   18.4828   21.3248 H   0  0  0  0  0  0  0  0  0  0  0  0
   19.3974   17.8953   21.0011 H   0  0  0  0  0  0  0  0  0  0  0  0
   17.9038   16.3877   21.0049 N   0  3  0  0  0  0  0  0  0  0  0  0
   18.5424   15.5998   21.1551 H   0  0  0  0  0  0  0  0  0  0  0  0
   17.7250   16.4392   19.9961 H   0  0  0  0  0  0  0  0  0  0  0  0
   17.0143   16.1450   21.4535 H   0  0  0  0  0  0  0  0  0  0  0  0
  1  2  1  0  0  0  0
  1  3  1  0  0  0  0
  1  4  1  0  0  0  0
  1  5  1  0  0  0  0
  5  6  1  0  0  0  0
  5  7  1  0  0  0  0
  5  8  1  0  0  0  0
  8  9  1  0  0  0  0
  8 10  1  0  0  0  0
  8 11  1  0  0  0  0
 11 12  1  0  0  0  0
 11 13  1  0  0  0  0
 11 14  1  0  0  0  0
 14 15  1  0  0  0  0
 14 16  1  0  0  0  0
 14 17  1  0  0  0  0
 17 18  1  0  0  0  0
 17 19  1  0  0  0  0
 17 20  1  0  0  0  0
 20 21  1  0  0  0  0
 20 22  1  0  0  0  0
 20 23  1  0  0  0  0
 23 24  1  0  0  0  0
 23 25  1  0  0  0  0
 23 26  1  0  0  0  0
M  END
> <VConfSearch Rank>
890

> <Conf_Id>
111

> <Delta U+W>
1.290

> <U+W>
-4.262

> <U>
49.209

> <W>
-53.471

> <W(PB)>
-55.745

> <W(SA)>
2.274

> <Valence>
3.465

> <Coulomb>
44.958

> <VdW>
0.786

> <VdW6>
-7.903

> <VdW12>
8.689

> <Bond>
0.237

> <Angle>
1.212

> <Pdih>
2.015

> <Idih>
0.000

> <Tether>
0.000

$$$$
VeraChem MOL file


 26 25  0  0  0  0  0  0  0  0999 V2000     
   16.6004   20.8469   24.3269 C   0  0  0  0  0  0  0  0  0  0  0  0
   15.9899   19.9610   24.1083 H   0  0  0  0  0  0  0  0  0  0  0  0
   16.4721   21.0973   25.3880 H   0  0  0  0  0  0  0  0  0  0  0  0
   16.2065   21.6824   23.7338 H   0  0  0  0  0  0  0  0  0  0  0  0
   18.0855   20.5932   23.9917 C   0  0  0  0  0  0  0  0  0  0  0  0
   18.6651   21.5050   24.1926 H   0  0  0  0  0  0  0  0  0  0  0  0
   18.1775   20.3871   22.9171 H   0  0  0  0  0  0  0  0  0  0  0  0
   18.6622   19.4159   24.8132 C   0  0  0  0  0  0  0  0  0  0  0  0
   18.4874   19.6069   25.8811 H   0  0  0  0  0  0  0  0  0  0  0  0
   18.1162   18.4934   24.5721 H   0  0  0  0  0  0  0  0  0  0  0  0
   20.1793   19.1931   24.5971 C   0  0  0  0  0  0  0  0  0  0  0  0
   20.5209   18.4223   25.3018 H   0  0  0  0  0  0  0  0  0  0  0  0
   20.7257   20.1107   24.8553 H   0  0  0  0  0  0  0  0  0  0  0  0
   20.5420   18.7555   23.1576 C   0  0  0  0  0  0  0  0  0  0  0  0
   19.9465   17.8736   22.8869 H   0  0  0  0  0  0  0  0  0  0  0  0
   20.2801   19.5503   22.4469 H   0  0  0  0  0  0  0  0  0  0  0  0
   22.0492   18.4344   23.0207 C   0  0  0  0  0  0  0  0  0  0  0  0
   22.3230   17.6143   23.6978 H   0  0  0  0  0  0  0  0  0  0  0  0
   22.6367   19.3081   23.3329 H   0  0  0  0  0  0  0  0  0  0  0  0
   22.4510   18.0664   21.5793 C   0  0  0  0  0  0  0  0  0  0  0  0
   22.1751   18.8787   20.9014 H   0  0  0  0  0  0  0  0  0  0  0  0
   23.5350   17.9328   21.5279 H   0  0  0  0  0  0  0  0  0  0  0  0
   21.8062   16.7912   21.0727 N   0  3  0  0  0  0  0  0  0  0  0  0
   22.1037   16.5680   20.1166 H   0  0  0  0  0  0  0  0  0  0  0  0
   20.7840   16.8616   21.0600 H   0  0  0  0  0  0  0  0  0  0  0  0
   22.0475   15.9843   21.6573 H   0  0  0  0  0  0  0  0  0  0  0  0
  1  2  1  0  0  0  0
  1  3  1  0  0  0  0
  1  4  1  0  0  0  0
  1  5  1  0  0  0  0
  5  6  1  0  0  0  0
  5  7  1  0  0  0  0
  5  8  1  0  0  0  0
  8  9  1  0  0  0  0
  8 10  1  0  0  0  0
  8 11  1  0  0  0  0
 11 12  1  0  0  0  0
 11 13  1  0  0  0  0
 11 14  1  0  0  0  0
 14 15  1  0  0  0  0
 14 16  1  0  0  0  0
 14 17  1  0  0  0  0
 17 18  1  0  0  0  0
 17 19  1  0  0  0  0
 17 20  1  0  0  0  0
 20 21  1  0  0  0  0
 20 22  1  0  0  0  0
 20 23  1  0  0  0  0
 23 24  1  0  0  0  0
 23 25  1  0  0  0  0
 23 26  1  0  0  0  0
M  END
> <VConfSearch Rank>
891

> <Conf_Id>
105

> <Delta U+W>
0.736

> <U+W>
-4.817

> <U>
48.735

> <W>
-53.552

> <W(PB)>
-55.889

> <W(SA)>
2.337

> <Valence>
2.803

> <Coulomb>
45.123

> <VdW>
0.809

> <VdW6>
-6.953

> <VdW12>
7.761

> <Bond>
0.188

> <Angle>
0.699

> <Pdih>
1.917

> <Idih>
0.000

> <Tether>
0.000

$$$$
VeraChem MOL file


 26 25  0  0  0  0  0  0  0  0999 V2000     
   18.4490   22.3529   23.1751 C   0  0  0  0  0  0  0  0  0  0  0  0
   17.3828   22.4978   23.3928 H   0  0  0  0  0  0  0  0  0  0  0  0
   19.0182   22.5819   24.0855 H   0  0  0  0  0  0  0  0  0  0  0  0
   18.7373   23.0805   22.4053 H   0  0  0  0  0  0  0  0  0  0  0  0
   18.7271   20.9127   22.6950 C   0  0  0  0  0  0  0  0  0  0  0  0
   19.7934   20.8188   22.4497 H   0  0  0  0  0  0  0  0  0  0  0  0
   18.1683   20.7228   21.7680 H   0  0  0  0  0  0  0  0  0  0  0  0
   18.3325   19.8684   23.7657 C   0  0  0  0  0  0  0  0  0  0  0  0
   18.9202   20.0315   24.6785 H   0  0  0  0  0  0  0  0  0  0  0  0
   17.2839   20.0300   24.0514 H   0  0  0  0  0  0  0  0  0  0  0  0
   18.4858   18.4006   23.2891 C   0  0  0  0  0  0  0  0  0  0  0  0
   17.7925   18.2245   22.4551 H   0  0  0  0  0  0  0  0  0  0  0  0
   18.1582   17.7319   24.0970 H   0  0  0  0  0  0  0  0  0  0  0  0
   19.9130   17.9883   22.8438 C   0  0  0  0  0  0  0  0  0  0  0  0
   19.8763   16.9400   22.5193 H   0  0  0  0  0  0  0  0  0  0  0  0
   20.2124   18.5666   21.9597 H   0  0  0  0  0  0  0  0  0  0  0  0
   20.9788   18.1449   23.9571 C   0  0  0  0  0  0  0  0  0  0  0  0
   20.6751   17.5842   24.8510 H   0  0  0  0  0  0  0  0  0  0  0  0
   21.0511   19.1983   24.2554 H   0  0  0  0  0  0  0  0  0  0  0  0
   22.3785   17.6814   23.5094 C   0  0  0  0  0  0  0  0  0  0  0  0
   22.6754   18.2246   22.6082 H   0  0  0  0  0  0  0  0  0  0  0  0
   23.1031   17.9058   24.2968 H   0  0  0  0  0  0  0  0  0  0  0  0
   22.4666   16.1966   23.2153 N   0  3  0  0  0  0  0  0  0  0  0  0
   21.8364   15.9216   22.4557 H   0  0  0  0  0  0  0  0  0  0  0  0
   22.2196   15.6312   24.0340 H   0  0  0  0  0  0  0  0  0  0  0  0
   23.4136   15.9196   22.9347 H   0  0  0  0  0  0  0  0  0  0  0  0
  1  2  1  0  0  0  0
  1  3  1  0  0  0  0
  1  4  1  0  0  0  0
  1  5  1  0  0  0  0
  5  6  1  0  0  0  0
  5  7  1  0  0  0  0
  5  8  1  0  0  0  0
  8  9  1  0  0  0  0
  8 10  1  0  0  0  0
  8 11  1  0  0  0  0
 11 12  1  0  0  0  0
 11 13  1  0  0  0  0
 11 14  1  0  0  0  0
 14 15  1  0  0  0  0
 14 16  1  0  0  0  0
 14 17  1  0  0  0  0
 17 18  1  0  0  0  0
 17 19  1  0  0  0  0
 17 20  1  0  0  0  0
 20 21  1  0  0  0  0
 20 22  1  0  0  0  0
 20 23  1  0  0  0  0
 23 24  1  0  0  0  0
 23 25  1  0  0  0  0
 23 26  1  0  0  0  0
M  END
> <VConfSearch Rank>
892

> <Conf_Id>
144

> <Delta U+W>
1.073

> <U+W>
-4.479

> <U>
49.231

> <W>
-53.710

> <W(PB)>
-55.983

> <W(SA)>
2.273

> <Valence>
3.276

> <Coulomb>
45.175

> <VdW>
0.779

> <VdW6>
-7.944

> <VdW12>
8.723

> <Bond>
0.239

> <Angle>
1.155

> <Pdih>
1.883

> <Idih>
0.000

> <Tether>
0.000

$$$$
VeraChem MOL file


 26 25  0  0  0  0  0  0  0  0999 V2000     
   17.2395   20.4197   25.2088 C   0  0  0  0  0  0  0  0  0  0  0  0
   16.6802   19.4825   25.1003 H   0  0  0  0  0  0  0  0  0  0  0  0
   16.8664   20.9223   26.1105 H   0  0  0  0  0  0  0  0  0  0  0  0
   17.0083   21.0605   24.3480 H   0  0  0  0  0  0  0  0  0  0  0  0
   18.7605   20.1676   25.3216 C   0  0  0  0  0  0  0  0  0  0  0  0
   18.9640   19.4971   26.1682 H   0  0  0  0  0  0  0  0  0  0  0  0
   19.2571   21.1192   25.5575 H   0  0  0  0  0  0  0  0  0  0  0  0
   19.3895   19.5891   24.0308 C   0  0  0  0  0  0  0  0  0  0  0  0
   19.1655   20.2519   23.1838 H   0  0  0  0  0  0  0  0  0  0  0  0
   20.4790   19.5952   24.1597 H   0  0  0  0  0  0  0  0  0  0  0  0
   18.9253   18.1464   23.7102 C   0  0  0  0  0  0  0  0  0  0  0  0
   17.8289   18.1120   23.6812 H   0  0  0  0  0  0  0  0  0  0  0  0
   19.2302   17.4768   24.5260 H   0  0  0  0  0  0  0  0  0  0  0  0
   19.4485   17.5869   22.3616 C   0  0  0  0  0  0  0  0  0  0  0  0
   19.0215   16.5827   22.2325 H   0  0  0  0  0  0  0  0  0  0  0  0
   19.0564   18.1854   21.5275 H   0  0  0  0  0  0  0  0  0  0  0  0
   20.9900   17.4722   22.2538 C   0  0  0  0  0  0  0  0  0  0  0  0
   21.2324   16.6490   21.5685 H   0  0  0  0  0  0  0  0  0  0  0  0
   21.4180   17.2006   23.2280 H   0  0  0  0  0  0  0  0  0  0  0  0
   21.6538   18.7541   21.7136 C   0  0  0  0  0  0  0  0  0  0  0  0
   21.2562   18.9810   20.7208 H   0  0  0  0  0  0  0  0  0  0  0  0
   21.4355   19.5995   22.3687 H   0  0  0  0  0  0  0  0  0  0  0  0
   23.1596   18.6359   21.5963 N   0  3  0  0  0  0  0  0  0  0  0  0
   23.4349   17.8770   20.9644 H   0  0  0  0  0  0  0  0  0  0  0  0
   23.6002   18.4484   22.5028 H   0  0  0  0  0  0  0  0  0  0  0  0
   23.5822   19.4963   21.2308 H   0  0  0  0  0  0  0  0  0  0  0  0
  1  2  1  0  0  0  0
  1  3  1  0  0  0  0
  1  4  1  0  0  0  0
  1  5  1  0  0  0  0
  5  6  1  0  0  0  0
  5  7  1  0  0  0  0
  5  8  1  0  0  0  0
  8  9  1  0  0  0  0
  8 10  1  0  0  0  0
  8 11  1  0  0  0  0
 11 12  1  0  0  0  0
 11 13  1  0  0  0  0
 11 14  1  0  0  0  0
 14 15  1  0  0  0  0
 14 16  1  0  0  0  0
 14 17  1  0  0  0  0
 17 18  1  0  0  0  0
 17 19  1  0  0  0  0
 17 20  1  0  0  0  0
 20 21  1  0  0  0  0
 20 22  1  0  0  0  0
 20 23  1  0  0  0  0
 23 24  1  0  0  0  0
 23 25  1  0  0  0  0
 23 26  1  0  0  0  0
M  END
> <VConfSearch Rank>
893

> <Conf_Id>
93

> <Delta U+W>
3.253

> <U+W>
-2.300

> <U>
51.609

> <W>
-53.909

> <W(PB)>
-56.178

> <W(SA)>
2.270

> <Valence>
5.204

> <Coulomb>
45.645

> <VdW>
0.760

> <VdW6>
-7.997

> <VdW12>
8.758

> <Bond>
0.240

> <Angle>
1.456

> <Pdih>
3.507

> <Idih>
0.000

> <Tether>
0.000

$$$$
VeraChem MOL file


 26 25  0  0  0  0  0  0  0  0999 V2000     
   20.0609   17.4085   26.6121 C   0  0  0  0  0  0  0  0  0  0  0  0
   20.4582   16.4952   26.1528 H   0  0  0  0  0  0  0  0  0  0  0  0
   20.9069   18.0490   26.8930 H   0  0  0  0  0  0  0  0  0  0  0  0
   19.5431   17.1139   27.5341 H   0  0  0  0  0  0  0  0  0  0  0  0
   19.0926   18.1509   25.6629 C   0  0  0  0  0  0  0  0  0  0  0  0
   18.6271   18.9794   26.2148 H   0  0  0  0  0  0  0  0  0  0  0  0
   18.2736   17.4797   25.3686 H   0  0  0  0  0  0  0  0  0  0  0  0
   19.7813   18.7238   24.4004 C   0  0  0  0  0  0  0  0  0  0  0  0
   19.0508   19.3563   23.8808 H   0  0  0  0  0  0  0  0  0  0  0  0
   20.6123   19.3771   24.6996 H   0  0  0  0  0  0  0  0  0  0  0  0
   20.2910   17.6329   23.4259 C   0  0  0  0  0  0  0  0  0  0  0  0
   19.4389   17.0394   23.0669 H   0  0  0  0  0  0  0  0  0  0  0  0
   20.9429   16.9346   23.9657 H   0  0  0  0  0  0  0  0  0  0  0  0
   21.0883   18.1765   22.2116 C   0  0  0  0  0  0  0  0  0  0  0  0
   22.0043   18.6768   22.5554 H   0  0  0  0  0  0  0  0  0  0  0  0
   21.4255   17.3115   21.6237 H   0  0  0  0  0  0  0  0  0  0  0  0
   20.2911   19.1160   21.2720 C   0  0  0  0  0  0  0  0  0  0  0  0
   19.2441   18.7904   21.2111 H   0  0  0  0  0  0  0  0  0  0  0  0
   20.7027   19.0276   20.2577 H   0  0  0  0  0  0  0  0  0  0  0  0
   20.3699   20.5970   21.6916 C   0  0  0  0  0  0  0  0  0  0  0  0
   19.9696   20.7280   22.6986 H   0  0  0  0  0  0  0  0  0  0  0  0
   21.4142   20.9207   21.6955 H   0  0  0  0  0  0  0  0  0  0  0  0
   19.6011   21.5160   20.7645 N   0  3  0  0  0  0  0  0  0  0  0  0
   19.9509   21.4670   19.8020 H   0  0  0  0  0  0  0  0  0  0  0  0
   19.6696   22.4969   21.0571 H   0  0  0  0  0  0  0  0  0  0  0  0
   18.6034   21.2820   20.7351 H   0  0  0  0  0  0  0  0  0  0  0  0
  1  2  1  0  0  0  0
  1  3  1  0  0  0  0
  1  4  1  0  0  0  0
  1  5  1  0  0  0  0
  5  6  1  0  0  0  0
  5  7  1  0  0  0  0
  5  8  1  0  0  0  0
  8  9  1  0  0  0  0
  8 10  1  0  0  0  0
  8 11  1  0  0  0  0
 11 12  1  0  0  0  0
 11 13  1  0  0  0  0
 11 14  1  0  0  0  0
 14 15  1  0  0  0  0
 14 16  1  0  0  0  0
 14 17  1  0  0  0  0
 17 18  1  0  0  0  0
 17 19  1  0  0  0  0
 17 20  1  0  0  0  0
 20 21  1  0  0  0  0
 20 22  1  0  0  0  0
 20 23  1  0  0  0  0
 23 24  1  0  0  0  0
 23 25  1  0  0  0  0
 23 26  1  0  0  0  0
M  END
> <VConfSearch Rank>
894

> <Conf_Id>
94

> <Delta U+W>
3.247

> <U+W>
-2.305

> <U>
51.609

> <W>
-53.914

> <W(PB)>
-56.221

> <W(SA)>
2.307

> <Valence>
5.204

> <Coulomb>
45.645

> <VdW>
0.760

> <VdW6>
-7.997

> <VdW12>
8.757

> <Bond>
0.240

> <Angle>
1.456

> <Pdih>
3.508

> <Idih>
0.000

> <Tether>
0.000

$$$$
VeraChem MOL file


 26 25  0  0  0  0  0  0  0  0999 V2000     
   18.9974   15.1305   22.2984 C   0  0  0  0  0  0  0  0  0  0  0  0
   17.9258   15.2154   22.0754 H   0  0  0  0  0  0  0  0  0  0  0  0
   19.5483   15.1710   21.3497 H   0  0  0  0  0  0  0  0  0  0  0  0
   19.1711   14.1438   22.7471 H   0  0  0  0  0  0  0  0  0  0  0  0
   19.4556   16.2522   23.2543 C   0  0  0  0  0  0  0  0  0  0  0  0
   20.5221   16.1211   23.4855 H   0  0  0  0  0  0  0  0  0  0  0  0
   18.9120   16.1652   24.2056 H   0  0  0  0  0  0  0  0  0  0  0  0
   19.2219   17.6530   22.6464 C   0  0  0  0  0  0  0  0  0  0  0  0
   19.7654   17.7345   21.6949 H   0  0  0  0  0  0  0  0  0  0  0  0
   18.1551   17.7779   22.4146 H   0  0  0  0  0  0  0  0  0  0  0  0
   19.6792   18.7789   23.6010 C   0  0  0  0  0  0  0  0  0  0  0  0
   20.7437   18.6432   23.8341 H   0  0  0  0  0  0  0  0  0  0  0  0
   19.1323   18.6983   24.5507 H   0  0  0  0  0  0  0  0  0  0  0  0
   19.4458   20.1808   22.9886 C   0  0  0  0  0  0  0  0  0  0  0  0
   20.0102   20.2755   22.0512 H   0  0  0  0  0  0  0  0  0  0  0  0
   18.3859   20.2834   22.7178 H   0  0  0  0  0  0  0  0  0  0  0  0
   19.8222   21.3363   23.9496 C   0  0  0  0  0  0  0  0  0  0  0  0
   19.1897   21.2823   24.8456 H   0  0  0  0  0  0  0  0  0  0  0  0
   19.5917   22.2969   23.4700 H   0  0  0  0  0  0  0  0  0  0  0  0
   21.3010   21.3332   24.3874 C   0  0  0  0  0  0  0  0  0  0  0  0
   21.4757   22.1601   25.0812 H   0  0  0  0  0  0  0  0  0  0  0  0
   21.5310   20.3999   24.9078 H   0  0  0  0  0  0  0  0  0  0  0  0
   22.2763   21.4826   23.2366 N   0  3  0  0  0  0  0  0  0  0  0  0
   22.1286   22.3582   22.7243 H   0  0  0  0  0  0  0  0  0  0  0  0
   22.1840   20.7169   22.5620 H   0  0  0  0  0  0  0  0  0  0  0  0
   23.2498   21.4847   23.5597 H   0  0  0  0  0  0  0  0  0  0  0  0
  1  2  1  0  0  0  0
  1  3  1  0  0  0  0
  1  4  1  0  0  0  0
  1  5  1  0  0  0  0
  5  6  1  0  0  0  0
  5  7  1  0  0  0  0
  5  8  1  0  0  0  0
  8  9  1  0  0  0  0
  8 10  1  0  0  0  0
  8 11  1  0  0  0  0
 11 12  1  0  0  0  0
 11 13  1  0  0  0  0
 11 14  1  0  0  0  0
 14 15  1  0  0  0  0
 14 16  1  0  0  0  0
 14 17  1  0  0  0  0
 17 18  1  0  0  0  0
 17 19  1  0  0  0  0
 17 20  1  0  0  0  0
 20 21  1  0  0  0  0
 20 22  1  0  0  0  0
 20 23  1  0  0  0  0
 23 24  1  0  0  0  0
 23 25  1  0  0  0  0
 23 26  1  0  0  0  0
M  END
> <VConfSearch Rank>
895

> <Conf_Id>
83

> <Delta U+W>
0.559

> <U+W>
-4.994

> <U>
48.668

> <W>
-53.661

> <W(PB)>
-55.972

> <W(SA)>
2.311

> <Valence>
2.543

> <Coulomb>
45.478

> <VdW>
0.646

> <VdW6>
-7.096

> <VdW12>
7.742

> <Bond>
0.176

> <Angle>
0.630

> <Pdih>
1.738

> <Idih>
0.000

> <Tether>
0.000

$$$$
VeraChem MOL file


 26 25  0  0  0  0  0  0  0  0999 V2000     
   16.6766   18.6828   25.2243 C   0  0  0  0  0  0  0  0  0  0  0  0
   16.5951   17.9116   26.0014 H   0  0  0  0  0  0  0  0  0  0  0  0
   16.7289   19.6618   25.7182 H   0  0  0  0  0  0  0  0  0  0  0  0
   15.7569   18.6559   24.6256 H   0  0  0  0  0  0  0  0  0  0  0  0
   17.9141   18.4447   24.3331 C   0  0  0  0  0  0  0  0  0  0  0  0
   17.9377   19.2097   23.5458 H   0  0  0  0  0  0  0  0  0  0  0  0
   17.8192   17.4721   23.8305 H   0  0  0  0  0  0  0  0  0  0  0  0
   19.2242   18.4825   25.1551 C   0  0  0  0  0  0  0  0  0  0  0  0
   19.3456   19.4737   25.6134 H   0  0  0  0  0  0  0  0  0  0  0  0
   19.1447   17.7672   25.9854 H   0  0  0  0  0  0  0  0  0  0  0  0
   20.4863   18.1346   24.3281 C   0  0  0  0  0  0  0  0  0  0  0  0
   20.3702   17.1372   23.8820 H   0  0  0  0  0  0  0  0  0  0  0  0
   21.3424   18.0677   25.0137 H   0  0  0  0  0  0  0  0  0  0  0  0
   20.8062   19.1681   23.2213 C   0  0  0  0  0  0  0  0  0  0  0  0
   19.9886   19.1914   22.4901 H   0  0  0  0  0  0  0  0  0  0  0  0
   20.8699   20.1718   23.6640 H   0  0  0  0  0  0  0  0  0  0  0  0
   22.1340   18.8394   22.4985 C   0  0  0  0  0  0  0  0  0  0  0  0
   22.0715   17.8487   22.0288 H   0  0  0  0  0  0  0  0  0  0  0  0
   22.9462   18.7859   23.2357 H   0  0  0  0  0  0  0  0  0  0  0  0
   22.5101   19.8900   21.4359 C   0  0  0  0  0  0  0  0  0  0  0  0
   22.5651   20.8789   21.8992 H   0  0  0  0  0  0  0  0  0  0  0  0
   23.4941   19.6518   21.0231 H   0  0  0  0  0  0  0  0  0  0  0  0
   21.5330   19.9659   20.2790 N   0  3  0  0  0  0  0  0  0  0  0  0
   20.5923   20.2242   20.5926 H   0  0  0  0  0  0  0  0  0  0  0  0
   21.4540   19.0694   19.7880 H   0  0  0  0  0  0  0  0  0  0  0  0
   21.8198   20.6637   19.5839 H   0  0  0  0  0  0  0  0  0  0  0  0
  1  2  1  0  0  0  0
  1  3  1  0  0  0  0
  1  4  1  0  0  0  0
  1  5  1  0  0  0  0
  5  6  1  0  0  0  0
  5  7  1  0  0  0  0
  5  8  1  0  0  0  0
  8  9  1  0  0  0  0
  8 10  1  0  0  0  0
  8 11  1  0  0  0  0
 11 12  1  0  0  0  0
 11 13  1  0  0  0  0
 11 14  1  0  0  0  0
 14 15  1  0  0  0  0
 14 16  1  0  0  0  0
 14 17  1  0  0  0  0
 17 18  1  0  0  0  0
 17 19  1  0  0  0  0
 17 20  1  0  0  0  0
 20 21  1  0  0  0  0
 20 22  1  0  0  0  0
 20 23  1  0  0  0  0
 23 24  1  0  0  0  0
 23 25  1  0  0  0  0
 23 26  1  0  0  0  0
M  END
> <VConfSearch Rank>
896

> <Conf_Id>
18

> <Delta U+W>
0.759

> <U+W>
-4.793

> <U>
48.945

> <W>
-53.738

> <W(PB)>
-56.051

> <W(SA)>
2.313

> <Valence>
2.802

> <Coulomb>
45.335

> <VdW>
0.807

> <VdW6>
-6.962

> <VdW12>
7.769

> <Bond>
0.189

> <Angle>
0.696

> <Pdih>
1.917

> <Idih>
0.000

> <Tether>
0.000

$$$$
VeraChem MOL file


 26 25  0  0  0  0  0  0  0  0999 V2000     
   19.7440   17.2252   19.6966 C   0  0  0  0  0  0  0  0  0  0  0  0
   18.7085   17.5161   19.4770 H   0  0  0  0  0  0  0  0  0  0  0  0
   20.3884   17.6315   18.9061 H   0  0  0  0  0  0  0  0  0  0  0  0
   19.8036   16.1300   19.6498 H   0  0  0  0  0  0  0  0  0  0  0  0
   20.1805   17.7358   21.0862 C   0  0  0  0  0  0  0  0  0  0  0  0
   21.2085   17.4047   21.2894 H   0  0  0  0  0  0  0  0  0  0  0  0
   19.5404   17.2763   21.8510 H   0  0  0  0  0  0  0  0  0  0  0  0
   20.1004   19.2780   21.1777 C   0  0  0  0  0  0  0  0  0  0  0  0
   20.6819   19.7145   20.3539 H   0  0  0  0  0  0  0  0  0  0  0  0
   19.0620   19.6047   21.0282 H   0  0  0  0  0  0  0  0  0  0  0  0
   20.6375   19.8496   22.5129 C   0  0  0  0  0  0  0  0  0  0  0  0
   20.6539   20.9458   22.4391 H   0  0  0  0  0  0  0  0  0  0  0  0
   21.6806   19.5346   22.6545 H   0  0  0  0  0  0  0  0  0  0  0  0
   19.7957   19.4398   23.7454 C   0  0  0  0  0  0  0  0  0  0  0  0
   18.7439   19.7097   23.5775 H   0  0  0  0  0  0  0  0  0  0  0  0
   19.8312   18.3506   23.8714 H   0  0  0  0  0  0  0  0  0  0  0  0
   20.3025   20.1242   25.0370 C   0  0  0  0  0  0  0  0  0  0  0  0
   20.2958   21.2136   24.8986 H   0  0  0  0  0  0  0  0  0  0  0  0
   21.3455   19.8394   25.2295 H   0  0  0  0  0  0  0  0  0  0  0  0
   19.4407   19.7851   26.2687 C   0  0  0  0  0  0  0  0  0  0  0  0
   19.7932   20.3626   27.1277 H   0  0  0  0  0  0  0  0  0  0  0  0
   18.4001   20.0603   26.0769 H   0  0  0  0  0  0  0  0  0  0  0  0
   19.4766   18.3194   26.6548 N   0  3  0  0  0  0  0  0  0  0  0  0
   20.4287   18.0054   26.8693 H   0  0  0  0  0  0  0  0  0  0  0  0
   19.1213   17.7199   25.9037 H   0  0  0  0  0  0  0  0  0  0  0  0
   18.9049   18.1307   27.4854 H   0  0  0  0  0  0  0  0  0  0  0  0
  1  2  1  0  0  0  0
  1  3  1  0  0  0  0
  1  4  1  0  0  0  0
  1  5  1  0  0  0  0
  5  6  1  0  0  0  0
  5  7  1  0  0  0  0
  5  8  1  0  0  0  0
  8  9  1  0  0  0  0
  8 10  1  0  0  0  0
  8 11  1  0  0  0  0
 11 12  1  0  0  0  0
 11 13  1  0  0  0  0
 11 14  1  0  0  0  0
 14 15  1  0  0  0  0
 14 16  1  0  0  0  0
 14 17  1  0  0  0  0
 17 18  1  0  0  0  0
 17 19  1  0  0  0  0
 17 20  1  0  0  0  0
 20 21  1  0  0  0  0
 20 22  1  0  0  0  0
 20 23  1  0  0  0  0
 23 24  1  0  0  0  0
 23 25  1  0  0  0  0
 23 26  1  0  0  0  0
M  END
> <VConfSearch Rank>
897

> <Conf_Id>
17

> <Delta U+W>
0.843

> <U+W>
-4.709

> <U>
48.945

> <W>
-53.653

> <W(PB)>
-55.991

> <W(SA)>
2.338

> <Valence>
2.802

> <Coulomb>
45.335

> <VdW>
0.807

> <VdW6>
-6.962

> <VdW12>
7.769

> <Bond>
0.189

> <Angle>
0.696

> <Pdih>
1.917

> <Idih>
0.000

> <Tether>
0.000

$$$$
VeraChem MOL file


 26 25  0  0  0  0  0  0  0  0999 V2000     
   19.8869   15.7254   21.8976 C   0  0  0  0  0  0  0  0  0  0  0  0
   20.7843   16.1388   22.3743 H   0  0  0  0  0  0  0  0  0  0  0  0
   19.2412   15.3087   22.6815 H   0  0  0  0  0  0  0  0  0  0  0  0
   20.2082   14.8975   21.2524 H   0  0  0  0  0  0  0  0  0  0  0  0
   19.1381   16.7956   21.0713 C   0  0  0  0  0  0  0  0  0  0  0  0
   18.3237   16.3086   20.5168 H   0  0  0  0  0  0  0  0  0  0  0  0
   19.8143   17.2189   20.3154 H   0  0  0  0  0  0  0  0  0  0  0  0
   18.5400   17.9329   21.9343 C   0  0  0  0  0  0  0  0  0  0  0  0
   17.9355   18.5813   21.2851 H   0  0  0  0  0  0  0  0  0  0  0  0
   17.8492   17.5068   22.6749 H   0  0  0  0  0  0  0  0  0  0  0  0
   19.6097   18.7909   22.6515 C   0  0  0  0  0  0  0  0  0  0  0  0
   20.3267   19.1747   21.9127 H   0  0  0  0  0  0  0  0  0  0  0  0
   20.1758   18.1629   23.3507 H   0  0  0  0  0  0  0  0  0  0  0  0
   18.9734   19.9757   23.4175 C   0  0  0  0  0  0  0  0  0  0  0  0
   18.3733   20.5766   22.7203 H   0  0  0  0  0  0  0  0  0  0  0  0
   18.2773   19.5945   24.1777 H   0  0  0  0  0  0  0  0  0  0  0  0
   20.0190   20.8957   24.0906 C   0  0  0  0  0  0  0  0  0  0  0  0
   19.5022   21.7570   24.5346 H   0  0  0  0  0  0  0  0  0  0  0  0
   20.7018   21.2968   23.3298 H   0  0  0  0  0  0  0  0  0  0  0  0
   20.8287   20.1759   25.1854 C   0  0  0  0  0  0  0  0  0  0  0  0
   20.1491   19.7770   25.9433 H   0  0  0  0  0  0  0  0  0  0  0  0
   21.3843   19.3425   24.7478 H   0  0  0  0  0  0  0  0  0  0  0  0
   21.8234   21.0832   25.8801 N   0  3  0  0  0  0  0  0  0  0  0  0
   22.3518   20.5854   26.6050 H   0  0  0  0  0  0  0  0  0  0  0  0
   21.3622   21.8758   26.3387 H   0  0  0  0  0  0  0  0  0  0  0  0
   22.5093   21.4715   25.2244 H   0  0  0  0  0  0  0  0  0  0  0  0
  1  2  1  0  0  0  0
  1  3  1  0  0  0  0
  1  4  1  0  0  0  0
  1  5  1  0  0  0  0
  5  6  1  0  0  0  0
  5  7  1  0  0  0  0
  5  8  1  0  0  0  0
  8  9  1  0  0  0  0
  8 10  1  0  0  0  0
  8 11  1  0  0  0  0
 11 12  1  0  0  0  0
 11 13  1  0  0  0  0
 11 14  1  0  0  0  0
 14 15  1  0  0  0  0
 14 16  1  0  0  0  0
 14 17  1  0  0  0  0
 17 18  1  0  0  0  0
 17 19  1  0  0  0  0
 17 20  1  0  0  0  0
 20 21  1  0  0  0  0
 20 22  1  0  0  0  0
 20 23  1  0  0  0  0
 23 24  1  0  0  0  0
 23 25  1  0  0  0  0
 23 26  1  0  0  0  0
M  END
> <VConfSearch Rank>
898

> <Conf_Id>
96

> <Delta U+W>
0.912

> <U+W>
-4.640

> <U>
48.723

> <W>
-53.364

> <W(PB)>
-55.683

> <W(SA)>
2.320

> <Valence>
2.962

> <Coulomb>
44.993

> <VdW>
0.768

> <VdW6>
-7.008

> <VdW12>
7.776

> <Bond>
0.188

> <Angle>
0.757

> <Pdih>
2.018

> <Idih>
0.000

> <Tether>
0.000

$$$$
VeraChem MOL file


 26 25  0  0  0  0  0  0  0  0999 V2000     
   20.5869   22.2118   22.1774 C   0  0  0  0  0  0  0  0  0  0  0  0
   20.4687   23.3021   22.1293 H   0  0  0  0  0  0  0  0  0  0  0  0
   21.0262   21.8797   21.2279 H   0  0  0  0  0  0  0  0  0  0  0  0
   19.5842   21.7755   22.2643 H   0  0  0  0  0  0  0  0  0  0  0  0
   21.4838   21.8176   23.3729 C   0  0  0  0  0  0  0  0  0  0  0  0
   21.0077   22.1327   24.3119 H   0  0  0  0  0  0  0  0  0  0  0  0
   22.4286   22.3750   23.3053 H   0  0  0  0  0  0  0  0  0  0  0  0
   21.8037   20.3042   23.4301 C   0  0  0  0  0  0  0  0  0  0  0  0
   22.2977   19.9982   22.4976 H   0  0  0  0  0  0  0  0  0  0  0  0
   22.5307   20.1323   24.2358 H   0  0  0  0  0  0  0  0  0  0  0  0
   20.5580   19.4193   23.6754 C   0  0  0  0  0  0  0  0  0  0  0  0
   19.8546   19.5361   22.8415 H   0  0  0  0  0  0  0  0  0  0  0  0
   20.0397   19.7603   24.5822 H   0  0  0  0  0  0  0  0  0  0  0  0
   20.9377   17.9267   23.8279 C   0  0  0  0  0  0  0  0  0  0  0  0
   21.4303   17.5740   22.9111 H   0  0  0  0  0  0  0  0  0  0  0  0
   21.6744   17.8217   24.6364 H   0  0  0  0  0  0  0  0  0  0  0  0
   19.7245   17.0203   24.1430 C   0  0  0  0  0  0  0  0  0  0  0  0
   19.2442   17.3561   25.0717 H   0  0  0  0  0  0  0  0  0  0  0  0
   20.0816   15.9980   24.3256 H   0  0  0  0  0  0  0  0  0  0  0  0
   18.6882   16.9950   23.0038 C   0  0  0  0  0  0  0  0  0  0  0  0
   18.2910   18.0003   22.8419 H   0  0  0  0  0  0  0  0  0  0  0  0
   19.1661   16.6600   22.0792 H   0  0  0  0  0  0  0  0  0  0  0  0
   17.5191   16.0738   23.2864 N   0  3  0  0  0  0  0  0  0  0  0  0
   17.0095   16.3513   24.1317 H   0  0  0  0  0  0  0  0  0  0  0  0
   17.8212   15.1033   23.4211 H   0  0  0  0  0  0  0  0  0  0  0  0
   16.8412   16.0710   22.5164 H   0  0  0  0  0  0  0  0  0  0  0  0
  1  2  1  0  0  0  0
  1  3  1  0  0  0  0
  1  4  1  0  0  0  0
  1  5  1  0  0  0  0
  5  6  1  0  0  0  0
  5  7  1  0  0  0  0
  5  8  1  0  0  0  0
  8  9  1  0  0  0  0
  8 10  1  0  0  0  0
  8 11  1  0  0  0  0
 11 12  1  0  0  0  0
 11 13  1  0  0  0  0
 11 14  1  0  0  0  0
 14 15  1  0  0  0  0
 14 16  1  0  0  0  0
 14 17  1  0  0  0  0
 17 18  1  0  0  0  0
 17 19  1  0  0  0  0
 17 20  1  0  0  0  0
 20 21  1  0  0  0  0
 20 22  1  0  0  0  0
 20 23  1  0  0  0  0
 23 24  1  0  0  0  0
 23 25  1  0  0  0  0
 23 26  1  0  0  0  0
M  END
> <VConfSearch Rank>
899

> <Conf_Id>
133

> <Delta U+W>
0.844

> <U+W>
-4.708

> <U>
48.723

> <W>
-53.431

> <W(PB)>
-55.776

> <W(SA)>
2.344

> <Valence>
2.962

> <Coulomb>
44.993

> <VdW>
0.768

> <VdW6>
-7.008

> <VdW12>
7.776

> <Bond>
0.188

> <Angle>
0.756

> <Pdih>
2.018

> <Idih>
0.000

> <Tether>
0.000

$$$$
VeraChem MOL file


 26 25  0  0  0  0  0  0  0  0999 V2000     
   20.5315   16.1970   25.2314 C   0  0  0  0  0  0  0  0  0  0  0  0
   21.1027   15.3739   24.7829 H   0  0  0  0  0  0  0  0  0  0  0  0
   21.1305   17.1131   25.1557 H   0  0  0  0  0  0  0  0  0  0  0  0
   20.4019   15.9742   26.2984 H   0  0  0  0  0  0  0  0  0  0  0  0
   19.1582   16.3603   24.5417 C   0  0  0  0  0  0  0  0  0  0  0  0
   18.6143   17.2008   24.9930 H   0  0  0  0  0  0  0  0  0  0  0  0
   18.5518   15.4667   24.7455 H   0  0  0  0  0  0  0  0  0  0  0  0
   19.2578   16.5485   23.0064 C   0  0  0  0  0  0  0  0  0  0  0  0
   19.6933   15.6413   22.5655 H   0  0  0  0  0  0  0  0  0  0  0  0
   18.2428   16.6257   22.5929 H   0  0  0  0  0  0  0  0  0  0  0  0
   20.0860   17.7739   22.5408 C   0  0  0  0  0  0  0  0  0  0  0  0
   20.0967   17.7856   21.4422 H   0  0  0  0  0  0  0  0  0  0  0  0
   21.1329   17.6580   22.8512 H   0  0  0  0  0  0  0  0  0  0  0  0
   19.5336   19.1254   23.0537 C   0  0  0  0  0  0  0  0  0  0  0  0
   18.4734   19.2170   22.7796 H   0  0  0  0  0  0  0  0  0  0  0  0
   19.5845   19.1584   24.1501 H   0  0  0  0  0  0  0  0  0  0  0  0
   20.3203   20.3229   22.4768 C   0  0  0  0  0  0  0  0  0  0  0  0
   20.2673   20.3071   21.3800 H   0  0  0  0  0  0  0  0  0  0  0  0
   21.3803   20.2346   22.7499 H   0  0  0  0  0  0  0  0  0  0  0  0
   19.7678   21.6620   22.9960 C   0  0  0  0  0  0  0  0  0  0  0  0
   18.7165   21.7612   22.7123 H   0  0  0  0  0  0  0  0  0  0  0  0
   19.8338   21.6893   24.0870 H   0  0  0  0  0  0  0  0  0  0  0  0
   20.5143   22.8629   22.4521 N   0  3  0  0  0  0  0  0  0  0  0  0
   20.1304   23.7443   22.8101 H   0  0  0  0  0  0  0  0  0  0  0  0
   20.4672   22.9109   21.4290 H   0  0  0  0  0  0  0  0  0  0  0  0
   21.5069   22.8440   22.7080 H   0  0  0  0  0  0  0  0  0  0  0  0
  1  2  1  0  0  0  0
  1  3  1  0  0  0  0
  1  4  1  0  0  0  0
  1  5  1  0  0  0  0
  5  6  1  0  0  0  0
  5  7  1  0  0  0  0
  5  8  1  0  0  0  0
  8  9  1  0  0  0  0
  8 10  1  0  0  0  0
  8 11  1  0  0  0  0
 11 12  1  0  0  0  0
 11 13  1  0  0  0  0
 11 14  1  0  0  0  0
 14 15  1  0  0  0  0
 14 16  1  0  0  0  0
 14 17  1  0  0  0  0
 17 18  1  0  0  0  0
 17 19  1  0  0  0  0
 17 20  1  0  0  0  0
 20 21  1  0  0  0  0
 20 22  1  0  0  0  0
 20 23  1  0  0  0  0
 23 24  1  0  0  0  0
 23 25  1  0  0  0  0
 23 26  1  0  0  0  0
M  END
> <VConfSearch Rank>
900

> <Conf_Id>
106

> <Delta U+W>
0.767

> <U+W>
-4.785

> <U>
48.494

> <W>
-53.279

> <W(PB)>
-55.569

> <W(SA)>
2.290

> <Valence>
3.117

> <Coulomb>
44.693

> <VdW>
0.684

> <VdW6>
-7.347

> <VdW12>
8.030

> <Bond>
0.208

> <Angle>
1.039

> <Pdih>
1.870

> <Idih>
0.000

> <Tether>
0.000

$$$$
VeraChem MOL file


 26 25  0  0  0  0  0  0  0  0999 V2000     
   23.6577   21.5502   23.2748 C   0  0  0  0  0  0  0  0  0  0  0  0
   23.1017   22.4960   23.3128 H   0  0  0  0  0  0  0  0  0  0  0  0
   23.9695   21.2957   24.2962 H   0  0  0  0  0  0  0  0  0  0  0  0
   24.5635   21.7156   22.6773 H   0  0  0  0  0  0  0  0  0  0  0  0
   22.7976   20.4253   22.6608 C   0  0  0  0  0  0  0  0  0  0  0  0
   23.3910   19.5019   22.6049 H   0  0  0  0  0  0  0  0  0  0  0  0
   22.5299   20.6930   21.6290 H   0  0  0  0  0  0  0  0  0  0  0  0
   21.5149   20.1720   23.4834 C   0  0  0  0  0  0  0  0  0  0  0  0
   21.7874   19.9072   24.5145 H   0  0  0  0  0  0  0  0  0  0  0  0
   20.9262   21.0983   23.5383 H   0  0  0  0  0  0  0  0  0  0  0  0
   20.6510   19.0460   22.8717 C   0  0  0  0  0  0  0  0  0  0  0  0
   21.2405   18.1203   22.8169 H   0  0  0  0  0  0  0  0  0  0  0  0
   20.3793   19.3115   21.8406 H   0  0  0  0  0  0  0  0  0  0  0  0
   19.3677   18.7932   23.6950 C   0  0  0  0  0  0  0  0  0  0  0  0
   19.6390   18.5277   24.7264 H   0  0  0  0  0  0  0  0  0  0  0  0
   18.7778   19.7188   23.7499 H   0  0  0  0  0  0  0  0  0  0  0  0
   18.5038   17.6679   23.0843 C   0  0  0  0  0  0  0  0  0  0  0  0
   19.0881   16.7394   23.0327 H   0  0  0  0  0  0  0  0  0  0  0  0
   18.2262   17.9318   22.0550 H   0  0  0  0  0  0  0  0  0  0  0  0
   17.2291   17.4247   23.9114 C   0  0  0  0  0  0  0  0  0  0  0  0
   17.5009   17.1454   24.9330 H   0  0  0  0  0  0  0  0  0  0  0  0
   16.6359   18.3422   23.9519 H   0  0  0  0  0  0  0  0  0  0  0  0
   16.3536   16.3263   23.3436 N   0  3  0  0  0  0  0  0  0  0  0  0
   15.5103   16.1806   23.9093 H   0  0  0  0  0  0  0  0  0  0  0  0
   16.8453   15.4275   23.3041 H   0  0  0  0  0  0  0  0  0  0  0  0
   16.0404   16.5411   22.3912 H   0  0  0  0  0  0  0  0  0  0  0  0
  1  2  1  0  0  0  0
  1  3  1  0  0  0  0
  1  4  1  0  0  0  0
  1  5  1  0  0  0  0
  5  6  1  0  0  0  0
  5  7  1  0  0  0  0
  5  8  1  0  0  0  0
  8  9  1  0  0  0  0
  8 10  1  0  0  0  0
  8 11  1  0  0  0  0
 11 12  1  0  0  0  0
 11 13  1  0  0  0  0
 11 14  1  0  0  0  0
 14 15  1  0  0  0  0
 14 16  1  0  0  0  0
 14 17  1  0  0  0  0
 17 18  1  0  0  0  0
 17 19  1  0  0  0  0
 17 20  1  0  0  0  0
 20 21  1  0  0  0  0
 20 22  1  0  0  0  0
 20 23  1  0  0  0  0
 23 24  1  0  0  0  0
 23 25  1  0  0  0  0
 23 26  1  0  0  0  0
M  END
> <VConfSearch Rank>
901

> <Conf_Id>
25

> <Delta U+W>
0.000

> <U+W>
-5.552

> <U>
47.192

> <W>
-52.745

> <W(PB)>
-55.134

> <W(SA)>
2.389

> <Valence>
2.156

> <Coulomb>
44.449

> <VdW>
0.587

> <VdW6>
-5.761

> <VdW12>
6.348

> <Bond>
0.129

> <Angle>
0.393

> <Pdih>
1.634

> <Idih>
0.000

> <Tether>
0.000

$$$$
VeraChem MOL file


 26 25  0  0  0  0  0  0  0  0999 V2000     
   18.8363   19.7290   19.1840 C   0  0  0  0  0  0  0  0  0  0  0  0
   19.7348   20.3018   18.9197 H   0  0  0  0  0  0  0  0  0  0  0  0
   19.0065   18.6799   18.9092 H   0  0  0  0  0  0  0  0  0  0  0  0
   18.0048   20.1064   18.5747 H   0  0  0  0  0  0  0  0  0  0  0  0
   18.5150   19.8636   20.6876 C   0  0  0  0  0  0  0  0  0  0  0  0
   17.5938   19.3088   20.9146 H   0  0  0  0  0  0  0  0  0  0  0  0
   18.3165   20.9182   20.9250 H   0  0  0  0  0  0  0  0  0  0  0  0
   19.6703   19.3391   21.5688 C   0  0  0  0  0  0  0  0  0  0  0  0
   19.8665   18.2855   21.3261 H   0  0  0  0  0  0  0  0  0  0  0  0
   20.5892   19.8951   21.3368 H   0  0  0  0  0  0  0  0  0  0  0  0
   19.3521   19.4722   23.0753 C   0  0  0  0  0  0  0  0  0  0  0  0
   18.4331   18.9158   23.3065 H   0  0  0  0  0  0  0  0  0  0  0  0
   19.1550   20.5260   23.3164 H   0  0  0  0  0  0  0  0  0  0  0  0
   20.5084   18.9479   23.9565 C   0  0  0  0  0  0  0  0  0  0  0  0
   20.7042   17.8963   23.7079 H   0  0  0  0  0  0  0  0  0  0  0  0
   21.4266   19.5064   23.7273 H   0  0  0  0  0  0  0  0  0  0  0  0
   20.1874   19.0812   25.4640 C   0  0  0  0  0  0  0  0  0  0  0  0
   19.2883   18.5008   25.7104 H   0  0  0  0  0  0  0  0  0  0  0  0
   19.9568   20.1296   25.6955 H   0  0  0  0  0  0  0  0  0  0  0  0
   21.3540   18.6289   26.3634 C   0  0  0  0  0  0  0  0  0  0  0  0
   22.2525   19.2007   26.1163 H   0  0  0  0  0  0  0  0  0  0  0  0
   21.1024   18.8244   27.4094 H   0  0  0  0  0  0  0  0  0  0  0  0
   21.6852   17.1546   26.2383 N   0  3  0  0  0  0  0  0  0  0  0  0
   21.9670   16.9084   25.2844 H   0  0  0  0  0  0  0  0  0  0  0  0
   20.8841   16.5625   26.4804 H   0  0  0  0  0  0  0  0  0  0  0  0
   22.4562   16.8837   26.8584 H   0  0  0  0  0  0  0  0  0  0  0  0
  1  2  1  0  0  0  0
  1  3  1  0  0  0  0
  1  4  1  0  0  0  0
  1  5  1  0  0  0  0
  5  6  1  0  0  0  0
  5  7  1  0  0  0  0
  5  8  1  0  0  0  0
  8  9  1  0  0  0  0
  8 10  1  0  0  0  0
  8 11  1  0  0  0  0
 11 12  1  0  0  0  0
 11 13  1  0  0  0  0
 11 14  1  0  0  0  0
 14 15  1  0  0  0  0
 14 16  1  0  0  0  0
 14 17  1  0  0  0  0
 17 18  1  0  0  0  0
 17 19  1  0  0  0  0
 17 20  1  0  0  0  0
 20 21  1  0  0  0  0
 20 22  1  0  0  0  0
 20 23  1  0  0  0  0
 23 24  1  0  0  0  0
 23 25  1  0  0  0  0
 23 26  1  0  0  0  0
M  END
> <VConfSearch Rank>
902

> <Conf_Id>
20

> <Delta U+W>
0.150

> <U+W>
-5.403

> <U>
47.845

> <W>
-53.248

> <W(PB)>
-55.599

> <W(SA)>
2.351

> <Valence>
2.258

> <Coulomb>
44.893

> <VdW>
0.694

> <VdW6>
-6.285

> <VdW12>
6.979

> <Bond>
0.149

> <Angle>
0.434

> <Pdih>
1.675

> <Idih>
0.000

> <Tether>
0.000

$$$$
VeraChem MOL file


 26 25  0  0  0  0  0  0  0  0999 V2000     
   23.3144   19.5670   20.6311 C   0  0  0  0  0  0  0  0  0  0  0  0
   23.6652   20.4160   21.2322 H   0  0  0  0  0  0  0  0  0  0  0  0
   23.8633   18.6716   20.9508 H   0  0  0  0  0  0  0  0  0  0  0  0
   23.5747   19.7656   19.5833 H   0  0  0  0  0  0  0  0  0  0  0  0
   21.7916   19.3690   20.7861 C   0  0  0  0  0  0  0  0  0  0  0  0
   21.4655   18.5358   20.1478 H   0  0  0  0  0  0  0  0  0  0  0  0
   21.2689   20.2667   20.4272 H   0  0  0  0  0  0  0  0  0  0  0  0
   21.3977   19.0875   22.2530 C   0  0  0  0  0  0  0  0  0  0  0  0
   21.9243   18.1907   22.6079 H   0  0  0  0  0  0  0  0  0  0  0  0
   21.7279   19.9218   22.8873 H   0  0  0  0  0  0  0  0  0  0  0  0
   19.8734   18.8887   22.4123 C   0  0  0  0  0  0  0  0  0  0  0  0
   19.5442   18.0549   21.7766 H   0  0  0  0  0  0  0  0  0  0  0  0
   19.3474   19.7859   22.0574 H   0  0  0  0  0  0  0  0  0  0  0  0
   19.4797   18.6063   23.8798 C   0  0  0  0  0  0  0  0  0  0  0  0
   20.0034   17.7072   24.2336 H   0  0  0  0  0  0  0  0  0  0  0  0
   19.8153   19.4400   24.5110 H   0  0  0  0  0  0  0  0  0  0  0  0
   17.9534   18.4085   24.0372 C   0  0  0  0  0  0  0  0  0  0  0  0
   17.6216   17.5979   23.3748 H   0  0  0  0  0  0  0  0  0  0  0  0
   17.4213   19.3137   23.7155 H   0  0  0  0  0  0  0  0  0  0  0  0
   17.5442   18.0568   25.4805 C   0  0  0  0  0  0  0  0  0  0  0  0
   16.4716   17.8469   25.5124 H   0  0  0  0  0  0  0  0  0  0  0  0
   18.0770   17.1591   25.8058 H   0  0  0  0  0  0  0  0  0  0  0  0
   17.8266   19.1602   26.4812 N   0  3  0  0  0  0  0  0  0  0  0  0
   17.3338   20.0267   26.2417 H   0  0  0  0  0  0  0  0  0  0  0  0
   18.8257   19.3828   26.5292 H   0  0  0  0  0  0  0  0  0  0  0  0
   17.5313   18.8998   27.4284 H   0  0  0  0  0  0  0  0  0  0  0  0
  1  2  1  0  0  0  0
  1  3  1  0  0  0  0
  1  4  1  0  0  0  0
  1  5  1  0  0  0  0
  5  6  1  0  0  0  0
  5  7  1  0  0  0  0
  5  8  1  0  0  0  0
  8  9  1  0  0  0  0
  8 10  1  0  0  0  0
  8 11  1  0  0  0  0
 11 12  1  0  0  0  0
 11 13  1  0  0  0  0
 11 14  1  0  0  0  0
 14 15  1  0  0  0  0
 14 16  1  0  0  0  0
 14 17  1  0  0  0  0
 17 18  1  0  0  0  0
 17 19  1  0  0  0  0
 17 20  1  0  0  0  0
 20 21  1  0  0  0  0
 20 22  1  0  0  0  0
 20 23  1  0  0  0  0
 23 24  1  0  0  0  0
 23 25  1  0  0  0  0
 23 26  1  0  0  0  0
M  END
> <VConfSearch Rank>
903

> <Conf_Id>
19

> <Delta U+W>
0.162

> <U+W>
-5.391

> <U>
47.845

> <W>
-53.235

> <W(PB)>
-55.585

> <W(SA)>
2.349

> <Valence>
2.258

> <Coulomb>
44.893

> <VdW>
0.694

> <VdW6>
-6.285

> <VdW12>
6.979

> <Bond>
0.149

> <Angle>
0.434

> <Pdih>
1.675

> <Idih>
0.000

> <Tether>
0.000

$$$$
VeraChem MOL file


 26 25  0  0  0  0  0  0  0  0999 V2000     
   21.6011   16.6706   26.4424 C   0  0  0  0  0  0  0  0  0  0  0  0
   22.5829   16.2197   26.2473 H   0  0  0  0  0  0  0  0  0  0  0  0
   21.7409   17.5048   27.1422 H   0  0  0  0  0  0  0  0  0  0  0  0
   20.9767   15.9159   26.9379 H   0  0  0  0  0  0  0  0  0  0  0  0
   20.9400   17.1504   25.1328 C   0  0  0  0  0  0  0  0  0  0  0  0
   19.9462   17.5560   25.3638 H   0  0  0  0  0  0  0  0  0  0  0  0
   20.7866   16.2904   24.4661 H   0  0  0  0  0  0  0  0  0  0  0  0
   21.8008   18.2188   24.4180 C   0  0  0  0  0  0  0  0  0  0  0  0
   21.9096   19.1003   25.0648 H   0  0  0  0  0  0  0  0  0  0  0  0
   22.8135   17.8194   24.2690 H   0  0  0  0  0  0  0  0  0  0  0  0
   21.2369   18.6507   23.0420 C   0  0  0  0  0  0  0  0  0  0  0  0
   21.1430   17.7708   22.3907 H   0  0  0  0  0  0  0  0  0  0  0  0
   21.9682   19.3143   22.5600 H   0  0  0  0  0  0  0  0  0  0  0  0
   19.8759   19.3821   23.1325 C   0  0  0  0  0  0  0  0  0  0  0  0
   19.1130   18.7070   23.5420 H   0  0  0  0  0  0  0  0  0  0  0  0
   19.9593   20.2295   23.8272 H   0  0  0  0  0  0  0  0  0  0  0  0
   19.4068   19.8931   21.7524 C   0  0  0  0  0  0  0  0  0  0  0  0
   19.3211   19.0489   21.0552 H   0  0  0  0  0  0  0  0  0  0  0  0
   20.1567   20.5796   21.3370 H   0  0  0  0  0  0  0  0  0  0  0  0
   18.0516   20.6155   21.8503 C   0  0  0  0  0  0  0  0  0  0  0  0
   17.2973   19.9310   22.2478 H   0  0  0  0  0  0  0  0  0  0  0  0
   18.1365   21.4669   22.5310 H   0  0  0  0  0  0  0  0  0  0  0  0
   17.5566   21.1322   20.5148 N   0  3  0  0  0  0  0  0  0  0  0  0
   17.4292   20.3749   19.8354 H   0  0  0  0  0  0  0  0  0  0  0  0
   18.2100   21.8040   20.0989 H   0  0  0  0  0  0  0  0  0  0  0  0
   16.6529   21.6099   20.6023 H   0  0  0  0  0  0  0  0  0  0  0  0
  1  2  1  0  0  0  0
  1  3  1  0  0  0  0
  1  4  1  0  0  0  0
  1  5  1  0  0  0  0
  5  6  1  0  0  0  0
  5  7  1  0  0  0  0
  5  8  1  0  0  0  0
  8  9  1  0  0  0  0
  8 10  1  0  0  0  0
  8 11  1  0  0  0  0
 11 12  1  0  0  0  0
 11 13  1  0  0  0  0
 11 14  1  0  0  0  0
 14 15  1  0  0  0  0
 14 16  1  0  0  0  0
 14 17  1  0  0  0  0
 17 18  1  0  0  0  0
 17 19  1  0  0  0  0
 17 20  1  0  0  0  0
 20 21  1  0  0  0  0
 20 22  1  0  0  0  0
 20 23  1  0  0  0  0
 23 24  1  0  0  0  0
 23 25  1  0  0  0  0
 23 26  1  0  0  0  0
M  END
> <VConfSearch Rank>
904

> <Conf_Id>
37

> <Delta U+W>
0.565

> <U+W>
-4.988

> <U>
48.035

> <W>
-53.022

> <W(PB)>
-55.379

> <W(SA)>
2.357

> <Valence>
2.701

> <Coulomb>
44.622

> <VdW>
0.712

> <VdW6>
-6.418

> <VdW12>
7.129

> <Bond>
0.168

> <Angle>
0.659

> <Pdih>
1.875

> <Idih>
0.000

> <Tether>
0.000

$$$$
VeraChem MOL file


 26 25  0  0  0  0  0  0  0  0999 V2000     
   23.2822   17.6518   25.1825 C   0  0  0  0  0  0  0  0  0  0  0  0
   23.0709   16.7319   24.6218 H   0  0  0  0  0  0  0  0  0  0  0  0
   23.9601   18.2710   24.5808 H   0  0  0  0  0  0  0  0  0  0  0  0
   23.8100   17.3714   26.1033 H   0  0  0  0  0  0  0  0  0  0  0  0
   21.9802   18.4128   25.5110 C   0  0  0  0  0  0  0  0  0  0  0  0
   22.2209   19.3082   26.1012 H   0  0  0  0  0  0  0  0  0  0  0  0
   21.3376   17.7814   26.1405 H   0  0  0  0  0  0  0  0  0  0  0  0
   21.2173   18.8205   24.2311 C   0  0  0  0  0  0  0  0  0  0  0  0
   21.8628   19.4531   23.6063 H   0  0  0  0  0  0  0  0  0  0  0  0
   20.9915   17.9188   23.6470 H   0  0  0  0  0  0  0  0  0  0  0  0
   19.9094   19.5802   24.5596 C   0  0  0  0  0  0  0  0  0  0  0  0
   20.1460   20.4348   25.2085 H   0  0  0  0  0  0  0  0  0  0  0  0
   19.2385   18.9303   25.1383 H   0  0  0  0  0  0  0  0  0  0  0  0
   19.1676   20.1074   23.3068 C   0  0  0  0  0  0  0  0  0  0  0  0
   18.3228   20.7276   23.6375 H   0  0  0  0  0  0  0  0  0  0  0  0
   19.8326   20.7713   22.7370 H   0  0  0  0  0  0  0  0  0  0  0  0
   18.6354   18.9857   22.3842 C   0  0  0  0  0  0  0  0  0  0  0  0
   18.0116   18.2936   22.9654 H   0  0  0  0  0  0  0  0  0  0  0  0
   19.4709   18.4038   21.9752 H   0  0  0  0  0  0  0  0  0  0  0  0
   17.8104   19.5626   21.2203 C   0  0  0  0  0  0  0  0  0  0  0  0
   16.9630   20.1296   21.6152 H   0  0  0  0  0  0  0  0  0  0  0  0
   18.4321   20.2402   20.6288 H   0  0  0  0  0  0  0  0  0  0  0  0
   17.2668   18.4959   20.2917 N   0  3  0  0  0  0  0  0  0  0  0  0
   16.6503   17.8400   20.7824 H   0  0  0  0  0  0  0  0  0  0  0  0
   18.0169   17.9431   19.8639 H   0  0  0  0  0  0  0  0  0  0  0  0
   16.7203   18.9018   19.5242 H   0  0  0  0  0  0  0  0  0  0  0  0
  1  2  1  0  0  0  0
  1  3  1  0  0  0  0
  1  4  1  0  0  0  0
  1  5  1  0  0  0  0
  5  6  1  0  0  0  0
  5  7  1  0  0  0  0
  5  8  1  0  0  0  0
  8  9  1  0  0  0  0
  8 10  1  0  0  0  0
  8 11  1  0  0  0  0
 11 12  1  0  0  0  0
 11 13  1  0  0  0  0
 11 14  1  0  0  0  0
 14 15  1  0  0  0  0
 14 16  1  0  0  0  0
 14 17  1  0  0  0  0
 17 18  1  0  0  0  0
 17 19  1  0  0  0  0
 17 20  1  0  0  0  0
 20 21  1  0  0  0  0
 20 22  1  0  0  0  0
 20 23  1  0  0  0  0
 23 24  1  0  0  0  0
 23 25  1  0  0  0  0
 23 26  1  0  0  0  0
M  END
> <VConfSearch Rank>
905

> <Conf_Id>
35

> <Delta U+W>
0.587

> <U+W>
-4.965

> <U>
48.214

> <W>
-53.179

> <W(PB)>
-55.527

> <W(SA)>
2.348

> <Valence>
2.697

> <Coulomb>
44.819

> <VdW>
0.699

> <VdW6>
-6.437

> <VdW12>
7.136

> <Bond>
0.168

> <Angle>
0.657

> <Pdih>
1.872

> <Idih>
0.000

> <Tether>
0.000

$$$$
VeraChem MOL file


 26 25  0  0  0  0  0  0  0  0999 V2000     
   16.3465   19.6572   24.6916 C   0  0  0  0  0  0  0  0  0  0  0  0
   16.5591   19.2848   25.7022 H   0  0  0  0  0  0  0  0  0  0  0  0
   16.6840   20.7002   24.6334 H   0  0  0  0  0  0  0  0  0  0  0  0
   15.2579   19.6469   24.5508 H   0  0  0  0  0  0  0  0  0  0  0  0
   17.0424   18.7882   23.6225 C   0  0  0  0  0  0  0  0  0  0  0  0
   16.7846   19.1644   22.6225 H   0  0  0  0  0  0  0  0  0  0  0  0
   16.6589   17.7600   23.6830 H   0  0  0  0  0  0  0  0  0  0  0  0
   18.5772   18.7845   23.7983 C   0  0  0  0  0  0  0  0  0  0  0  0
   18.9456   19.8173   23.7451 H   0  0  0  0  0  0  0  0  0  0  0  0
   18.8298   18.4059   24.7984 H   0  0  0  0  0  0  0  0  0  0  0  0
   19.2761   17.9167   22.7242 C   0  0  0  0  0  0  0  0  0  0  0  0
   19.0697   18.3254   21.7254 H   0  0  0  0  0  0  0  0  0  0  0  0
   18.8402   16.9082   22.7406 H   0  0  0  0  0  0  0  0  0  0  0  0
   20.8062   17.7921   22.9276 C   0  0  0  0  0  0  0  0  0  0  0  0
   21.0125   17.3670   23.9198 H   0  0  0  0  0  0  0  0  0  0  0  0
   21.1971   17.0710   22.1962 H   0  0  0  0  0  0  0  0  0  0  0  0
   21.5637   19.1310   22.7661 C   0  0  0  0  0  0  0  0  0  0  0  0
   21.2477   19.8404   23.5411 H   0  0  0  0  0  0  0  0  0  0  0  0
   21.3175   19.5803   21.7948 H   0  0  0  0  0  0  0  0  0  0  0  0
   23.0860   18.9282   22.8641 C   0  0  0  0  0  0  0  0  0  0  0  0
   23.3378   18.4957   23.8363 H   0  0  0  0  0  0  0  0  0  0  0  0
   23.4163   18.2368   22.0841 H   0  0  0  0  0  0  0  0  0  0  0  0
   23.8680   20.2165   22.7085 N   0  3  0  0  0  0  0  0  0  0  0  0
   23.6237   20.9017   23.4311 H   0  0  0  0  0  0  0  0  0  0  0  0
   23.6959   20.6607   21.8006 H   0  0  0  0  0  0  0  0  0  0  0  0
   24.8794   20.0586   22.7766 H   0  0  0  0  0  0  0  0  0  0  0  0
  1  2  1  0  0  0  0
  1  3  1  0  0  0  0
  1  4  1  0  0  0  0
  1  5  1  0  0  0  0
  5  6  1  0  0  0  0
  5  7  1  0  0  0  0
  5  8  1  0  0  0  0
  8  9  1  0  0  0  0
  8 10  1  0  0  0  0
  8 11  1  0  0  0  0
 11 12  1  0  0  0  0
 11 13  1  0  0  0  0
 11 14  1  0  0  0  0
 14 15  1  0  0  0  0
 14 16  1  0  0  0  0
 14 17  1  0  0  0  0
 17 18  1  0  0  0  0
 17 19  1  0  0  0  0
 17 20  1  0  0  0  0
 20 21  1  0  0  0  0
 20 22  1  0  0  0  0
 20 23  1  0  0  0  0
 23 24  1  0  0  0  0
 23 25  1  0  0  0  0
 23 26  1  0  0  0  0
M  END
> <VConfSearch Rank>
906

> <Conf_Id>
36

> <Delta U+W>
0.565

> <U+W>
-4.987

> <U>
48.214

> <W>
-53.201

> <W(PB)>
-55.543

> <W(SA)>
2.342

> <Valence>
2.697

> <Coulomb>
44.819

> <VdW>
0.698

> <VdW6>
-6.437

> <VdW12>
7.136

> <Bond>
0.168

> <Angle>
0.657

> <Pdih>
1.872

> <Idih>
0.000

> <Tether>
0.000

$$$$
VeraChem MOL file


 26 25  0  0  0  0  0  0  0  0999 V2000     
   23.6482   21.1376   23.0649 C   0  0  0  0  0  0  0  0  0  0  0  0
   23.6509   21.6706   24.0247 H   0  0  0  0  0  0  0  0  0  0  0  0
   24.6839   20.8583   22.8317 H   0  0  0  0  0  0  0  0  0  0  0  0
   23.3038   21.8332   22.2885 H   0  0  0  0  0  0  0  0  0  0  0  0
   22.7472   19.8861   23.1278 C   0  0  0  0  0  0  0  0  0  0  0  0
   23.1360   19.1949   23.8887 H   0  0  0  0  0  0  0  0  0  0  0  0
   22.7916   19.3563   22.1659 H   0  0  0  0  0  0  0  0  0  0  0  0
   21.2823   20.2516   23.4550 C   0  0  0  0  0  0  0  0  0  0  0  0
   21.2438   20.7834   24.4158 H   0  0  0  0  0  0  0  0  0  0  0  0
   20.8987   20.9441   22.6929 H   0  0  0  0  0  0  0  0  0  0  0  0
   20.3768   19.0009   23.5192 C   0  0  0  0  0  0  0  0  0  0  0  0
   20.7600   18.3106   24.2834 H   0  0  0  0  0  0  0  0  0  0  0  0
   20.4253   18.4713   22.5583 H   0  0  0  0  0  0  0  0  0  0  0  0
   18.9099   19.3704   23.8458 C   0  0  0  0  0  0  0  0  0  0  0  0
   18.8816   19.9417   24.7840 H   0  0  0  0  0  0  0  0  0  0  0  0
   18.5122   20.0345   23.0657 H   0  0  0  0  0  0  0  0  0  0  0  0
   17.9901   18.1352   23.9896 C   0  0  0  0  0  0  0  0  0  0  0  0
   16.9929   18.4686   24.3065 H   0  0  0  0  0  0  0  0  0  0  0  0
   18.3711   17.4820   24.7860 H   0  0  0  0  0  0  0  0  0  0  0  0
   17.8603   17.3341   22.6805 C   0  0  0  0  0  0  0  0  0  0  0  0
   17.4800   17.9840   21.8877 H   0  0  0  0  0  0  0  0  0  0  0  0
   18.8410   16.9585   22.3774 H   0  0  0  0  0  0  0  0  0  0  0  0
   16.9257   16.1479   22.8016 N   0  3  0  0  0  0  0  0  0  0  0  0
   16.8531   15.6283   21.9201 H   0  0  0  0  0  0  0  0  0  0  0  0
   15.9753   16.4349   23.0577 H   0  0  0  0  0  0  0  0  0  0  0  0
   17.2426   15.4829   23.5148 H   0  0  0  0  0  0  0  0  0  0  0  0
  1  2  1  0  0  0  0
  1  3  1  0  0  0  0
  1  4  1  0  0  0  0
  1  5  1  0  0  0  0
  5  6  1  0  0  0  0
  5  7  1  0  0  0  0
  5  8  1  0  0  0  0
  8  9  1  0  0  0  0
  8 10  1  0  0  0  0
  8 11  1  0  0  0  0
 11 12  1  0  0  0  0
 11 13  1  0  0  0  0
 11 14  1  0  0  0  0
 14 15  1  0  0  0  0
 14 16  1  0  0  0  0
 14 17  1  0  0  0  0
 17 18  1  0  0  0  0
 17 19  1  0  0  0  0
 17 20  1  0  0  0  0
 20 21  1  0  0  0  0
 20 22  1  0  0  0  0
 20 23  1  0  0  0  0
 23 24  1  0  0  0  0
 23 25  1  0  0  0  0
 23 26  1  0  0  0  0
M  END
> <VConfSearch Rank>
907

> <Conf_Id>
44

> <Delta U+W>
0.371

> <U+W>
-5.181

> <U>
48.002

> <W>
-53.183

> <W(PB)>
-55.533

> <W(SA)>
2.350

> <Valence>
2.459

> <Coulomb>
44.901

> <VdW>
0.643

> <VdW6>
-6.362

> <VdW12>
7.005

> <Bond>
0.151

> <Angle>
0.519

> <Pdih>
1.789

> <Idih>
0.000

> <Tether>
0.000

$$$$
VeraChem MOL file


 26 25  0  0  0  0  0  0  0  0999 V2000     
   16.1555   19.7113   23.0219 C   0  0  0  0  0  0  0  0  0  0  0  0
   15.8614   18.8373   23.6175 H   0  0  0  0  0  0  0  0  0  0  0  0
   15.2765   20.3616   22.9242 H   0  0  0  0  0  0  0  0  0  0  0  0
   16.4236   19.3678   22.0153 H   0  0  0  0  0  0  0  0  0  0  0  0
   17.3202   20.4748   23.6926 C   0  0  0  0  0  0  0  0  0  0  0  0
   16.9605   20.9067   24.6370 H   0  0  0  0  0  0  0  0  0  0  0  0
   17.6191   21.3231   23.0612 H   0  0  0  0  0  0  0  0  0  0  0  0
   18.5514   19.5855   23.9925 C   0  0  0  0  0  0  0  0  0  0  0  0
   19.2592   20.1778   24.5860 H   0  0  0  0  0  0  0  0  0  0  0  0
   18.2473   18.7401   24.6249 H   0  0  0  0  0  0  0  0  0  0  0  0
   19.2566   19.0581   22.7168 C   0  0  0  0  0  0  0  0  0  0  0  0
   19.5644   19.9033   22.0860 H   0  0  0  0  0  0  0  0  0  0  0  0
   18.5431   18.4731   22.1224 H   0  0  0  0  0  0  0  0  0  0  0  0
   20.4817   18.1574   23.0117 C   0  0  0  0  0  0  0  0  0  0  0  0
   20.1765   17.3200   23.6544 H   0  0  0  0  0  0  0  0  0  0  0  0
   20.8132   17.7133   22.0638 H   0  0  0  0  0  0  0  0  0  0  0  0
   21.6664   18.9131   23.6649 C   0  0  0  0  0  0  0  0  0  0  0  0
   21.3591   19.3207   24.6356 H   0  0  0  0  0  0  0  0  0  0  0  0
   21.9570   19.7690   23.0415 H   0  0  0  0  0  0  0  0  0  0  0  0
   22.8917   18.0080   23.8981 C   0  0  0  0  0  0  0  0  0  0  0  0
   23.6546   18.5664   24.4476 H   0  0  0  0  0  0  0  0  0  0  0  0
   22.6015   17.1437   24.5015 H   0  0  0  0  0  0  0  0  0  0  0  0
   23.5289   17.4982   22.6202 N   0  3  0  0  0  0  0  0  0  0  0  0
   22.8766   16.9307   22.0704 H   0  0  0  0  0  0  0  0  0  0  0  0
   24.3489   16.9123   22.8112 H   0  0  0  0  0  0  0  0  0  0  0  0
   23.8436   18.2666   22.0188 H   0  0  0  0  0  0  0  0  0  0  0  0
  1  2  1  0  0  0  0
  1  3  1  0  0  0  0
  1  4  1  0  0  0  0
  1  5  1  0  0  0  0
  5  6  1  0  0  0  0
  5  7  1  0  0  0  0
  5  8  1  0  0  0  0
  8  9  1  0  0  0  0
  8 10  1  0  0  0  0
  8 11  1  0  0  0  0
 11 12  1  0  0  0  0
 11 13  1  0  0  0  0
 11 14  1  0  0  0  0
 14 15  1  0  0  0  0
 14 16  1  0  0  0  0
 14 17  1  0  0  0  0
 17 18  1  0  0  0  0
 17 19  1  0  0  0  0
 17 20  1  0  0  0  0
 20 21  1  0  0  0  0
 20 22  1  0  0  0  0
 20 23  1  0  0  0  0
 23 24  1  0  0  0  0
 23 25  1  0  0  0  0
 23 26  1  0  0  0  0
M  END
> <VConfSearch Rank>
908

> <Conf_Id>
112

> <Delta U+W>
1.422

> <U+W>
-4.130

> <U>
49.323

> <W>
-53.453

> <W(PB)>
-55.749

> <W(SA)>
2.296

> <Valence>
3.408

> <Coulomb>
44.893

> <VdW>
1.021

> <VdW6>
-7.481

> <VdW12>
8.503

> <Bond>
0.239

> <Angle>
1.013

> <Pdih>
2.156

> <Idih>
0.000

> <Tether>
0.000

$$$$
VeraChem MOL file


 26 25  0  0  0  0  0  0  0  0999 V2000     
   19.0437   21.5727   25.6481 C   0  0  0  0  0  0  0  0  0  0  0  0
   18.5584   22.3838   26.2062 H   0  0  0  0  0  0  0  0  0  0  0  0
   18.7961   20.6307   26.1529 H   0  0  0  0  0  0  0  0  0  0  0  0
   20.1292   21.7231   25.7129 H   0  0  0  0  0  0  0  0  0  0  0  0
   18.5700   21.5694   24.1770 C   0  0  0  0  0  0  0  0  0  0  0  0
   18.7333   22.5686   23.7494 H   0  0  0  0  0  0  0  0  0  0  0  0
   17.4861   21.3920   24.1382 H   0  0  0  0  0  0  0  0  0  0  0  0
   19.3032   20.5268   23.2989 C   0  0  0  0  0  0  0  0  0  0  0  0
   18.9815   20.6598   22.2569 H   0  0  0  0  0  0  0  0  0  0  0  0
   20.3809   20.7350   23.3213 H   0  0  0  0  0  0  0  0  0  0  0  0
   19.0330   19.0631   23.7306 C   0  0  0  0  0  0  0  0  0  0  0  0
   17.9489   18.9139   23.8278 H   0  0  0  0  0  0  0  0  0  0  0  0
   19.4616   18.8782   24.7245 H   0  0  0  0  0  0  0  0  0  0  0  0
   19.5851   18.0131   22.7352 C   0  0  0  0  0  0  0  0  0  0  0  0
   19.2424   17.0217   23.0594 H   0  0  0  0  0  0  0  0  0  0  0  0
   19.1467   18.1816   21.7417 H   0  0  0  0  0  0  0  0  0  0  0  0
   21.1309   18.0150   22.6304 C   0  0  0  0  0  0  0  0  0  0  0  0
   21.5760   17.8714   23.6240 H   0  0  0  0  0  0  0  0  0  0  0  0
   21.4777   18.9908   22.2684 H   0  0  0  0  0  0  0  0  0  0  0  0
   21.6625   16.9351   21.6681 C   0  0  0  0  0  0  0  0  0  0  0  0
   21.2070   17.0639   20.6825 H   0  0  0  0  0  0  0  0  0  0  0  0
   22.7448   17.0473   21.5605 H   0  0  0  0  0  0  0  0  0  0  0  0
   21.3925   15.5165   22.1303 N   0  3  0  0  0  0  0  0  0  0  0  0
   20.3888   15.3294   22.2164 H   0  0  0  0  0  0  0  0  0  0  0  0
   21.8159   15.3269   23.0446 H   0  0  0  0  0  0  0  0  0  0  0  0
   21.7717   14.8241   21.4753 H   0  0  0  0  0  0  0  0  0  0  0  0
  1  2  1  0  0  0  0
  1  3  1  0  0  0  0
  1  4  1  0  0  0  0
  1  5  1  0  0  0  0
  5  6  1  0  0  0  0
  5  7  1  0  0  0  0
  5  8  1  0  0  0  0
  8  9  1  0  0  0  0
  8 10  1  0  0  0  0
  8 11  1  0  0  0  0
 11 12  1  0  0  0  0
 11 13  1  0  0  0  0
 11 14  1  0  0  0  0
 14 15  1  0  0  0  0
 14 16  1  0  0  0  0
 14 17  1  0  0  0  0
 17 18  1  0  0  0  0
 17 19  1  0  0  0  0
 17 20  1  0  0  0  0
 20 21  1  0  0  0  0
 20 22  1  0  0  0  0
 20 23  1  0  0  0  0
 23 24  1  0  0  0  0
 23 25  1  0  0  0  0
 23 26  1  0  0  0  0
M  END
> <VConfSearch Rank>
909

> <Conf_Id>
130

> <Delta U+W>
1.282

> <U+W>
-4.270

> <U>
49.153

> <W>
-53.422

> <W(PB)>
-55.725

> <W(SA)>
2.303

> <Valence>
3.298

> <Coulomb>
44.907

> <VdW>
0.948

> <VdW6>
-7.574

> <VdW12>
8.522

> <Bond>
0.229

> <Angle>
0.912

> <Pdih>
2.157

> <Idih>
0.000

> <Tether>
0.000

$$$$
VeraChem MOL file


 26 25  0  0  0  0  0  0  0  0999 V2000     
   18.9549   15.7850   24.4294 C   0  0  0  0  0  0  0  0  0  0  0  0
   19.8490   15.1737   24.6077 H   0  0  0  0  0  0  0  0  0  0  0  0
   18.0751   15.1486   24.5897 H   0  0  0  0  0  0  0  0  0  0  0  0
   18.9524   16.0927   23.3763 H   0  0  0  0  0  0  0  0  0  0  0  0
   18.9194   17.0063   25.3757 C   0  0  0  0  0  0  0  0  0  0  0  0
   18.8014   16.6497   26.4085 H   0  0  0  0  0  0  0  0  0  0  0  0
   18.0286   17.6128   25.1652 H   0  0  0  0  0  0  0  0  0  0  0  0
   20.1959   17.8826   25.3003 C   0  0  0  0  0  0  0  0  0  0  0  0
   20.1004   18.7092   26.0179 H   0  0  0  0  0  0  0  0  0  0  0  0
   21.0539   17.2871   25.6412 H   0  0  0  0  0  0  0  0  0  0  0  0
   20.5220   18.4655   23.9007 C   0  0  0  0  0  0  0  0  0  0  0  0
   20.7240   17.6500   23.1939 H   0  0  0  0  0  0  0  0  0  0  0  0
   21.4584   19.0330   23.9819 H   0  0  0  0  0  0  0  0  0  0  0  0
   19.4079   19.3838   23.3375 C   0  0  0  0  0  0  0  0  0  0  0  0
   18.4788   18.8094   23.2276 H   0  0  0  0  0  0  0  0  0  0  0  0
   19.1942   20.1901   24.0527 H   0  0  0  0  0  0  0  0  0  0  0  0
   19.7632   19.9947   21.9614 C   0  0  0  0  0  0  0  0  0  0  0  0
   18.8912   20.5422   21.5798 H   0  0  0  0  0  0  0  0  0  0  0  0
   19.9686   19.1904   21.2425 H   0  0  0  0  0  0  0  0  0  0  0  0
   20.9676   20.9528   22.0262 C   0  0  0  0  0  0  0  0  0  0  0  0
   20.7631   21.7526   22.7430 H   0  0  0  0  0  0  0  0  0  0  0  0
   21.8558   20.4101   22.3594 H   0  0  0  0  0  0  0  0  0  0  0  0
   21.2884   21.5923   20.6908 N   0  3  0  0  0  0  0  0  0  0  0  0
   21.5164   20.8926   19.9769 H   0  0  0  0  0  0  0  0  0  0  0  0
   22.0924   22.2262   20.7552 H   0  0  0  0  0  0  0  0  0  0  0  0
   20.5018   22.1438   20.3325 H   0  0  0  0  0  0  0  0  0  0  0  0
  1  2  1  0  0  0  0
  1  3  1  0  0  0  0
  1  4  1  0  0  0  0
  1  5  1  0  0  0  0
  5  6  1  0  0  0  0
  5  7  1  0  0  0  0
  5  8  1  0  0  0  0
  8  9  1  0  0  0  0
  8 10  1  0  0  0  0
  8 11  1  0  0  0  0
 11 12  1  0  0  0  0
 11 13  1  0  0  0  0
 11 14  1  0  0  0  0
 14 15  1  0  0  0  0
 14 16  1  0  0  0  0
 14 17  1  0  0  0  0
 17 18  1  0  0  0  0
 17 19  1  0  0  0  0
 17 20  1  0  0  0  0
 20 21  1  0  0  0  0
 20 22  1  0  0  0  0
 20 23  1  0  0  0  0
 23 24  1  0  0  0  0
 23 25  1  0  0  0  0
 23 26  1  0  0  0  0
M  END
> <VConfSearch Rank>
910

> <Conf_Id>
111

> <Delta U+W>
1.290

> <U+W>
-4.262

> <U>
49.209

> <W>
-53.471

> <W(PB)>
-55.745

> <W(SA)>
2.274

> <Valence>
3.465

> <Coulomb>
44.958

> <VdW>
0.786

> <VdW6>
-7.903

> <VdW12>
8.689

> <Bond>
0.237

> <Angle>
1.212

> <Pdih>
2.015

> <Idih>
0.000

> <Tether>
0.000

$$$$
VeraChem MOL file


 26 25  0  0  0  0  0  0  0  0999 V2000     
   22.9523   21.2286   24.7511 C   0  0  0  0  0  0  0  0  0  0  0  0
   22.2551   21.9567   25.1861 H   0  0  0  0  0  0  0  0  0  0  0  0
   23.5492   20.7980   25.5656 H   0  0  0  0  0  0  0  0  0  0  0  0
   23.6346   21.7720   24.0846 H   0  0  0  0  0  0  0  0  0  0  0  0
   22.1943   20.1295   23.9767 C   0  0  0  0  0  0  0  0  0  0  0  0
   22.9182   19.4342   23.5293 H   0  0  0  0  0  0  0  0  0  0  0  0
   21.6437   20.5936   23.1478 H   0  0  0  0  0  0  0  0  0  0  0  0
   21.2223   19.3521   24.8955 C   0  0  0  0  0  0  0  0  0  0  0  0
   21.7807   18.9647   25.7589 H   0  0  0  0  0  0  0  0  0  0  0  0
   20.4665   20.0390   25.3009 H   0  0  0  0  0  0  0  0  0  0  0  0
   20.5206   18.1641   24.1926 C   0  0  0  0  0  0  0  0  0  0  0  0
   19.9469   17.6052   24.9448 H   0  0  0  0  0  0  0  0  0  0  0  0
   21.2772   17.4691   23.8029 H   0  0  0  0  0  0  0  0  0  0  0  0
   19.5685   18.5948   23.0510 C   0  0  0  0  0  0  0  0  0  0  0  0
   18.8542   19.3349   23.4357 H   0  0  0  0  0  0  0  0  0  0  0  0
   20.1394   19.0850   22.2515 H   0  0  0  0  0  0  0  0  0  0  0  0
   18.8055   17.3871   22.4570 C   0  0  0  0  0  0  0  0  0  0  0  0
   18.1978   16.9055   23.2347 H   0  0  0  0  0  0  0  0  0  0  0  0
   19.5276   16.6348   22.1128 H   0  0  0  0  0  0  0  0  0  0  0  0
   17.9047   17.7776   21.2694 C   0  0  0  0  0  0  0  0  0  0  0  0
   18.5057   18.2621   20.4951 H   0  0  0  0  0  0  0  0  0  0  0  0
   17.4589   16.8760   20.8405 H   0  0  0  0  0  0  0  0  0  0  0  0
   16.7742   18.7160   21.6436 N   0  3  0  0  0  0  0  0  0  0  0  0
   16.1868   18.9459   20.8346 H   0  0  0  0  0  0  0  0  0  0  0  0
   17.1250   19.6017   22.0210 H   0  0  0  0  0  0  0  0  0  0  0  0
   16.1586   18.3062   22.3536 H   0  0  0  0  0  0  0  0  0  0  0  0
  1  2  1  0  0  0  0
  1  3  1  0  0  0  0
  1  4  1  0  0  0  0
  1  5  1  0  0  0  0
  5  6  1  0  0  0  0
  5  7  1  0  0  0  0
  5  8  1  0  0  0  0
  8  9  1  0  0  0  0
  8 10  1  0  0  0  0
  8 11  1  0  0  0  0
 11 12  1  0  0  0  0
 11 13  1  0  0  0  0
 11 14  1  0  0  0  0
 14 15  1  0  0  0  0
 14 16  1  0  0  0  0
 14 17  1  0  0  0  0
 17 18  1  0  0  0  0
 17 19  1  0  0  0  0
 17 20  1  0  0  0  0
 20 21  1  0  0  0  0
 20 22  1  0  0  0  0
 20 23  1  0  0  0  0
 23 24  1  0  0  0  0
 23 25  1  0  0  0  0
 23 26  1  0  0  0  0
M  END
> <VConfSearch Rank>
911

> <Conf_Id>
105

> <Delta U+W>
0.736

> <U+W>
-4.817

> <U>
48.735

> <W>
-53.552

> <W(PB)>
-55.889

> <W(SA)>
2.337

> <Valence>
2.803

> <Coulomb>
45.123

> <VdW>
0.809

> <VdW6>
-6.953

> <VdW12>
7.761

> <Bond>
0.188

> <Angle>
0.699

> <Pdih>
1.917

> <Idih>
0.000

> <Tether>
0.000

$$$$
VeraChem MOL file


 26 25  0  0  0  0  0  0  0  0999 V2000     
   19.3311   20.0076   19.7830 C   0  0  0  0  0  0  0  0  0  0  0  0
   18.3136   19.9963   19.3709 H   0  0  0  0  0  0  0  0  0  0  0  0
   19.5582   21.0321   20.1056 H   0  0  0  0  0  0  0  0  0  0  0  0
   20.0251   19.7474   18.9733 H   0  0  0  0  0  0  0  0  0  0  0  0
   19.4660   19.0142   20.9565 C   0  0  0  0  0  0  0  0  0  0  0  0
   20.5041   19.0249   21.3145 H   0  0  0  0  0  0  0  0  0  0  0  0
   19.2624   17.9957   20.5976 H   0  0  0  0  0  0  0  0  0  0  0  0
   18.4998   19.3630   22.1130 C   0  0  0  0  0  0  0  0  0  0  0  0
   18.7293   20.3645   22.4999 H   0  0  0  0  0  0  0  0  0  0  0  0
   17.4767   19.4220   21.7168 H   0  0  0  0  0  0  0  0  0  0  0  0
   18.5146   18.3294   23.2690 C   0  0  0  0  0  0  0  0  0  0  0  0
   18.1576   17.3636   22.8855 H   0  0  0  0  0  0  0  0  0  0  0  0
   17.7829   18.6391   24.0279 H   0  0  0  0  0  0  0  0  0  0  0  0
   19.8887   18.1139   23.9551 C   0  0  0  0  0  0  0  0  0  0  0  0
   19.7609   17.3532   24.7364 H   0  0  0  0  0  0  0  0  0  0  0  0
   20.6045   17.6911   23.2377 H   0  0  0  0  0  0  0  0  0  0  0  0
   20.4764   19.4024   24.5831 C   0  0  0  0  0  0  0  0  0  0  0  0
   19.7567   19.8405   25.2872 H   0  0  0  0  0  0  0  0  0  0  0  0
   20.6472   20.1517   23.8000 H   0  0  0  0  0  0  0  0  0  0  0  0
   21.8160   19.1549   25.3033 C   0  0  0  0  0  0  0  0  0  0  0  0
   22.5287   18.7009   24.6095 H   0  0  0  0  0  0  0  0  0  0  0  0
   22.2284   20.1103   25.6388 H   0  0  0  0  0  0  0  0  0  0  0  0
   21.7009   18.2540   26.5174 N   0  3  0  0  0  0  0  0  0  0  0  0
   21.3534   17.3229   26.2681 H   0  0  0  0  0  0  0  0  0  0  0  0
   21.0593   18.6395   27.2180 H   0  0  0  0  0  0  0  0  0  0  0  0
   22.6065   18.1222   26.9809 H   0  0  0  0  0  0  0  0  0  0  0  0
  1  2  1  0  0  0  0
  1  3  1  0  0  0  0
  1  4  1  0  0  0  0
  1  5  1  0  0  0  0
  5  6  1  0  0  0  0
  5  7  1  0  0  0  0
  5  8  1  0  0  0  0
  8  9  1  0  0  0  0
  8 10  1  0  0  0  0
  8 11  1  0  0  0  0
 11 12  1  0  0  0  0
 11 13  1  0  0  0  0
 11 14  1  0  0  0  0
 14 15  1  0  0  0  0
 14 16  1  0  0  0  0
 14 17  1  0  0  0  0
 17 18  1  0  0  0  0
 17 19  1  0  0  0  0
 17 20  1  0  0  0  0
 20 21  1  0  0  0  0
 20 22  1  0  0  0  0
 20 23  1  0  0  0  0
 23 24  1  0  0  0  0
 23 25  1  0  0  0  0
 23 26  1  0  0  0  0
M  END
> <VConfSearch Rank>
912

> <Conf_Id>
144

> <Delta U+W>
1.073

> <U+W>
-4.479

> <U>
49.231

> <W>
-53.710

> <W(PB)>
-55.983

> <W(SA)>
2.273

> <Valence>
3.276

> <Coulomb>
45.175

> <VdW>
0.779

> <VdW6>
-7.944

> <VdW12>
8.723

> <Bond>
0.239

> <Angle>
1.155

> <Pdih>
1.883

> <Idih>
0.000

> <Tether>
0.000

$$$$
VeraChem MOL file


 26 25  0  0  0  0  0  0  0  0999 V2000     
   23.4159   19.4655   22.1797 C   0  0  0  0  0  0  0  0  0  0  0  0
   23.3228   18.5830   21.5352 H   0  0  0  0  0  0  0  0  0  0  0  0
   24.1894   20.1107   21.7433 H   0  0  0  0  0  0  0  0  0  0  0  0
   23.7706   19.1365   23.1650 H   0  0  0  0  0  0  0  0  0  0  0  0
   22.0780   20.2308   22.2974 C   0  0  0  0  0  0  0  0  0  0  0  0
   21.7260   20.5196   21.2972 H   0  0  0  0  0  0  0  0  0  0  0  0
   22.2571   21.1684   22.8422 H   0  0  0  0  0  0  0  0  0  0  0  0
   20.9725   19.4355   23.0336 C   0  0  0  0  0  0  0  0  0  0  0  0
   21.3367   19.1313   24.0244 H   0  0  0  0  0  0  0  0  0  0  0  0
   20.1280   20.1158   23.2004 H   0  0  0  0  0  0  0  0  0  0  0  0
   20.4770   18.1954   22.2488 C   0  0  0  0  0  0  0  0  0  0  0  0
   21.3329   17.5599   21.9887 H   0  0  0  0  0  0  0  0  0  0  0  0
   20.0373   18.5202   21.2958 H   0  0  0  0  0  0  0  0  0  0  0  0
   19.4546   17.3156   23.0146 C   0  0  0  0  0  0  0  0  0  0  0  0
   19.2135   16.4558   22.3742 H   0  0  0  0  0  0  0  0  0  0  0  0
   19.9210   16.8930   23.9154 H   0  0  0  0  0  0  0  0  0  0  0  0
   18.1286   18.0257   23.3868 C   0  0  0  0  0  0  0  0  0  0  0  0
   17.3294   17.2737   23.4298 H   0  0  0  0  0  0  0  0  0  0  0  0
   17.8449   18.7346   22.5975 H   0  0  0  0  0  0  0  0  0  0  0  0
   18.1884   18.7375   24.7525 C   0  0  0  0  0  0  0  0  0  0  0  0
   18.4190   18.0090   25.5346 H   0  0  0  0  0  0  0  0  0  0  0  0
   18.9741   19.4953   24.7515 H   0  0  0  0  0  0  0  0  0  0  0  0
   16.8871   19.4201   25.1212 N   0  3  0  0  0  0  0  0  0  0  0  0
   16.1085   18.7550   25.1733 H   0  0  0  0  0  0  0  0  0  0  0  0
   16.6252   20.1382   24.4380 H   0  0  0  0  0  0  0  0  0  0  0  0
   16.9451   19.8834   26.0346 H   0  0  0  0  0  0  0  0  0  0  0  0
  1  2  1  0  0  0  0
  1  3  1  0  0  0  0
  1  4  1  0  0  0  0
  1  5  1  0  0  0  0
  5  6  1  0  0  0  0
  5  7  1  0  0  0  0
  5  8  1  0  0  0  0
  8  9  1  0  0  0  0
  8 10  1  0  0  0  0
  8 11  1  0  0  0  0
 11 12  1  0  0  0  0
 11 13  1  0  0  0  0
 11 14  1  0  0  0  0
 14 15  1  0  0  0  0
 14 16  1  0  0  0  0
 14 17  1  0  0  0  0
 17 18  1  0  0  0  0
 17 19  1  0  0  0  0
 17 20  1  0  0  0  0
 20 21  1  0  0  0  0
 20 22  1  0  0  0  0
 20 23  1  0  0  0  0
 23 24  1  0  0  0  0
 23 25  1  0  0  0  0
 23 26  1  0  0  0  0
M  END
> <VConfSearch Rank>
913

> <Conf_Id>
93

> <Delta U+W>
3.253

> <U+W>
-2.300

> <U>
51.609

> <W>
-53.909

> <W(PB)>
-56.178

> <W(SA)>
2.270

> <Valence>
5.204

> <Coulomb>
45.645

> <VdW>
0.760

> <VdW6>
-7.997

> <VdW12>
8.758

> <Bond>
0.240

> <Angle>
1.456

> <Pdih>
3.507

> <Idih>
0.000

> <Tether>
0.000

$$$$
VeraChem MOL file


 26 25  0  0  0  0  0  0  0  0999 V2000     
   17.9132   15.9849   23.0809 C   0  0  0  0  0  0  0  0  0  0  0  0
   17.3607   16.3605   23.9507 H   0  0  0  0  0  0  0  0  0  0  0  0
   17.4512   16.3980   22.1748 H   0  0  0  0  0  0  0  0  0  0  0  0
   17.7845   14.8951   23.0556 H   0  0  0  0  0  0  0  0  0  0  0  0
   19.4135   16.3496   23.1558 C   0  0  0  0  0  0  0  0  0  0  0  0
   19.9391   15.8425   22.3345 H   0  0  0  0  0  0  0  0  0  0  0  0
   19.8455   15.9555   24.0863 H   0  0  0  0  0  0  0  0  0  0  0  0
   19.6869   17.8699   23.0528 C   0  0  0  0  0  0  0  0  0  0  0  0
   20.7714   18.0075   22.9586 H   0  0  0  0  0  0  0  0  0  0  0  0
   19.2351   18.2629   22.1317 H   0  0  0  0  0  0  0  0  0  0  0  0
   19.1784   18.6733   24.2756 C   0  0  0  0  0  0  0  0  0  0  0  0
   19.7003   18.3292   25.1791 H   0  0  0  0  0  0  0  0  0  0  0  0
   18.1145   18.4595   24.4381 H   0  0  0  0  0  0  0  0  0  0  0  0
   19.3338   20.2109   24.1450 C   0  0  0  0  0  0  0  0  0  0  0  0
   18.7242   20.5819   23.3093 H   0  0  0  0  0  0  0  0  0  0  0  0
   18.9047   20.6645   25.0493 H   0  0  0  0  0  0  0  0  0  0  0  0
   20.7930   20.7121   24.0009 C   0  0  0  0  0  0  0  0  0  0  0  0
   21.4688   20.0845   24.5970 H   0  0  0  0  0  0  0  0  0  0  0  0
   20.8582   21.7243   24.4218 H   0  0  0  0  0  0  0  0  0  0  0  0
   21.2679   20.7727   22.5359 C   0  0  0  0  0  0  0  0  0  0  0  0
   21.2174   19.7826   22.0793 H   0  0  0  0  0  0  0  0  0  0  0  0
   20.6170   21.4431   21.9681 H   0  0  0  0  0  0  0  0  0  0  0  0
   22.6901   21.2755   22.3956 N   0  3  0  0  0  0  0  0  0  0  0  0
   22.8002   22.2208   22.7768 H   0  0  0  0  0  0  0  0  0  0  0  0
   22.9859   21.3134   21.4140 H   0  0  0  0  0  0  0  0  0  0  0  0
   23.3588   20.6727   22.8861 H   0  0  0  0  0  0  0  0  0  0  0  0
  1  2  1  0  0  0  0
  1  3  1  0  0  0  0
  1  4  1  0  0  0  0
  1  5  1  0  0  0  0
  5  6  1  0  0  0  0
  5  7  1  0  0  0  0
  5  8  1  0  0  0  0
  8  9  1  0  0  0  0
  8 10  1  0  0  0  0
  8 11  1  0  0  0  0
 11 12  1  0  0  0  0
 11 13  1  0  0  0  0
 11 14  1  0  0  0  0
 14 15  1  0  0  0  0
 14 16  1  0  0  0  0
 14 17  1  0  0  0  0
 17 18  1  0  0  0  0
 17 19  1  0  0  0  0
 17 20  1  0  0  0  0
 20 21  1  0  0  0  0
 20 22  1  0  0  0  0
 20 23  1  0  0  0  0
 23 24  1  0  0  0  0
 23 25  1  0  0  0  0
 23 26  1  0  0  0  0
M  END
> <VConfSearch Rank>
914

> <Conf_Id>
94

> <Delta U+W>
3.247

> <U+W>
-2.305

> <U>
51.609

> <W>
-53.914

> <W(PB)>
-56.221

> <W(SA)>
2.307

> <Valence>
5.204

> <Coulomb>
45.645

> <VdW>
0.760

> <VdW6>
-7.997

> <VdW12>
8.757

> <Bond>
0.240

> <Angle>
1.456

> <Pdih>
3.508

> <Idih>
0.000

> <Tether>
0.000

$$$$
VeraChem MOL file


 26 25  0  0  0  0  0  0  0  0999 V2000     
   17.4554   18.0471   26.2699 C   0  0  0  0  0  0  0  0  0  0  0  0
   17.0779   17.0563   25.9852 H   0  0  0  0  0  0  0  0  0  0  0  0
   18.2724   17.9079   26.9899 H   0  0  0  0  0  0  0  0  0  0  0  0
   16.6443   18.5828   26.7801 H   0  0  0  0  0  0  0  0  0  0  0  0
   17.9347   18.8348   25.0322 C   0  0  0  0  0  0  0  0  0  0  0  0
   18.2741   19.8325   25.3442 H   0  0  0  0  0  0  0  0  0  0  0  0
   17.0890   18.9875   24.3472 H   0  0  0  0  0  0  0  0  0  0  0  0
   19.0773   18.1019   24.2949 C   0  0  0  0  0  0  0  0  0  0  0  0
   19.9195   17.9498   24.9841 H   0  0  0  0  0  0  0  0  0  0  0  0
   18.7339   17.1043   23.9878 H   0  0  0  0  0  0  0  0  0  0  0  0
   19.5597   18.8875   23.0546 C   0  0  0  0  0  0  0  0  0  0  0  0
   19.8940   19.8854   23.3681 H   0  0  0  0  0  0  0  0  0  0  0  0
   18.7174   19.0357   22.3648 H   0  0  0  0  0  0  0  0  0  0  0  0
   20.7056   18.1520   22.3192 C   0  0  0  0  0  0  0  0  0  0  0  0
   21.5599   18.0230   22.9973 H   0  0  0  0  0  0  0  0  0  0  0  0
   20.3715   17.1394   22.0540 H   0  0  0  0  0  0  0  0  0  0  0  0
   21.1627   18.8736   21.0267 C   0  0  0  0  0  0  0  0  0  0  0  0
   20.3226   18.9186   20.3210 H   0  0  0  0  0  0  0  0  0  0  0  0
   21.9434   18.2780   20.5352 H   0  0  0  0  0  0  0  0  0  0  0  0
   21.6907   20.3040   21.2586 C   0  0  0  0  0  0  0  0  0  0  0  0
   21.9657   20.7493   20.2986 H   0  0  0  0  0  0  0  0  0  0  0  0
   20.9063   20.9201   21.7057 H   0  0  0  0  0  0  0  0  0  0  0  0
   22.9075   20.3644   22.1606 N   0  3  0  0  0  0  0  0  0  0  0  0
   23.6913   19.8256   21.7783 H   0  0  0  0  0  0  0  0  0  0  0  0
   22.7058   19.9875   23.0919 H   0  0  0  0  0  0  0  0  0  0  0  0
   23.2392   21.3264   22.2895 H   0  0  0  0  0  0  0  0  0  0  0  0
  1  2  1  0  0  0  0
  1  3  1  0  0  0  0
  1  4  1  0  0  0  0
  1  5  1  0  0  0  0
  5  6  1  0  0  0  0
  5  7  1  0  0  0  0
  5  8  1  0  0  0  0
  8  9  1  0  0  0  0
  8 10  1  0  0  0  0
  8 11  1  0  0  0  0
 11 12  1  0  0  0  0
 11 13  1  0  0  0  0
 11 14  1  0  0  0  0
 14 15  1  0  0  0  0
 14 16  1  0  0  0  0
 14 17  1  0  0  0  0
 17 18  1  0  0  0  0
 17 19  1  0  0  0  0
 17 20  1  0  0  0  0
 20 21  1  0  0  0  0
 20 22  1  0  0  0  0
 20 23  1  0  0  0  0
 23 24  1  0  0  0  0
 23 25  1  0  0  0  0
 23 26  1  0  0  0  0
M  END
> <VConfSearch Rank>
915

> <Conf_Id>
83

> <Delta U+W>
0.559

> <U+W>
-4.994

> <U>
48.668

> <W>
-53.661

> <W(PB)>
-55.972

> <W(SA)>
2.311

> <Valence>
2.543

> <Coulomb>
45.478

> <VdW>
0.646

> <VdW6>
-7.096

> <VdW12>
7.742

> <Bond>
0.176

> <Angle>
0.630

> <Pdih>
1.738

> <Idih>
0.000

> <Tether>
0.000

$$$$
VeraChem MOL file


 26 25  0  0  0  0  0  0  0  0999 V2000     
   16.5761   18.1508   21.6786 C   0  0  0  0  0  0  0  0  0  0  0  0
   15.6766   18.4570   22.2285 H   0  0  0  0  0  0  0  0  0  0  0  0
   16.6785   18.8020   20.8007 H   0  0  0  0  0  0  0  0  0  0  0  0
   16.4190   17.1249   21.3208 H   0  0  0  0  0  0  0  0  0  0  0  0
   17.8293   18.2290   22.5761 C   0  0  0  0  0  0  0  0  0  0  0  0
   18.6983   17.8769   22.0048 H   0  0  0  0  0  0  0  0  0  0  0  0
   17.7097   17.5460   23.4287 H   0  0  0  0  0  0  0  0  0  0  0  0
   18.0738   19.6678   23.0893 C   0  0  0  0  0  0  0  0  0  0  0  0
   18.2473   20.3404   22.2380 H   0  0  0  0  0  0  0  0  0  0  0  0
   17.1625   20.0287   23.5860 H   0  0  0  0  0  0  0  0  0  0  0  0
   19.2525   19.7791   24.0876 C   0  0  0  0  0  0  0  0  0  0  0  0
   19.0713   19.1170   24.9456 H   0  0  0  0  0  0  0  0  0  0  0  0
   19.2730   20.8025   24.4870 H   0  0  0  0  0  0  0  0  0  0  0  0
   20.6293   19.4553   23.4591 C   0  0  0  0  0  0  0  0  0  0  0  0
   20.6449   18.4118   23.1209 H   0  0  0  0  0  0  0  0  0  0  0  0
   20.7838   20.0832   22.5707 H   0  0  0  0  0  0  0  0  0  0  0  0
   21.7844   19.6889   24.4614 C   0  0  0  0  0  0  0  0  0  0  0  0
   21.6545   19.0456   25.3419 H   0  0  0  0  0  0  0  0  0  0  0  0
   21.7490   20.7253   24.8227 H   0  0  0  0  0  0  0  0  0  0  0  0
   23.1722   19.4374   23.8406 C   0  0  0  0  0  0  0  0  0  0  0  0
   23.3012   20.0708   22.9587 H   0  0  0  0  0  0  0  0  0  0  0  0
   23.9468   19.7010   24.5658 H   0  0  0  0  0  0  0  0  0  0  0  0
   23.4036   17.9980   23.4243 N   0  3  0  0  0  0  0  0  0  0  0  0
   22.7311   17.6955   22.7129 H   0  0  0  0  0  0  0  0  0  0  0  0
   23.3175   17.3538   24.2172 H   0  0  0  0  0  0  0  0  0  0  0  0
   24.3403   17.8623   23.0287 H   0  0  0  0  0  0  0  0  0  0  0  0
  1  2  1  0  0  0  0
  1  3  1  0  0  0  0
  1  4  1  0  0  0  0
  1  5  1  0  0  0  0
  5  6  1  0  0  0  0
  5  7  1  0  0  0  0
  5  8  1  0  0  0  0
  8  9  1  0  0  0  0
  8 10  1  0  0  0  0
  8 11  1  0  0  0  0
 11 12  1  0  0  0  0
 11 13  1  0  0  0  0
 11 14  1  0  0  0  0
 14 15  1  0  0  0  0
 14 16  1  0  0  0  0
 14 17  1  0  0  0  0
 17 18  1  0  0  0  0
 17 19  1  0  0  0  0
 17 20  1  0  0  0  0
 20 21  1  0  0  0  0
 20 22  1  0  0  0  0
 20 23  1  0  0  0  0
 23 24  1  0  0  0  0
 23 25  1  0  0  0  0
 23 26  1  0  0  0  0
M  END
> <VConfSearch Rank>
916

> <Conf_Id>
18

> <Delta U+W>
0.759

> <U+W>
-4.793

> <U>
48.945

> <W>
-53.738

> <W(PB)>
-56.051

> <W(SA)>
2.313

> <Valence>
2.802

> <Coulomb>
45.335

> <VdW>
0.807

> <VdW6>
-6.962

> <VdW12>
7.769

> <Bond>
0.189

> <Angle>
0.696

> <Pdih>
1.917

> <Idih>
0.000

> <Tether>
0.000

$$$$
VeraChem MOL file


 26 25  0  0  0  0  0  0  0  0999 V2000     
   23.0196   21.2800   23.7402 C   0  0  0  0  0  0  0  0  0  0  0  0
   22.7878   21.5812   24.7701 H   0  0  0  0  0  0  0  0  0  0  0  0
   24.0231   20.8349   23.7316 H   0  0  0  0  0  0  0  0  0  0  0  0
   23.0482   22.1867   23.1220 H   0  0  0  0  0  0  0  0  0  0  0  0
   21.9670   20.2871   23.2029 C   0  0  0  0  0  0  0  0  0  0  0  0
   22.2090   20.0274   22.1628 H   0  0  0  0  0  0  0  0  0  0  0  0
   20.9868   20.7815   23.1884 H   0  0  0  0  0  0  0  0  0  0  0  0
   21.9053   19.0018   24.0617 C   0  0  0  0  0  0  0  0  0  0  0  0
   22.9133   18.5696   24.1292 H   0  0  0  0  0  0  0  0  0  0  0  0
   21.6102   19.2564   25.0890 H   0  0  0  0  0  0  0  0  0  0  0  0
   20.9469   17.9239   23.4982 C   0  0  0  0  0  0  0  0  0  0  0  0
   21.0599   17.0112   24.0995 H   0  0  0  0  0  0  0  0  0  0  0  0
   21.2515   17.6592   22.4761 H   0  0  0  0  0  0  0  0  0  0  0  0
   19.4597   18.3521   23.5060 C   0  0  0  0  0  0  0  0  0  0  0  0
   19.1735   18.6657   24.5195 H   0  0  0  0  0  0  0  0  0  0  0  0
   19.3219   19.2210   22.8506 H   0  0  0  0  0  0  0  0  0  0  0  0
   18.5318   17.2046   23.0413 C   0  0  0  0  0  0  0  0  0  0  0  0
   18.6930   16.3252   23.6789 H   0  0  0  0  0  0  0  0  0  0  0  0
   18.7915   16.9016   22.0182 H   0  0  0  0  0  0  0  0  0  0  0  0
   17.0393   17.5830   23.1029 C   0  0  0  0  0  0  0  0  0  0  0  0
   16.4332   16.7094   22.8477 H   0  0  0  0  0  0  0  0  0  0  0  0
   16.7797   17.8929   24.1187 H   0  0  0  0  0  0  0  0  0  0  0  0
   16.6531   18.7024   22.1560 N   0  3  0  0  0  0  0  0  0  0  0  0
   16.8532   18.4613   21.1798 H   0  0  0  0  0  0  0  0  0  0  0  0
   17.1597   19.5682   22.3648 H   0  0  0  0  0  0  0  0  0  0  0  0
   15.6521   18.9194   22.2117 H   0  0  0  0  0  0  0  0  0  0  0  0
  1  2  1  0  0  0  0
  1  3  1  0  0  0  0
  1  4  1  0  0  0  0
  1  5  1  0  0  0  0
  5  6  1  0  0  0  0
  5  7  1  0  0  0  0
  5  8  1  0  0  0  0
  8  9  1  0  0  0  0
  8 10  1  0  0  0  0
  8 11  1  0  0  0  0
 11 12  1  0  0  0  0
 11 13  1  0  0  0  0
 11 14  1  0  0  0  0
 14 15  1  0  0  0  0
 14 16  1  0  0  0  0
 14 17  1  0  0  0  0
 17 18  1  0  0  0  0
 17 19  1  0  0  0  0
 17 20  1  0  0  0  0
 20 21  1  0  0  0  0
 20 22  1  0  0  0  0
 20 23  1  0  0  0  0
 23 24  1  0  0  0  0
 23 25  1  0  0  0  0
 23 26  1  0  0  0  0
M  END
> <VConfSearch Rank>
917

> <Conf_Id>
17

> <Delta U+W>
0.843

> <U+W>
-4.709

> <U>
48.945

> <W>
-53.653

> <W(PB)>
-55.991

> <W(SA)>
2.338

> <Valence>
2.802

> <Coulomb>
45.335

> <VdW>
0.807

> <VdW6>
-6.962

> <VdW12>
7.769

> <Bond>
0.189

> <Angle>
0.696

> <Pdih>
1.917

> <Idih>
0.000

> <Tether>
0.000

$$$$
VeraChem MOL file


 26 25  0  0  0  0  0  0  0  0999 V2000     
   21.5316   19.2330   26.3571 C   0  0  0  0  0  0  0  0  0  0  0  0
   22.0567   18.8864   25.4584 H   0  0  0  0  0  0  0  0  0  0  0  0
   21.4888   20.3296   26.3298 H   0  0  0  0  0  0  0  0  0  0  0  0
   22.1371   18.9423   27.2252 H   0  0  0  0  0  0  0  0  0  0  0  0
   20.1147   18.6238   26.4579 C   0  0  0  0  0  0  0  0  0  0  0  0
   19.6795   18.8991   27.4287 H   0  0  0  0  0  0  0  0  0  0  0  0
   20.1827   17.5269   26.4516 H   0  0  0  0  0  0  0  0  0  0  0  0
   19.1601   19.0956   25.3345 C   0  0  0  0  0  0  0  0  0  0  0  0
   18.1544   18.7071   25.5464 H   0  0  0  0  0  0  0  0  0  0  0  0
   19.0794   20.1911   25.3578 H   0  0  0  0  0  0  0  0  0  0  0  0
   19.5935   18.6341   23.9223 C   0  0  0  0  0  0  0  0  0  0  0  0
   19.7205   17.5428   23.9169 H   0  0  0  0  0  0  0  0  0  0  0  0
   20.5694   19.0713   23.6767 H   0  0  0  0  0  0  0  0  0  0  0  0
   18.5583   19.0390   22.8454 C   0  0  0  0  0  0  0  0  0  0  0  0
   17.5743   18.6341   23.1193 H   0  0  0  0  0  0  0  0  0  0  0  0
   18.4503   20.1325   22.8278 H   0  0  0  0  0  0  0  0  0  0  0  0
   18.9249   18.5340   21.4300 C   0  0  0  0  0  0  0  0  0  0  0  0
   18.1058   18.7794   20.7411 H   0  0  0  0  0  0  0  0  0  0  0  0
   19.0105   17.4392   21.4395 H   0  0  0  0  0  0  0  0  0  0  0  0
   20.2318   19.1511   20.8974 C   0  0  0  0  0  0  0  0  0  0  0  0
   20.1466   20.2411   20.8874 H   0  0  0  0  0  0  0  0  0  0  0  0
   21.0642   18.8765   21.5504 H   0  0  0  0  0  0  0  0  0  0  0  0
   20.5733   18.6957   19.4934 N   0  3  0  0  0  0  0  0  0  0  0  0
   21.4459   19.1176   19.1575 H   0  0  0  0  0  0  0  0  0  0  0  0
   19.8416   18.9487   18.8211 H   0  0  0  0  0  0  0  0  0  0  0  0
   20.6934   17.6789   19.4401 H   0  0  0  0  0  0  0  0  0  0  0  0
  1  2  1  0  0  0  0
  1  3  1  0  0  0  0
  1  4  1  0  0  0  0
  1  5  1  0  0  0  0
  5  6  1  0  0  0  0
  5  7  1  0  0  0  0
  5  8  1  0  0  0  0
  8  9  1  0  0  0  0
  8 10  1  0  0  0  0
  8 11  1  0  0  0  0
 11 12  1  0  0  0  0
 11 13  1  0  0  0  0
 11 14  1  0  0  0  0
 14 15  1  0  0  0  0
 14 16  1  0  0  0  0
 14 17  1  0  0  0  0
 17 18  1  0  0  0  0
 17 19  1  0  0  0  0
 17 20  1  0  0  0  0
 20 21  1  0  0  0  0
 20 22  1  0  0  0  0
 20 23  1  0  0  0  0
 23 24  1  0  0  0  0
 23 25  1  0  0  0  0
 23 26  1  0  0  0  0
M  END
> <VConfSearch Rank>
918

> <Conf_Id>
96

> <Delta U+W>
0.912

> <U+W>
-4.640

> <U>
48.723

> <W>
-53.364

> <W(PB)>
-55.683

> <W(SA)>
2.320

> <Valence>
2.962

> <Coulomb>
44.993

> <VdW>
0.768

> <VdW6>
-7.008

> <VdW12>
7.776

> <Bond>
0.188

> <Angle>
0.757

> <Pdih>
2.018

> <Idih>
0.000

> <Tether>
0.000

$$$$
VeraChem MOL file


 26 25  0  0  0  0  0  0  0  0999 V2000     
   21.7817   17.5574   20.6636 C   0  0  0  0  0  0  0  0  0  0  0  0
   22.5770   17.0055   20.1461 H   0  0  0  0  0  0  0  0  0  0  0  0
   21.2313   18.1372   19.9113 H   0  0  0  0  0  0  0  0  0  0  0  0
   22.2642   18.2597   21.3545 H   0  0  0  0  0  0  0  0  0  0  0  0
   20.8433   16.5813   21.4090 C   0  0  0  0  0  0  0  0  0  0  0  0
   21.4107   16.0366   22.1765 H   0  0  0  0  0  0  0  0  0  0  0  0
   20.4833   15.8244   20.6981 H   0  0  0  0  0  0  0  0  0  0  0  0
   19.6205   17.2756   22.0559 C   0  0  0  0  0  0  0  0  0  0  0  0
   19.0453   17.8018   21.2817 H   0  0  0  0  0  0  0  0  0  0  0  0
   18.9553   16.5013   22.4624 H   0  0  0  0  0  0  0  0  0  0  0  0
   19.9982   18.2625   23.1866 C   0  0  0  0  0  0  0  0  0  0  0  0
   20.6098   19.0753   22.7753 H   0  0  0  0  0  0  0  0  0  0  0  0
   20.6146   17.7442   23.9340 H   0  0  0  0  0  0  0  0  0  0  0  0
   18.7433   18.8541   23.8725 C   0  0  0  0  0  0  0  0  0  0  0  0
   18.1390   19.3985   23.1335 H   0  0  0  0  0  0  0  0  0  0  0  0
   18.1140   18.0338   24.2446 H   0  0  0  0  0  0  0  0  0  0  0  0
   19.0824   19.7931   25.0540 C   0  0  0  0  0  0  0  0  0  0  0  0
   19.6664   19.2448   25.8052 H   0  0  0  0  0  0  0  0  0  0  0  0
   18.1489   20.1001   25.5442 H   0  0  0  0  0  0  0  0  0  0  0  0
   19.8558   21.0500   24.6129 C   0  0  0  0  0  0  0  0  0  0  0  0
   20.8088   20.7598   24.1633 H   0  0  0  0  0  0  0  0  0  0  0  0
   19.2742   21.5962   23.8654 H   0  0  0  0  0  0  0  0  0  0  0  0
   20.1517   21.9963   25.7584 N   0  3  0  0  0  0  0  0  0  0  0  0
   20.7202   21.5500   26.4856 H   0  0  0  0  0  0  0  0  0  0  0  0
   19.2936   22.3307   26.2091 H   0  0  0  0  0  0  0  0  0  0  0  0
   20.6664   22.8260   25.4440 H   0  0  0  0  0  0  0  0  0  0  0  0
  1  2  1  0  0  0  0
  1  3  1  0  0  0  0
  1  4  1  0  0  0  0
  1  5  1  0  0  0  0
  5  6  1  0  0  0  0
  5  7  1  0  0  0  0
  5  8  1  0  0  0  0
  8  9  1  0  0  0  0
  8 10  1  0  0  0  0
  8 11  1  0  0  0  0
 11 12  1  0  0  0  0
 11 13  1  0  0  0  0
 11 14  1  0  0  0  0
 14 15  1  0  0  0  0
 14 16  1  0  0  0  0
 14 17  1  0  0  0  0
 17 18  1  0  0  0  0
 17 19  1  0  0  0  0
 17 20  1  0  0  0  0
 20 21  1  0  0  0  0
 20 22  1  0  0  0  0
 20 23  1  0  0  0  0
 23 24  1  0  0  0  0
 23 25  1  0  0  0  0
 23 26  1  0  0  0  0
M  END
> <VConfSearch Rank>
919

> <Conf_Id>
133

> <Delta U+W>
0.844

> <U+W>
-4.708

> <U>
48.723

> <W>
-53.431

> <W(PB)>
-55.776

> <W(SA)>
2.344

> <Valence>
2.962

> <Coulomb>
44.993

> <VdW>
0.768

> <VdW6>
-7.008

> <VdW12>
7.776

> <Bond>
0.188

> <Angle>
0.756

> <Pdih>
2.018

> <Idih>
0.000

> <Tether>
0.000

$$$$
VeraChem MOL file


 26 25  0  0  0  0  0  0  0  0999 V2000     
   19.4565   21.8101   24.9530 C   0  0  0  0  0  0  0  0  0  0  0  0
   20.1216   22.6483   24.7080 H   0  0  0  0  0  0  0  0  0  0  0  0
   18.9802   21.4662   24.0263 H   0  0  0  0  0  0  0  0  0  0  0  0
   18.6640   22.1906   25.6102 H   0  0  0  0  0  0  0  0  0  0  0  0
   20.2338   20.6688   25.6469 C   0  0  0  0  0  0  0  0  0  0  0  0
   19.5530   19.8349   25.8637 H   0  0  0  0  0  0  0  0  0  0  0  0
   20.5903   21.0264   26.6230 H   0  0  0  0  0  0  0  0  0  0  0  0
   21.4526   20.1677   24.8306 C   0  0  0  0  0  0  0  0  0  0  0  0
   22.1760   20.9889   24.7334 H   0  0  0  0  0  0  0  0  0  0  0  0
   21.9644   19.3831   25.4047 H   0  0  0  0  0  0  0  0  0  0  0  0
   21.1250   19.6243   23.4158 C   0  0  0  0  0  0  0  0  0  0  0  0
   22.0660   19.3212   22.9364 H   0  0  0  0  0  0  0  0  0  0  0  0
   20.7143   20.4289   22.7915 H   0  0  0  0  0  0  0  0  0  0  0  0
   20.1533   18.4199   23.4249 C   0  0  0  0  0  0  0  0  0  0  0  0
   20.5465   17.6354   24.0863 H   0  0  0  0  0  0  0  0  0  0  0  0
   19.1817   18.7263   23.8347 H   0  0  0  0  0  0  0  0  0  0  0  0
   19.9428   17.8418   22.0083 C   0  0  0  0  0  0  0  0  0  0  0  0
   20.9071   17.5212   21.5919 H   0  0  0  0  0  0  0  0  0  0  0  0
   19.5488   18.6234   21.3450 H   0  0  0  0  0  0  0  0  0  0  0  0
   18.9715   16.6483   22.0260 C   0  0  0  0  0  0  0  0  0  0  0  0
   19.3677   15.8608   22.6728 H   0  0  0  0  0  0  0  0  0  0  0  0
   18.0043   16.9666   22.4243 H   0  0  0  0  0  0  0  0  0  0  0  0
   18.7384   16.0523   20.6527 N   0  3  0  0  0  0  0  0  0  0  0  0
   18.0888   15.2590   20.6870 H   0  0  0  0  0  0  0  0  0  0  0  0
   19.6081   15.7078   20.2330 H   0  0  0  0  0  0  0  0  0  0  0  0
   18.3395   16.7366   20.0018 H   0  0  0  0  0  0  0  0  0  0  0  0
  1  2  1  0  0  0  0
  1  3  1  0  0  0  0
  1  4  1  0  0  0  0
  1  5  1  0  0  0  0
  5  6  1  0  0  0  0
  5  7  1  0  0  0  0
  5  8  1  0  0  0  0
  8  9  1  0  0  0  0
  8 10  1  0  0  0  0
  8 11  1  0  0  0  0
 11 12  1  0  0  0  0
 11 13  1  0  0  0  0
 11 14  1  0  0  0  0
 14 15  1  0  0  0  0
 14 16  1  0  0  0  0
 14 17  1  0  0  0  0
 17 18  1  0  0  0  0
 17 19  1  0  0  0  0
 17 20  1  0  0  0  0
 20 21  1  0  0  0  0
 20 22  1  0  0  0  0
 20 23  1  0  0  0  0
 23 24  1  0  0  0  0
 23 25  1  0  0  0  0
 23 26  1  0  0  0  0
M  END
> <VConfSearch Rank>
920

> <Conf_Id>
106

> <Delta U+W>
0.767

> <U+W>
-4.785

> <U>
48.494

> <W>
-53.279

> <W(PB)>
-55.569

> <W(SA)>
2.290

> <Valence>
3.117

> <Coulomb>
44.693

> <VdW>
0.684

> <VdW6>
-7.347

> <VdW12>
8.030

> <Bond>
0.208

> <Angle>
1.039

> <Pdih>
1.870

> <Idih>
0.000

> <Tether>
0.000

$$$$
VeraChem MOL file


 26 25  0  0  0  0  0  0  0  0999 V2000     
   19.4240   18.0384   18.9263 C   0  0  0  0  0  0  0  0  0  0  0  0
   19.8839   17.0423   18.9640 H   0  0  0  0  0  0  0  0  0  0  0  0
   18.3352   17.9151   18.9937 H   0  0  0  0  0  0  0  0  0  0  0  0
   19.6533   18.4786   17.9472 H   0  0  0  0  0  0  0  0  0  0  0  0
   19.9521   18.9367   20.0649 C   0  0  0  0  0  0  0  0  0  0  0  0
   19.5004   19.9351   19.9808 H   0  0  0  0  0  0  0  0  0  0  0  0
   21.0372   19.0691   19.9512 H   0  0  0  0  0  0  0  0  0  0  0  0
   19.6423   18.3394   21.4554 C   0  0  0  0  0  0  0  0  0  0  0  0
   18.5569   18.2067   21.5633 H   0  0  0  0  0  0  0  0  0  0  0  0
   20.0939   17.3407   21.5338 H   0  0  0  0  0  0  0  0  0  0  0  0
   20.1696   19.2362   22.5982 C   0  0  0  0  0  0  0  0  0  0  0  0
   19.7177   20.2348   22.5189 H   0  0  0  0  0  0  0  0  0  0  0  0
   21.2549   19.3689   22.4892 H   0  0  0  0  0  0  0  0  0  0  0  0
   19.8595   18.6381   23.9891 C   0  0  0  0  0  0  0  0  0  0  0  0
   18.7741   18.5053   24.0986 H   0  0  0  0  0  0  0  0  0  0  0  0
   20.3114   17.6395   24.0689 H   0  0  0  0  0  0  0  0  0  0  0  0
   20.3861   19.5340   25.1319 C   0  0  0  0  0  0  0  0  0  0  0  0
   19.9326   20.5316   25.0589 H   0  0  0  0  0  0  0  0  0  0  0  0
   21.4716   19.6650   25.0290 H   0  0  0  0  0  0  0  0  0  0  0  0
   20.0723   18.9292   26.5116 C   0  0  0  0  0  0  0  0  0  0  0  0
   18.9911   18.8123   26.6251 H   0  0  0  0  0  0  0  0  0  0  0  0
   20.5357   17.9424   26.5951 H   0  0  0  0  0  0  0  0  0  0  0  0
   20.5738   19.7800   27.6606 N   0  3  0  0  0  0  0  0  0  0  0  0
   20.3545   19.3593   28.5702 H   0  0  0  0  0  0  0  0  0  0  0  0
   20.1536   20.7152   27.6555 H   0  0  0  0  0  0  0  0  0  0  0  0
   21.5908   19.9058   27.6276 H   0  0  0  0  0  0  0  0  0  0  0  0
  1  2  1  0  0  0  0
  1  3  1  0  0  0  0
  1  4  1  0  0  0  0
  1  5  1  0  0  0  0
  5  6  1  0  0  0  0
  5  7  1  0  0  0  0
  5  8  1  0  0  0  0
  8  9  1  0  0  0  0
  8 10  1  0  0  0  0
  8 11  1  0  0  0  0
 11 12  1  0  0  0  0
 11 13  1  0  0  0  0
 11 14  1  0  0  0  0
 14 15  1  0  0  0  0
 14 16  1  0  0  0  0
 14 17  1  0  0  0  0
 17 18  1  0  0  0  0
 17 19  1  0  0  0  0
 17 20  1  0  0  0  0
 20 21  1  0  0  0  0
 20 22  1  0  0  0  0
 20 23  1  0  0  0  0
 23 24  1  0  0  0  0
 23 25  1  0  0  0  0
 23 26  1  0  0  0  0
M  END
> <VConfSearch Rank>
921

> <Conf_Id>
25

> <Delta U+W>
0.000

> <U+W>
-5.552

> <U>
47.192

> <W>
-52.745

> <W(PB)>
-55.134

> <W(SA)>
2.389

> <Valence>
2.156

> <Coulomb>
44.449

> <VdW>
0.587

> <VdW6>
-5.761

> <VdW12>
6.348

> <Bond>
0.129

> <Angle>
0.393

> <Pdih>
1.634

> <Idih>
0.000

> <Tether>
0.000

$$$$
VeraChem MOL file


 26 25  0  0  0  0  0  0  0  0999 V2000     
   21.5522   18.5731   27.2984 C   0  0  0  0  0  0  0  0  0  0  0  0
   22.4861   18.0774   27.0029 H   0  0  0  0  0  0  0  0  0  0  0  0
   21.7452   19.6515   27.3695 H   0  0  0  0  0  0  0  0  0  0  0  0
   21.2814   18.2126   28.2992 H   0  0  0  0  0  0  0  0  0  0  0  0
   20.4233   18.2770   26.2884 C   0  0  0  0  0  0  0  0  0  0  0  0
   19.4950   18.7574   26.6282 H   0  0  0  0  0  0  0  0  0  0  0  0
   20.2301   17.1953   26.2645 H   0  0  0  0  0  0  0  0  0  0  0  0
   20.7793   18.7749   24.8701 C   0  0  0  0  0  0  0  0  0  0  0  0
   20.9738   19.8559   24.8997 H   0  0  0  0  0  0  0  0  0  0  0  0
   21.7089   18.2937   24.5358 H   0  0  0  0  0  0  0  0  0  0  0  0
   19.6510   18.4801   23.8559 C   0  0  0  0  0  0  0  0  0  0  0  0
   18.7218   18.9617   24.1909 H   0  0  0  0  0  0  0  0  0  0  0  0
   19.4566   17.3989   23.8281 H   0  0  0  0  0  0  0  0  0  0  0  0
   20.0077   18.9778   22.4370 C   0  0  0  0  0  0  0  0  0  0  0  0
   20.2057   20.0574   22.4716 H   0  0  0  0  0  0  0  0  0  0  0  0
   20.9354   18.4938   22.1009 H   0  0  0  0  0  0  0  0  0  0  0  0
   18.8767   18.6826   21.4236 C   0  0  0  0  0  0  0  0  0  0  0  0
   17.9521   19.1876   21.7335 H   0  0  0  0  0  0  0  0  0  0  0  0
   18.6606   17.6059   21.4232 H   0  0  0  0  0  0  0  0  0  0  0  0
   19.2382   19.1075   19.9872 C   0  0  0  0  0  0  0  0  0  0  0  0
   20.1619   18.6110   19.6779 H   0  0  0  0  0  0  0  0  0  0  0  0
   18.4405   18.7988   19.3061 H   0  0  0  0  0  0  0  0  0  0  0  0
   19.4298   20.6025   19.8229 N   0  3  0  0  0  0  0  0  0  0  0  0
   20.1924   20.9545   20.4098 H   0  0  0  0  0  0  0  0  0  0  0  0
   18.5851   21.1249   20.0774 H   0  0  0  0  0  0  0  0  0  0  0  0
   19.6563   20.8531   18.8543 H   0  0  0  0  0  0  0  0  0  0  0  0
  1  2  1  0  0  0  0
  1  3  1  0  0  0  0
  1  4  1  0  0  0  0
  1  5  1  0  0  0  0
  5  6  1  0  0  0  0
  5  7  1  0  0  0  0
  5  8  1  0  0  0  0
  8  9  1  0  0  0  0
  8 10  1  0  0  0  0
  8 11  1  0  0  0  0
 11 12  1  0  0  0  0
 11 13  1  0  0  0  0
 11 14  1  0  0  0  0
 14 15  1  0  0  0  0
 14 16  1  0  0  0  0
 14 17  1  0  0  0  0
 17 18  1  0  0  0  0
 17 19  1  0  0  0  0
 17 20  1  0  0  0  0
 20 21  1  0  0  0  0
 20 22  1  0  0  0  0
 20 23  1  0  0  0  0
 23 24  1  0  0  0  0
 23 25  1  0  0  0  0
 23 26  1  0  0  0  0
M  END
> <VConfSearch Rank>
922

> <Conf_Id>
20

> <Delta U+W>
0.150

> <U+W>
-5.403

> <U>
47.845

> <W>
-53.248

> <W(PB)>
-55.599

> <W(SA)>
2.351

> <Valence>
2.258

> <Coulomb>
44.893

> <VdW>
0.694

> <VdW6>
-6.285

> <VdW12>
6.979

> <Bond>
0.149

> <Angle>
0.434

> <Pdih>
1.675

> <Idih>
0.000

> <Tether>
0.000

$$$$
VeraChem MOL file


 26 25  0  0  0  0  0  0  0  0999 V2000     
   21.5206   22.3675   21.1730 C   0  0  0  0  0  0  0  0  0  0  0  0
   21.2452   23.0365   21.9987 H   0  0  0  0  0  0  0  0  0  0  0  0
   22.5748   22.0871   21.2972 H   0  0  0  0  0  0  0  0  0  0  0  0
   21.4306   22.9333   20.2366 H   0  0  0  0  0  0  0  0  0  0  0  0
   20.6140   21.1188   21.1446 C   0  0  0  0  0  0  0  0  0  0  0  0
   20.8908   20.4867   20.2892 H   0  0  0  0  0  0  0  0  0  0  0  0
   19.5716   21.4288   20.9855 H   0  0  0  0  0  0  0  0  0  0  0  0
   20.7219   20.3036   22.4523 C   0  0  0  0  0  0  0  0  0  0  0  0
   21.7658   19.9980   22.6081 H   0  0  0  0  0  0  0  0  0  0  0  0
   20.4466   20.9403   23.3044 H   0  0  0  0  0  0  0  0  0  0  0  0
   19.8152   19.0523   22.4276 C   0  0  0  0  0  0  0  0  0  0  0  0
   20.0907   18.4170   21.5744 H   0  0  0  0  0  0  0  0  0  0  0  0
   18.7715   19.3587   22.2720 H   0  0  0  0  0  0  0  0  0  0  0  0
   19.9240   18.2365   23.7357 C   0  0  0  0  0  0  0  0  0  0  0  0
   20.9674   17.9276   23.8896 H   0  0  0  0  0  0  0  0  0  0  0  0
   19.6525   18.8774   24.5851 H   0  0  0  0  0  0  0  0  0  0  0  0
   19.0150   16.9849   23.7093 C   0  0  0  0  0  0  0  0  0  0  0  0
   19.2689   16.3694   22.8360 H   0  0  0  0  0  0  0  0  0  0  0  0
   17.9655   17.2843   23.5871 H   0  0  0  0  0  0  0  0  0  0  0  0
   19.1587   16.1179   24.9750 C   0  0  0  0  0  0  0  0  0  0  0  0
   18.5597   15.2100   24.8625 H   0  0  0  0  0  0  0  0  0  0  0  0
   20.2038   15.8231   25.1026 H   0  0  0  0  0  0  0  0  0  0  0  0
   18.7070   16.8120   26.2450 N   0  3  0  0  0  0  0  0  0  0  0  0
   17.7226   17.0941   26.1953 H   0  0  0  0  0  0  0  0  0  0  0  0
   19.2556   17.6571   26.4315 H   0  0  0  0  0  0  0  0  0  0  0  0
   18.8033   16.2043   27.0658 H   0  0  0  0  0  0  0  0  0  0  0  0
  1  2  1  0  0  0  0
  1  3  1  0  0  0  0
  1  4  1  0  0  0  0
  1  5  1  0  0  0  0
  5  6  1  0  0  0  0
  5  7  1  0  0  0  0
  5  8  1  0  0  0  0
  8  9  1  0  0  0  0
  8 10  1  0  0  0  0
  8 11  1  0  0  0  0
 11 12  1  0  0  0  0
 11 13  1  0  0  0  0
 11 14  1  0  0  0  0
 14 15  1  0  0  0  0
 14 16  1  0  0  0  0
 14 17  1  0  0  0  0
 17 18  1  0  0  0  0
 17 19  1  0  0  0  0
 17 20  1  0  0  0  0
 20 21  1  0  0  0  0
 20 22  1  0  0  0  0
 20 23  1  0  0  0  0
 23 24  1  0  0  0  0
 23 25  1  0  0  0  0
 23 26  1  0  0  0  0
M  END
> <VConfSearch Rank>
923

> <Conf_Id>
19

> <Delta U+W>
0.162

> <U+W>
-5.391

> <U>
47.845

> <W>
-53.235

> <W(PB)>
-55.585

> <W(SA)>
2.349

> <Valence>
2.258

> <Coulomb>
44.893

> <VdW>
0.694

> <VdW6>
-6.285

> <VdW12>
6.979

> <Bond>
0.149

> <Angle>
0.434

> <Pdih>
1.675

> <Idih>
0.000

> <Tether>
0.000

$$$$
VeraChem MOL file


 26 25  0  0  0  0  0  0  0  0999 V2000     
   21.2099   20.6272   26.9629 C   0  0  0  0  0  0  0  0  0  0  0  0
   20.3905   20.9226   27.6311 H   0  0  0  0  0  0  0  0  0  0  0  0
   21.6699   19.7163   27.3678 H   0  0  0  0  0  0  0  0  0  0  0  0
   21.9649   21.4238   26.9836 H   0  0  0  0  0  0  0  0  0  0  0  0
   20.6988   20.3980   25.5247 C   0  0  0  0  0  0  0  0  0  0  0  0
   21.5511   20.1455   24.8802 H   0  0  0  0  0  0  0  0  0  0  0  0
   20.2715   21.3333   25.1368 H   0  0  0  0  0  0  0  0  0  0  0  0
   19.6357   19.2755   25.4697 C   0  0  0  0  0  0  0  0  0  0  0  0
   20.0788   18.3287   25.8080 H   0  0  0  0  0  0  0  0  0  0  0  0
   18.8318   19.5106   26.1810 H   0  0  0  0  0  0  0  0  0  0  0  0
   19.0083   19.0834   24.0671 C   0  0  0  0  0  0  0  0  0  0  0  0
   18.5519   20.0266   23.7363 H   0  0  0  0  0  0  0  0  0  0  0  0
   18.1882   18.3567   24.1503 H   0  0  0  0  0  0  0  0  0  0  0  0
   20.0148   18.5873   23.0012 C   0  0  0  0  0  0  0  0  0  0  0  0
   20.8017   19.3379   22.8494 H   0  0  0  0  0  0  0  0  0  0  0  0
   20.5092   17.6736   23.3593 H   0  0  0  0  0  0  0  0  0  0  0  0
   19.3242   18.3021   21.6493 C   0  0  0  0  0  0  0  0  0  0  0  0
   18.8298   19.2135   21.2873 H   0  0  0  0  0  0  0  0  0  0  0  0
   18.5421   17.5433   21.7856 H   0  0  0  0  0  0  0  0  0  0  0  0
   20.3321   17.8132   20.5942 C   0  0  0  0  0  0  0  0  0  0  0  0
   21.1040   18.5727   20.4426 H   0  0  0  0  0  0  0  0  0  0  0  0
   20.8152   16.8966   20.9435 H   0  0  0  0  0  0  0  0  0  0  0  0
   19.6922   17.5224   19.2521 N   0  3  0  0  0  0  0  0  0  0  0  0
   19.2423   18.3537   18.8549 H   0  0  0  0  0  0  0  0  0  0  0  0
   18.9736   16.7942   19.3210 H   0  0  0  0  0  0  0  0  0  0  0  0
   20.3806   17.1981   18.5640 H   0  0  0  0  0  0  0  0  0  0  0  0
  1  2  1  0  0  0  0
  1  3  1  0  0  0  0
  1  4  1  0  0  0  0
  1  5  1  0  0  0  0
  5  6  1  0  0  0  0
  5  7  1  0  0  0  0
  5  8  1  0  0  0  0
  8  9  1  0  0  0  0
  8 10  1  0  0  0  0
  8 11  1  0  0  0  0
 11 12  1  0  0  0  0
 11 13  1  0  0  0  0
 11 14  1  0  0  0  0
 14 15  1  0  0  0  0
 14 16  1  0  0  0  0
 14 17  1  0  0  0  0
 17 18  1  0  0  0  0
 17 19  1  0  0  0  0
 17 20  1  0  0  0  0
 20 21  1  0  0  0  0
 20 22  1  0  0  0  0
 20 23  1  0  0  0  0
 23 24  1  0  0  0  0
 23 25  1  0  0  0  0
 23 26  1  0  0  0  0
M  END
> <VConfSearch Rank>
924

> <Conf_Id>
37

> <Delta U+W>
0.565

> <U+W>
-4.988

> <U>
48.035

> <W>
-53.022

> <W(PB)>
-55.379

> <W(SA)>
2.357

> <Valence>
2.701

> <Coulomb>
44.622

> <VdW>
0.712

> <VdW6>
-6.418

> <VdW12>
7.129

> <Bond>
0.168

> <Angle>
0.659

> <Pdih>
1.875

> <Idih>
0.000

> <Tether>
0.000

$$$$
VeraChem MOL file


 26 25  0  0  0  0  0  0  0  0999 V2000     
   23.4076   18.0439   25.1720 C   0  0  0  0  0  0  0  0  0  0  0  0
   23.3633   17.1603   24.5220 H   0  0  0  0  0  0  0  0  0  0  0  0
   23.9829   18.8217   24.6531 H   0  0  0  0  0  0  0  0  0  0  0  0
   23.9584   17.7668   26.0802 H   0  0  0  0  0  0  0  0  0  0  0  0
   21.9909   18.5444   25.5253 C   0  0  0  0  0  0  0  0  0  0  0  0
   22.0678   19.4059   26.2034 H   0  0  0  0  0  0  0  0  0  0  0  0
   21.4520   17.7578   26.0718 H   0  0  0  0  0  0  0  0  0  0  0  0
   21.1934   18.9423   24.2635 C   0  0  0  0  0  0  0  0  0  0  0  0
   21.7350   19.7301   23.7219 H   0  0  0  0  0  0  0  0  0  0  0  0
   21.1322   18.0765   23.5915 H   0  0  0  0  0  0  0  0  0  0  0  0
   19.7712   19.4405   24.6165 C   0  0  0  0  0  0  0  0  0  0  0  0
   19.8498   20.2557   25.3491 H   0  0  0  0  0  0  0  0  0  0  0  0
   19.2084   18.6361   25.1099 H   0  0  0  0  0  0  0  0  0  0  0  0
   18.9740   19.9566   23.3934 C   0  0  0  0  0  0  0  0  0  0  0  0
   18.0316   20.3941   23.7514 H   0  0  0  0  0  0  0  0  0  0  0  0
   19.5285   20.7730   22.9101 H   0  0  0  0  0  0  0  0  0  0  0  0
   18.6536   18.8570   22.3539 C   0  0  0  0  0  0  0  0  0  0  0  0
   18.1442   18.0186   22.8475 H   0  0  0  0  0  0  0  0  0  0  0  0
   19.5819   18.4632   21.9214 H   0  0  0  0  0  0  0  0  0  0  0  0
   17.7645   19.3995   21.2211 C   0  0  0  0  0  0  0  0  0  0  0  0
   16.8273   19.7782   21.6379 H   0  0  0  0  0  0  0  0  0  0  0  0
   18.2745   20.2243   20.7160 H   0  0  0  0  0  0  0  0  0  0  0  0
   17.4238   18.3526   20.1803 N   0  3  0  0  0  0  0  0  0  0  0  0
   16.9172   17.5596   20.5874 H   0  0  0  0  0  0  0  0  0  0  0  0
   18.2633   17.9749   19.7288 H   0  0  0  0  0  0  0  0  0  0  0  0
   16.8308   18.7349   19.4355 H   0  0  0  0  0  0  0  0  0  0  0  0
  1  2  1  0  0  0  0
  1  3  1  0  0  0  0
  1  4  1  0  0  0  0
  1  5  1  0  0  0  0
  5  6  1  0  0  0  0
  5  7  1  0  0  0  0
  5  8  1  0  0  0  0
  8  9  1  0  0  0  0
  8 10  1  0  0  0  0
  8 11  1  0  0  0  0
 11 12  1  0  0  0  0
 11 13  1  0  0  0  0
 11 14  1  0  0  0  0
 14 15  1  0  0  0  0
 14 16  1  0  0  0  0
 14 17  1  0  0  0  0
 17 18  1  0  0  0  0
 17 19  1  0  0  0  0
 17 20  1  0  0  0  0
 20 21  1  0  0  0  0
 20 22  1  0  0  0  0
 20 23  1  0  0  0  0
 23 24  1  0  0  0  0
 23 25  1  0  0  0  0
 23 26  1  0  0  0  0
M  END
> <VConfSearch Rank>
925

> <Conf_Id>
35

> <Delta U+W>
0.587

> <U+W>
-4.965

> <U>
48.214

> <W>
-53.179

> <W(PB)>
-55.527

> <W(SA)>
2.348

> <Valence>
2.697

> <Coulomb>
44.819

> <VdW>
0.699

> <VdW6>
-6.437

> <VdW12>
7.136

> <Bond>
0.168

> <Angle>
0.657

> <Pdih>
1.872

> <Idih>
0.000

> <Tether>
0.000

$$$$
VeraChem MOL file


 26 25  0  0  0  0  0  0  0  0999 V2000     
   17.9566   20.2757   20.1117 C   0  0  0  0  0  0  0  0  0  0  0  0
   17.2711   20.8948   20.7049 H   0  0  0  0  0  0  0  0  0  0  0  0
   18.8734   20.8532   19.9355 H   0  0  0  0  0  0  0  0  0  0  0  0
   17.4844   20.0879   19.1386 H   0  0  0  0  0  0  0  0  0  0  0  0
   18.2677   18.9465   20.8318 C   0  0  0  0  0  0  0  0  0  0  0  0
   18.9279   18.3354   20.2004 H   0  0  0  0  0  0  0  0  0  0  0  0
   17.3371   18.3765   20.9623 H   0  0  0  0  0  0  0  0  0  0  0  0
   18.9328   19.1822   22.2061 C   0  0  0  0  0  0  0  0  0  0  0  0
   19.8553   19.7598   22.0624 H   0  0  0  0  0  0  0  0  0  0  0  0
   18.2684   19.7916   22.8342 H   0  0  0  0  0  0  0  0  0  0  0  0
   19.2489   17.8498   22.9272 C   0  0  0  0  0  0  0  0  0  0  0  0
   19.9562   17.2617   22.3263 H   0  0  0  0  0  0  0  0  0  0  0  0
   18.3291   17.2521   22.9928 H   0  0  0  0  0  0  0  0  0  0  0  0
   19.8137   18.0377   24.3568 C   0  0  0  0  0  0  0  0  0  0  0  0
   19.0986   18.6109   24.9631 H   0  0  0  0  0  0  0  0  0  0  0  0
   19.8971   17.0497   24.8309 H   0  0  0  0  0  0  0  0  0  0  0  0
   21.1973   18.7285   24.3904 C   0  0  0  0  0  0  0  0  0  0  0  0
   21.1198   19.7498   23.9969 H   0  0  0  0  0  0  0  0  0  0  0  0
   21.8984   18.1839   23.7441 H   0  0  0  0  0  0  0  0  0  0  0  0
   21.7600   18.7850   25.8215 C   0  0  0  0  0  0  0  0  0  0  0  0
   21.0729   19.3405   26.4656 H   0  0  0  0  0  0  0  0  0  0  0  0
   21.8596   17.7710   26.2183 H   0  0  0  0  0  0  0  0  0  0  0  0
   23.1177   19.4529   25.8999 N   0  3  0  0  0  0  0  0  0  0  0  0
   23.0869   20.4219   25.5664 H   0  0  0  0  0  0  0  0  0  0  0  0
   23.8185   18.9614   25.3355 H   0  0  0  0  0  0  0  0  0  0  0  0
   23.4741   19.4794   26.8615 H   0  0  0  0  0  0  0  0  0  0  0  0
  1  2  1  0  0  0  0
  1  3  1  0  0  0  0
  1  4  1  0  0  0  0
  1  5  1  0  0  0  0
  5  6  1  0  0  0  0
  5  7  1  0  0  0  0
  5  8  1  0  0  0  0
  8  9  1  0  0  0  0
  8 10  1  0  0  0  0
  8 11  1  0  0  0  0
 11 12  1  0  0  0  0
 11 13  1  0  0  0  0
 11 14  1  0  0  0  0
 14 15  1  0  0  0  0
 14 16  1  0  0  0  0
 14 17  1  0  0  0  0
 17 18  1  0  0  0  0
 17 19  1  0  0  0  0
 17 20  1  0  0  0  0
 20 21  1  0  0  0  0
 20 22  1  0  0  0  0
 20 23  1  0  0  0  0
 23 24  1  0  0  0  0
 23 25  1  0  0  0  0
 23 26  1  0  0  0  0
M  END
> <VConfSearch Rank>
926

> <Conf_Id>
36

> <Delta U+W>
0.565

> <U+W>
-4.987

> <U>
48.214

> <W>
-53.201

> <W(PB)>
-55.543

> <W(SA)>
2.342

> <Valence>
2.697

> <Coulomb>
44.819

> <VdW>
0.698

> <VdW6>
-6.437

> <VdW12>
7.136

> <Bond>
0.168

> <Angle>
0.657

> <Pdih>
1.872

> <Idih>
0.000

> <Tether>
0.000

$$$$
VeraChem MOL file


 26 25  0  0  0  0  0  0  0  0999 V2000     
   21.5391   19.8746   27.1691 C   0  0  0  0  0  0  0  0  0  0  0  0
   21.8324   18.8912   27.5591 H   0  0  0  0  0  0  0  0  0  0  0  0
   22.2792   20.6083   27.5140 H   0  0  0  0  0  0  0  0  0  0  0  0
   20.5694   20.1416   27.6092 H   0  0  0  0  0  0  0  0  0  0  0  0
   21.4635   19.8601   25.6276 C   0  0  0  0  0  0  0  0  0  0  0  0
   22.4548   19.6235   25.2162 H   0  0  0  0  0  0  0  0  0  0  0  0
   21.2017   20.8644   25.2660 H   0  0  0  0  0  0  0  0  0  0  0  0
   20.4280   18.8346   25.1152 C   0  0  0  0  0  0  0  0  0  0  0  0
   20.6926   17.8331   25.4817 H   0  0  0  0  0  0  0  0  0  0  0  0
   19.4392   19.0740   25.5305 H   0  0  0  0  0  0  0  0  0  0  0  0
   20.3495   18.8168   23.5719 C   0  0  0  0  0  0  0  0  0  0  0  0
   21.3383   18.5748   23.1580 H   0  0  0  0  0  0  0  0  0  0  0  0
   20.0910   19.8219   23.2127 H   0  0  0  0  0  0  0  0  0  0  0  0
   19.3105   17.7897   23.0618 C   0  0  0  0  0  0  0  0  0  0  0  0
   19.5532   16.7980   23.4682 H   0  0  0  0  0  0  0  0  0  0  0  0
   18.3140   18.0476   23.4467 H   0  0  0  0  0  0  0  0  0  0  0  0
   19.2583   17.6937   21.5188 C   0  0  0  0  0  0  0  0  0  0  0  0
   18.5680   16.8882   21.2351 H   0  0  0  0  0  0  0  0  0  0  0  0
   20.2468   17.4112   21.1329 H   0  0  0  0  0  0  0  0  0  0  0  0
   18.7993   19.0062   20.8561 C   0  0  0  0  0  0  0  0  0  0  0  0
   17.8146   19.2871   21.2394 H   0  0  0  0  0  0  0  0  0  0  0  0
   19.5033   19.8075   21.0946 H   0  0  0  0  0  0  0  0  0  0  0  0
   18.7030   18.9064   19.3475 N   0  3  0  0  0  0  0  0  0  0  0  0
   18.3960   19.7898   18.9259 H   0  0  0  0  0  0  0  0  0  0  0  0
   18.0334   18.1874   19.0541 H   0  0  0  0  0  0  0  0  0  0  0  0
   19.6053   18.6701   18.9217 H   0  0  0  0  0  0  0  0  0  0  0  0
  1  2  1  0  0  0  0
  1  3  1  0  0  0  0
  1  4  1  0  0  0  0
  1  5  1  0  0  0  0
  5  6  1  0  0  0  0
  5  7  1  0  0  0  0
  5  8  1  0  0  0  0
  8  9  1  0  0  0  0
  8 10  1  0  0  0  0
  8 11  1  0  0  0  0
 11 12  1  0  0  0  0
 11 13  1  0  0  0  0
 11 14  1  0  0  0  0
 14 15  1  0  0  0  0
 14 16  1  0  0  0  0
 14 17  1  0  0  0  0
 17 18  1  0  0  0  0
 17 19  1  0  0  0  0
 17 20  1  0  0  0  0
 20 21  1  0  0  0  0
 20 22  1  0  0  0  0
 20 23  1  0  0  0  0
 23 24  1  0  0  0  0
 23 25  1  0  0  0  0
 23 26  1  0  0  0  0
M  END
> <VConfSearch Rank>
927

> <Conf_Id>
44

> <Delta U+W>
0.371

> <U+W>
-5.181

> <U>
48.002

> <W>
-53.183

> <W(PB)>
-55.533

> <W(SA)>
2.350

> <Valence>
2.459

> <Coulomb>
44.901

> <VdW>
0.643

> <VdW6>
-6.362

> <VdW12>
7.005

> <Bond>
0.151

> <Angle>
0.519

> <Pdih>
1.789

> <Idih>
0.000

> <Tether>
0.000

$$$$
VeraChem MOL file


 26 25  0  0  0  0  0  0  0  0999 V2000     
   23.2401   19.1601   21.1620 C   0  0  0  0  0  0  0  0  0  0  0  0
   23.8379   18.6002   21.8928 H   0  0  0  0  0  0  0  0  0  0  0  0
   23.8271   19.2379   20.2377 H   0  0  0  0  0  0  0  0  0  0  0  0
   23.0930   20.1776   21.5444 H   0  0  0  0  0  0  0  0  0  0  0  0
   21.8926   18.4540   20.8882 C   0  0  0  0  0  0  0  0  0  0  0  0
   22.0924   17.4959   20.3884 H   0  0  0  0  0  0  0  0  0  0  0  0
   21.2987   19.0507   20.1818 H   0  0  0  0  0  0  0  0  0  0  0  0
   21.0657   18.1814   22.1682 C   0  0  0  0  0  0  0  0  0  0  0  0
   20.2046   17.5616   21.8882 H   0  0  0  0  0  0  0  0  0  0  0  0
   21.6634   17.5836   22.8700 H   0  0  0  0  0  0  0  0  0  0  0  0
   20.5709   19.4723   22.8693 C   0  0  0  0  0  0  0  0  0  0  0  0
   19.9698   20.0684   22.1691 H   0  0  0  0  0  0  0  0  0  0  0  0
   21.4347   20.0928   23.1403 H   0  0  0  0  0  0  0  0  0  0  0  0
   19.7537   19.2051   24.1577 C   0  0  0  0  0  0  0  0  0  0  0  0
   20.3498   18.5968   24.8520 H   0  0  0  0  0  0  0  0  0  0  0  0
   19.5845   20.1675   24.6586 H   0  0  0  0  0  0  0  0  0  0  0  0
   18.3900   18.5167   23.8976 C   0  0  0  0  0  0  0  0  0  0  0  0
   18.5500   17.5328   23.4401 H   0  0  0  0  0  0  0  0  0  0  0  0
   17.8013   19.1052   23.1815 H   0  0  0  0  0  0  0  0  0  0  0  0
   17.5729   18.3113   25.1880 C   0  0  0  0  0  0  0  0  0  0  0  0
   16.6716   17.7365   24.9579 H   0  0  0  0  0  0  0  0  0  0  0  0
   18.1638   17.7432   25.9115 H   0  0  0  0  0  0  0  0  0  0  0  0
   17.1354   19.6042   25.8483 N   0  3  0  0  0  0  0  0  0  0  0  0
   17.9367   20.1791   26.1265 H   0  0  0  0  0  0  0  0  0  0  0  0
   16.5822   19.4311   26.6947 H   0  0  0  0  0  0  0  0  0  0  0  0
   16.5559   20.1739   25.2233 H   0  0  0  0  0  0  0  0  0  0  0  0
  1  2  1  0  0  0  0
  1  3  1  0  0  0  0
  1  4  1  0  0  0  0
  1  5  1  0  0  0  0
  5  6  1  0  0  0  0
  5  7  1  0  0  0  0
  5  8  1  0  0  0  0
  8  9  1  0  0  0  0
  8 10  1  0  0  0  0
  8 11  1  0  0  0  0
 11 12  1  0  0  0  0
 11 13  1  0  0  0  0
 11 14  1  0  0  0  0
 14 15  1  0  0  0  0
 14 16  1  0  0  0  0
 14 17  1  0  0  0  0
 17 18  1  0  0  0  0
 17 19  1  0  0  0  0
 17 20  1  0  0  0  0
 20 21  1  0  0  0  0
 20 22  1  0  0  0  0
 20 23  1  0  0  0  0
 23 24  1  0  0  0  0
 23 25  1  0  0  0  0
 23 26  1  0  0  0  0
M  END
> <VConfSearch Rank>
928

> <Conf_Id>
112

> <Delta U+W>
1.422

> <U+W>
-4.130

> <U>
49.323

> <W>
-53.453

> <W(PB)>
-55.749

> <W(SA)>
2.296

> <Valence>
3.408

> <Coulomb>
44.893

> <VdW>
1.021

> <VdW6>
-7.481

> <VdW12>
8.503

> <Bond>
0.239

> <Angle>
1.013

> <Pdih>
2.156

> <Idih>
0.000

> <Tether>
0.000

$$$$
VeraChem MOL file


 26 25  0  0  0  0  0  0  0  0999 V2000     
   22.4210   19.9330   20.7272 C   0  0  0  0  0  0  0  0  0  0  0  0
   22.9559   20.3887   19.8839 H   0  0  0  0  0  0  0  0  0  0  0  0
   22.6442   20.5295   21.6206 H   0  0  0  0  0  0  0  0  0  0  0  0
   22.8269   18.9241   20.8766 H   0  0  0  0  0  0  0  0  0  0  0  0
   20.9028   19.8847   20.4423 C   0  0  0  0  0  0  0  0  0  0  0  0
   20.7382   19.3789   19.4805 H   0  0  0  0  0  0  0  0  0  0  0  0
   20.5166   20.9065   20.3221 H   0  0  0  0  0  0  0  0  0  0  0  0
   20.0965   19.1454   21.5372 C   0  0  0  0  0  0  0  0  0  0  0  0
   19.0507   19.0694   21.2094 H   0  0  0  0  0  0  0  0  0  0  0  0
   20.4712   18.1172   21.6245 H   0  0  0  0  0  0  0  0  0  0  0  0
   20.1460   19.8506   22.9164 C   0  0  0  0  0  0  0  0  0  0  0  0
   19.8926   20.9115   22.7842 H   0  0  0  0  0  0  0  0  0  0  0  0
   21.1680   19.8237   23.3169 H   0  0  0  0  0  0  0  0  0  0  0  0
   19.1754   19.2408   23.9576 C   0  0  0  0  0  0  0  0  0  0  0  0
   19.1922   19.8757   24.8533 H   0  0  0  0  0  0  0  0  0  0  0  0
   18.1478   19.2804   23.5704 H   0  0  0  0  0  0  0  0  0  0  0  0
   19.5286   17.7846   24.3520 C   0  0  0  0  0  0  0  0  0  0  0  0
   20.5630   17.7335   24.7171 H   0  0  0  0  0  0  0  0  0  0  0  0
   19.4747   17.1369   23.4682 H   0  0  0  0  0  0  0  0  0  0  0  0
   18.5774   17.2110   25.4201 C   0  0  0  0  0  0  0  0  0  0  0  0
   17.5447   17.2775   25.0673 H   0  0  0  0  0  0  0  0  0  0  0  0
   18.8135   16.1564   25.5861 H   0  0  0  0  0  0  0  0  0  0  0  0
   18.6642   17.9164   26.7595 N   0  3  0  0  0  0  0  0  0  0  0  0
   18.4167   18.9077   26.6836 H   0  0  0  0  0  0  0  0  0  0  0  0
   19.6091   17.8690   27.1542 H   0  0  0  0  0  0  0  0  0  0  0  0
   18.0298   17.5008   27.4503 H   0  0  0  0  0  0  0  0  0  0  0  0
  1  2  1  0  0  0  0
  1  3  1  0  0  0  0
  1  4  1  0  0  0  0
  1  5  1  0  0  0  0
  5  6  1  0  0  0  0
  5  7  1  0  0  0  0
  5  8  1  0  0  0  0
  8  9  1  0  0  0  0
  8 10  1  0  0  0  0
  8 11  1  0  0  0  0
 11 12  1  0  0  0  0
 11 13  1  0  0  0  0
 11 14  1  0  0  0  0
 14 15  1  0  0  0  0
 14 16  1  0  0  0  0
 14 17  1  0  0  0  0
 17 18  1  0  0  0  0
 17 19  1  0  0  0  0
 17 20  1  0  0  0  0
 20 21  1  0  0  0  0
 20 22  1  0  0  0  0
 20 23  1  0  0  0  0
 23 24  1  0  0  0  0
 23 25  1  0  0  0  0
 23 26  1  0  0  0  0
M  END
> <VConfSearch Rank>
929

> <Conf_Id>
130

> <Delta U+W>
1.282

> <U+W>
-4.270

> <U>
49.153

> <W>
-53.422

> <W(PB)>
-55.725

> <W(SA)>
2.303

> <Valence>
3.298

> <Coulomb>
44.907

> <VdW>
0.948

> <VdW6>
-7.574

> <VdW12>
8.522

> <Bond>
0.229

> <Angle>
0.912

> <Pdih>
2.157

> <Idih>
0.000

> <Tether>
0.000

$$$$
VeraChem MOL file


 26 25  0  0  0  0  0  0  0  0999 V2000     
   22.8246   19.6457   21.4884 C   0  0  0  0  0  0  0  0  0  0  0  0
   23.2693   18.7012   21.1491 H   0  0  0  0  0  0  0  0  0  0  0  0
   23.4958   20.4605   21.1878 H   0  0  0  0  0  0  0  0  0  0  0  0
   22.7884   19.6351   22.5849 H   0  0  0  0  0  0  0  0  0  0  0  0
   21.4194   19.8487   20.8780 C   0  0  0  0  0  0  0  0  0  0  0  0
   21.5211   19.9730   19.7908 H   0  0  0  0  0  0  0  0  0  0  0  0
   20.9868   20.7880   21.2472 H   0  0  0  0  0  0  0  0  0  0  0  0
   20.4520   18.6684   21.1501 C   0  0  0  0  0  0  0  0  0  0  0  0
   19.4900   18.8801   20.6634 H   0  0  0  0  0  0  0  0  0  0  0  0
   20.8455   17.7684   20.6579 H   0  0  0  0  0  0  0  0  0  0  0  0
   20.1997   18.3450   22.6457 C   0  0  0  0  0  0  0  0  0  0  0  0
   21.1367   18.0291   23.1231 H   0  0  0  0  0  0  0  0  0  0  0  0
   19.5290   17.4773   22.6944 H   0  0  0  0  0  0  0  0  0  0  0  0
   19.5790   19.5236   23.4378 C   0  0  0  0  0  0  0  0  0  0  0  0
   20.2626   20.3823   23.4151 H   0  0  0  0  0  0  0  0  0  0  0  0
   18.6502   19.8505   22.9502 H   0  0  0  0  0  0  0  0  0  0  0  0
   19.2907   19.1752   24.9171 C   0  0  0  0  0  0  0  0  0  0  0  0
   18.9551   20.0824   25.4370 H   0  0  0  0  0  0  0  0  0  0  0  0
   20.2195   18.8566   25.4090 H   0  0  0  0  0  0  0  0  0  0  0  0
   18.2181   18.0811   25.0751 C   0  0  0  0  0  0  0  0  0  0  0  0
   17.2941   18.3983   24.5842 H   0  0  0  0  0  0  0  0  0  0  0  0
   18.5592   17.1563   24.6031 H   0  0  0  0  0  0  0  0  0  0  0  0
   17.8961   17.7717   26.5229 N   0  3  0  0  0  0  0  0  0  0  0  0
   18.7204   17.4417   27.0356 H   0  0  0  0  0  0  0  0  0  0  0  0
   17.1803   17.0416   26.6064 H   0  0  0  0  0  0  0  0  0  0  0  0
   17.5414   18.5954   27.0198 H   0  0  0  0  0  0  0  0  0  0  0  0
  1  2  1  0  0  0  0
  1  3  1  0  0  0  0
  1  4  1  0  0  0  0
  1  5  1  0  0  0  0
  5  6  1  0  0  0  0
  5  7  1  0  0  0  0
  5  8  1  0  0  0  0
  8  9  1  0  0  0  0
  8 10  1  0  0  0  0
  8 11  1  0  0  0  0
 11 12  1  0  0  0  0
 11 13  1  0  0  0  0
 11 14  1  0  0  0  0
 14 15  1  0  0  0  0
 14 16  1  0  0  0  0
 14 17  1  0  0  0  0
 17 18  1  0  0  0  0
 17 19  1  0  0  0  0
 17 20  1  0  0  0  0
 20 21  1  0  0  0  0
 20 22  1  0  0  0  0
 20 23  1  0  0  0  0
 23 24  1  0  0  0  0
 23 25  1  0  0  0  0
 23 26  1  0  0  0  0
M  END
> <VConfSearch Rank>
930

> <Conf_Id>
111

> <Delta U+W>
1.290

> <U+W>
-4.262

> <U>
49.209

> <W>
-53.471

> <W(PB)>
-55.745

> <W(SA)>
2.274

> <Valence>
3.465

> <Coulomb>
44.958

> <VdW>
0.786

> <VdW6>
-7.903

> <VdW12>
8.689

> <Bond>
0.237

> <Angle>
1.212

> <Pdih>
2.015

> <Idih>
0.000

> <Tether>
0.000

$$$$
VeraChem MOL file


 26 25  0  0  0  0  0  0  0  0999 V2000     
   21.9530   22.4288   22.7094 C   0  0  0  0  0  0  0  0  0  0  0  0
   21.2579   22.7560   21.9251 H   0  0  0  0  0  0  0  0  0  0  0  0
   21.9236   23.1664   23.5219 H   0  0  0  0  0  0  0  0  0  0  0  0
   22.9658   22.4345   22.2860 H   0  0  0  0  0  0  0  0  0  0  0  0
   21.5854   21.0208   23.2238 C   0  0  0  0  0  0  0  0  0  0  0  0
   22.3144   20.7093   23.9848 H   0  0  0  0  0  0  0  0  0  0  0  0
   21.6660   20.3065   22.3938 H   0  0  0  0  0  0  0  0  0  0  0  0
   20.1590   20.9869   23.8219 C   0  0  0  0  0  0  0  0  0  0  0  0
   20.0780   21.7635   24.5950 H   0  0  0  0  0  0  0  0  0  0  0  0
   19.4258   21.2472   23.0461 H   0  0  0  0  0  0  0  0  0  0  0  0
   19.7839   19.6244   24.4548 C   0  0  0  0  0  0  0  0  0  0  0  0
   18.8103   19.7293   24.9532 H   0  0  0  0  0  0  0  0  0  0  0  0
   20.5079   19.3735   25.2424 H   0  0  0  0  0  0  0  0  0  0  0  0
   19.7032   18.4670   23.4305 C   0  0  0  0  0  0  0  0  0  0  0  0
   19.0238   18.7517   22.6161 H   0  0  0  0  0  0  0  0  0  0  0  0
   20.6897   18.2953   22.9803 H   0  0  0  0  0  0  0  0  0  0  0  0
   19.2146   17.1547   24.0883 C   0  0  0  0  0  0  0  0  0  0  0  0
   18.2114   17.2961   24.5120 H   0  0  0  0  0  0  0  0  0  0  0  0
   19.8762   16.9006   24.9272 H   0  0  0  0  0  0  0  0  0  0  0  0
   19.1949   15.9677   23.1060 C   0  0  0  0  0  0  0  0  0  0  0  0
   20.1913   15.8272   22.6782 H   0  0  0  0  0  0  0  0  0  0  0  0
   18.9235   15.0557   23.6446 H   0  0  0  0  0  0  0  0  0  0  0  0
   18.2120   16.1368   21.9640 N   0  3  0  0  0  0  0  0  0  0  0  0
   18.2143   15.3253   21.3365 H   0  0  0  0  0  0  0  0  0  0  0  0
   18.4316   16.9585   21.3926 H   0  0  0  0  0  0  0  0  0  0  0  0
   17.2511   16.2507   22.3026 H   0  0  0  0  0  0  0  0  0  0  0  0
  1  2  1  0  0  0  0
  1  3  1  0  0  0  0
  1  4  1  0  0  0  0
  1  5  1  0  0  0  0
  5  6  1  0  0  0  0
  5  7  1  0  0  0  0
  5  8  1  0  0  0  0
  8  9  1  0  0  0  0
  8 10  1  0  0  0  0
  8 11  1  0  0  0  0
 11 12  1  0  0  0  0
 11 13  1  0  0  0  0
 11 14  1  0  0  0  0
 14 15  1  0  0  0  0
 14 16  1  0  0  0  0
 14 17  1  0  0  0  0
 17 18  1  0  0  0  0
 17 19  1  0  0  0  0
 17 20  1  0  0  0  0
 20 21  1  0  0  0  0
 20 22  1  0  0  0  0
 20 23  1  0  0  0  0
 23 24  1  0  0  0  0
 23 25  1  0  0  0  0
 23 26  1  0  0  0  0
M  END
> <VConfSearch Rank>
931

> <Conf_Id>
105

> <Delta U+W>
0.736

> <U+W>
-4.817

> <U>
48.735

> <W>
-53.552

> <W(PB)>
-55.889

> <W(SA)>
2.337

> <Valence>
2.803

> <Coulomb>
45.123

> <VdW>
0.809

> <VdW6>
-6.953

> <VdW12>
7.761

> <Bond>
0.188

> <Angle>
0.699

> <Pdih>
1.917

> <Idih>
0.000

> <Tether>
0.000

$$$$
VeraChem MOL file


 26 25  0  0  0  0  0  0  0  0999 V2000     
   16.9617   18.1434   21.3069 C   0  0  0  0  0  0  0  0  0  0  0  0
   16.4766   18.8959   20.6716 H   0  0  0  0  0  0  0  0  0  0  0  0
   17.6157   17.5307   20.6728 H   0  0  0  0  0  0  0  0  0  0  0  0
   16.1784   17.4906   21.7134 H   0  0  0  0  0  0  0  0  0  0  0  0
   17.7609   18.8103   22.4464 C   0  0  0  0  0  0  0  0  0  0  0  0
   18.1966   18.0274   23.0813 H   0  0  0  0  0  0  0  0  0  0  0  0
   17.0767   19.3914   23.0803 H   0  0  0  0  0  0  0  0  0  0  0  0
   18.8746   19.7329   21.8978 C   0  0  0  0  0  0  0  0  0  0  0  0
   19.5822   19.1454   21.2981 H   0  0  0  0  0  0  0  0  0  0  0  0
   18.4266   20.4596   21.2061 H   0  0  0  0  0  0  0  0  0  0  0  0
   19.6335   20.5155   23.0008 C   0  0  0  0  0  0  0  0  0  0  0  0
   18.9290   21.1927   23.5033 H   0  0  0  0  0  0  0  0  0  0  0  0
   20.3813   21.1628   22.5223 H   0  0  0  0  0  0  0  0  0  0  0  0
   20.3365   19.6447   24.0745 C   0  0  0  0  0  0  0  0  0  0  0  0
   20.8169   20.3192   24.7955 H   0  0  0  0  0  0  0  0  0  0  0  0
   19.5899   19.0766   24.6451 H   0  0  0  0  0  0  0  0  0  0  0  0
   21.3962   18.6771   23.4906 C   0  0  0  0  0  0  0  0  0  0  0  0
   22.1348   19.2377   22.9025 H   0  0  0  0  0  0  0  0  0  0  0  0
   20.9145   17.9719   22.8018 H   0  0  0  0  0  0  0  0  0  0  0  0
   22.1180   17.8593   24.5791 C   0  0  0  0  0  0  0  0  0  0  0  0
   21.3834   17.3150   25.1786 H   0  0  0  0  0  0  0  0  0  0  0  0
   22.7790   17.1290   24.1044 H   0  0  0  0  0  0  0  0  0  0  0  0
   22.9623   18.6997   25.5171 N   0  3  0  0  0  0  0  0  0  0  0  0
   22.3963   19.3852   26.0266 H   0  0  0  0  0  0  0  0  0  0  0  0
   23.6878   19.2199   25.0132 H   0  0  0  0  0  0  0  0  0  0  0  0
   23.4396   18.1235   26.2189 H   0  0  0  0  0  0  0  0  0  0  0  0
  1  2  1  0  0  0  0
  1  3  1  0  0  0  0
  1  4  1  0  0  0  0
  1  5  1  0  0  0  0
  5  6  1  0  0  0  0
  5  7  1  0  0  0  0
  5  8  1  0  0  0  0
  8  9  1  0  0  0  0
  8 10  1  0  0  0  0
  8 11  1  0  0  0  0
 11 12  1  0  0  0  0
 11 13  1  0  0  0  0
 11 14  1  0  0  0  0
 14 15  1  0  0  0  0
 14 16  1  0  0  0  0
 14 17  1  0  0  0  0
 17 18  1  0  0  0  0
 17 19  1  0  0  0  0
 17 20  1  0  0  0  0
 20 21  1  0  0  0  0
 20 22  1  0  0  0  0
 20 23  1  0  0  0  0
 23 24  1  0  0  0  0
 23 25  1  0  0  0  0
 23 26  1  0  0  0  0
M  END
> <VConfSearch Rank>
932

> <Conf_Id>
144

> <Delta U+W>
1.073

> <U+W>
-4.479

> <U>
49.231

> <W>
-53.710

> <W(PB)>
-55.983

> <W(SA)>
2.273

> <Valence>
3.276

> <Coulomb>
45.175

> <VdW>
0.779

> <VdW6>
-7.944

> <VdW12>
8.723

> <Bond>
0.239

> <Angle>
1.155

> <Pdih>
1.883

> <Idih>
0.000

> <Tether>
0.000

$$$$
VeraChem MOL file


 26 25  0  0  0  0  0  0  0  0999 V2000     
   17.7993   17.1888   25.7018 C   0  0  0  0  0  0  0  0  0  0  0  0
   18.4148   17.6115   26.5052 H   0  0  0  0  0  0  0  0  0  0  0  0
   16.8065   16.9830   26.1223 H   0  0  0  0  0  0  0  0  0  0  0  0
   18.2399   16.2302   25.3984 H   0  0  0  0  0  0  0  0  0  0  0  0
   17.6868   18.1542   24.4998 C   0  0  0  0  0  0  0  0  0  0  0  0
   17.2758   19.1171   24.8341 H   0  0  0  0  0  0  0  0  0  0  0  0
   16.9604   17.7419   23.7856 H   0  0  0  0  0  0  0  0  0  0  0  0
   19.0285   18.3838   23.7624 C   0  0  0  0  0  0  0  0  0  0  0  0
   19.4455   17.4170   23.4488 H   0  0  0  0  0  0  0  0  0  0  0  0
   18.8129   18.9489   22.8471 H   0  0  0  0  0  0  0  0  0  0  0  0
   20.0710   19.1610   24.6042 C   0  0  0  0  0  0  0  0  0  0  0  0
   20.2155   18.6551   25.5671 H   0  0  0  0  0  0  0  0  0  0  0  0
   19.6766   20.1590   24.8399 H   0  0  0  0  0  0  0  0  0  0  0  0
   21.4628   19.3020   23.9344 C   0  0  0  0  0  0  0  0  0  0  0  0
   22.1172   19.8317   24.6404 H   0  0  0  0  0  0  0  0  0  0  0  0
   21.9167   18.3109   23.7957 H   0  0  0  0  0  0  0  0  0  0  0  0
   21.4692   20.0808   22.5947 C   0  0  0  0  0  0  0  0  0  0  0  0
   22.4488   20.5624   22.4750 H   0  0  0  0  0  0  0  0  0  0  0  0
   20.7275   20.8901   22.6244 H   0  0  0  0  0  0  0  0  0  0  0  0
   21.2291   19.1762   21.3702 C   0  0  0  0  0  0  0  0  0  0  0  0
   22.0063   18.4086   21.3247 H   0  0  0  0  0  0  0  0  0  0  0  0
   20.2621   18.6764   21.4513 H   0  0  0  0  0  0  0  0  0  0  0  0
   21.2488   19.9368   20.0601 N   0  3  0  0  0  0  0  0  0  0  0  0
   22.1472   20.4055   19.9042 H   0  0  0  0  0  0  0  0  0  0  0  0
   20.5220   20.6591   20.0264 H   0  0  0  0  0  0  0  0  0  0  0  0
   21.0922   19.3175   19.2574 H   0  0  0  0  0  0  0  0  0  0  0  0
  1  2  1  0  0  0  0
  1  3  1  0  0  0  0
  1  4  1  0  0  0  0
  1  5  1  0  0  0  0
  5  6  1  0  0  0  0
  5  7  1  0  0  0  0
  5  8  1  0  0  0  0
  8  9  1  0  0  0  0
  8 10  1  0  0  0  0
  8 11  1  0  0  0  0
 11 12  1  0  0  0  0
 11 13  1  0  0  0  0
 11 14  1  0  0  0  0
 14 15  1  0  0  0  0
 14 16  1  0  0  0  0
 14 17  1  0  0  0  0
 17 18  1  0  0  0  0
 17 19  1  0  0  0  0
 17 20  1  0  0  0  0
 20 21  1  0  0  0  0
 20 22  1  0  0  0  0
 20 23  1  0  0  0  0
 23 24  1  0  0  0  0
 23 25  1  0  0  0  0
 23 26  1  0  0  0  0
M  END
> <VConfSearch Rank>
933

> <Conf_Id>
93

> <Delta U+W>
3.253

> <U+W>
-2.300

> <U>
51.609

> <W>
-53.909

> <W(PB)>
-56.178

> <W(SA)>
2.270

> <Valence>
5.204

> <Coulomb>
45.645

> <VdW>
0.760

> <VdW6>
-7.997

> <VdW12>
8.758

> <Bond>
0.240

> <Angle>
1.456

> <Pdih>
3.507

> <Idih>
0.000

> <Tether>
0.000

$$$$
VeraChem MOL file


 26 25  0  0  0  0  0  0  0  0999 V2000     
   17.7649   18.3145   26.0794 C   0  0  0  0  0  0  0  0  0  0  0  0
   18.2274   19.1547   26.6114 H   0  0  0  0  0  0  0  0  0  0  0  0
   16.9377   18.7045   25.4724 H   0  0  0  0  0  0  0  0  0  0  0  0
   17.3381   17.6423   26.8350 H   0  0  0  0  0  0  0  0  0  0  0  0
   18.7900   17.5594   25.2027 C   0  0  0  0  0  0  0  0  0  0  0  0
   18.3088   16.6579   24.7983 H   0  0  0  0  0  0  0  0  0  0  0  0
   19.6245   17.2086   25.8257 H   0  0  0  0  0  0  0  0  0  0  0  0
   19.3336   18.4007   24.0223 C   0  0  0  0  0  0  0  0  0  0  0  0
   19.9230   17.7332   23.3814 H   0  0  0  0  0  0  0  0  0  0  0  0
   18.4946   18.7665   23.4147 H   0  0  0  0  0  0  0  0  0  0  0  0
   20.2213   19.5893   24.4681 C   0  0  0  0  0  0  0  0  0  0  0  0
   21.1018   19.2054   25.0012 H   0  0  0  0  0  0  0  0  0  0  0  0
   19.6723   20.2061   25.1908 H   0  0  0  0  0  0  0  0  0  0  0  0
   20.6818   20.5169   23.3135 C   0  0  0  0  0  0  0  0  0  0  0  0
   19.8111   20.9951   22.8437 H   0  0  0  0  0  0  0  0  0  0  0  0
   21.2649   21.3348   23.7591 H   0  0  0  0  0  0  0  0  0  0  0  0
   21.5585   19.8332   22.2340 C   0  0  0  0  0  0  0  0  0  0  0  0
   22.2058   19.0763   22.6964 H   0  0  0  0  0  0  0  0  0  0  0  0
   22.2266   20.5874   21.7971 H   0  0  0  0  0  0  0  0  0  0  0  0
   20.7320   19.2091   21.0925 C   0  0  0  0  0  0  0  0  0  0  0  0
   20.0518   18.4518   21.4866 H   0  0  0  0  0  0  0  0  0  0  0  0
   20.1336   19.9852   20.6079 H   0  0  0  0  0  0  0  0  0  0  0  0
   21.5909   18.5527   20.0311 N   0  3  0  0  0  0  0  0  0  0  0  0
   22.2340   19.2207   19.5935 H   0  0  0  0  0  0  0  0  0  0  0  0
   21.0237   18.1480   19.2782 H   0  0  0  0  0  0  0  0  0  0  0  0
   22.1614   17.7932   20.4167 H   0  0  0  0  0  0  0  0  0  0  0  0
  1  2  1  0  0  0  0
  1  3  1  0  0  0  0
  1  4  1  0  0  0  0
  1  5  1  0  0  0  0
  5  6  1  0  0  0  0
  5  7  1  0  0  0  0
  5  8  1  0  0  0  0
  8  9  1  0  0  0  0
  8 10  1  0  0  0  0
  8 11  1  0  0  0  0
 11 12  1  0  0  0  0
 11 13  1  0  0  0  0
 11 14  1  0  0  0  0
 14 15  1  0  0  0  0
 14 16  1  0  0  0  0
 14 17  1  0  0  0  0
 17 18  1  0  0  0  0
 17 19  1  0  0  0  0
 17 20  1  0  0  0  0
 20 21  1  0  0  0  0
 20 22  1  0  0  0  0
 20 23  1  0  0  0  0
 23 24  1  0  0  0  0
 23 25  1  0  0  0  0
 23 26  1  0  0  0  0
M  END
> <VConfSearch Rank>
934

> <Conf_Id>
94

> <Delta U+W>
3.247

> <U+W>
-2.305

> <U>
51.609

> <W>
-53.914

> <W(PB)>
-56.221

> <W(SA)>
2.307

> <Valence>
5.204

> <Coulomb>
45.645

> <VdW>
0.760

> <VdW6>
-7.997

> <VdW12>
8.757

> <Bond>
0.240

> <Angle>
1.456

> <Pdih>
3.508

> <Idih>
0.000

> <Tether>
0.000

$$$$
VeraChem MOL file


 26 25  0  0  0  0  0  0  0  0999 V2000     
   22.1258   15.4796   23.8844 C   0  0  0  0  0  0  0  0  0  0  0  0
   22.2680   15.0828   22.8708 H   0  0  0  0  0  0  0  0  0  0  0  0
   23.0365   16.0221   24.1701 H   0  0  0  0  0  0  0  0  0  0  0  0
   22.0130   14.6275   24.5672 H   0  0  0  0  0  0  0  0  0  0  0  0
   20.8882   16.3994   23.9516 C   0  0  0  0  0  0  0  0  0  0  0  0
   20.7525   16.7530   24.9833 H   0  0  0  0  0  0  0  0  0  0  0  0
   19.9898   15.8211   23.6939 H   0  0  0  0  0  0  0  0  0  0  0  0
   21.0213   17.6081   22.9990 C   0  0  0  0  0  0  0  0  0  0  0  0
   21.9217   18.1819   23.2591 H   0  0  0  0  0  0  0  0  0  0  0  0
   21.1596   17.2493   21.9697 H   0  0  0  0  0  0  0  0  0  0  0  0
   19.7836   18.5312   23.0631 C   0  0  0  0  0  0  0  0  0  0  0  0
   19.6474   18.8796   24.0956 H   0  0  0  0  0  0  0  0  0  0  0  0
   18.8846   17.9571   22.7994 H   0  0  0  0  0  0  0  0  0  0  0  0
   19.9207   19.7423   22.1095 C   0  0  0  0  0  0  0  0  0  0  0  0
   20.8043   20.3336   22.3844 H   0  0  0  0  0  0  0  0  0  0  0  0
   20.1032   19.3779   21.0890 H   0  0  0  0  0  0  0  0  0  0  0  0
   18.6644   20.6489   22.0909 C   0  0  0  0  0  0  0  0  0  0  0  0
   17.8047   20.0686   21.7305 H   0  0  0  0  0  0  0  0  0  0  0  0
   18.8124   21.4593   21.3648 H   0  0  0  0  0  0  0  0  0  0  0  0
   18.3093   21.2589   23.4621 C   0  0  0  0  0  0  0  0  0  0  0  0
   17.4008   21.8599   23.3675 H   0  0  0  0  0  0  0  0  0  0  0  0
   18.1141   20.4608   24.1829 H   0  0  0  0  0  0  0  0  0  0  0  0
   19.3952   22.1507   24.0306 N   0  3  0  0  0  0  0  0  0  0  0  0
   19.6041   22.9389   23.4093 H   0  0  0  0  0  0  0  0  0  0  0  0
   20.2699   21.6363   24.1729 H   0  0  0  0  0  0  0  0  0  0  0  0
   19.1270   22.5470   24.9380 H   0  0  0  0  0  0  0  0  0  0  0  0
  1  2  1  0  0  0  0
  1  3  1  0  0  0  0
  1  4  1  0  0  0  0
  1  5  1  0  0  0  0
  5  6  1  0  0  0  0
  5  7  1  0  0  0  0
  5  8  1  0  0  0  0
  8  9  1  0  0  0  0
  8 10  1  0  0  0  0
  8 11  1  0  0  0  0
 11 12  1  0  0  0  0
 11 13  1  0  0  0  0
 11 14  1  0  0  0  0
 14 15  1  0  0  0  0
 14 16  1  0  0  0  0
 14 17  1  0  0  0  0
 17 18  1  0  0  0  0
 17 19  1  0  0  0  0
 17 20  1  0  0  0  0
 20 21  1  0  0  0  0
 20 22  1  0  0  0  0
 20 23  1  0  0  0  0
 23 24  1  0  0  0  0
 23 25  1  0  0  0  0
 23 26  1  0  0  0  0
M  END
> <VConfSearch Rank>
935

> <Conf_Id>
83

> <Delta U+W>
0.559

> <U+W>
-4.994

> <U>
48.668

> <W>
-53.661

> <W(PB)>
-55.972

> <W(SA)>
2.311

> <Valence>
2.543

> <Coulomb>
45.478

> <VdW>
0.646

> <VdW6>
-7.096

> <VdW12>
7.742

> <Bond>
0.176

> <Angle>
0.630

> <Pdih>
1.738

> <Idih>
0.000

> <Tether>
0.000

$$$$
VeraChem MOL file


 26 25  0  0  0  0  0  0  0  0999 V2000     
   18.9893   22.3872   24.9108 C   0  0  0  0  0  0  0  0  0  0  0  0
   18.3678   23.0689   24.3157 H   0  0  0  0  0  0  0  0  0  0  0  0
   18.3613   21.9522   25.6993 H   0  0  0  0  0  0  0  0  0  0  0  0
   19.7737   22.9832   25.3952 H   0  0  0  0  0  0  0  0  0  0  0  0
   19.6100   21.2857   24.0257 C   0  0  0  0  0  0  0  0  0  0  0  0
   20.2551   20.6512   24.6476 H   0  0  0  0  0  0  0  0  0  0  0  0
   20.2550   21.7493   23.2661 H   0  0  0  0  0  0  0  0  0  0  0  0
   18.5224   20.4290   23.3353 C   0  0  0  0  0  0  0  0  0  0  0  0
   17.9118   19.9225   24.0955 H   0  0  0  0  0  0  0  0  0  0  0  0
   17.8411   21.0932   22.7858 H   0  0  0  0  0  0  0  0  0  0  0  0
   19.0915   19.3832   22.3451 C   0  0  0  0  0  0  0  0  0  0  0  0
   19.6900   19.8919   21.5769 H   0  0  0  0  0  0  0  0  0  0  0  0
   18.2506   18.9113   21.8182 H   0  0  0  0  0  0  0  0  0  0  0  0
   19.9410   18.2832   23.0262 C   0  0  0  0  0  0  0  0  0  0  0  0
   20.8235   18.7354   23.4954 H   0  0  0  0  0  0  0  0  0  0  0  0
   19.3563   17.8123   23.8286 H   0  0  0  0  0  0  0  0  0  0  0  0
   20.3922   17.2018   22.0160 C   0  0  0  0  0  0  0  0  0  0  0  0
   21.0008   17.6576   21.2236 H   0  0  0  0  0  0  0  0  0  0  0  0
   19.5094   16.7716   21.5246 H   0  0  0  0  0  0  0  0  0  0  0  0
   21.1843   16.0591   22.6803 C   0  0  0  0  0  0  0  0  0  0  0  0
   20.5838   15.6086   23.4753 H   0  0  0  0  0  0  0  0  0  0  0  0
   21.3994   15.2871   21.9365 H   0  0  0  0  0  0  0  0  0  0  0  0
   22.5053   16.4995   23.2803 N   0  3  0  0  0  0  0  0  0  0  0  0
   22.3734   17.1998   24.0164 H   0  0  0  0  0  0  0  0  0  0  0  0
   23.1246   16.9126   22.5754 H   0  0  0  0  0  0  0  0  0  0  0  0
   23.0128   15.7136   23.7010 H   0  0  0  0  0  0  0  0  0  0  0  0
  1  2  1  0  0  0  0
  1  3  1  0  0  0  0
  1  4  1  0  0  0  0
  1  5  1  0  0  0  0
  5  6  1  0  0  0  0
  5  7  1  0  0  0  0
  5  8  1  0  0  0  0
  8  9  1  0  0  0  0
  8 10  1  0  0  0  0
  8 11  1  0  0  0  0
 11 12  1  0  0  0  0
 11 13  1  0  0  0  0
 11 14  1  0  0  0  0
 14 15  1  0  0  0  0
 14 16  1  0  0  0  0
 14 17  1  0  0  0  0
 17 18  1  0  0  0  0
 17 19  1  0  0  0  0
 17 20  1  0  0  0  0
 20 21  1  0  0  0  0
 20 22  1  0  0  0  0
 20 23  1  0  0  0  0
 23 24  1  0  0  0  0
 23 25  1  0  0  0  0
 23 26  1  0  0  0  0
M  END
> <VConfSearch Rank>
936

> <Conf_Id>
18

> <Delta U+W>
0.759

> <U+W>
-4.793

> <U>
48.945

> <W>
-53.738

> <W(PB)>
-56.051

> <W(SA)>
2.313

> <Valence>
2.802

> <Coulomb>
45.335

> <VdW>
0.807

> <VdW6>
-6.962

> <VdW12>
7.769

> <Bond>
0.189

> <Angle>
0.696

> <Pdih>
1.917

> <Idih>
0.000

> <Tether>
0.000

$$$$
VeraChem MOL file


 26 25  0  0  0  0  0  0  0  0999 V2000     
   18.7182   18.0155   26.9082 C   0  0  0  0  0  0  0  0  0  0  0  0
   17.6933   17.7317   26.6356 H   0  0  0  0  0  0  0  0  0  0  0  0
   19.1854   17.1623   27.4172 H   0  0  0  0  0  0  0  0  0  0  0  0
   18.6589   18.8442   27.6257 H   0  0  0  0  0  0  0  0  0  0  0  0
   19.5285   18.4306   25.6619 C   0  0  0  0  0  0  0  0  0  0  0  0
   20.5383   18.7364   25.9694 H   0  0  0  0  0  0  0  0  0  0  0  0
   19.0541   19.3094   25.2058 H   0  0  0  0  0  0  0  0  0  0  0  0
   19.6219   17.2788   24.6333 C   0  0  0  0  0  0  0  0  0  0  0  0
   20.0233   16.3863   25.1330 H   0  0  0  0  0  0  0  0  0  0  0  0
   18.6149   17.0100   24.2855 H   0  0  0  0  0  0  0  0  0  0  0  0
   20.5219   17.6048   23.4160 C   0  0  0  0  0  0  0  0  0  0  0  0
   20.6251   16.6956   22.8077 H   0  0  0  0  0  0  0  0  0  0  0  0
   21.5327   17.8593   23.7638 H   0  0  0  0  0  0  0  0  0  0  0  0
   19.9721   18.7464   22.5272 C   0  0  0  0  0  0  0  0  0  0  0  0
   18.9421   18.5121   22.2245 H   0  0  0  0  0  0  0  0  0  0  0  0
   19.9324   19.6781   23.1050 H   0  0  0  0  0  0  0  0  0  0  0  0
   20.8430   18.9593   21.2663 C   0  0  0  0  0  0  0  0  0  0  0  0
   20.9074   18.0177   20.7049 H   0  0  0  0  0  0  0  0  0  0  0  0
   21.8690   19.2211   21.5574 H   0  0  0  0  0  0  0  0  0  0  0  0
   20.2805   20.0462   20.3300 C   0  0  0  0  0  0  0  0  0  0  0  0
   20.8863   20.0903   19.4208 H   0  0  0  0  0  0  0  0  0  0  0  0
   19.2560   19.7923   20.0449 H   0  0  0  0  0  0  0  0  0  0  0  0
   20.2687   21.4334   20.9418 N   0  3  0  0  0  0  0  0  0  0  0  0
   21.2096   21.7386   21.2112 H   0  0  0  0  0  0  0  0  0  0  0  0
   19.6844   21.4729   21.7825 H   0  0  0  0  0  0  0  0  0  0  0  0
   19.9023   22.1343   20.2884 H   0  0  0  0  0  0  0  0  0  0  0  0
  1  2  1  0  0  0  0
  1  3  1  0  0  0  0
  1  4  1  0  0  0  0
  1  5  1  0  0  0  0
  5  6  1  0  0  0  0
  5  7  1  0  0  0  0
  5  8  1  0  0  0  0
  8  9  1  0  0  0  0
  8 10  1  0  0  0  0
  8 11  1  0  0  0  0
 11 12  1  0  0  0  0
 11 13  1  0  0  0  0
 11 14  1  0  0  0  0
 14 15  1  0  0  0  0
 14 16  1  0  0  0  0
 14 17  1  0  0  0  0
 17 18  1  0  0  0  0
 17 19  1  0  0  0  0
 17 20  1  0  0  0  0
 20 21  1  0  0  0  0
 20 22  1  0  0  0  0
 20 23  1  0  0  0  0
 23 24  1  0  0  0  0
 23 25  1  0  0  0  0
 23 26  1  0  0  0  0
M  END
> <VConfSearch Rank>
937

> <Conf_Id>
17

> <Delta U+W>
0.843

> <U+W>
-4.709

> <U>
48.945

> <W>
-53.653

> <W(PB)>
-55.991

> <W(SA)>
2.338

> <Valence>
2.802

> <Coulomb>
45.335

> <VdW>
0.807

> <VdW6>
-6.962

> <VdW12>
7.769

> <Bond>
0.189

> <Angle>
0.696

> <Pdih>
1.917

> <Idih>
0.000

> <Tether>
0.000

$$$$
VeraChem MOL file


 26 25  0  0  0  0  0  0  0  0999 V2000     
   21.1764   17.8782   26.3780 C   0  0  0  0  0  0  0  0  0  0  0  0
   21.0370   18.9364   26.1243 H   0  0  0  0  0  0  0  0  0  0  0  0
   20.2126   17.4747   26.7145 H   0  0  0  0  0  0  0  0  0  0  0  0
   21.8737   17.8315   27.2244 H   0  0  0  0  0  0  0  0  0  0  0  0
   21.7274   17.0741   25.1786 C   0  0  0  0  0  0  0  0  0  0  0  0
   21.9663   16.0556   25.5154 H   0  0  0  0  0  0  0  0  0  0  0  0
   22.6752   17.5163   24.8412 H   0  0  0  0  0  0  0  0  0  0  0  0
   20.7391   16.9848   23.9907 C   0  0  0  0  0  0  0  0  0  0  0  0
   21.1624   16.3078   23.2359 H   0  0  0  0  0  0  0  0  0  0  0  0
   19.8008   16.5234   24.3281 H   0  0  0  0  0  0  0  0  0  0  0  0
   20.4406   18.3532   23.3323 C   0  0  0  0  0  0  0  0  0  0  0  0
   21.3851   18.8329   23.0409 H   0  0  0  0  0  0  0  0  0  0  0  0
   19.9578   19.0144   24.0627 H   0  0  0  0  0  0  0  0  0  0  0  0
   19.5319   18.2035   22.0885 C   0  0  0  0  0  0  0  0  0  0  0  0
   20.0009   17.5070   21.3797 H   0  0  0  0  0  0  0  0  0  0  0  0
   18.5744   17.7508   22.3814 H   0  0  0  0  0  0  0  0  0  0  0  0
   19.2683   19.5444   21.3638 C   0  0  0  0  0  0  0  0  0  0  0  0
   18.6958   19.3476   20.4476 H   0  0  0  0  0  0  0  0  0  0  0  0
   20.2225   19.9877   21.0492 H   0  0  0  0  0  0  0  0  0  0  0  0
   18.4924   20.5499   22.2353 C   0  0  0  0  0  0  0  0  0  0  0  0
   17.5421   20.1089   22.5481 H   0  0  0  0  0  0  0  0  0  0  0  0
   19.0724   20.7893   23.1302 H   0  0  0  0  0  0  0  0  0  0  0  0
   18.1910   21.8488   21.5159 N   0  3  0  0  0  0  0  0  0  0  0  0
   17.6743   22.5039   22.1127 H   0  0  0  0  0  0  0  0  0  0  0  0
   17.6220   21.6975   20.6766 H   0  0  0  0  0  0  0  0  0  0  0  0
   19.0470   22.3280   21.2178 H   0  0  0  0  0  0  0  0  0  0  0  0
  1  2  1  0  0  0  0
  1  3  1  0  0  0  0
  1  4  1  0  0  0  0
  1  5  1  0  0  0  0
  5  6  1  0  0  0  0
  5  7  1  0  0  0  0
  5  8  1  0  0  0  0
  8  9  1  0  0  0  0
  8 10  1  0  0  0  0
  8 11  1  0  0  0  0
 11 12  1  0  0  0  0
 11 13  1  0  0  0  0
 11 14  1  0  0  0  0
 14 15  1  0  0  0  0
 14 16  1  0  0  0  0
 14 17  1  0  0  0  0
 17 18  1  0  0  0  0
 17 19  1  0  0  0  0
 17 20  1  0  0  0  0
 20 21  1  0  0  0  0
 20 22  1  0  0  0  0
 20 23  1  0  0  0  0
 23 24  1  0  0  0  0
 23 25  1  0  0  0  0
 23 26  1  0  0  0  0
M  END
> <VConfSearch Rank>
938

> <Conf_Id>
96

> <Delta U+W>
0.912

> <U+W>
-4.640

> <U>
48.723

> <W>
-53.364

> <W(PB)>
-55.683

> <W(SA)>
2.320

> <Valence>
2.962

> <Coulomb>
44.993

> <VdW>
0.768

> <VdW6>
-7.008

> <VdW12>
7.776

> <Bond>
0.188

> <Angle>
0.757

> <Pdih>
2.018

> <Idih>
0.000

> <Tether>
0.000

$$$$
VeraChem MOL file


 26 25  0  0  0  0  0  0  0  0999 V2000     
   20.5472   21.5946   25.5400 C   0  0  0  0  0  0  0  0  0  0  0  0
   20.8857   22.1041   26.4515 H   0  0  0  0  0  0  0  0  0  0  0  0
   19.7724   22.2180   25.0752 H   0  0  0  0  0  0  0  0  0  0  0  0
   20.0889   20.6455   25.8442 H   0  0  0  0  0  0  0  0  0  0  0  0
   21.7329   21.3695   24.5745 C   0  0  0  0  0  0  0  0  0  0  0  0
   22.4787   20.7178   25.0507 H   0  0  0  0  0  0  0  0  0  0  0  0
   22.2334   22.3319   24.3984 H   0  0  0  0  0  0  0  0  0  0  0  0
   21.3112   20.7726   23.2100 C   0  0  0  0  0  0  0  0  0  0  0  0
   20.5808   21.4376   22.7287 H   0  0  0  0  0  0  0  0  0  0  0  0
   22.1910   20.7523   22.5522 H   0  0  0  0  0  0  0  0  0  0  0  0
   20.7256   19.3440   23.3160 C   0  0  0  0  0  0  0  0  0  0  0  0
   19.8091   19.3667   23.9188 H   0  0  0  0  0  0  0  0  0  0  0  0
   21.4389   18.6942   23.8415 H   0  0  0  0  0  0  0  0  0  0  0  0
   20.4145   18.7484   21.9219 C   0  0  0  0  0  0  0  0  0  0  0  0
   19.6788   19.3801   21.4048 H   0  0  0  0  0  0  0  0  0  0  0  0
   21.3261   18.7677   21.3087 H   0  0  0  0  0  0  0  0  0  0  0  0
   19.8915   17.2940   21.9855 C   0  0  0  0  0  0  0  0  0  0  0  0
   20.6352   16.6557   22.4810 H   0  0  0  0  0  0  0  0  0  0  0  0
   19.7798   16.9106   20.9625 H   0  0  0  0  0  0  0  0  0  0  0  0
   18.5405   17.1784   22.7162 C   0  0  0  0  0  0  0  0  0  0  0  0
   18.6487   17.5151   23.7504 H   0  0  0  0  0  0  0  0  0  0  0  0
   17.7998   17.8133   22.2226 H   0  0  0  0  0  0  0  0  0  0  0  0
   18.0002   15.7632   22.7427 N   0  3  0  0  0  0  0  0  0  0  0  0
   18.6400   15.1187   23.2186 H   0  0  0  0  0  0  0  0  0  0  0  0
   17.8481   15.3946   21.7981 H   0  0  0  0  0  0  0  0  0  0  0  0
   17.1009   15.7077   23.2330 H   0  0  0  0  0  0  0  0  0  0  0  0
  1  2  1  0  0  0  0
  1  3  1  0  0  0  0
  1  4  1  0  0  0  0
  1  5  1  0  0  0  0
  5  6  1  0  0  0  0
  5  7  1  0  0  0  0
  5  8  1  0  0  0  0
  8  9  1  0  0  0  0
  8 10  1  0  0  0  0
  8 11  1  0  0  0  0
 11 12  1  0  0  0  0
 11 13  1  0  0  0  0
 11 14  1  0  0  0  0
 14 15  1  0  0  0  0
 14 16  1  0  0  0  0
 14 17  1  0  0  0  0
 17 18  1  0  0  0  0
 17 19  1  0  0  0  0
 17 20  1  0  0  0  0
 20 21  1  0  0  0  0
 20 22  1  0  0  0  0
 20 23  1  0  0  0  0
 23 24  1  0  0  0  0
 23 25  1  0  0  0  0
 23 26  1  0  0  0  0
M  END
> <VConfSearch Rank>
939

> <Conf_Id>
133

> <Delta U+W>
0.844

> <U+W>
-4.708

> <U>
48.723

> <W>
-53.431

> <W(PB)>
-55.776

> <W(SA)>
2.344

> <Valence>
2.962

> <Coulomb>
44.993

> <VdW>
0.768

> <VdW6>
-7.008

> <VdW12>
7.776

> <Bond>
0.188

> <Angle>
0.756

> <Pdih>
2.018

> <Idih>
0.000

> <Tether>
0.000

$$$$
VeraChem MOL file


 26 25  0  0  0  0  0  0  0  0999 V2000     
   21.5931   21.7314   24.1034 C   0  0  0  0  0  0  0  0  0  0  0  0
   21.0142   22.6628   24.1515 H   0  0  0  0  0  0  0  0  0  0  0  0
   21.1360   21.0062   24.7881 H   0  0  0  0  0  0  0  0  0  0  0  0
   22.6040   21.9444   24.4743 H   0  0  0  0  0  0  0  0  0  0  0  0
   21.6501   21.1871   22.6582 C   0  0  0  0  0  0  0  0  0  0  0  0
   22.2162   20.2463   22.6384 H   0  0  0  0  0  0  0  0  0  0  0  0
   22.2192   21.8926   22.0369 H   0  0  0  0  0  0  0  0  0  0  0  0
   20.2521   20.9851   22.0197 C   0  0  0  0  0  0  0  0  0  0  0  0
   19.7552   21.9616   21.9383 H   0  0  0  0  0  0  0  0  0  0  0  0
   20.3823   20.6276   20.9890 H   0  0  0  0  0  0  0  0  0  0  0  0
   19.3122   20.0109   22.7760 C   0  0  0  0  0  0  0  0  0  0  0  0
   18.3547   19.9688   22.2386 H   0  0  0  0  0  0  0  0  0  0  0  0
   19.0814   20.4111   23.7722 H   0  0  0  0  0  0  0  0  0  0  0  0
   19.8808   18.5775   22.9055 C   0  0  0  0  0  0  0  0  0  0  0  0
   20.1522   18.1984   21.9105 H   0  0  0  0  0  0  0  0  0  0  0  0
   20.8014   18.5930   23.5039 H   0  0  0  0  0  0  0  0  0  0  0  0
   18.8678   17.6158   23.5647 C   0  0  0  0  0  0  0  0  0  0  0  0
   17.9460   17.5833   22.9686 H   0  0  0  0  0  0  0  0  0  0  0  0
   18.5953   17.9917   24.5600 H   0  0  0  0  0  0  0  0  0  0  0  0
   19.4433   16.1945   23.6942 C   0  0  0  0  0  0  0  0  0  0  0  0
   19.7012   15.8101   22.7037 H   0  0  0  0  0  0  0  0  0  0  0  0
   20.3524   16.2193   24.3011 H   0  0  0  0  0  0  0  0  0  0  0  0
   18.4781   15.2198   24.3374 N   0  3  0  0  0  0  0  0  0  0  0  0
   18.8809   14.2794   24.4141 H   0  0  0  0  0  0  0  0  0  0  0  0
   17.6103   15.1296   23.7988 H   0  0  0  0  0  0  0  0  0  0  0  0
   18.2162   15.5103   25.2852 H   0  0  0  0  0  0  0  0  0  0  0  0
  1  2  1  0  0  0  0
  1  3  1  0  0  0  0
  1  4  1  0  0  0  0
  1  5  1  0  0  0  0
  5  6  1  0  0  0  0
  5  7  1  0  0  0  0
  5  8  1  0  0  0  0
  8  9  1  0  0  0  0
  8 10  1  0  0  0  0
  8 11  1  0  0  0  0
 11 12  1  0  0  0  0
 11 13  1  0  0  0  0
 11 14  1  0  0  0  0
 14 15  1  0  0  0  0
 14 16  1  0  0  0  0
 14 17  1  0  0  0  0
 17 18  1  0  0  0  0
 17 19  1  0  0  0  0
 17 20  1  0  0  0  0
 20 21  1  0  0  0  0
 20 22  1  0  0  0  0
 20 23  1  0  0  0  0
 23 24  1  0  0  0  0
 23 25  1  0  0  0  0
 23 26  1  0  0  0  0
M  END
> <VConfSearch Rank>
940

> <Conf_Id>
106

> <Delta U+W>
0.767

> <U+W>
-4.785

> <U>
48.494

> <W>
-53.279

> <W(PB)>
-55.569

> <W(SA)>
2.290

> <Valence>
3.117

> <Coulomb>
44.693

> <VdW>
0.684

> <VdW6>
-7.347

> <VdW12>
8.030

> <Bond>
0.208

> <Angle>
1.039

> <Pdih>
1.870

> <Idih>
0.000

> <Tether>
0.000

$$$$
VeraChem MOL file


 26 25  0  0  0  0  0  0  0  0999 V2000     
   18.5589   14.9899   24.9034 C   0  0  0  0  0  0  0  0  0  0  0  0
   17.4917   15.2262   24.8007 H   0  0  0  0  0  0  0  0  0  0  0  0
   18.8652   14.4038   24.0271 H   0  0  0  0  0  0  0  0  0  0  0  0
   18.6798   14.3563   25.7916 H   0  0  0  0  0  0  0  0  0  0  0  0
   19.4020   16.2763   25.0327 C   0  0  0  0  0  0  0  0  0  0  0  0
   20.4590   16.0073   25.1678 H   0  0  0  0  0  0  0  0  0  0  0  0
   19.0962   16.8233   25.9356 H   0  0  0  0  0  0  0  0  0  0  0  0
   19.2497   17.1871   23.7944 C   0  0  0  0  0  0  0  0  0  0  0  0
   19.5542   16.6352   22.8943 H   0  0  0  0  0  0  0  0  0  0  0  0
   18.1913   17.4514   23.6622 H   0  0  0  0  0  0  0  0  0  0  0  0
   20.0926   18.4763   23.9201 C   0  0  0  0  0  0  0  0  0  0  0  0
   21.1507   18.2110   24.0525 H   0  0  0  0  0  0  0  0  0  0  0  0
   19.7878   19.0272   24.8207 H   0  0  0  0  0  0  0  0  0  0  0  0
   19.9397   19.3872   22.6810 C   0  0  0  0  0  0  0  0  0  0  0  0
   20.2445   18.8365   21.7800 H   0  0  0  0  0  0  0  0  0  0  0  0
   18.8816   19.6528   22.5483 H   0  0  0  0  0  0  0  0  0  0  0  0
   20.7820   20.6758   22.8059 C   0  0  0  0  0  0  0  0  0  0  0  0
   21.8411   20.4147   22.9332 H   0  0  0  0  0  0  0  0  0  0  0  0
   20.4769   21.2318   23.7025 H   0  0  0  0  0  0  0  0  0  0  0  0
   20.6223   21.5751   21.5674 C   0  0  0  0  0  0  0  0  0  0  0  0
   20.9406   21.0312   20.6739 H   0  0  0  0  0  0  0  0  0  0  0  0
   19.5713   21.8512   21.4459 H   0  0  0  0  0  0  0  0  0  0  0  0
   21.4342   22.8515   21.6519 N   0  3  0  0  0  0  0  0  0  0  0  0
   21.3135   23.4357   20.8173 H   0  0  0  0  0  0  0  0  0  0  0  0
   22.4378   22.6610   21.7401 H   0  0  0  0  0  0  0  0  0  0  0  0
   21.1637   23.4239   22.4584 H   0  0  0  0  0  0  0  0  0  0  0  0
  1  2  1  0  0  0  0
  1  3  1  0  0  0  0
  1  4  1  0  0  0  0
  1  5  1  0  0  0  0
  5  6  1  0  0  0  0
  5  7  1  0  0  0  0
  5  8  1  0  0  0  0
  8  9  1  0  0  0  0
  8 10  1  0  0  0  0
  8 11  1  0  0  0  0
 11 12  1  0  0  0  0
 11 13  1  0  0  0  0
 11 14  1  0  0  0  0
 14 15  1  0  0  0  0
 14 16  1  0  0  0  0
 14 17  1  0  0  0  0
 17 18  1  0  0  0  0
 17 19  1  0  0  0  0
 17 20  1  0  0  0  0
 20 21  1  0  0  0  0
 20 22  1  0  0  0  0
 20 23  1  0  0  0  0
 23 24  1  0  0  0  0
 23 25  1  0  0  0  0
 23 26  1  0  0  0  0
M  END
> <VConfSearch Rank>
941

> <Conf_Id>
25

> <Delta U+W>
0.000

> <U+W>
-5.552

> <U>
47.192

> <W>
-52.745

> <W(PB)>
-55.134

> <W(SA)>
2.389

> <Valence>
2.156

> <Coulomb>
44.449

> <VdW>
0.587

> <VdW6>
-5.761

> <VdW12>
6.348

> <Bond>
0.129

> <Angle>
0.393

> <Pdih>
1.634

> <Idih>
0.000

> <Tether>
0.000

$$$$
VeraChem MOL file


 26 25  0  0  0  0  0  0  0  0999 V2000     
   21.8413   22.5080   25.0032 C   0  0  0  0  0  0  0  0  0  0  0  0
   20.8906   23.0134   25.2173 H   0  0  0  0  0  0  0  0  0  0  0  0
   22.1424   21.9516   25.9004 H   0  0  0  0  0  0  0  0  0  0  0  0
   22.5987   23.2802   24.8156 H   0  0  0  0  0  0  0  0  0  0  0  0
   21.7082   21.5681   23.7862 C   0  0  0  0  0  0  0  0  0  0  0  0
   22.6819   21.1038   23.5761 H   0  0  0  0  0  0  0  0  0  0  0  0
   21.4398   22.1574   22.8982 H   0  0  0  0  0  0  0  0  0  0  0  0
   20.6475   20.4707   24.0242 C   0  0  0  0  0  0  0  0  0  0  0  0
   20.9189   19.8860   24.9141 H   0  0  0  0  0  0  0  0  0  0  0  0
   19.6766   20.9396   24.2360 H   0  0  0  0  0  0  0  0  0  0  0  0
   20.5114   19.5274   22.8075 C   0  0  0  0  0  0  0  0  0  0  0  0
   21.4826   19.0587   22.5964 H   0  0  0  0  0  0  0  0  0  0  0  0
   20.2411   20.1134   21.9181 H   0  0  0  0  0  0  0  0  0  0  0  0
   19.4497   18.4299   23.0457 C   0  0  0  0  0  0  0  0  0  0  0  0
   19.7222   17.8509   23.9382 H   0  0  0  0  0  0  0  0  0  0  0  0
   18.4778   18.8988   23.2538 H   0  0  0  0  0  0  0  0  0  0  0  0
   19.3157   17.4864   21.8270 C   0  0  0  0  0  0  0  0  0  0  0  0
   20.2743   16.9884   21.6292 H   0  0  0  0  0  0  0  0  0  0  0  0
   19.0798   18.0785   20.9328 H   0  0  0  0  0  0  0  0  0  0  0  0
   18.2139   16.4255   22.0136 C   0  0  0  0  0  0  0  0  0  0  0  0
   17.2592   16.9181   22.2169 H   0  0  0  0  0  0  0  0  0  0  0  0
   18.1090   15.8457   21.0926 H   0  0  0  0  0  0  0  0  0  0  0  0
   18.4899   15.4505   23.1415 N   0  3  0  0  0  0  0  0  0  0  0  0
   18.5636   15.9269   24.0457 H   0  0  0  0  0  0  0  0  0  0  0  0
   19.3659   14.9382   22.9961 H   0  0  0  0  0  0  0  0  0  0  0  0
   17.7450   14.7508   23.2306 H   0  0  0  0  0  0  0  0  0  0  0  0
  1  2  1  0  0  0  0
  1  3  1  0  0  0  0
  1  4  1  0  0  0  0
  1  5  1  0  0  0  0
  5  6  1  0  0  0  0
  5  7  1  0  0  0  0
  5  8  1  0  0  0  0
  8  9  1  0  0  0  0
  8 10  1  0  0  0  0
  8 11  1  0  0  0  0
 11 12  1  0  0  0  0
 11 13  1  0  0  0  0
 11 14  1  0  0  0  0
 14 15  1  0  0  0  0
 14 16  1  0  0  0  0
 14 17  1  0  0  0  0
 17 18  1  0  0  0  0
 17 19  1  0  0  0  0
 17 20  1  0  0  0  0
 20 21  1  0  0  0  0
 20 22  1  0  0  0  0
 20 23  1  0  0  0  0
 23 24  1  0  0  0  0
 23 25  1  0  0  0  0
 23 26  1  0  0  0  0
M  END
> <VConfSearch Rank>
942

> <Conf_Id>
20

> <Delta U+W>
0.150

> <U+W>
-5.403

> <U>
47.845

> <W>
-53.248

> <W(PB)>
-55.599

> <W(SA)>
2.351

> <Valence>
2.258

> <Coulomb>
44.893

> <VdW>
0.694

> <VdW6>
-6.285

> <VdW12>
6.979

> <Bond>
0.149

> <Angle>
0.434

> <Pdih>
1.675

> <Idih>
0.000

> <Tether>
0.000

$$$$
VeraChem MOL file


 26 25  0  0  0  0  0  0  0  0999 V2000     
   16.4178   16.8313   21.9153 C   0  0  0  0  0  0  0  0  0  0  0  0
   15.8784   17.7746   21.7596 H   0  0  0  0  0  0  0  0  0  0  0  0
   16.8482   16.5207   20.9543 H   0  0  0  0  0  0  0  0  0  0  0  0
   15.6864   16.0709   22.2184 H   0  0  0  0  0  0  0  0  0  0  0  0
   17.5151   16.9904   22.9890 C   0  0  0  0  0  0  0  0  0  0  0  0
   18.0136   16.0237   23.1469 H   0  0  0  0  0  0  0  0  0  0  0  0
   17.0513   17.2680   23.9460 H   0  0  0  0  0  0  0  0  0  0  0  0
   18.5589   18.0558   22.5869 C   0  0  0  0  0  0  0  0  0  0  0  0
   19.0181   17.7752   21.6288 H   0  0  0  0  0  0  0  0  0  0  0  0
   18.0556   19.0196   22.4278 H   0  0  0  0  0  0  0  0  0  0  0  0
   19.6594   18.2181   23.6597 C   0  0  0  0  0  0  0  0  0  0  0  0
   20.1610   17.2534   23.8187 H   0  0  0  0  0  0  0  0  0  0  0  0
   19.1994   18.4989   24.6173 H   0  0  0  0  0  0  0  0  0  0  0  0
   20.7038   19.2835   23.2567 C   0  0  0  0  0  0  0  0  0  0  0  0
   21.1659   19.0009   22.3005 H   0  0  0  0  0  0  0  0  0  0  0  0
   20.1964   20.2438   23.0943 H   0  0  0  0  0  0  0  0  0  0  0  0
   21.8039   19.4450   24.3323 C   0  0  0  0  0  0  0  0  0  0  0  0
   22.2800   18.4723   24.5145 H   0  0  0  0  0  0  0  0  0  0  0  0
   21.3561   19.7580   25.2850 H   0  0  0  0  0  0  0  0  0  0  0  0
   22.8952   20.4523   23.9214 C   0  0  0  0  0  0  0  0  0  0  0  0
   23.6842   20.4611   24.6784 H   0  0  0  0  0  0  0  0  0  0  0  0
   23.3390   20.1466   22.9701 H   0  0  0  0  0  0  0  0  0  0  0  0
   22.3884   21.8731   23.7693 N   0  3  0  0  0  0  0  0  0  0  0  0
   21.9788   22.2266   24.6401 H   0  0  0  0  0  0  0  0  0  0  0  0
   21.6676   21.9436   23.0445 H   0  0  0  0  0  0  0  0  0  0  0  0
   23.1408   22.5197   23.5082 H   0  0  0  0  0  0  0  0  0  0  0  0
  1  2  1  0  0  0  0
  1  3  1  0  0  0  0
  1  4  1  0  0  0  0
  1  5  1  0  0  0  0
  5  6  1  0  0  0  0
  5  7  1  0  0  0  0
  5  8  1  0  0  0  0
  8  9  1  0  0  0  0
  8 10  1  0  0  0  0
  8 11  1  0  0  0  0
 11 12  1  0  0  0  0
 11 13  1  0  0  0  0
 11 14  1  0  0  0  0
 14 15  1  0  0  0  0
 14 16  1  0  0  0  0
 14 17  1  0  0  0  0
 17 18  1  0  0  0  0
 17 19  1  0  0  0  0
 17 20  1  0  0  0  0
 20 21  1  0  0  0  0
 20 22  1  0  0  0  0
 20 23  1  0  0  0  0
 23 24  1  0  0  0  0
 23 25  1  0  0  0  0
 23 26  1  0  0  0  0
M  END
> <VConfSearch Rank>
943

> <Conf_Id>
19

> <Delta U+W>
0.162

> <U+W>
-5.391

> <U>
47.845

> <W>
-53.235

> <W(PB)>
-55.585

> <W(SA)>
2.349

> <Valence>
2.258

> <Coulomb>
44.893

> <VdW>
0.694

> <VdW6>
-6.285

> <VdW12>
6.979

> <Bond>
0.149

> <Angle>
0.434

> <Pdih>
1.675

> <Idih>
0.000

> <Tether>
0.000

$$$$
VeraChem MOL file


 26 25  0  0  0  0  0  0  0  0999 V2000     
   23.9619   19.7895   24.4855 C   0  0  0  0  0  0  0  0  0  0  0  0
   24.2171   19.4868   25.5094 H   0  0  0  0  0  0  0  0  0  0  0  0
   24.4473   19.0912   23.7913 H   0  0  0  0  0  0  0  0  0  0  0  0
   24.3876   20.7866   24.3132 H   0  0  0  0  0  0  0  0  0  0  0  0
   22.4328   19.8062   24.2760 C   0  0  0  0  0  0  0  0  0  0  0  0
   22.2171   20.1525   23.2566 H   0  0  0  0  0  0  0  0  0  0  0  0
   21.9791   20.5343   24.9630 H   0  0  0  0  0  0  0  0  0  0  0  0
   21.8102   18.4094   24.5093 C   0  0  0  0  0  0  0  0  0  0  0  0
   22.2257   17.6932   23.7870 H   0  0  0  0  0  0  0  0  0  0  0  0
   22.1055   18.0491   25.5045 H   0  0  0  0  0  0  0  0  0  0  0  0
   20.2642   18.3968   24.4224 C   0  0  0  0  0  0  0  0  0  0  0  0
   19.8491   19.1019   25.1558 H   0  0  0  0  0  0  0  0  0  0  0  0
   19.9080   17.4000   24.7174 H   0  0  0  0  0  0  0  0  0  0  0  0
   19.7206   18.7290   23.0118 C   0  0  0  0  0  0  0  0  0  0  0  0
   20.0029   19.7524   22.7317 H   0  0  0  0  0  0  0  0  0  0  0  0
   20.1796   18.0571   22.2733 H   0  0  0  0  0  0  0  0  0  0  0  0
   18.1833   18.5947   22.9436 C   0  0  0  0  0  0  0  0  0  0  0  0
   17.7207   19.2657   23.6797 H   0  0  0  0  0  0  0  0  0  0  0  0
   17.8886   17.5709   23.2103 H   0  0  0  0  0  0  0  0  0  0  0  0
   17.6506   18.9303   21.5394 C   0  0  0  0  0  0  0  0  0  0  0  0
   17.9271   19.9547   21.2758 H   0  0  0  0  0  0  0  0  0  0  0  0
   18.0964   18.2538   20.8051 H   0  0  0  0  0  0  0  0  0  0  0  0
   16.1442   18.8101   21.4318 N   0  3  0  0  0  0  0  0  0  0  0  0
   15.6630   19.4428   22.0795 H   0  0  0  0  0  0  0  0  0  0  0  0
   15.8205   17.8601   21.6416 H   0  0  0  0  0  0  0  0  0  0  0  0
   15.8102   19.0378   20.4889 H   0  0  0  0  0  0  0  0  0  0  0  0
  1  2  1  0  0  0  0
  1  3  1  0  0  0  0
  1  4  1  0  0  0  0
  1  5  1  0  0  0  0
  5  6  1  0  0  0  0
  5  7  1  0  0  0  0
  5  8  1  0  0  0  0
  8  9  1  0  0  0  0
  8 10  1  0  0  0  0
  8 11  1  0  0  0  0
 11 12  1  0  0  0  0
 11 13  1  0  0  0  0
 11 14  1  0  0  0  0
 14 15  1  0  0  0  0
 14 16  1  0  0  0  0
 14 17  1  0  0  0  0
 17 18  1  0  0  0  0
 17 19  1  0  0  0  0
 17 20  1  0  0  0  0
 20 21  1  0  0  0  0
 20 22  1  0  0  0  0
 20 23  1  0  0  0  0
 23 24  1  0  0  0  0
 23 25  1  0  0  0  0
 23 26  1  0  0  0  0
M  END
> <VConfSearch Rank>
944

> <Conf_Id>
37

> <Delta U+W>
0.565

> <U+W>
-4.988

> <U>
48.035

> <W>
-53.022

> <W(PB)>
-55.379

> <W(SA)>
2.357

> <Valence>
2.701

> <Coulomb>
44.622

> <VdW>
0.712

> <VdW6>
-6.418

> <VdW12>
7.129

> <Bond>
0.168

> <Angle>
0.659

> <Pdih>
1.875

> <Idih>
0.000

> <Tether>
0.000

$$$$
VeraChem MOL file


 26 25  0  0  0  0  0  0  0  0999 V2000     
   22.6364   20.1489   26.0146 C   0  0  0  0  0  0  0  0  0  0  0  0
   22.0105   21.0504   25.9859 H   0  0  0  0  0  0  0  0  0  0  0  0
   22.2645   19.4998   26.8181 H   0  0  0  0  0  0  0  0  0  0  0  0
   23.6577   20.4559   26.2749 H   0  0  0  0  0  0  0  0  0  0  0  0
   22.6171   19.4165   24.6561 C   0  0  0  0  0  0  0  0  0  0  0  0
   23.2787   18.5402   24.7055 H   0  0  0  0  0  0  0  0  0  0  0  0
   23.0250   20.0783   23.8792 H   0  0  0  0  0  0  0  0  0  0  0  0
   21.1900   18.9721   24.2657 C   0  0  0  0  0  0  0  0  0  0  0  0
   20.7876   18.3094   25.0442 H   0  0  0  0  0  0  0  0  0  0  0  0
   20.5383   19.8548   24.2291 H   0  0  0  0  0  0  0  0  0  0  0  0
   21.1692   18.2412   22.9017 C   0  0  0  0  0  0  0  0  0  0  0  0
   21.8847   17.4078   22.9319 H   0  0  0  0  0  0  0  0  0  0  0  0
   21.5199   18.9199   22.1119 H   0  0  0  0  0  0  0  0  0  0  0  0
   19.7776   17.6781   22.5215 C   0  0  0  0  0  0  0  0  0  0  0  0
   19.8821   17.0809   21.6049 H   0  0  0  0  0  0  0  0  0  0  0  0
   19.4344   16.9858   23.3028 H   0  0  0  0  0  0  0  0  0  0  0  0
   18.7093   18.7722   22.2882 C   0  0  0  0  0  0  0  0  0  0  0  0
   19.0740   19.4926   21.5440 H   0  0  0  0  0  0  0  0  0  0  0  0
   18.5283   19.3284   23.2166 H   0  0  0  0  0  0  0  0  0  0  0  0
   17.3819   18.1637   21.8026 C   0  0  0  0  0  0  0  0  0  0  0  0
   17.5456   17.6219   20.8671 H   0  0  0  0  0  0  0  0  0  0  0  0
   17.0062   17.4574   22.5480 H   0  0  0  0  0  0  0  0  0  0  0  0
   16.3063   19.2026   21.5589 N   0  3  0  0  0  0  0  0  0  0  0  0
   16.5873   19.8836   20.8458 H   0  0  0  0  0  0  0  0  0  0  0  0
   16.0846   19.7303   22.4096 H   0  0  0  0  0  0  0  0  0  0  0  0
   15.4311   18.7761   21.2357 H   0  0  0  0  0  0  0  0  0  0  0  0
  1  2  1  0  0  0  0
  1  3  1  0  0  0  0
  1  4  1  0  0  0  0
  1  5  1  0  0  0  0
  5  6  1  0  0  0  0
  5  7  1  0  0  0  0
  5  8  1  0  0  0  0
  8  9  1  0  0  0  0
  8 10  1  0  0  0  0
  8 11  1  0  0  0  0
 11 12  1  0  0  0  0
 11 13  1  0  0  0  0
 11 14  1  0  0  0  0
 14 15  1  0  0  0  0
 14 16  1  0  0  0  0
 14 17  1  0  0  0  0
 17 18  1  0  0  0  0
 17 19  1  0  0  0  0
 17 20  1  0  0  0  0
 20 21  1  0  0  0  0
 20 22  1  0  0  0  0
 20 23  1  0  0  0  0
 23 24  1  0  0  0  0
 23 25  1  0  0  0  0
 23 26  1  0  0  0  0
M  END
> <VConfSearch Rank>
945

> <Conf_Id>
35

> <Delta U+W>
0.587

> <U+W>
-4.965

> <U>
48.214

> <W>
-53.179

> <W(PB)>
-55.527

> <W(SA)>
2.348

> <Valence>
2.697

> <Coulomb>
44.819

> <VdW>
0.699

> <VdW6>
-6.437

> <VdW12>
7.136

> <Bond>
0.168

> <Angle>
0.657

> <Pdih>
1.872

> <Idih>
0.000

> <Tether>
0.000

$$$$
VeraChem MOL file


 26 25  0  0  0  0  0  0  0  0999 V2000     
   18.2960   16.7886   20.4065 C   0  0  0  0  0  0  0  0  0  0  0  0
   17.6334   17.5983   20.0739 H   0  0  0  0  0  0  0  0  0  0  0  0
   19.2717   16.9242   19.9218 H   0  0  0  0  0  0  0  0  0  0  0  0
   17.8727   15.8398   20.0521 H   0  0  0  0  0  0  0  0  0  0  0  0
   18.4360   16.7824   21.9436 C   0  0  0  0  0  0  0  0  0  0  0  0
   19.0766   15.9428   22.2480 H   0  0  0  0  0  0  0  0  0  0  0  0
   17.4503   16.6103   22.3982 H   0  0  0  0  0  0  0  0  0  0  0  0
   19.0295   18.1082   22.4695 C   0  0  0  0  0  0  0  0  0  0  0  0
   20.0086   18.2722   22.0009 H   0  0  0  0  0  0  0  0  0  0  0  0
   18.3847   18.9439   22.1644 H   0  0  0  0  0  0  0  0  0  0  0  0
   19.1740   18.1013   24.0104 C   0  0  0  0  0  0  0  0  0  0  0  0
   19.8616   17.3001   24.3148 H   0  0  0  0  0  0  0  0  0  0  0  0
   18.2008   17.8591   24.4595 H   0  0  0  0  0  0  0  0  0  0  0  0
   19.6599   19.4512   24.5933 C   0  0  0  0  0  0  0  0  0  0  0  0
   18.9628   20.2498   24.3036 H   0  0  0  0  0  0  0  0  0  0  0  0
   19.6210   19.3911   25.6899 H   0  0  0  0  0  0  0  0  0  0  0  0
   21.0961   19.8309   24.1624 C   0  0  0  0  0  0  0  0  0  0  0  0
   21.1388   19.9778   23.0759 H   0  0  0  0  0  0  0  0  0  0  0  0
   21.7845   19.0109   24.4065 H   0  0  0  0  0  0  0  0  0  0  0  0
   21.5677   21.1188   24.8603 C   0  0  0  0  0  0  0  0  0  0  0  0
   20.8944   21.9423   24.6073 H   0  0  0  0  0  0  0  0  0  0  0  0
   21.5475   20.9787   25.9445 H   0  0  0  0  0  0  0  0  0  0  0  0
   22.9732   21.5264   24.4678 N   0  3  0  0  0  0  0  0  0  0  0  0
   23.0535   21.7011   23.4608 H   0  0  0  0  0  0  0  0  0  0  0  0
   23.6609   20.8037   24.7048 H   0  0  0  0  0  0  0  0  0  0  0  0
   23.2675   22.3860   24.9443 H   0  0  0  0  0  0  0  0  0  0  0  0
  1  2  1  0  0  0  0
  1  3  1  0  0  0  0
  1  4  1  0  0  0  0
  1  5  1  0  0  0  0
  5  6  1  0  0  0  0
  5  7  1  0  0  0  0
  5  8  1  0  0  0  0
  8  9  1  0  0  0  0
  8 10  1  0  0  0  0
  8 11  1  0  0  0  0
 11 12  1  0  0  0  0
 11 13  1  0  0  0  0
 11 14  1  0  0  0  0
 14 15  1  0  0  0  0
 14 16  1  0  0  0  0
 14 17  1  0  0  0  0
 17 18  1  0  0  0  0
 17 19  1  0  0  0  0
 17 20  1  0  0  0  0
 20 21  1  0  0  0  0
 20 22  1  0  0  0  0
 20 23  1  0  0  0  0
 23 24  1  0  0  0  0
 23 25  1  0  0  0  0
 23 26  1  0  0  0  0
M  END
> <VConfSearch Rank>
946

> <Conf_Id>
36

> <Delta U+W>
0.565

> <U+W>
-4.987

> <U>
48.214

> <W>
-53.201

> <W(PB)>
-55.543

> <W(SA)>
2.342

> <Valence>
2.697

> <Coulomb>
44.819

> <VdW>
0.698

> <VdW6>
-6.437

> <VdW12>
7.136

> <Bond>
0.168

> <Angle>
0.657

> <Pdih>
1.872

> <Idih>
0.000

> <Tether>
0.000

$$$$
VeraChem MOL file


 26 25  0  0  0  0  0  0  0  0999 V2000     
   17.8255   18.5318   26.9775 C   0  0  0  0  0  0  0  0  0  0  0  0
   18.2020   19.3885   27.5515 H   0  0  0  0  0  0  0  0  0  0  0  0
   16.7591   18.4133   27.2094 H   0  0  0  0  0  0  0  0  0  0  0  0
   18.3481   17.6311   27.3250 H   0  0  0  0  0  0  0  0  0  0  0  0
   18.0335   18.7443   25.4630 C   0  0  0  0  0  0  0  0  0  0  0  0
   17.4722   19.6319   25.1389 H   0  0  0  0  0  0  0  0  0  0  0  0
   17.6170   17.8880   24.9142 H   0  0  0  0  0  0  0  0  0  0  0  0
   19.5276   18.9141   25.1090 C   0  0  0  0  0  0  0  0  0  0  0  0
   19.9398   19.7694   25.6622 H   0  0  0  0  0  0  0  0  0  0  0  0
   20.0849   18.0255   25.4365 H   0  0  0  0  0  0  0  0  0  0  0  0
   19.7401   19.1274   23.5932 C   0  0  0  0  0  0  0  0  0  0  0  0
   19.1845   20.0178   23.2675 H   0  0  0  0  0  0  0  0  0  0  0  0
   19.3203   18.2723   23.0467 H   0  0  0  0  0  0  0  0  0  0  0  0
   21.2377   19.2959   23.2416 C   0  0  0  0  0  0  0  0  0  0  0  0
   21.6564   20.1231   23.8314 H   0  0  0  0  0  0  0  0  0  0  0  0
   21.7915   18.3934   23.5356 H   0  0  0  0  0  0  0  0  0  0  0  0
   21.4807   19.5841   21.7414 C   0  0  0  0  0  0  0  0  0  0  0  0
   22.5501   19.7784   21.5846 H   0  0  0  0  0  0  0  0  0  0  0  0
   20.9488   20.4998   21.4507 H   0  0  0  0  0  0  0  0  0  0  0  0
   21.0424   18.4200   20.8331 C   0  0  0  0  0  0  0  0  0  0  0  0
   21.5726   17.5085   21.1217 H   0  0  0  0  0  0  0  0  0  0  0  0
   19.9695   18.2452   20.9468 H   0  0  0  0  0  0  0  0  0  0  0  0
   21.3182   18.6769   19.3657 N   0  3  0  0  0  0  0  0  0  0  0  0
   21.0194   17.8906   18.7784 H   0  0  0  0  0  0  0  0  0  0  0  0
   22.3168   18.8220   19.1843 H   0  0  0  0  0  0  0  0  0  0  0  0
   20.8255   19.5086   19.0241 H   0  0  0  0  0  0  0  0  0  0  0  0
  1  2  1  0  0  0  0
  1  3  1  0  0  0  0
  1  4  1  0  0  0  0
  1  5  1  0  0  0  0
  5  6  1  0  0  0  0
  5  7  1  0  0  0  0
  5  8  1  0  0  0  0
  8  9  1  0  0  0  0
  8 10  1  0  0  0  0
  8 11  1  0  0  0  0
 11 12  1  0  0  0  0
 11 13  1  0  0  0  0
 11 14  1  0  0  0  0
 14 15  1  0  0  0  0
 14 16  1  0  0  0  0
 14 17  1  0  0  0  0
 17 18  1  0  0  0  0
 17 19  1  0  0  0  0
 17 20  1  0  0  0  0
 20 21  1  0  0  0  0
 20 22  1  0  0  0  0
 20 23  1  0  0  0  0
 23 24  1  0  0  0  0
 23 25  1  0  0  0  0
 23 26  1  0  0  0  0
M  END
> <VConfSearch Rank>
947

> <Conf_Id>
44

> <Delta U+W>
0.371

> <U+W>
-5.181

> <U>
48.002

> <W>
-53.183

> <W(PB)>
-55.533

> <W(SA)>
2.350

> <Valence>
2.459

> <Coulomb>
44.901

> <VdW>
0.643

> <VdW6>
-6.362

> <VdW12>
7.005

> <Bond>
0.151

> <Angle>
0.519

> <Pdih>
1.789

> <Idih>
0.000

> <Tether>
0.000

$$$$
VeraChem MOL file


 26 25  0  0  0  0  0  0  0  0999 V2000     
   20.1685   15.9645   20.7173 C   0  0  0  0  0  0  0  0  0  0  0  0
   19.3273   16.3427   20.1219 H   0  0  0  0  0  0  0  0  0  0  0  0
   20.6663   15.1794   20.1336 H   0  0  0  0  0  0  0  0  0  0  0  0
   19.7658   15.4951   21.6232 H   0  0  0  0  0  0  0  0  0  0  0  0
   21.1633   17.0978   21.0568 C   0  0  0  0  0  0  0  0  0  0  0  0
   21.6327   17.4449   20.1257 H   0  0  0  0  0  0  0  0  0  0  0  0
   21.9763   16.7022   21.6815 H   0  0  0  0  0  0  0  0  0  0  0  0
   20.5043   18.3093   21.7601 C   0  0  0  0  0  0  0  0  0  0  0  0
   21.2544   19.1069   21.8322 H   0  0  0  0  0  0  0  0  0  0  0  0
   19.6936   18.7016   21.1309 H   0  0  0  0  0  0  0  0  0  0  0  0
   19.9581   17.9801   23.1729 C   0  0  0  0  0  0  0  0  0  0  0  0
   20.7693   17.5915   23.8036 H   0  0  0  0  0  0  0  0  0  0  0  0
   19.2142   17.1766   23.0970 H   0  0  0  0  0  0  0  0  0  0  0  0
   19.2864   19.1859   23.8757 C   0  0  0  0  0  0  0  0  0  0  0  0
   18.4844   19.5833   23.2382 H   0  0  0  0  0  0  0  0  0  0  0  0
   18.8004   18.8193   24.7895 H   0  0  0  0  0  0  0  0  0  0  0  0
   20.2747   20.3219   24.2420 C   0  0  0  0  0  0  0  0  0  0  0  0
   20.7309   20.7277   23.3308 H   0  0  0  0  0  0  0  0  0  0  0  0
   21.0947   19.9248   24.8549 H   0  0  0  0  0  0  0  0  0  0  0  0
   19.5924   21.4849   24.9881 C   0  0  0  0  0  0  0  0  0  0  0  0
   20.3128   22.2949   25.1316 H   0  0  0  0  0  0  0  0  0  0  0  0
   18.7621   21.8695   24.3897 H   0  0  0  0  0  0  0  0  0  0  0  0
   19.0531   21.1045   26.3531 N   0  3  0  0  0  0  0  0  0  0  0  0
   18.3401   20.3713   26.2894 H   0  0  0  0  0  0  0  0  0  0  0  0
   18.6195   21.9041   26.8274 H   0  0  0  0  0  0  0  0  0  0  0  0
   19.7929   20.7552   26.9710 H   0  0  0  0  0  0  0  0  0  0  0  0
  1  2  1  0  0  0  0
  1  3  1  0  0  0  0
  1  4  1  0  0  0  0
  1  5  1  0  0  0  0
  5  6  1  0  0  0  0
  5  7  1  0  0  0  0
  5  8  1  0  0  0  0
  8  9  1  0  0  0  0
  8 10  1  0  0  0  0
  8 11  1  0  0  0  0
 11 12  1  0  0  0  0
 11 13  1  0  0  0  0
 11 14  1  0  0  0  0
 14 15  1  0  0  0  0
 14 16  1  0  0  0  0
 14 17  1  0  0  0  0
 17 18  1  0  0  0  0
 17 19  1  0  0  0  0
 17 20  1  0  0  0  0
 20 21  1  0  0  0  0
 20 22  1  0  0  0  0
 20 23  1  0  0  0  0
 23 24  1  0  0  0  0
 23 25  1  0  0  0  0
 23 26  1  0  0  0  0
M  END
> <VConfSearch Rank>
948

> <Conf_Id>
112

> <Delta U+W>
1.422

> <U+W>
-4.130

> <U>
49.323

> <W>
-53.453

> <W(PB)>
-55.749

> <W(SA)>
2.296

> <Valence>
3.408

> <Coulomb>
44.893

> <VdW>
1.021

> <VdW6>
-7.481

> <VdW12>
8.503

> <Bond>
0.239

> <Angle>
1.013

> <Pdih>
2.156

> <Idih>
0.000

> <Tether>
0.000

$$$$
VeraChem MOL file


 26 25  0  0  0  0  0  0  0  0999 V2000     
   17.4086   16.3059   22.6313 C   0  0  0  0  0  0  0  0  0  0  0  0
   16.6069   15.5577   22.6789 H   0  0  0  0  0  0  0  0  0  0  0  0
   16.9458   17.2702   22.3870 H   0  0  0  0  0  0  0  0  0  0  0  0
   18.0794   16.0276   21.8082 H   0  0  0  0  0  0  0  0  0  0  0  0
   18.1719   16.3671   23.9738 C   0  0  0  0  0  0  0  0  0  0  0  0
   18.5165   15.3560   24.2323 H   0  0  0  0  0  0  0  0  0  0  0  0
   17.4852   16.6721   24.7757 H   0  0  0  0  0  0  0  0  0  0  0  0
   19.3941   17.3160   23.9416 C   0  0  0  0  0  0  0  0  0  0  0  0
   19.9333   17.2234   24.8944 H   0  0  0  0  0  0  0  0  0  0  0  0
   20.0864   16.9812   23.1581 H   0  0  0  0  0  0  0  0  0  0  0  0
   19.0117   18.8010   23.7174 C   0  0  0  0  0  0  0  0  0  0  0  0
   18.2225   19.0779   24.4299 H   0  0  0  0  0  0  0  0  0  0  0  0
   18.5839   18.9327   22.7147 H   0  0  0  0  0  0  0  0  0  0  0  0
   20.1990   19.7790   23.8964 C   0  0  0  0  0  0  0  0  0  0  0  0
   19.8090   20.8038   23.8395 H   0  0  0  0  0  0  0  0  0  0  0  0
   20.6211   19.6649   24.9045 H   0  0  0  0  0  0  0  0  0  0  0  0
   21.3161   19.5936   22.8389 C   0  0  0  0  0  0  0  0  0  0  0  0
   20.8965   19.6821   21.8281 H   0  0  0  0  0  0  0  0  0  0  0  0
   21.7378   18.5838   22.9171 H   0  0  0  0  0  0  0  0  0  0  0  0
   22.4676   20.6036   23.0079 C   0  0  0  0  0  0  0  0  0  0  0  0
   22.8756   20.5309   24.0196 H   0  0  0  0  0  0  0  0  0  0  0  0
   23.2661   20.3637   22.3005 H   0  0  0  0  0  0  0  0  0  0  0  0
   22.0592   22.0437   22.7667 N   0  3  0  0  0  0  0  0  0  0  0  0
   21.3354   22.3487   23.4247 H   0  0  0  0  0  0  0  0  0  0  0  0
   21.6870   22.1807   21.8214 H   0  0  0  0  0  0  0  0  0  0  0  0
   22.8513   22.6868   22.8727 H   0  0  0  0  0  0  0  0  0  0  0  0
  1  2  1  0  0  0  0
  1  3  1  0  0  0  0
  1  4  1  0  0  0  0
  1  5  1  0  0  0  0
  5  6  1  0  0  0  0
  5  7  1  0  0  0  0
  5  8  1  0  0  0  0
  8  9  1  0  0  0  0
  8 10  1  0  0  0  0
  8 11  1  0  0  0  0
 11 12  1  0  0  0  0
 11 13  1  0  0  0  0
 11 14  1  0  0  0  0
 14 15  1  0  0  0  0
 14 16  1  0  0  0  0
 14 17  1  0  0  0  0
 17 18  1  0  0  0  0
 17 19  1  0  0  0  0
 17 20  1  0  0  0  0
 20 21  1  0  0  0  0
 20 22  1  0  0  0  0
 20 23  1  0  0  0  0
 23 24  1  0  0  0  0
 23 25  1  0  0  0  0
 23 26  1  0  0  0  0
M  END
> <VConfSearch Rank>
949

> <Conf_Id>
130

> <Delta U+W>
1.282

> <U+W>
-4.270

> <U>
49.153

> <W>
-53.422

> <W(PB)>
-55.725

> <W(SA)>
2.303

> <Valence>
3.298

> <Coulomb>
44.907

> <VdW>
0.948

> <VdW6>
-7.574

> <VdW12>
8.522

> <Bond>
0.229

> <Angle>
0.912

> <Pdih>
2.157

> <Idih>
0.000

> <Tether>
0.000

$$$$
VeraChem MOL file


 26 25  0  0  0  0  0  0  0  0999 V2000     
   22.6925   20.9533   22.7432 C   0  0  0  0  0  0  0  0  0  0  0  0
   23.1063   20.6957   21.7596 H   0  0  0  0  0  0  0  0  0  0  0  0
   23.3458   21.7110   23.1948 H   0  0  0  0  0  0  0  0  0  0  0  0
   22.7342   20.0601   23.3790 H   0  0  0  0  0  0  0  0  0  0  0  0
   21.2490   21.4899   22.6152 C   0  0  0  0  0  0  0  0  0  0  0  0
   21.2741   22.4459   22.0739 H   0  0  0  0  0  0  0  0  0  0  0  0
   20.8494   21.7209   23.6116 H   0  0  0  0  0  0  0  0  0  0  0  0
   20.2960   20.5243   21.8652 C   0  0  0  0  0  0  0  0  0  0  0  0
   19.3032   20.9899   21.7961 H   0  0  0  0  0  0  0  0  0  0  0  0
   20.6480   20.4136   20.8303 H   0  0  0  0  0  0  0  0  0  0  0  0
   20.1483   19.1136   22.4920 C   0  0  0  0  0  0  0  0  0  0  0  0
   21.1148   18.5928   22.4726 H   0  0  0  0  0  0  0  0  0  0  0  0
   19.4774   18.5280   21.8499 H   0  0  0  0  0  0  0  0  0  0  0  0
   19.5927   19.1338   23.9386 C   0  0  0  0  0  0  0  0  0  0  0  0
   20.2782   19.6937   24.5879 H   0  0  0  0  0  0  0  0  0  0  0  0
   18.6337   19.6697   23.9606 H   0  0  0  0  0  0  0  0  0  0  0  0
   19.4078   17.7195   24.5373 C   0  0  0  0  0  0  0  0  0  0  0  0
   19.1155   17.8153   25.5915 H   0  0  0  0  0  0  0  0  0  0  0  0
   20.3671   17.1851   24.5245 H   0  0  0  0  0  0  0  0  0  0  0  0
   18.3423   16.8911   23.7950 C   0  0  0  0  0  0  0  0  0  0  0  0
   17.3878   17.4242   23.8069 H   0  0  0  0  0  0  0  0  0  0  0  0
   18.6434   16.7466   22.7543 H   0  0  0  0  0  0  0  0  0  0  0  0
   18.1218   15.5234   24.4083 N   0  3  0  0  0  0  0  0  0  0  0  0
   18.9783   14.9599   24.4034 H   0  0  0  0  0  0  0  0  0  0  0  0
   17.4093   14.9883   23.9001 H   0  0  0  0  0  0  0  0  0  0  0  0
   17.8083   15.5875   25.3823 H   0  0  0  0  0  0  0  0  0  0  0  0
  1  2  1  0  0  0  0
  1  3  1  0  0  0  0
  1  4  1  0  0  0  0
  1  5  1  0  0  0  0
  5  6  1  0  0  0  0
  5  7  1  0  0  0  0
  5  8  1  0  0  0  0
  8  9  1  0  0  0  0
  8 10  1  0  0  0  0
  8 11  1  0  0  0  0
 11 12  1  0  0  0  0
 11 13  1  0  0  0  0
 11 14  1  0  0  0  0
 14 15  1  0  0  0  0
 14 16  1  0  0  0  0
 14 17  1  0  0  0  0
 17 18  1  0  0  0  0
 17 19  1  0  0  0  0
 17 20  1  0  0  0  0
 20 21  1  0  0  0  0
 20 22  1  0  0  0  0
 20 23  1  0  0  0  0
 23 24  1  0  0  0  0
 23 25  1  0  0  0  0
 23 26  1  0  0  0  0
M  END
> <VConfSearch Rank>
950

> <Conf_Id>
111

> <Delta U+W>
1.290

> <U+W>
-4.262

> <U>
49.209

> <W>
-53.471

> <W(PB)>
-55.745

> <W(SA)>
2.274

> <Valence>
3.465

> <Coulomb>
44.958

> <VdW>
0.786

> <VdW6>
-7.903

> <VdW12>
8.689

> <Bond>
0.237

> <Angle>
1.212

> <Pdih>
2.015

> <Idih>
0.000

> <Tether>
0.000

$$$$
VeraChem MOL file


 26 25  0  0  0  0  0  0  0  0999 V2000     
   20.5109   21.1232   19.9315 C   0  0  0  0  0  0  0  0  0  0  0  0
   21.5869   20.9071   19.9050 H   0  0  0  0  0  0  0  0  0  0  0  0
   20.0608   20.7325   19.0096 H   0  0  0  0  0  0  0  0  0  0  0  0
   20.3860   22.2138   19.9311 H   0  0  0  0  0  0  0  0  0  0  0  0
   19.8508   20.4996   21.1796 C   0  0  0  0  0  0  0  0  0  0  0  0
   18.7826   20.7572   21.1936 H   0  0  0  0  0  0  0  0  0  0  0  0
   20.2980   20.9444   22.0784 H   0  0  0  0  0  0  0  0  0  0  0  0
   20.0178   18.9618   21.2043 C   0  0  0  0  0  0  0  0  0  0  0  0
   19.6362   18.5465   20.2613 H   0  0  0  0  0  0  0  0  0  0  0  0
   21.0855   18.7056   21.2436 H   0  0  0  0  0  0  0  0  0  0  0  0
   19.2756   18.2760   22.3776 C   0  0  0  0  0  0  0  0  0  0  0  0
   19.3514   17.1875   22.2477 H   0  0  0  0  0  0  0  0  0  0  0  0
   18.2051   18.5186   22.3271 H   0  0  0  0  0  0  0  0  0  0  0  0
   19.8332   18.6568   23.7702 C   0  0  0  0  0  0  0  0  0  0  0  0
   20.9147   18.4674   23.7908 H   0  0  0  0  0  0  0  0  0  0  0  0
   19.6920   19.7307   23.9497 H   0  0  0  0  0  0  0  0  0  0  0  0
   19.1385   17.8617   24.9010 C   0  0  0  0  0  0  0  0  0  0  0  0
   19.3010   16.7849   24.7595 H   0  0  0  0  0  0  0  0  0  0  0  0
   18.0539   18.0249   24.8464 H   0  0  0  0  0  0  0  0  0  0  0  0
   19.6238   18.2746   26.3040 C   0  0  0  0  0  0  0  0  0  0  0  0
   19.4682   19.3474   26.4465 H   0  0  0  0  0  0  0  0  0  0  0  0
   19.0409   17.7422   27.0605 H   0  0  0  0  0  0  0  0  0  0  0  0
   21.0882   17.9739   26.5563 N   0  3  0  0  0  0  0  0  0  0  0  0
   21.3758   18.2486   27.5019 H   0  0  0  0  0  0  0  0  0  0  0  0
   21.6969   18.4734   25.9006 H   0  0  0  0  0  0  0  0  0  0  0  0
   21.2937   16.9741   26.4595 H   0  0  0  0  0  0  0  0  0  0  0  0
  1  2  1  0  0  0  0
  1  3  1  0  0  0  0
  1  4  1  0  0  0  0
  1  5  1  0  0  0  0
  5  6  1  0  0  0  0
  5  7  1  0  0  0  0
  5  8  1  0  0  0  0
  8  9  1  0  0  0  0
  8 10  1  0  0  0  0
  8 11  1  0  0  0  0
 11 12  1  0  0  0  0
 11 13  1  0  0  0  0
 11 14  1  0  0  0  0
 14 15  1  0  0  0  0
 14 16  1  0  0  0  0
 14 17  1  0  0  0  0
 17 18  1  0  0  0  0
 17 19  1  0  0  0  0
 17 20  1  0  0  0  0
 20 21  1  0  0  0  0
 20 22  1  0  0  0  0
 20 23  1  0  0  0  0
 23 24  1  0  0  0  0
 23 25  1  0  0  0  0
 23 26  1  0  0  0  0
M  END
> <VConfSearch Rank>
951

> <Conf_Id>
105

> <Delta U+W>
0.736

> <U+W>
-4.817

> <U>
48.735

> <W>
-53.552

> <W(PB)>
-55.889

> <W(SA)>
2.337

> <Valence>
2.803

> <Coulomb>
45.123

> <VdW>
0.809

> <VdW6>
-6.953

> <VdW12>
7.761

> <Bond>
0.188

> <Angle>
0.699

> <Pdih>
1.917

> <Idih>
0.000

> <Tether>
0.000

$$$$
VeraChem MOL file


 26 25  0  0  0  0  0  0  0  0999 V2000     
   22.6338   16.3296   23.2633 C   0  0  0  0  0  0  0  0  0  0  0  0
   22.4628   15.3496   23.7275 H   0  0  0  0  0  0  0  0  0  0  0  0
   22.4421   16.2362   22.1864 H   0  0  0  0  0  0  0  0  0  0  0  0
   23.6931   16.5849   23.3963 H   0  0  0  0  0  0  0  0  0  0  0  0
   21.7297   17.4089   23.8957 C   0  0  0  0  0  0  0  0  0  0  0  0
   21.9577   18.3791   23.4347 H   0  0  0  0  0  0  0  0  0  0  0  0
   21.9645   17.5005   24.9654 H   0  0  0  0  0  0  0  0  0  0  0  0
   20.2303   17.0731   23.7172 C   0  0  0  0  0  0  0  0  0  0  0  0
   19.9855   17.0220   22.6482 H   0  0  0  0  0  0  0  0  0  0  0  0
   20.0407   16.0672   24.1165 H   0  0  0  0  0  0  0  0  0  0  0  0
   19.2806   18.0678   24.4339 C   0  0  0  0  0  0  0  0  0  0  0  0
   19.4557   18.0072   25.5169 H   0  0  0  0  0  0  0  0  0  0  0  0
   18.2439   17.7384   24.2793 H   0  0  0  0  0  0  0  0  0  0  0  0
   19.4079   19.5491   23.9926 C   0  0  0  0  0  0  0  0  0  0  0  0
   18.6969   20.1405   24.5843 H   0  0  0  0  0  0  0  0  0  0  0  0
   20.4045   19.9328   24.2480 H   0  0  0  0  0  0  0  0  0  0  0  0
   19.1321   19.7720   22.4845 C   0  0  0  0  0  0  0  0  0  0  0  0
   18.1443   19.3725   22.2190 H   0  0  0  0  0  0  0  0  0  0  0  0
   19.8670   19.2177   21.8874 H   0  0  0  0  0  0  0  0  0  0  0  0
   19.2132   21.2563   22.0785 C   0  0  0  0  0  0  0  0  0  0  0  0
   20.1890   21.6619   22.3591 H   0  0  0  0  0  0  0  0  0  0  0  0
   19.1082   21.3410   20.9935 H   0  0  0  0  0  0  0  0  0  0  0  0
   18.1427   22.1234   22.7116 N   0  3  0  0  0  0  0  0  0  0  0  0
   18.2066   22.1204   23.7342 H   0  0  0  0  0  0  0  0  0  0  0  0
   17.1999   21.8044   22.4657 H   0  0  0  0  0  0  0  0  0  0  0  0
   18.2165   23.1009   22.4092 H   0  0  0  0  0  0  0  0  0  0  0  0
  1  2  1  0  0  0  0
  1  3  1  0  0  0  0
  1  4  1  0  0  0  0
  1  5  1  0  0  0  0
  5  6  1  0  0  0  0
  5  7  1  0  0  0  0
  5  8  1  0  0  0  0
  8  9  1  0  0  0  0
  8 10  1  0  0  0  0
  8 11  1  0  0  0  0
 11 12  1  0  0  0  0
 11 13  1  0  0  0  0
 11 14  1  0  0  0  0
 14 15  1  0  0  0  0
 14 16  1  0  0  0  0
 14 17  1  0  0  0  0
 17 18  1  0  0  0  0
 17 19  1  0  0  0  0
 17 20  1  0  0  0  0
 20 21  1  0  0  0  0
 20 22  1  0  0  0  0
 20 23  1  0  0  0  0
 23 24  1  0  0  0  0
 23 25  1  0  0  0  0
 23 26  1  0  0  0  0
M  END
> <VConfSearch Rank>
952

> <Conf_Id>
144

> <Delta U+W>
1.073

> <U+W>
-4.479

> <U>
49.231

> <W>
-53.710

> <W(PB)>
-55.983

> <W(SA)>
2.273

> <Valence>
3.276

> <Coulomb>
45.175

> <VdW>
0.779

> <VdW6>
-7.944

> <VdW12>
8.723

> <Bond>
0.239

> <Angle>
1.155

> <Pdih>
1.883

> <Idih>
0.000

> <Tether>
0.000

$$$$
VeraChem MOL file


 26 25  0  0  0  0  0  0  0  0999 V2000     
   17.0073   19.5680   25.3465 C   0  0  0  0  0  0  0  0  0  0  0  0
   17.2293   18.6527   25.9085 H   0  0  0  0  0  0  0  0  0  0  0  0
   16.4274   20.2261   26.0064 H   0  0  0  0  0  0  0  0  0  0  0  0
   16.3693   19.3022   24.4936 H   0  0  0  0  0  0  0  0  0  0  0  0
   18.2978   20.2769   24.8758 C   0  0  0  0  0  0  0  0  0  0  0  0
   18.9351   20.5019   25.7424 H   0  0  0  0  0  0  0  0  0  0  0  0
   18.0248   21.2462   24.4356 H   0  0  0  0  0  0  0  0  0  0  0  0
   19.1017   19.4681   23.8289 C   0  0  0  0  0  0  0  0  0  0  0  0
   18.4546   19.2276   22.9743 H   0  0  0  0  0  0  0  0  0  0  0  0
   19.9013   20.1166   23.4496 H   0  0  0  0  0  0  0  0  0  0  0  0
   19.7286   18.1712   24.3986 C   0  0  0  0  0  0  0  0  0  0  0  0
   18.9471   17.5635   24.8719 H   0  0  0  0  0  0  0  0  0  0  0  0
   20.4384   18.4305   25.1960 H   0  0  0  0  0  0  0  0  0  0  0  0
   20.4398   17.2833   23.3444 C   0  0  0  0  0  0  0  0  0  0  0  0
   20.8036   16.3842   23.8609 H   0  0  0  0  0  0  0  0  0  0  0  0
   19.7136   16.9251   22.6014 H   0  0  0  0  0  0  0  0  0  0  0  0
   21.6436   17.9495   22.6316 C   0  0  0  0  0  0  0  0  0  0  0  0
   22.3537   17.1651   22.3375 H   0  0  0  0  0  0  0  0  0  0  0  0
   22.1795   18.6069   23.3292 H   0  0  0  0  0  0  0  0  0  0  0  0
   21.2389   18.7269   21.3638 C   0  0  0  0  0  0  0  0  0  0  0  0
   20.7548   18.0473   20.6572 H   0  0  0  0  0  0  0  0  0  0  0  0
   20.5301   19.5185   21.6140 H   0  0  0  0  0  0  0  0  0  0  0  0
   22.4184   19.3667   20.6606 N   0  3  0  0  0  0  0  0  0  0  0  0
   23.1112   18.6704   20.3665 H   0  0  0  0  0  0  0  0  0  0  0  0
   22.9039   20.0392   21.2631 H   0  0  0  0  0  0  0  0  0  0  0  0
   22.1298   19.8748   19.8174 H   0  0  0  0  0  0  0  0  0  0  0  0
  1  2  1  0  0  0  0
  1  3  1  0  0  0  0
  1  4  1  0  0  0  0
  1  5  1  0  0  0  0
  5  6  1  0  0  0  0
  5  7  1  0  0  0  0
  5  8  1  0  0  0  0
  8  9  1  0  0  0  0
  8 10  1  0  0  0  0
  8 11  1  0  0  0  0
 11 12  1  0  0  0  0
 11 13  1  0  0  0  0
 11 14  1  0  0  0  0
 14 15  1  0  0  0  0
 14 16  1  0  0  0  0
 14 17  1  0  0  0  0
 17 18  1  0  0  0  0
 17 19  1  0  0  0  0
 17 20  1  0  0  0  0
 20 21  1  0  0  0  0
 20 22  1  0  0  0  0
 20 23  1  0  0  0  0
 23 24  1  0  0  0  0
 23 25  1  0  0  0  0
 23 26  1  0  0  0  0
M  END
> <VConfSearch Rank>
953

> <Conf_Id>
93

> <Delta U+W>
3.253

> <U+W>
-2.300

> <U>
51.609

> <W>
-53.909

> <W(PB)>
-56.178

> <W(SA)>
2.270

> <Valence>
5.204

> <Coulomb>
45.645

> <VdW>
0.760

> <VdW6>
-7.997

> <VdW12>
8.758

> <Bond>
0.240

> <Angle>
1.456

> <Pdih>
3.507

> <Idih>
0.000

> <Tether>
0.000

$$$$
VeraChem MOL file


 26 25  0  0  0  0  0  0  0  0999 V2000     
   20.5801   16.3053   25.7669 C   0  0  0  0  0  0  0  0  0  0  0  0
   20.8861   17.0779   26.4826 H   0  0  0  0  0  0  0  0  0  0  0  0
   19.4923   16.1784   25.8412 H   0  0  0  0  0  0  0  0  0  0  0  0
   21.0494   15.3635   26.0797 H   0  0  0  0  0  0  0  0  0  0  0  0
   21.0006   16.6646   24.3234 C   0  0  0  0  0  0  0  0  0  0  0  0
   20.7881   15.8053   23.6721 H   0  0  0  0  0  0  0  0  0  0  0  0
   22.0877   16.8201   24.2812 H   0  0  0  0  0  0  0  0  0  0  0  0
   20.2702   17.9063   23.7568 C   0  0  0  0  0  0  0  0  0  0  0  0
   20.5186   17.9810   22.6907 H   0  0  0  0  0  0  0  0  0  0  0  0
   19.1840   17.7547   23.8207 H   0  0  0  0  0  0  0  0  0  0  0  0
   20.6617   19.2287   24.4621 C   0  0  0  0  0  0  0  0  0  0  0  0
   21.7352   19.4132   24.3185 H   0  0  0  0  0  0  0  0  0  0  0  0
   20.5124   19.1252   25.5442 H   0  0  0  0  0  0  0  0  0  0  0  0
   19.8584   20.4700   23.9938 C   0  0  0  0  0  0  0  0  0  0  0  0
   18.7938   20.3433   24.2353 H   0  0  0  0  0  0  0  0  0  0  0  0
   20.1979   21.3279   24.5908 H   0  0  0  0  0  0  0  0  0  0  0  0
   20.0235   20.8303   22.4958 C   0  0  0  0  0  0  0  0  0  0  0  0
   21.0480   20.6132   22.1654 H   0  0  0  0  0  0  0  0  0  0  0  0
   19.8831   21.9132   22.3791 H   0  0  0  0  0  0  0  0  0  0  0  0
   19.0031   20.1161   21.5878 C   0  0  0  0  0  0  0  0  0  0  0  0
   19.1096   19.0333   21.6756 H   0  0  0  0  0  0  0  0  0  0  0  0
   17.9890   20.3846   21.8958 H   0  0  0  0  0  0  0  0  0  0  0  0
   19.1571   20.4795   20.1252 N   0  3  0  0  0  0  0  0  0  0  0  0
   19.0344   21.4850   19.9666 H   0  0  0  0  0  0  0  0  0  0  0  0
   18.4668   19.9986   19.5382 H   0  0  0  0  0  0  0  0  0  0  0  0
   20.0831   20.2281   19.7642 H   0  0  0  0  0  0  0  0  0  0  0  0
  1  2  1  0  0  0  0
  1  3  1  0  0  0  0
  1  4  1  0  0  0  0
  1  5  1  0  0  0  0
  5  6  1  0  0  0  0
  5  7  1  0  0  0  0
  5  8  1  0  0  0  0
  8  9  1  0  0  0  0
  8 10  1  0  0  0  0
  8 11  1  0  0  0  0
 11 12  1  0  0  0  0
 11 13  1  0  0  0  0
 11 14  1  0  0  0  0
 14 15  1  0  0  0  0
 14 16  1  0  0  0  0
 14 17  1  0  0  0  0
 17 18  1  0  0  0  0
 17 19  1  0  0  0  0
 17 20  1  0  0  0  0
 20 21  1  0  0  0  0
 20 22  1  0  0  0  0
 20 23  1  0  0  0  0
 23 24  1  0  0  0  0
 23 25  1  0  0  0  0
 23 26  1  0  0  0  0
M  END
> <VConfSearch Rank>
954

> <Conf_Id>
94

> <Delta U+W>
3.247

> <U+W>
-2.305

> <U>
51.609

> <W>
-53.914

> <W(PB)>
-56.221

> <W(SA)>
2.307

> <Valence>
5.204

> <Coulomb>
45.645

> <VdW>
0.760

> <VdW6>
-7.997

> <VdW12>
8.757

> <Bond>
0.240

> <Angle>
1.456

> <Pdih>
3.508

> <Idih>
0.000

> <Tether>
0.000

$$$$
VeraChem MOL file


 26 25  0  0  0  0  0  0  0  0999 V2000     
   19.9092   21.9923   26.0070 C   0  0  0  0  0  0  0  0  0  0  0  0
   20.3857   22.8333   25.4866 H   0  0  0  0  0  0  0  0  0  0  0  0
   18.8218   22.0915   25.8930 H   0  0  0  0  0  0  0  0  0  0  0  0
   20.1454   22.0799   27.0755 H   0  0  0  0  0  0  0  0  0  0  0  0
   20.4046   20.6416   25.4483 C   0  0  0  0  0  0  0  0  0  0  0  0
   19.9371   19.8211   26.0105 H   0  0  0  0  0  0  0  0  0  0  0  0
   21.4889   20.5571   25.6070 H   0  0  0  0  0  0  0  0  0  0  0  0
   20.0845   20.4926   23.9444 C   0  0  0  0  0  0  0  0  0  0  0  0
   19.0000   20.5798   23.7905 H   0  0  0  0  0  0  0  0  0  0  0  0
   20.5517   21.3166   23.3875 H   0  0  0  0  0  0  0  0  0  0  0  0
   20.5796   19.1413   23.3812 C   0  0  0  0  0  0  0  0  0  0  0  0
   20.1146   18.3233   23.9473 H   0  0  0  0  0  0  0  0  0  0  0  0
   21.6646   19.0571   23.5326 H   0  0  0  0  0  0  0  0  0  0  0  0
   20.2557   18.9939   21.8751 C   0  0  0  0  0  0  0  0  0  0  0  0
   19.1699   19.0528   21.7210 H   0  0  0  0  0  0  0  0  0  0  0  0
   20.6875   19.8442   21.3293 H   0  0  0  0  0  0  0  0  0  0  0  0
   20.8054   17.6831   21.2587 C   0  0  0  0  0  0  0  0  0  0  0  0
   21.9005   17.6763   21.3405 H   0  0  0  0  0  0  0  0  0  0  0  0
   20.5789   17.6644   20.1844 H   0  0  0  0  0  0  0  0  0  0  0  0
   20.2527   16.4007   21.9132 C   0  0  0  0  0  0  0  0  0  0  0  0
   20.7085   15.5266   21.4402 H   0  0  0  0  0  0  0  0  0  0  0  0
   20.5122   16.3855   22.9748 H   0  0  0  0  0  0  0  0  0  0  0  0
   18.7483   16.2573   21.7948 N   0  3  0  0  0  0  0  0  0  0  0  0
   18.4441   16.2363   20.8160 H   0  0  0  0  0  0  0  0  0  0  0  0
   18.2583   17.0347   22.2482 H   0  0  0  0  0  0  0  0  0  0  0  0
   18.4121   15.3925   22.2320 H   0  0  0  0  0  0  0  0  0  0  0  0
  1  2  1  0  0  0  0
  1  3  1  0  0  0  0
  1  4  1  0  0  0  0
  1  5  1  0  0  0  0
  5  6  1  0  0  0  0
  5  7  1  0  0  0  0
  5  8  1  0  0  0  0
  8  9  1  0  0  0  0
  8 10  1  0  0  0  0
  8 11  1  0  0  0  0
 11 12  1  0  0  0  0
 11 13  1  0  0  0  0
 11 14  1  0  0  0  0
 14 15  1  0  0  0  0
 14 16  1  0  0  0  0
 14 17  1  0  0  0  0
 17 18  1  0  0  0  0
 17 19  1  0  0  0  0
 17 20  1  0  0  0  0
 20 21  1  0  0  0  0
 20 22  1  0  0  0  0
 20 23  1  0  0  0  0
 23 24  1  0  0  0  0
 23 25  1  0  0  0  0
 23 26  1  0  0  0  0
M  END
> <VConfSearch Rank>
955

> <Conf_Id>
83

> <Delta U+W>
0.559

> <U+W>
-4.994

> <U>
48.668

> <W>
-53.661

> <W(PB)>
-55.972

> <W(SA)>
2.311

> <Valence>
2.543

> <Coulomb>
45.478

> <VdW>
0.646

> <VdW6>
-7.096

> <VdW12>
7.742

> <Bond>
0.176

> <Angle>
0.630

> <Pdih>
1.738

> <Idih>
0.000

> <Tether>
0.000

$$$$
VeraChem MOL file


 26 25  0  0  0  0  0  0  0  0999 V2000     
   19.6052   20.3624   19.6134 C   0  0  0  0  0  0  0  0  0  0  0  0
   18.8271   21.1188   19.4471 H   0  0  0  0  0  0  0  0  0  0  0  0
   20.5832   20.8551   19.5362 H   0  0  0  0  0  0  0  0  0  0  0  0
   19.5350   19.6238   18.8043 H   0  0  0  0  0  0  0  0  0  0  0  0
   19.4341   19.6824   20.9884 C   0  0  0  0  0  0  0  0  0  0  0  0
   20.2030   18.9066   21.0995 H   0  0  0  0  0  0  0  0  0  0  0  0
   18.4603   19.1743   21.0246 H   0  0  0  0  0  0  0  0  0  0  0  0
   19.5337   20.7042   22.1458 C   0  0  0  0  0  0  0  0  0  0  0  0
   20.5275   21.1727   22.1418 H   0  0  0  0  0  0  0  0  0  0  0  0
   18.8113   21.5132   21.9701 H   0  0  0  0  0  0  0  0  0  0  0  0
   19.2538   20.0919   23.5403 C   0  0  0  0  0  0  0  0  0  0  0  0
   18.2540   19.6362   23.5478 H   0  0  0  0  0  0  0  0  0  0  0  0
   19.2268   20.9064   24.2774 H   0  0  0  0  0  0  0  0  0  0  0  0
   20.3075   19.0475   23.9813 C   0  0  0  0  0  0  0  0  0  0  0  0
   20.2932   18.1944   23.2917 H   0  0  0  0  0  0  0  0  0  0  0  0
   21.3110   19.4913   23.9223 H   0  0  0  0  0  0  0  0  0  0  0  0
   20.0495   18.5486   25.4228 C   0  0  0  0  0  0  0  0  0  0  0  0
   19.0592   18.0782   25.4867 H   0  0  0  0  0  0  0  0  0  0  0  0
   20.0334   19.4068   26.1077 H   0  0  0  0  0  0  0  0  0  0  0  0
   21.1229   17.5567   25.9112 C   0  0  0  0  0  0  0  0  0  0  0  0
   22.1110   18.0196   25.8412 H   0  0  0  0  0  0  0  0  0  0  0  0
   20.9365   17.3082   26.9596 H   0  0  0  0  0  0  0  0  0  0  0  0
   21.1552   16.2576   25.1301 N   0  3  0  0  0  0  0  0  0  0  0  0
   21.3642   16.4151   24.1395 H   0  0  0  0  0  0  0  0  0  0  0  0
   20.2582   15.7633   25.1764 H   0  0  0  0  0  0  0  0  0  0  0  0
   21.8699   15.6154   25.4893 H   0  0  0  0  0  0  0  0  0  0  0  0
  1  2  1  0  0  0  0
  1  3  1  0  0  0  0
  1  4  1  0  0  0  0
  1  5  1  0  0  0  0
  5  6  1  0  0  0  0
  5  7  1  0  0  0  0
  5  8  1  0  0  0  0
  8  9  1  0  0  0  0
  8 10  1  0  0  0  0
  8 11  1  0  0  0  0
 11 12  1  0  0  0  0
 11 13  1  0  0  0  0
 11 14  1  0  0  0  0
 14 15  1  0  0  0  0
 14 16  1  0  0  0  0
 14 17  1  0  0  0  0
 17 18  1  0  0  0  0
 17 19  1  0  0  0  0
 17 20  1  0  0  0  0
 20 21  1  0  0  0  0
 20 22  1  0  0  0  0
 20 23  1  0  0  0  0
 23 24  1  0  0  0  0
 23 25  1  0  0  0  0
 23 26  1  0  0  0  0
M  END
> <VConfSearch Rank>
956

> <Conf_Id>
18

> <Delta U+W>
0.759

> <U+W>
-4.793

> <U>
48.945

> <W>
-53.738

> <W(PB)>
-56.051

> <W(SA)>
2.313

> <Valence>
2.802

> <Coulomb>
45.335

> <VdW>
0.807

> <VdW6>
-6.962

> <VdW12>
7.769

> <Bond>
0.189

> <Angle>
0.696

> <Pdih>
1.917

> <Idih>
0.000

> <Tether>
0.000

$$$$
VeraChem MOL file


 26 25  0  0  0  0  0  0  0  0999 V2000     
   16.8000   17.6471   21.2235 C   0  0  0  0  0  0  0  0  0  0  0  0
   17.1811   16.6415   21.0025 H   0  0  0  0  0  0  0  0  0  0  0  0
   15.8470   17.5418   21.7581 H   0  0  0  0  0  0  0  0  0  0  0  0
   16.5965   18.1480   20.2681 H   0  0  0  0  0  0  0  0  0  0  0  0
   17.8179   18.4549   22.0564 C   0  0  0  0  0  0  0  0  0  0  0  0
   17.4218   19.4641   22.2363 H   0  0  0  0  0  0  0  0  0  0  0  0
   18.7403   18.5736   21.4729 H   0  0  0  0  0  0  0  0  0  0  0  0
   18.1241   17.7654   23.4070 C   0  0  0  0  0  0  0  0  0  0  0  0
   17.1788   17.5834   23.9367 H   0  0  0  0  0  0  0  0  0  0  0  0
   18.5705   16.7779   23.2260 H   0  0  0  0  0  0  0  0  0  0  0  0
   19.0515   18.5931   24.3306 C   0  0  0  0  0  0  0  0  0  0  0  0
   19.1136   18.0864   25.3036 H   0  0  0  0  0  0  0  0  0  0  0  0
   18.5974   19.5750   24.5229 H   0  0  0  0  0  0  0  0  0  0  0  0
   20.4808   18.7795   23.7670 C   0  0  0  0  0  0  0  0  0  0  0  0
   20.9116   17.7975   23.5271 H   0  0  0  0  0  0  0  0  0  0  0  0
   20.4373   19.3482   22.8298 H   0  0  0  0  0  0  0  0  0  0  0  0
   21.4005   19.5131   24.7719 C   0  0  0  0  0  0  0  0  0  0  0  0
   21.4188   18.9592   25.7200 H   0  0  0  0  0  0  0  0  0  0  0  0
   20.9933   20.5076   24.9979 H   0  0  0  0  0  0  0  0  0  0  0  0
   22.8480   19.6532   24.2625 C   0  0  0  0  0  0  0  0  0  0  0  0
   23.4665   20.0987   25.0463 H   0  0  0  0  0  0  0  0  0  0  0  0
   23.2534   18.6650   24.0289 H   0  0  0  0  0  0  0  0  0  0  0  0
   22.9793   20.5202   23.0256 N   0  3  0  0  0  0  0  0  0  0  0  0
   22.6340   21.4715   23.1891 H   0  0  0  0  0  0  0  0  0  0  0  0
   22.4512   20.1373   22.2354 H   0  0  0  0  0  0  0  0  0  0  0  0
   23.9555   20.6042   22.7217 H   0  0  0  0  0  0  0  0  0  0  0  0
  1  2  1  0  0  0  0
  1  3  1  0  0  0  0
  1  4  1  0  0  0  0
  1  5  1  0  0  0  0
  5  6  1  0  0  0  0
  5  7  1  0  0  0  0
  5  8  1  0  0  0  0
  8  9  1  0  0  0  0
  8 10  1  0  0  0  0
  8 11  1  0  0  0  0
 11 12  1  0  0  0  0
 11 13  1  0  0  0  0
 11 14  1  0  0  0  0
 14 15  1  0  0  0  0
 14 16  1  0  0  0  0
 14 17  1  0  0  0  0
 17 18  1  0  0  0  0
 17 19  1  0  0  0  0
 17 20  1  0  0  0  0
 20 21  1  0  0  0  0
 20 22  1  0  0  0  0
 20 23  1  0  0  0  0
 23 24  1  0  0  0  0
 23 25  1  0  0  0  0
 23 26  1  0  0  0  0
M  END
> <VConfSearch Rank>
957

> <Conf_Id>
17

> <Delta U+W>
0.843

> <U+W>
-4.709

> <U>
48.945

> <W>
-53.653

> <W(PB)>
-55.991

> <W(SA)>
2.338

> <Valence>
2.802

> <Coulomb>
45.335

> <VdW>
0.807

> <VdW6>
-6.962

> <VdW12>
7.769

> <Bond>
0.189

> <Angle>
0.696

> <Pdih>
1.917

> <Idih>
0.000

> <Tether>
0.000

$$$$
VeraChem MOL file


 26 25  0  0  0  0  0  0  0  0999 V2000     
   23.1618   19.9481   22.7045 C   0  0  0  0  0  0  0  0  0  0  0  0
   22.7400   19.9148   23.7167 H   0  0  0  0  0  0  0  0  0  0  0  0
   23.5163   18.9420   22.4456 H   0  0  0  0  0  0  0  0  0  0  0  0
   24.0338   20.6143   22.7327 H   0  0  0  0  0  0  0  0  0  0  0  0
   22.1272   20.4552   21.6742 C   0  0  0  0  0  0  0  0  0  0  0  0
   22.6290   20.5889   20.7056 H   0  0  0  0  0  0  0  0  0  0  0  0
   21.7651   21.4490   21.9724 H   0  0  0  0  0  0  0  0  0  0  0  0
   20.9273   19.4963   21.4832 C   0  0  0  0  0  0  0  0  0  0  0  0
   20.3062   19.8756   20.6600 H   0  0  0  0  0  0  0  0  0  0  0  0
   21.2929   18.5101   21.1653 H   0  0  0  0  0  0  0  0  0  0  0  0
   20.0510   19.3446   22.7497 C   0  0  0  0  0  0  0  0  0  0  0  0
   19.7282   20.3374   23.0923 H   0  0  0  0  0  0  0  0  0  0  0  0
   20.6480   18.9052   23.5586 H   0  0  0  0  0  0  0  0  0  0  0  0
   18.8087   18.4609   22.4834 C   0  0  0  0  0  0  0  0  0  0  0  0
   18.2380   18.8826   21.6444 H   0  0  0  0  0  0  0  0  0  0  0  0
   19.1282   17.4576   22.1686 H   0  0  0  0  0  0  0  0  0  0  0  0
   17.8727   18.3432   23.7093 C   0  0  0  0  0  0  0  0  0  0  0  0
   16.9753   17.7806   23.4195 H   0  0  0  0  0  0  0  0  0  0  0  0
   17.5331   19.3429   24.0116 H   0  0  0  0  0  0  0  0  0  0  0  0
   18.5427   17.6402   24.9049 C   0  0  0  0  0  0  0  0  0  0  0  0
   18.8803   16.6447   24.6042 H   0  0  0  0  0  0  0  0  0  0  0  0
   19.4128   18.2149   25.2324 H   0  0  0  0  0  0  0  0  0  0  0  0
   17.6170   17.4810   26.0935 N   0  3  0  0  0  0  0  0  0  0  0  0
   18.0816   17.0110   26.8782 H   0  0  0  0  0  0  0  0  0  0  0  0
   16.7884   16.9239   25.8606 H   0  0  0  0  0  0  0  0  0  0  0  0
   17.2839   18.3857   26.4424 H   0  0  0  0  0  0  0  0  0  0  0  0
  1  2  1  0  0  0  0
  1  3  1  0  0  0  0
  1  4  1  0  0  0  0
  1  5  1  0  0  0  0
  5  6  1  0  0  0  0
  5  7  1  0  0  0  0
  5  8  1  0  0  0  0
  8  9  1  0  0  0  0
  8 10  1  0  0  0  0
  8 11  1  0  0  0  0
 11 12  1  0  0  0  0
 11 13  1  0  0  0  0
 11 14  1  0  0  0  0
 14 15  1  0  0  0  0
 14 16  1  0  0  0  0
 14 17  1  0  0  0  0
 17 18  1  0  0  0  0
 17 19  1  0  0  0  0
 17 20  1  0  0  0  0
 20 21  1  0  0  0  0
 20 22  1  0  0  0  0
 20 23  1  0  0  0  0
 23 24  1  0  0  0  0
 23 25  1  0  0  0  0
 23 26  1  0  0  0  0
M  END
> <VConfSearch Rank>
958

> <Conf_Id>
96

> <Delta U+W>
0.912

> <U+W>
-4.640

> <U>
48.723

> <W>
-53.364

> <W(PB)>
-55.683

> <W(SA)>
2.320

> <Valence>
2.962

> <Coulomb>
44.993

> <VdW>
0.768

> <VdW6>
-7.008

> <VdW12>
7.776

> <Bond>
0.188

> <Angle>
0.757

> <Pdih>
2.018

> <Idih>
0.000

> <Tether>
0.000

$$$$
VeraChem MOL file


 26 25  0  0  0  0  0  0  0  0999 V2000     
   18.5952   20.5257   26.0355 C   0  0  0  0  0  0  0  0  0  0  0  0
   18.3654   21.3296   26.7467 H   0  0  0  0  0  0  0  0  0  0  0  0
   18.2898   19.5756   26.4928 H   0  0  0  0  0  0  0  0  0  0  0  0
   19.6836   20.5080   25.8991 H   0  0  0  0  0  0  0  0  0  0  0  0
   17.8585   20.7607   24.6973 C   0  0  0  0  0  0  0  0  0  0  0  0
   18.2043   21.7007   24.2450 H   0  0  0  0  0  0  0  0  0  0  0  0
   16.7870   20.8942   24.9021 H   0  0  0  0  0  0  0  0  0  0  0  0
   18.0297   19.5999   23.6878 C   0  0  0  0  0  0  0  0  0  0  0  0
   17.6639   18.6662   24.1370 H   0  0  0  0  0  0  0  0  0  0  0  0
   17.3873   19.7970   22.8185 H   0  0  0  0  0  0  0  0  0  0  0  0
   19.4884   19.4110   23.2065 C   0  0  0  0  0  0  0  0  0  0  0  0
   20.1258   19.1497   24.0605 H   0  0  0  0  0  0  0  0  0  0  0  0
   19.8664   20.3605   22.8030 H   0  0  0  0  0  0  0  0  0  0  0  0
   19.5955   18.3104   22.1238 C   0  0  0  0  0  0  0  0  0  0  0  0
   19.2457   17.3525   22.5332 H   0  0  0  0  0  0  0  0  0  0  0  0
   18.9230   18.5562   21.2904 H   0  0  0  0  0  0  0  0  0  0  0  0
   21.0296   18.1413   21.5692 C   0  0  0  0  0  0  0  0  0  0  0  0
   21.3730   19.0912   21.1381 H   0  0  0  0  0  0  0  0  0  0  0  0
   21.0103   17.4123   20.7481 H   0  0  0  0  0  0  0  0  0  0  0  0
   22.0301   17.6666   22.6397 C   0  0  0  0  0  0  0  0  0  0  0  0
   22.0926   18.4061   23.4422 H   0  0  0  0  0  0  0  0  0  0  0  0
   21.6887   16.7206   23.0685 H   0  0  0  0  0  0  0  0  0  0  0  0
   23.4272   17.4553   22.0931 N   0  3  0  0  0  0  0  0  0  0  0  0
   23.8173   18.3171   21.6978 H   0  0  0  0  0  0  0  0  0  0  0  0
   23.4441   16.7482   21.3509 H   0  0  0  0  0  0  0  0  0  0  0  0
   24.0775   17.1394   22.8210 H   0  0  0  0  0  0  0  0  0  0  0  0
  1  2  1  0  0  0  0
  1  3  1  0  0  0  0
  1  4  1  0  0  0  0
  1  5  1  0  0  0  0
  5  6  1  0  0  0  0
  5  7  1  0  0  0  0
  5  8  1  0  0  0  0
  8  9  1  0  0  0  0
  8 10  1  0  0  0  0
  8 11  1  0  0  0  0
 11 12  1  0  0  0  0
 11 13  1  0  0  0  0
 11 14  1  0  0  0  0
 14 15  1  0  0  0  0
 14 16  1  0  0  0  0
 14 17  1  0  0  0  0
 17 18  1  0  0  0  0
 17 19  1  0  0  0  0
 17 20  1  0  0  0  0
 20 21  1  0  0  0  0
 20 22  1  0  0  0  0
 20 23  1  0  0  0  0
 23 24  1  0  0  0  0
 23 25  1  0  0  0  0
 23 26  1  0  0  0  0
M  END
> <VConfSearch Rank>
959

> <Conf_Id>
133

> <Delta U+W>
0.844

> <U+W>
-4.708

> <U>
48.723

> <W>
-53.431

> <W(PB)>
-55.776

> <W(SA)>
2.344

> <Valence>
2.962

> <Coulomb>
44.993

> <VdW>
0.768

> <VdW6>
-7.008

> <VdW12>
7.776

> <Bond>
0.188

> <Angle>
0.756

> <Pdih>
2.018

> <Idih>
0.000

> <Tether>
0.000

$$$$
VeraChem MOL file


 26 25  0  0  0  0  0  0  0  0999 V2000     
   22.8639   19.5895   24.8465 C   0  0  0  0  0  0  0  0  0  0  0  0
   23.5110   20.3484   24.3879 H   0  0  0  0  0  0  0  0  0  0  0  0
   21.8823   20.0422   25.0346 H   0  0  0  0  0  0  0  0  0  0  0  0
   23.2964   19.3222   25.8193 H   0  0  0  0  0  0  0  0  0  0  0  0
   22.7474   18.3403   23.9442 C   0  0  0  0  0  0  0  0  0  0  0  0
   22.0804   17.6049   24.4135 H   0  0  0  0  0  0  0  0  0  0  0  0
   23.7318   17.8558   23.8824 H   0  0  0  0  0  0  0  0  0  0  0  0
   22.2649   18.6611   22.5065 C   0  0  0  0  0  0  0  0  0  0  0  0
   23.0123   19.2997   22.0159 H   0  0  0  0  0  0  0  0  0  0  0  0
   22.2391   17.7287   21.9258 H   0  0  0  0  0  0  0  0  0  0  0  0
   20.8805   19.3529   22.4104 C   0  0  0  0  0  0  0  0  0  0  0  0
   20.6628   19.5427   21.3503 H   0  0  0  0  0  0  0  0  0  0  0  0
   20.9208   20.3394   22.8911 H   0  0  0  0  0  0  0  0  0  0  0  0
   19.7282   18.5192   23.0201 C   0  0  0  0  0  0  0  0  0  0  0  0
   19.7201   17.5176   22.5682 H   0  0  0  0  0  0  0  0  0  0  0  0
   19.8944   18.3828   24.0970 H   0  0  0  0  0  0  0  0  0  0  0  0
   18.3555   19.1933   22.8038 C   0  0  0  0  0  0  0  0  0  0  0  0
   18.1727   19.3250   21.7290 H   0  0  0  0  0  0  0  0  0  0  0  0
   18.3602   20.1944   23.2554 H   0  0  0  0  0  0  0  0  0  0  0  0
   17.2164   18.3604   23.4177 C   0  0  0  0  0  0  0  0  0  0  0  0
   17.1979   17.3679   22.9594 H   0  0  0  0  0  0  0  0  0  0  0  0
   17.3852   18.2406   24.4913 H   0  0  0  0  0  0  0  0  0  0  0  0
   15.8515   18.9894   23.2262 N   0  3  0  0  0  0  0  0  0  0  0  0
   15.1073   18.4188   23.6422 H   0  0  0  0  0  0  0  0  0  0  0  0
   15.6196   19.1048   22.2342 H   0  0  0  0  0  0  0  0  0  0  0  0
   15.7938   19.9168   23.6595 H   0  0  0  0  0  0  0  0  0  0  0  0
  1  2  1  0  0  0  0
  1  3  1  0  0  0  0
  1  4  1  0  0  0  0
  1  5  1  0  0  0  0
  5  6  1  0  0  0  0
  5  7  1  0  0  0  0
  5  8  1  0  0  0  0
  8  9  1  0  0  0  0
  8 10  1  0  0  0  0
  8 11  1  0  0  0  0
 11 12  1  0  0  0  0
 11 13  1  0  0  0  0
 11 14  1  0  0  0  0
 14 15  1  0  0  0  0
 14 16  1  0  0  0  0
 14 17  1  0  0  0  0
 17 18  1  0  0  0  0
 17 19  1  0  0  0  0
 17 20  1  0  0  0  0
 20 21  1  0  0  0  0
 20 22  1  0  0  0  0
 20 23  1  0  0  0  0
 23 24  1  0  0  0  0
 23 25  1  0  0  0  0
 23 26  1  0  0  0  0
M  END
> <VConfSearch Rank>
960

> <Conf_Id>
106

> <Delta U+W>
0.767

> <U+W>
-4.785

> <U>
48.494

> <W>
-53.279

> <W(PB)>
-55.569

> <W(SA)>
2.290

> <Valence>
3.117

> <Coulomb>
44.693

> <VdW>
0.684

> <VdW6>
-7.347

> <VdW12>
8.030

> <Bond>
0.208

> <Angle>
1.039

> <Pdih>
1.870

> <Idih>
0.000

> <Tether>
0.000

$$$$
VeraChem MOL file


 26 25  0  0  0  0  0  0  0  0999 V2000     
   22.3106   21.0100   26.5421 C   0  0  0  0  0  0  0  0  0  0  0  0
   21.4831   21.0158   27.2635 H   0  0  0  0  0  0  0  0  0  0  0  0
   22.9582   20.1537   26.7714 H   0  0  0  0  0  0  0  0  0  0  0  0
   22.8966   21.9258   26.6940 H   0  0  0  0  0  0  0  0  0  0  0  0
   21.7832   20.9344   25.0935 C   0  0  0  0  0  0  0  0  0  0  0  0
   22.6311   20.9645   24.3949 H   0  0  0  0  0  0  0  0  0  0  0  0
   21.1675   21.8202   24.8831 H   0  0  0  0  0  0  0  0  0  0  0  0
   20.9540   19.6535   24.8526 C   0  0  0  0  0  0  0  0  0  0  0  0
   21.5729   18.7711   25.0666 H   0  0  0  0  0  0  0  0  0  0  0  0
   20.1091   19.6269   25.5547 H   0  0  0  0  0  0  0  0  0  0  0  0
   20.4242   19.5742   23.4030 C   0  0  0  0  0  0  0  0  0  0  0  0
   21.2697   19.6012   22.7017 H   0  0  0  0  0  0  0  0  0  0  0  0
   19.8059   20.4573   23.1898 H   0  0  0  0  0  0  0  0  0  0  0  0
   19.5946   18.2926   23.1626 C   0  0  0  0  0  0  0  0  0  0  0  0
   20.2126   17.4092   23.3757 H   0  0  0  0  0  0  0  0  0  0  0  0
   18.7488   18.2653   23.8638 H   0  0  0  0  0  0  0  0  0  0  0  0
   19.0648   18.2126   21.7139 C   0  0  0  0  0  0  0  0  0  0  0  0
   19.9075   18.2342   21.0101 H   0  0  0  0  0  0  0  0  0  0  0  0
   18.4422   19.0914   21.4986 H   0  0  0  0  0  0  0  0  0  0  0  0
   18.2404   16.9334   21.4858 C   0  0  0  0  0  0  0  0  0  0  0  0
   18.8612   16.0553   21.6831 H   0  0  0  0  0  0  0  0  0  0  0  0
   17.3906   16.9155   22.1735 H   0  0  0  0  0  0  0  0  0  0  0  0
   17.7021   16.8181   20.0743 N   0  3  0  0  0  0  0  0  0  0  0  0
   17.1562   15.9593   19.9437 H   0  0  0  0  0  0  0  0  0  0  0  0
   18.4548   16.8017   19.3783 H   0  0  0  0  0  0  0  0  0  0  0  0
   17.0865   17.6022   19.8346 H   0  0  0  0  0  0  0  0  0  0  0  0
  1  2  1  0  0  0  0
  1  3  1  0  0  0  0
  1  4  1  0  0  0  0
  1  5  1  0  0  0  0
  5  6  1  0  0  0  0
  5  7  1  0  0  0  0
  5  8  1  0  0  0  0
  8  9  1  0  0  0  0
  8 10  1  0  0  0  0
  8 11  1  0  0  0  0
 11 12  1  0  0  0  0
 11 13  1  0  0  0  0
 11 14  1  0  0  0  0
 14 15  1  0  0  0  0
 14 16  1  0  0  0  0
 14 17  1  0  0  0  0
 17 18  1  0  0  0  0
 17 19  1  0  0  0  0
 17 20  1  0  0  0  0
 20 21  1  0  0  0  0
 20 22  1  0  0  0  0
 20 23  1  0  0  0  0
 23 24  1  0  0  0  0
 23 25  1  0  0  0  0
 23 26  1  0  0  0  0
M  END
> <VConfSearch Rank>
961

> <Conf_Id>
25

> <Delta U+W>
0.000

> <U+W>
-5.552

> <U>
47.192

> <W>
-52.745

> <W(PB)>
-55.134

> <W(SA)>
2.389

> <Valence>
2.156

> <Coulomb>
44.449

> <VdW>
0.587

> <VdW6>
-5.761

> <VdW12>
6.348

> <Bond>
0.129

> <Angle>
0.393

> <Pdih>
1.634

> <Idih>
0.000

> <Tether>
0.000

$$$$
VeraChem MOL file


 26 25  0  0  0  0  0  0  0  0999 V2000     
   21.0371   19.7791   27.4008 C   0  0  0  0  0  0  0  0  0  0  0  0
   20.6708   18.8163   27.7802 H   0  0  0  0  0  0  0  0  0  0  0  0
   22.1103   19.6786   27.1923 H   0  0  0  0  0  0  0  0  0  0  0  0
   20.9171   20.5234   28.1987 H   0  0  0  0  0  0  0  0  0  0  0  0
   20.2640   20.2072   26.1354 C   0  0  0  0  0  0  0  0  0  0  0  0
   20.6289   21.1881   25.7996 H   0  0  0  0  0  0  0  0  0  0  0  0
   19.2005   20.3325   26.3830 H   0  0  0  0  0  0  0  0  0  0  0  0
   20.4162   19.1759   24.9955 C   0  0  0  0  0  0  0  0  0  0  0  0
   21.4809   19.0524   24.7534 H   0  0  0  0  0  0  0  0  0  0  0  0
   20.0522   18.1968   25.3366 H   0  0  0  0  0  0  0  0  0  0  0  0
   19.6433   19.6012   23.7266 C   0  0  0  0  0  0  0  0  0  0  0  0
   20.0079   20.5803   23.3861 H   0  0  0  0  0  0  0  0  0  0  0  0
   18.5790   19.7255   23.9703 H   0  0  0  0  0  0  0  0  0  0  0  0
   19.7954   18.5689   22.5866 C   0  0  0  0  0  0  0  0  0  0  0  0
   20.8608   18.4451   22.3507 H   0  0  0  0  0  0  0  0  0  0  0  0
   19.4279   17.5905   22.9263 H   0  0  0  0  0  0  0  0  0  0  0  0
   19.0217   18.9970   21.3172 C   0  0  0  0  0  0  0  0  0  0  0  0
   19.4025   19.9597   20.9508 H   0  0  0  0  0  0  0  0  0  0  0  0
   17.9649   19.1542   21.5710 H   0  0  0  0  0  0  0  0  0  0  0  0
   19.1015   17.9497   20.1897 C   0  0  0  0  0  0  0  0  0  0  0  0
   18.7286   16.9883   20.5532 H   0  0  0  0  0  0  0  0  0  0  0  0
   18.4702   18.2666   19.3551 H   0  0  0  0  0  0  0  0  0  0  0  0
   20.5029   17.7378   19.6513 N   0  3  0  0  0  0  0  0  0  0  0  0
   21.1424   17.4027   20.3784 H   0  0  0  0  0  0  0  0  0  0  0  0
   20.9005   18.6038   19.2732 H   0  0  0  0  0  0  0  0  0  0  0  0
   20.5193   17.0454   18.8947 H   0  0  0  0  0  0  0  0  0  0  0  0
  1  2  1  0  0  0  0
  1  3  1  0  0  0  0
  1  4  1  0  0  0  0
  1  5  1  0  0  0  0
  5  6  1  0  0  0  0
  5  7  1  0  0  0  0
  5  8  1  0  0  0  0
  8  9  1  0  0  0  0
  8 10  1  0  0  0  0
  8 11  1  0  0  0  0
 11 12  1  0  0  0  0
 11 13  1  0  0  0  0
 11 14  1  0  0  0  0
 14 15  1  0  0  0  0
 14 16  1  0  0  0  0
 14 17  1  0  0  0  0
 17 18  1  0  0  0  0
 17 19  1  0  0  0  0
 17 20  1  0  0  0  0
 20 21  1  0  0  0  0
 20 22  1  0  0  0  0
 20 23  1  0  0  0  0
 23 24  1  0  0  0  0
 23 25  1  0  0  0  0
 23 26  1  0  0  0  0
M  END
> <VConfSearch Rank>
962

> <Conf_Id>
20

> <Delta U+W>
0.150

> <U+W>
-5.403

> <U>
47.845

> <W>
-53.248

> <W(PB)>
-55.599

> <W(SA)>
2.351

> <Valence>
2.258

> <Coulomb>
44.893

> <VdW>
0.694

> <VdW6>
-6.285

> <VdW12>
6.979

> <Bond>
0.149

> <Angle>
0.434

> <Pdih>
1.675

> <Idih>
0.000

> <Tether>
0.000

$$$$
VeraChem MOL file


 26 25  0  0  0  0  0  0  0  0999 V2000     
   17.6017   15.6160   24.7574 C   0  0  0  0  0  0  0  0  0  0  0  0
   17.4708   16.1051   25.7315 H   0  0  0  0  0  0  0  0  0  0  0  0
   16.7185   15.8352   24.1432 H   0  0  0  0  0  0  0  0  0  0  0  0
   17.6339   14.5318   24.9263 H   0  0  0  0  0  0  0  0  0  0  0  0
   18.8934   16.0980   24.0637 C   0  0  0  0  0  0  0  0  0  0  0  0
   19.0145   15.5670   23.1091 H   0  0  0  0  0  0  0  0  0  0  0  0
   19.7609   15.8349   24.6851 H   0  0  0  0  0  0  0  0  0  0  0  0
   18.8740   17.6223   23.8138 C   0  0  0  0  0  0  0  0  0  0  0  0
   18.0040   17.8807   23.1942 H   0  0  0  0  0  0  0  0  0  0  0  0
   18.7503   18.1486   24.7705 H   0  0  0  0  0  0  0  0  0  0  0  0
   20.1660   18.1088   23.1193 C   0  0  0  0  0  0  0  0  0  0  0  0
   20.2891   17.5810   22.1634 H   0  0  0  0  0  0  0  0  0  0  0  0
   21.0355   17.8503   23.7395 H   0  0  0  0  0  0  0  0  0  0  0  0
   20.1459   19.6337   22.8687 C   0  0  0  0  0  0  0  0  0  0  0  0
   19.2780   19.8917   22.2459 H   0  0  0  0  0  0  0  0  0  0  0  0
   20.0177   20.1557   23.8264 H   0  0  0  0  0  0  0  0  0  0  0  0
   21.4405   20.1188   22.1743 C   0  0  0  0  0  0  0  0  0  0  0  0
   21.5795   19.5648   21.2364 H   0  0  0  0  0  0  0  0  0  0  0  0
   22.3122   19.8938   22.8032 H   0  0  0  0  0  0  0  0  0  0  0  0
   21.4143   21.6252   21.8513 C   0  0  0  0  0  0  0  0  0  0  0  0
   22.3137   21.8911   21.2892 H   0  0  0  0  0  0  0  0  0  0  0  0
   20.5441   21.8534   21.2300 H   0  0  0  0  0  0  0  0  0  0  0  0
   21.3612   22.5121   23.0798 N   0  3  0  0  0  0  0  0  0  0  0  0
   22.1674   22.3600   23.6945 H   0  0  0  0  0  0  0  0  0  0  0  0
   20.5185   22.3396   23.6366 H   0  0  0  0  0  0  0  0  0  0  0  0
   21.3579   23.5073   22.8309 H   0  0  0  0  0  0  0  0  0  0  0  0
  1  2  1  0  0  0  0
  1  3  1  0  0  0  0
  1  4  1  0  0  0  0
  1  5  1  0  0  0  0
  5  6  1  0  0  0  0
  5  7  1  0  0  0  0
  5  8  1  0  0  0  0
  8  9  1  0  0  0  0
  8 10  1  0  0  0  0
  8 11  1  0  0  0  0
 11 12  1  0  0  0  0
 11 13  1  0  0  0  0
 11 14  1  0  0  0  0
 14 15  1  0  0  0  0
 14 16  1  0  0  0  0
 14 17  1  0  0  0  0
 17 18  1  0  0  0  0
 17 19  1  0  0  0  0
 17 20  1  0  0  0  0
 20 21  1  0  0  0  0
 20 22  1  0  0  0  0
 20 23  1  0  0  0  0
 23 24  1  0  0  0  0
 23 25  1  0  0  0  0
 23 26  1  0  0  0  0
M  END
> <VConfSearch Rank>
963

> <Conf_Id>
19

> <Delta U+W>
0.162

> <U+W>
-5.391

> <U>
47.845

> <W>
-53.235

> <W(PB)>
-55.585

> <W(SA)>
2.349

> <Valence>
2.258

> <Coulomb>
44.893

> <VdW>
0.694

> <VdW6>
-6.285

> <VdW12>
6.979

> <Bond>
0.149

> <Angle>
0.434

> <Pdih>
1.675

> <Idih>
0.000

> <Tether>
0.000

$$$$
VeraChem MOL file


 26 25  0  0  0  0  0  0  0  0999 V2000     
   16.7189   19.0495   25.8836 C   0  0  0  0  0  0  0  0  0  0  0  0
   15.8660   19.6456   25.5336 H   0  0  0  0  0  0  0  0  0  0  0  0
   16.4580   17.9878   25.7840 H   0  0  0  0  0  0  0  0  0  0  0  0
   16.8631   19.2625   26.9508 H   0  0  0  0  0  0  0  0  0  0  0  0
   17.9959   19.3840   25.0838 C   0  0  0  0  0  0  0  0  0  0  0  0
   18.8328   18.8001   25.4892 H   0  0  0  0  0  0  0  0  0  0  0  0
   18.2477   20.4441   25.2266 H   0  0  0  0  0  0  0  0  0  0  0  0
   17.8179   19.0876   23.5759 C   0  0  0  0  0  0  0  0  0  0  0  0
   17.6184   18.0171   23.4297 H   0  0  0  0  0  0  0  0  0  0  0  0
   16.9284   19.6193   23.2106 H   0  0  0  0  0  0  0  0  0  0  0  0
   19.0315   19.5122   22.7127 C   0  0  0  0  0  0  0  0  0  0  0  0
   19.2207   20.5861   22.8477 H   0  0  0  0  0  0  0  0  0  0  0  0
   18.7693   19.3761   21.6544 H   0  0  0  0  0  0  0  0  0  0  0  0
   20.3200   18.7115   23.0196 C   0  0  0  0  0  0  0  0  0  0  0  0
   20.6402   18.8967   24.0534 H   0  0  0  0  0  0  0  0  0  0  0  0
   20.1127   17.6355   22.9369 H   0  0  0  0  0  0  0  0  0  0  0  0
   21.4711   19.0885   22.0612 C   0  0  0  0  0  0  0  0  0  0  0  0
   21.6822   20.1633   22.1417 H   0  0  0  0  0  0  0  0  0  0  0  0
   21.1672   18.8963   21.0235 H   0  0  0  0  0  0  0  0  0  0  0  0
   22.7493   18.2911   22.3752 C   0  0  0  0  0  0  0  0  0  0  0  0
   23.0656   18.4921   23.4024 H   0  0  0  0  0  0  0  0  0  0  0  0
   22.5480   17.2206   22.2803 H   0  0  0  0  0  0  0  0  0  0  0  0
   23.9034   18.6333   21.4552 N   0  3  0  0  0  0  0  0  0  0  0  0
   24.1611   19.6238   21.5173 H   0  0  0  0  0  0  0  0  0  0  0  0
   23.6795   18.4408   20.4733 H   0  0  0  0  0  0  0  0  0  0  0  0
   24.7445   18.0913   21.6813 H   0  0  0  0  0  0  0  0  0  0  0  0
  1  2  1  0  0  0  0
  1  3  1  0  0  0  0
  1  4  1  0  0  0  0
  1  5  1  0  0  0  0
  5  6  1  0  0  0  0
  5  7  1  0  0  0  0
  5  8  1  0  0  0  0
  8  9  1  0  0  0  0
  8 10  1  0  0  0  0
  8 11  1  0  0  0  0
 11 12  1  0  0  0  0
 11 13  1  0  0  0  0
 11 14  1  0  0  0  0
 14 15  1  0  0  0  0
 14 16  1  0  0  0  0
 14 17  1  0  0  0  0
 17 18  1  0  0  0  0
 17 19  1  0  0  0  0
 17 20  1  0  0  0  0
 20 21  1  0  0  0  0
 20 22  1  0  0  0  0
 20 23  1  0  0  0  0
 23 24  1  0  0  0  0
 23 25  1  0  0  0  0
 23 26  1  0  0  0  0
M  END
> <VConfSearch Rank>
964

> <Conf_Id>
37

> <Delta U+W>
0.565

> <U+W>
-4.988

> <U>
48.035

> <W>
-53.022

> <W(PB)>
-55.379

> <W(SA)>
2.357

> <Valence>
2.701

> <Coulomb>
44.622

> <VdW>
0.712

> <VdW6>
-6.418

> <VdW12>
7.129

> <Bond>
0.168

> <Angle>
0.659

> <Pdih>
1.875

> <Idih>
0.000

> <Tether>
0.000

$$$$
VeraChem MOL file


 26 25  0  0  0  0  0  0  0  0999 V2000     
   16.7520   20.6717   21.5637 C   0  0  0  0  0  0  0  0  0  0  0  0
   16.3697   20.6313   22.5920 H   0  0  0  0  0  0  0  0  0  0  0  0
   17.2547   21.6375   21.4234 H   0  0  0  0  0  0  0  0  0  0  0  0
   15.8916   20.6376   20.8828 H   0  0  0  0  0  0  0  0  0  0  0  0
   17.7155   19.4989   21.2834 C   0  0  0  0  0  0  0  0  0  0  0  0
   18.0530   19.5468   20.2385 H   0  0  0  0  0  0  0  0  0  0  0  0
   17.1763   18.5483   21.3992 H   0  0  0  0  0  0  0  0  0  0  0  0
   18.9372   19.5236   22.2285 C   0  0  0  0  0  0  0  0  0  0  0  0
   19.4739   20.4747   22.1076 H   0  0  0  0  0  0  0  0  0  0  0  0
   18.5859   19.4847   23.2679 H   0  0  0  0  0  0  0  0  0  0  0  0
   19.9019   18.3456   21.9509 C   0  0  0  0  0  0  0  0  0  0  0  0
   20.1814   18.3556   20.8882 H   0  0  0  0  0  0  0  0  0  0  0  0
   19.3830   17.3927   22.1241 H   0  0  0  0  0  0  0  0  0  0  0  0
   21.1972   18.3925   22.7982 C   0  0  0  0  0  0  0  0  0  0  0  0
   21.8674   17.5923   22.4543 H   0  0  0  0  0  0  0  0  0  0  0  0
   21.7253   19.3379   22.6119 H   0  0  0  0  0  0  0  0  0  0  0  0
   20.9511   18.2230   24.3159 C   0  0  0  0  0  0  0  0  0  0  0  0
   20.3790   17.3034   24.4974 H   0  0  0  0  0  0  0  0  0  0  0  0
   20.3514   19.0587   24.6976 H   0  0  0  0  0  0  0  0  0  0  0  0
   22.2770   18.1619   25.0945 C   0  0  0  0  0  0  0  0  0  0  0  0
   22.8763   17.3207   24.7357 H   0  0  0  0  0  0  0  0  0  0  0  0
   22.8432   19.0827   24.9299 H   0  0  0  0  0  0  0  0  0  0  0  0
   22.0818   17.9935   26.5875 N   0  3  0  0  0  0  0  0  0  0  0  0
   21.5776   17.1294   26.8119 H   0  0  0  0  0  0  0  0  0  0  0  0
   21.5475   18.7690   26.9931 H   0  0  0  0  0  0  0  0  0  0  0  0
   22.9772   17.9547   27.0867 H   0  0  0  0  0  0  0  0  0  0  0  0
  1  2  1  0  0  0  0
  1  3  1  0  0  0  0
  1  4  1  0  0  0  0
  1  5  1  0  0  0  0
  5  6  1  0  0  0  0
  5  7  1  0  0  0  0
  5  8  1  0  0  0  0
  8  9  1  0  0  0  0
  8 10  1  0  0  0  0
  8 11  1  0  0  0  0
 11 12  1  0  0  0  0
 11 13  1  0  0  0  0
 11 14  1  0  0  0  0
 14 15  1  0  0  0  0
 14 16  1  0  0  0  0
 14 17  1  0  0  0  0
 17 18  1  0  0  0  0
 17 19  1  0  0  0  0
 17 20  1  0  0  0  0
 20 21  1  0  0  0  0
 20 22  1  0  0  0  0
 20 23  1  0  0  0  0
 23 24  1  0  0  0  0
 23 25  1  0  0  0  0
 23 26  1  0  0  0  0
M  END
> <VConfSearch Rank>
965

> <Conf_Id>
35

> <Delta U+W>
0.587

> <U+W>
-4.965

> <U>
48.214

> <W>
-53.179

> <W(PB)>
-55.527

> <W(SA)>
2.348

> <Valence>
2.697

> <Coulomb>
44.819

> <VdW>
0.699

> <VdW6>
-6.437

> <VdW12>
7.136

> <Bond>
0.168

> <Angle>
0.657

> <Pdih>
1.872

> <Idih>
0.000

> <Tether>
0.000

$$$$
VeraChem MOL file


 26 25  0  0  0  0  0  0  0  0999 V2000     
   17.8614   18.9068   19.9188 C   0  0  0  0  0  0  0  0  0  0  0  0
   18.0096   17.8345   19.7361 H   0  0  0  0  0  0  0  0  0  0  0  0
   17.0418   19.0207   20.6403 H   0  0  0  0  0  0  0  0  0  0  0  0
   17.5456   19.3689   18.9745 H   0  0  0  0  0  0  0  0  0  0  0  0
   19.1562   19.5647   20.4412 C   0  0  0  0  0  0  0  0  0  0  0  0
   18.9868   20.6414   20.5826 H   0  0  0  0  0  0  0  0  0  0  0  0
   19.9464   19.4649   19.6839 H   0  0  0  0  0  0  0  0  0  0  0  0
   19.6237   18.9316   21.7705 C   0  0  0  0  0  0  0  0  0  0  0  0
   18.8225   19.0299   22.5145 H   0  0  0  0  0  0  0  0  0  0  0  0
   19.7936   17.8560   21.6235 H   0  0  0  0  0  0  0  0  0  0  0  0
   20.9198   19.5934   22.2972 C   0  0  0  0  0  0  0  0  0  0  0  0
   20.7376   20.6584   22.4969 H   0  0  0  0  0  0  0  0  0  0  0  0
   21.6861   19.5541   21.5106 H   0  0  0  0  0  0  0  0  0  0  0  0
   21.4884   18.9171   23.5689 C   0  0  0  0  0  0  0  0  0  0  0  0
   21.6871   17.8559   23.3642 H   0  0  0  0  0  0  0  0  0  0  0  0
   22.4609   19.3734   23.8008 H   0  0  0  0  0  0  0  0  0  0  0  0
   20.5664   19.0462   24.8042 C   0  0  0  0  0  0  0  0  0  0  0  0
   19.6181   18.5242   24.6247 H   0  0  0  0  0  0  0  0  0  0  0  0
   20.3270   20.1037   24.9781 H   0  0  0  0  0  0  0  0  0  0  0  0
   21.2305   18.4591   26.0621 C   0  0  0  0  0  0  0  0  0  0  0  0
   21.4561   17.4017   25.8997 H   0  0  0  0  0  0  0  0  0  0  0  0
   22.1683   18.9842   26.2625 H   0  0  0  0  0  0  0  0  0  0  0  0
   20.3609   18.5673   27.2981 N   0  3  0  0  0  0  0  0  0  0  0  0
   19.4720   18.0690   27.1851 H   0  0  0  0  0  0  0  0  0  0  0  0
   20.1345   19.5419   27.5219 H   0  0  0  0  0  0  0  0  0  0  0  0
   20.8224   18.1709   28.1242 H   0  0  0  0  0  0  0  0  0  0  0  0
  1  2  1  0  0  0  0
  1  3  1  0  0  0  0
  1  4  1  0  0  0  0
  1  5  1  0  0  0  0
  5  6  1  0  0  0  0
  5  7  1  0  0  0  0
  5  8  1  0  0  0  0
  8  9  1  0  0  0  0
  8 10  1  0  0  0  0
  8 11  1  0  0  0  0
 11 12  1  0  0  0  0
 11 13  1  0  0  0  0
 11 14  1  0  0  0  0
 14 15  1  0  0  0  0
 14 16  1  0  0  0  0
 14 17  1  0  0  0  0
 17 18  1  0  0  0  0
 17 19  1  0  0  0  0
 17 20  1  0  0  0  0
 20 21  1  0  0  0  0
 20 22  1  0  0  0  0
 20 23  1  0  0  0  0
 23 24  1  0  0  0  0
 23 25  1  0  0  0  0
 23 26  1  0  0  0  0
M  END
> <VConfSearch Rank>
966

> <Conf_Id>
36

> <Delta U+W>
0.565

> <U+W>
-4.987

> <U>
48.214

> <W>
-53.201

> <W(PB)>
-55.543

> <W(SA)>
2.342

> <Valence>
2.697

> <Coulomb>
44.819

> <VdW>
0.698

> <VdW6>
-6.437

> <VdW12>
7.136

> <Bond>
0.168

> <Angle>
0.657

> <Pdih>
1.872

> <Idih>
0.000

> <Tether>
0.000

$$$$
VeraChem MOL file


 26 25  0  0  0  0  0  0  0  0999 V2000     
   22.0695   15.3185   22.0933 C   0  0  0  0  0  0  0  0  0  0  0  0
   21.3626   14.5303   22.3835 H   0  0  0  0  0  0  0  0  0  0  0  0
   22.5501   15.0116   21.1553 H   0  0  0  0  0  0  0  0  0  0  0  0
   22.8474   15.3814   22.8655 H   0  0  0  0  0  0  0  0  0  0  0  0
   21.3498   16.6727   21.9193 C   0  0  0  0  0  0  0  0  0  0  0  0
   20.6021   16.5878   21.1182 H   0  0  0  0  0  0  0  0  0  0  0  0
   22.0755   17.4323   21.5965 H   0  0  0  0  0  0  0  0  0  0  0  0
   20.6642   17.1283   23.2265 C   0  0  0  0  0  0  0  0  0  0  0  0
   19.9420   16.3644   23.5464 H   0  0  0  0  0  0  0  0  0  0  0  0
   21.4150   17.2099   24.0247 H   0  0  0  0  0  0  0  0  0  0  0  0
   19.9420   18.4840   23.0562 C   0  0  0  0  0  0  0  0  0  0  0  0
   19.1897   18.4003   22.2596 H   0  0  0  0  0  0  0  0  0  0  0  0
   20.6682   19.2407   22.7305 H   0  0  0  0  0  0  0  0  0  0  0  0
   19.2573   18.9383   24.3676 C   0  0  0  0  0  0  0  0  0  0  0  0
   18.5702   18.1512   24.7078 H   0  0  0  0  0  0  0  0  0  0  0  0
   20.0113   19.0554   25.1584 H   0  0  0  0  0  0  0  0  0  0  0  0
   18.4633   20.2567   24.2130 C   0  0  0  0  0  0  0  0  0  0  0  0
   17.9363   20.4676   25.1531 H   0  0  0  0  0  0  0  0  0  0  0  0
   17.6921   20.1347   23.4408 H   0  0  0  0  0  0  0  0  0  0  0  0
   19.3636   21.4559   23.8610 C   0  0  0  0  0  0  0  0  0  0  0  0
   20.1308   21.5782   24.6302 H   0  0  0  0  0  0  0  0  0  0  0  0
   19.8605   21.2776   22.9039 H   0  0  0  0  0  0  0  0  0  0  0  0
   18.5989   22.7592   23.7516 N   0  3  0  0  0  0  0  0  0  0  0  0
   19.2158   23.5445   23.5168 H   0  0  0  0  0  0  0  0  0  0  0  0
   18.1290   23.0014   24.6301 H   0  0  0  0  0  0  0  0  0  0  0  0
   17.8771   22.7190   23.0245 H   0  0  0  0  0  0  0  0  0  0  0  0
  1  2  1  0  0  0  0
  1  3  1  0  0  0  0
  1  4  1  0  0  0  0
  1  5  1  0  0  0  0
  5  6  1  0  0  0  0
  5  7  1  0  0  0  0
  5  8  1  0  0  0  0
  8  9  1  0  0  0  0
  8 10  1  0  0  0  0
  8 11  1  0  0  0  0
 11 12  1  0  0  0  0
 11 13  1  0  0  0  0
 11 14  1  0  0  0  0
 14 15  1  0  0  0  0
 14 16  1  0  0  0  0
 14 17  1  0  0  0  0
 17 18  1  0  0  0  0
 17 19  1  0  0  0  0
 17 20  1  0  0  0  0
 20 21  1  0  0  0  0
 20 22  1  0  0  0  0
 20 23  1  0  0  0  0
 23 24  1  0  0  0  0
 23 25  1  0  0  0  0
 23 26  1  0  0  0  0
M  END
> <VConfSearch Rank>
967

> <Conf_Id>
44

> <Delta U+W>
0.371

> <U+W>
-5.181

> <U>
48.002

> <W>
-53.183

> <W(PB)>
-55.533

> <W(SA)>
2.350

> <Valence>
2.459

> <Coulomb>
44.901

> <VdW>
0.643

> <VdW6>
-6.362

> <VdW12>
7.005

> <Bond>
0.151

> <Angle>
0.519

> <Pdih>
1.789

> <Idih>
0.000

> <Tether>
0.000

$$$$
VeraChem MOL file


 26 25  0  0  0  0  0  0  0  0999 V2000     
   17.4039   21.8403   23.5325 C   0  0  0  0  0  0  0  0  0  0  0  0
   17.4286   22.0376   22.4529 H   0  0  0  0  0  0  0  0  0  0  0  0
   16.5549   22.3930   23.9551 H   0  0  0  0  0  0  0  0  0  0  0  0
   18.3180   22.2509   23.9786 H   0  0  0  0  0  0  0  0  0  0  0  0
   17.2600   20.3281   23.8182 C   0  0  0  0  0  0  0  0  0  0  0  0
   16.2736   19.9956   23.4657 H   0  0  0  0  0  0  0  0  0  0  0  0
   17.2731   20.1533   24.9031 H   0  0  0  0  0  0  0  0  0  0  0  0
   18.3470   19.4632   23.1350 C   0  0  0  0  0  0  0  0  0  0  0  0
   18.0807   18.4088   23.2812 H   0  0  0  0  0  0  0  0  0  0  0  0
   18.3285   19.6407   22.0509 H   0  0  0  0  0  0  0  0  0  0  0  0
   19.7740   19.7197   23.6833 C   0  0  0  0  0  0  0  0  0  0  0  0
   19.7939   19.5385   24.7667 H   0  0  0  0  0  0  0  0  0  0  0  0
   20.0330   20.7769   23.5424 H   0  0  0  0  0  0  0  0  0  0  0  0
   20.8671   18.8658   22.9941 C   0  0  0  0  0  0  0  0  0  0  0  0
   20.8375   19.0364   21.9090 H   0  0  0  0  0  0  0  0  0  0  0  0
   21.8461   19.2265   23.3360 H   0  0  0  0  0  0  0  0  0  0  0  0
   20.7490   17.3490   23.2884 C   0  0  0  0  0  0  0  0  0  0  0  0
   19.7933   16.9684   22.9078 H   0  0  0  0  0  0  0  0  0  0  0  0
   20.7484   17.1744   24.3725 H   0  0  0  0  0  0  0  0  0  0  0  0
   21.8786   16.5280   22.6365 C   0  0  0  0  0  0  0  0  0  0  0  0
   21.6890   15.4628   22.7943 H   0  0  0  0  0  0  0  0  0  0  0  0
   21.8954   16.7152   21.5595 H   0  0  0  0  0  0  0  0  0  0  0  0
   23.2565   16.8347   23.1899 N   0  3  0  0  0  0  0  0  0  0  0  0
   23.5165   17.8146   23.0410 H   0  0  0  0  0  0  0  0  0  0  0  0
   23.9816   16.2612   22.7453 H   0  0  0  0  0  0  0  0  0  0  0  0
   23.3103   16.6565   24.1980 H   0  0  0  0  0  0  0  0  0  0  0  0
  1  2  1  0  0  0  0
  1  3  1  0  0  0  0
  1  4  1  0  0  0  0
  1  5  1  0  0  0  0
  5  6  1  0  0  0  0
  5  7  1  0  0  0  0
  5  8  1  0  0  0  0
  8  9  1  0  0  0  0
  8 10  1  0  0  0  0
  8 11  1  0  0  0  0
 11 12  1  0  0  0  0
 11 13  1  0  0  0  0
 11 14  1  0  0  0  0
 14 15  1  0  0  0  0
 14 16  1  0  0  0  0
 14 17  1  0  0  0  0
 17 18  1  0  0  0  0
 17 19  1  0  0  0  0
 17 20  1  0  0  0  0
 20 21  1  0  0  0  0
 20 22  1  0  0  0  0
 20 23  1  0  0  0  0
 23 24  1  0  0  0  0
 23 25  1  0  0  0  0
 23 26  1  0  0  0  0
M  END
> <VConfSearch Rank>
968

> <Conf_Id>
112

> <Delta U+W>
1.422

> <U+W>
-4.130

> <U>
49.323

> <W>
-53.453

> <W(PB)>
-55.749

> <W(SA)>
2.296

> <Valence>
3.408

> <Coulomb>
44.893

> <VdW>
1.021

> <VdW6>
-7.481

> <VdW12>
8.503

> <Bond>
0.239

> <Angle>
1.013

> <Pdih>
2.156

> <Idih>
0.000

> <Tether>
0.000

$$$$
VeraChem MOL file


 26 25  0  0  0  0  0  0  0  0999 V2000     
   21.4076   15.9564   25.0683 C   0  0  0  0  0  0  0  0  0  0  0  0
   21.7535   15.2117   25.7967 H   0  0  0  0  0  0  0  0  0  0  0  0
   20.4093   15.6501   24.7320 H   0  0  0  0  0  0  0  0  0  0  0  0
   22.0864   15.9235   24.2062 H   0  0  0  0  0  0  0  0  0  0  0  0
   21.3846   17.3650   25.7040 C   0  0  0  0  0  0  0  0  0  0  0  0
   22.3755   17.5789   26.1284 H   0  0  0  0  0  0  0  0  0  0  0  0
   20.6799   17.3783   26.5472 H   0  0  0  0  0  0  0  0  0  0  0  0
   21.0212   18.4852   24.6998 C   0  0  0  0  0  0  0  0  0  0  0  0
   21.1260   19.4549   25.2055 H   0  0  0  0  0  0  0  0  0  0  0  0
   21.7512   18.4810   23.8798 H   0  0  0  0  0  0  0  0  0  0  0  0
   19.5834   18.3600   24.1354 C   0  0  0  0  0  0  0  0  0  0  0  0
   18.8814   18.2347   24.9713 H   0  0  0  0  0  0  0  0  0  0  0  0
   19.4976   17.4544   23.5203 H   0  0  0  0  0  0  0  0  0  0  0  0
   19.1379   19.5859   23.3007 C   0  0  0  0  0  0  0  0  0  0  0  0
   18.0764   19.4608   23.0496 H   0  0  0  0  0  0  0  0  0  0  0  0
   19.2047   20.4939   23.9158 H   0  0  0  0  0  0  0  0  0  0  0  0
   19.9561   19.7764   21.9988 C   0  0  0  0  0  0  0  0  0  0  0  0
   19.9138   18.8633   21.3902 H   0  0  0  0  0  0  0  0  0  0  0  0
   21.0124   19.9418   22.2446 H   0  0  0  0  0  0  0  0  0  0  0  0
   19.4699   20.9752   21.1616 C   0  0  0  0  0  0  0  0  0  0  0  0
   19.4931   21.8831   21.7704 H   0  0  0  0  0  0  0  0  0  0  0  0
   20.1413   21.1184   20.3105 H   0  0  0  0  0  0  0  0  0  0  0  0
   18.0654   20.8105   20.6145 N   0  3  0  0  0  0  0  0  0  0  0  0
   17.3749   20.7088   21.3646 H   0  0  0  0  0  0  0  0  0  0  0  0
   17.9852   19.9834   20.0142 H   0  0  0  0  0  0  0  0  0  0  0  0
   17.7793   21.6185   20.0509 H   0  0  0  0  0  0  0  0  0  0  0  0
  1  2  1  0  0  0  0
  1  3  1  0  0  0  0
  1  4  1  0  0  0  0
  1  5  1  0  0  0  0
  5  6  1  0  0  0  0
  5  7  1  0  0  0  0
  5  8  1  0  0  0  0
  8  9  1  0  0  0  0
  8 10  1  0  0  0  0
  8 11  1  0  0  0  0
 11 12  1  0  0  0  0
 11 13  1  0  0  0  0
 11 14  1  0  0  0  0
 14 15  1  0  0  0  0
 14 16  1  0  0  0  0
 14 17  1  0  0  0  0
 17 18  1  0  0  0  0
 17 19  1  0  0  0  0
 17 20  1  0  0  0  0
 20 21  1  0  0  0  0
 20 22  1  0  0  0  0
 20 23  1  0  0  0  0
 23 24  1  0  0  0  0
 23 25  1  0  0  0  0
 23 26  1  0  0  0  0
M  END
> <VConfSearch Rank>
969

> <Conf_Id>
130

> <Delta U+W>
1.282

> <U+W>
-4.270

> <U>
49.153

> <W>
-53.422

> <W(PB)>
-55.725

> <W(SA)>
2.303

> <Valence>
3.298

> <Coulomb>
44.907

> <VdW>
0.948

> <VdW6>
-7.574

> <VdW12>
8.522

> <Bond>
0.229

> <Angle>
0.912

> <Pdih>
2.157

> <Idih>
0.000

> <Tether>
0.000

$$$$
VeraChem MOL file


 26 25  0  0  0  0  0  0  0  0999 V2000     
   18.2805   21.2666   21.5551 C   0  0  0  0  0  0  0  0  0  0  0  0
   17.6777   21.8350   22.2752 H   0  0  0  0  0  0  0  0  0  0  0  0
   18.0292   21.6257   20.5487 H   0  0  0  0  0  0  0  0  0  0  0  0
   17.9830   20.2122   21.6133 H   0  0  0  0  0  0  0  0  0  0  0  0
   19.7904   21.4446   21.8320 C   0  0  0  0  0  0  0  0  0  0  0  0
   20.0628   22.4927   21.6448 H   0  0  0  0  0  0  0  0  0  0  0  0
   20.3717   20.8517   21.1134 H   0  0  0  0  0  0  0  0  0  0  0  0
   20.1988   21.0815   23.2826 C   0  0  0  0  0  0  0  0  0  0  0  0
   21.2764   21.2593   23.4019 H   0  0  0  0  0  0  0  0  0  0  0  0
   19.7019   21.7761   23.9739 H   0  0  0  0  0  0  0  0  0  0  0  0
   19.8760   19.6297   23.7220 C   0  0  0  0  0  0  0  0  0  0  0  0
   18.7901   19.4677   23.7088 H   0  0  0  0  0  0  0  0  0  0  0  0
   20.1849   19.5180   24.7695 H   0  0  0  0  0  0  0  0  0  0  0  0
   20.5775   18.5510   22.8581 C   0  0  0  0  0  0  0  0  0  0  0  0
   20.2463   18.6425   21.8155 H   0  0  0  0  0  0  0  0  0  0  0  0
   21.6626   18.7234   22.8578 H   0  0  0  0  0  0  0  0  0  0  0  0
   20.2838   17.1083   23.3329 C   0  0  0  0  0  0  0  0  0  0  0  0
   20.7228   16.4019   22.6158 H   0  0  0  0  0  0  0  0  0  0  0  0
   19.2001   16.9308   23.3257 H   0  0  0  0  0  0  0  0  0  0  0  0
   20.8484   16.8144   24.7355 C   0  0  0  0  0  0  0  0  0  0  0  0
   21.9271   16.9925   24.7425 H   0  0  0  0  0  0  0  0  0  0  0  0
   20.3847   17.4789   25.4689 H   0  0  0  0  0  0  0  0  0  0  0  0
   20.6071   15.3876   25.1844 N   0  3  0  0  0  0  0  0  0  0  0  0
   19.6074   15.1636   25.2247 H   0  0  0  0  0  0  0  0  0  0  0  0
   20.9904   15.2124   26.1197 H   0  0  0  0  0  0  0  0  0  0  0  0
   21.0432   14.7091   24.5514 H   0  0  0  0  0  0  0  0  0  0  0  0
  1  2  1  0  0  0  0
  1  3  1  0  0  0  0
  1  4  1  0  0  0  0
  1  5  1  0  0  0  0
  5  6  1  0  0  0  0
  5  7  1  0  0  0  0
  5  8  1  0  0  0  0
  8  9  1  0  0  0  0
  8 10  1  0  0  0  0
  8 11  1  0  0  0  0
 11 12  1  0  0  0  0
 11 13  1  0  0  0  0
 11 14  1  0  0  0  0
 14 15  1  0  0  0  0
 14 16  1  0  0  0  0
 14 17  1  0  0  0  0
 17 18  1  0  0  0  0
 17 19  1  0  0  0  0
 17 20  1  0  0  0  0
 20 21  1  0  0  0  0
 20 22  1  0  0  0  0
 20 23  1  0  0  0  0
 23 24  1  0  0  0  0
 23 25  1  0  0  0  0
 23 26  1  0  0  0  0
M  END
> <VConfSearch Rank>
970

> <Conf_Id>
111

> <Delta U+W>
1.290

> <U+W>
-4.262

> <U>
49.209

> <W>
-53.471

> <W(PB)>
-55.745

> <W(SA)>
2.274

> <Valence>
3.465

> <Coulomb>
44.958

> <VdW>
0.786

> <VdW6>
-7.903

> <VdW12>
8.689

> <Bond>
0.237

> <Angle>
1.212

> <Pdih>
2.015

> <Idih>
0.000

> <Tether>
0.000

$$$$
VeraChem MOL file


 26 25  0  0  0  0  0  0  0  0999 V2000     
   18.8512   19.0565   27.1069 C   0  0  0  0  0  0  0  0  0  0  0  0
   18.1545   19.8883   26.9396 H   0  0  0  0  0  0  0  0  0  0  0  0
   18.2759   18.1974   27.4757 H   0  0  0  0  0  0  0  0  0  0  0  0
   19.5514   19.3570   27.8972 H   0  0  0  0  0  0  0  0  0  0  0  0
   19.6115   18.7012   25.8115 C   0  0  0  0  0  0  0  0  0  0  0  0
   20.3206   17.8872   26.0172 H   0  0  0  0  0  0  0  0  0  0  0  0
   20.2054   19.5698   25.4979 H   0  0  0  0  0  0  0  0  0  0  0  0
   18.6442   18.2782   24.6807 C   0  0  0  0  0  0  0  0  0  0  0  0
   18.0060   17.4611   25.0445 H   0  0  0  0  0  0  0  0  0  0  0  0
   17.9697   19.1113   24.4392 H   0  0  0  0  0  0  0  0  0  0  0  0
   19.3635   17.8028   23.3945 C   0  0  0  0  0  0  0  0  0  0  0  0
   18.6080   17.4148   22.6973 H   0  0  0  0  0  0  0  0  0  0  0  0
   20.0244   16.9583   23.6341 H   0  0  0  0  0  0  0  0  0  0  0  0
   20.1735   18.9176   22.6899 C   0  0  0  0  0  0  0  0  0  0  0  0
   19.5192   19.7807   22.5091 H   0  0  0  0  0  0  0  0  0  0  0  0
   20.9853   19.2617   23.3441 H   0  0  0  0  0  0  0  0  0  0  0  0
   20.7779   18.4268   21.3530 C   0  0  0  0  0  0  0  0  0  0  0  0
   19.9773   18.1133   20.6698 H   0  0  0  0  0  0  0  0  0  0  0  0
   21.3972   17.5391   21.5384 H   0  0  0  0  0  0  0  0  0  0  0  0
   21.6504   19.4952   20.6662 C   0  0  0  0  0  0  0  0  0  0  0  0
   22.4457   19.8135   21.3456 H   0  0  0  0  0  0  0  0  0  0  0  0
   22.1153   19.0656   19.7747 H   0  0  0  0  0  0  0  0  0  0  0  0
   20.8795   20.7272   20.2342 N   0  3  0  0  0  0  0  0  0  0  0  0
   21.4857   21.4122   19.7699 H   0  0  0  0  0  0  0  0  0  0  0  0
   20.4455   21.2025   21.0314 H   0  0  0  0  0  0  0  0  0  0  0  0
   20.1299   20.4952   19.5744 H   0  0  0  0  0  0  0  0  0  0  0  0
  1  2  1  0  0  0  0
  1  3  1  0  0  0  0
  1  4  1  0  0  0  0
  1  5  1  0  0  0  0
  5  6  1  0  0  0  0
  5  7  1  0  0  0  0
  5  8  1  0  0  0  0
  8  9  1  0  0  0  0
  8 10  1  0  0  0  0
  8 11  1  0  0  0  0
 11 12  1  0  0  0  0
 11 13  1  0  0  0  0
 11 14  1  0  0  0  0
 14 15  1  0  0  0  0
 14 16  1  0  0  0  0
 14 17  1  0  0  0  0
 17 18  1  0  0  0  0
 17 19  1  0  0  0  0
 17 20  1  0  0  0  0
 20 21  1  0  0  0  0
 20 22  1  0  0  0  0
 20 23  1  0  0  0  0
 23 24  1  0  0  0  0
 23 25  1  0  0  0  0
 23 26  1  0  0  0  0
M  END
> <VConfSearch Rank>
971

> <Conf_Id>
105

> <Delta U+W>
0.736

> <U+W>
-4.817

> <U>
48.735

> <W>
-53.552

> <W(PB)>
-55.889

> <W(SA)>
2.337

> <Valence>
2.803

> <Coulomb>
45.123

> <VdW>
0.809

> <VdW6>
-6.953

> <VdW12>
7.761

> <Bond>
0.188

> <Angle>
0.699

> <Pdih>
1.917

> <Idih>
0.000

> <Tether>
0.000

$$$$
VeraChem MOL file


 26 25  0  0  0  0  0  0  0  0999 V2000     
   20.9171   17.8594   26.7362 C   0  0  0  0  0  0  0  0  0  0  0  0
   20.4727   16.9594   27.1809 H   0  0  0  0  0  0  0  0  0  0  0  0
   21.8978   17.5886   26.3237 H   0  0  0  0  0  0  0  0  0  0  0  0
   21.0796   18.5877   27.5414 H   0  0  0  0  0  0  0  0  0  0  0  0
   20.0003   18.4501   25.6442 C   0  0  0  0  0  0  0  0  0  0  0  0
   20.4585   19.3681   25.2528 H   0  0  0  0  0  0  0  0  0  0  0  0
   19.0390   18.7386   26.0917 H   0  0  0  0  0  0  0  0  0  0  0  0
   19.7598   17.4427   24.4952 C   0  0  0  0  0  0  0  0  0  0  0  0
   20.7157   17.1853   24.0203 H   0  0  0  0  0  0  0  0  0  0  0  0
   19.3734   16.5053   24.9185 H   0  0  0  0  0  0  0  0  0  0  0  0
   18.7535   17.9454   23.4277 C   0  0  0  0  0  0  0  0  0  0  0  0
   17.7699   18.0734   23.9004 H   0  0  0  0  0  0  0  0  0  0  0  0
   18.6218   17.1603   22.6704 H   0  0  0  0  0  0  0  0  0  0  0  0
   19.1387   19.2690   22.7171 C   0  0  0  0  0  0  0  0  0  0  0  0
   18.3401   19.5154   22.0051 H   0  0  0  0  0  0  0  0  0  0  0  0
   19.1597   20.0927   23.4429 H   0  0  0  0  0  0  0  0  0  0  0  0
   20.4924   19.1981   21.9669 C   0  0  0  0  0  0  0  0  0  0  0  0
   20.4843   18.3636   21.2532 H   0  0  0  0  0  0  0  0  0  0  0  0
   21.3011   18.9950   22.6801 H   0  0  0  0  0  0  0  0  0  0  0  0
   20.8305   20.5062   21.2260 C   0  0  0  0  0  0  0  0  0  0  0  0
   20.8204   21.3418   21.9309 H   0  0  0  0  0  0  0  0  0  0  0  0
   21.8348   20.4317   20.8002 H   0  0  0  0  0  0  0  0  0  0  0  0
   19.8760   20.8328   20.0941 N   0  3  0  0  0  0  0  0  0  0  0  0
   18.9157   20.9543   20.4299 H   0  0  0  0  0  0  0  0  0  0  0  0
   19.8580   20.0920   19.3857 H   0  0  0  0  0  0  0  0  0  0  0  0
   20.1380   21.7004   19.6136 H   0  0  0  0  0  0  0  0  0  0  0  0
  1  2  1  0  0  0  0
  1  3  1  0  0  0  0
  1  4  1  0  0  0  0
  1  5  1  0  0  0  0
  5  6  1  0  0  0  0
  5  7  1  0  0  0  0
  5  8  1  0  0  0  0
  8  9  1  0  0  0  0
  8 10  1  0  0  0  0
  8 11  1  0  0  0  0
 11 12  1  0  0  0  0
 11 13  1  0  0  0  0
 11 14  1  0  0  0  0
 14 15  1  0  0  0  0
 14 16  1  0  0  0  0
 14 17  1  0  0  0  0
 17 18  1  0  0  0  0
 17 19  1  0  0  0  0
 17 20  1  0  0  0  0
 20 21  1  0  0  0  0
 20 22  1  0  0  0  0
 20 23  1  0  0  0  0
 23 24  1  0  0  0  0
 23 25  1  0  0  0  0
 23 26  1  0  0  0  0
M  END
> <VConfSearch Rank>
972

> <Conf_Id>
144

> <Delta U+W>
1.073

> <U+W>
-4.479

> <U>
49.231

> <W>
-53.710

> <W(PB)>
-55.983

> <W(SA)>
2.273

> <Valence>
3.276

> <Coulomb>
45.175

> <VdW>
0.779

> <VdW6>
-7.944

> <VdW12>
8.723

> <Bond>
0.239

> <Angle>
1.155

> <Pdih>
1.883

> <Idih>
0.000

> <Tether>
0.000

$$$$
VeraChem MOL file


 26 25  0  0  0  0  0  0  0  0999 V2000     
   18.3654   20.1351   26.3432 C   0  0  0  0  0  0  0  0  0  0  0  0
   19.2886   19.8974   26.8855 H   0  0  0  0  0  0  0  0  0  0  0  0
   17.8497   20.9257   26.9035 H   0  0  0  0  0  0  0  0  0  0  0  0
   17.7227   19.2453   26.3509 H   0  0  0  0  0  0  0  0  0  0  0  0
   18.6551   20.5993   24.8975 C   0  0  0  0  0  0  0  0  0  0  0  0
   19.3269   21.4689   24.9142 H   0  0  0  0  0  0  0  0  0  0  0  0
   17.7153   20.9462   24.4456 H   0  0  0  0  0  0  0  0  0  0  0  0
   19.2548   19.4899   23.9995 C   0  0  0  0  0  0  0  0  0  0  0  0
   18.5901   18.6152   24.0028 H   0  0  0  0  0  0  0  0  0  0  0  0
   19.2754   19.8696   22.9704 H   0  0  0  0  0  0  0  0  0  0  0  0
   20.6866   19.0674   24.4127 C   0  0  0  0  0  0  0  0  0  0  0  0
   20.6937   18.7833   25.4725 H   0  0  0  0  0  0  0  0  0  0  0  0
   21.3603   19.9307   24.3237 H   0  0  0  0  0  0  0  0  0  0  0  0
   21.2649   17.8771   23.6037 C   0  0  0  0  0  0  0  0  0  0  0  0
   22.2586   17.6502   24.0142 H   0  0  0  0  0  0  0  0  0  0  0  0
   20.6603   16.9756   23.7750 H   0  0  0  0  0  0  0  0  0  0  0  0
   21.4187   18.1319   22.0830 C   0  0  0  0  0  0  0  0  0  0  0  0
   22.2507   17.5207   21.7084 H   0  0  0  0  0  0  0  0  0  0  0  0
   21.6968   19.1786   21.9012 H   0  0  0  0  0  0  0  0  0  0  0  0
   20.1563   17.7638   21.2791 C   0  0  0  0  0  0  0  0  0  0  0  0
   19.9236   16.7059   21.4281 H   0  0  0  0  0  0  0  0  0  0  0  0
   19.3028   18.3512   21.6227 H   0  0  0  0  0  0  0  0  0  0  0  0
   20.3127   18.0008   19.7910 N   0  3  0  0  0  0  0  0  0  0  0  0
   21.0811   17.4493   19.3952 H   0  0  0  0  0  0  0  0  0  0  0  0
   20.5074   18.9848   19.5790 H   0  0  0  0  0  0  0  0  0  0  0  0
   19.4648   17.7456   19.2731 H   0  0  0  0  0  0  0  0  0  0  0  0
  1  2  1  0  0  0  0
  1  3  1  0  0  0  0
  1  4  1  0  0  0  0
  1  5  1  0  0  0  0
  5  6  1  0  0  0  0
  5  7  1  0  0  0  0
  5  8  1  0  0  0  0
  8  9  1  0  0  0  0
  8 10  1  0  0  0  0
  8 11  1  0  0  0  0
 11 12  1  0  0  0  0
 11 13  1  0  0  0  0
 11 14  1  0  0  0  0
 14 15  1  0  0  0  0
 14 16  1  0  0  0  0
 14 17  1  0  0  0  0
 17 18  1  0  0  0  0
 17 19  1  0  0  0  0
 17 20  1  0  0  0  0
 20 21  1  0  0  0  0
 20 22  1  0  0  0  0
 20 23  1  0  0  0  0
 23 24  1  0  0  0  0
 23 25  1  0  0  0  0
 23 26  1  0  0  0  0
M  END
> <VConfSearch Rank>
973

> <Conf_Id>
93

> <Delta U+W>
3.253

> <U+W>
-2.300

> <U>
51.609

> <W>
-53.909

> <W(PB)>
-56.178

> <W(SA)>
2.270

> <Valence>
5.204

> <Coulomb>
45.645

> <VdW>
0.760

> <VdW6>
-7.997

> <VdW12>
8.758

> <Bond>
0.240

> <Angle>
1.456

> <Pdih>
3.507

> <Idih>
0.000

> <Tether>
0.000

$$$$
VeraChem MOL file


 26 25  0  0  0  0  0  0  0  0999 V2000     
   19.5873   15.6123   24.7206 C   0  0  0  0  0  0  0  0  0  0  0  0
   18.7609   16.0171   25.3173 H   0  0  0  0  0  0  0  0  0  0  0  0
   19.1829   15.2716   23.7586 H   0  0  0  0  0  0  0  0  0  0  0  0
   19.9756   14.7332   25.2511 H   0  0  0  0  0  0  0  0  0  0  0  0
   20.7082   16.6566   24.5140 C   0  0  0  0  0  0  0  0  0  0  0  0
   21.5610   16.1638   24.0266 H   0  0  0  0  0  0  0  0  0  0  0  0
   21.0730   17.0077   25.4894 H   0  0  0  0  0  0  0  0  0  0  0  0
   20.2760   17.8656   23.6490 C   0  0  0  0  0  0  0  0  0  0  0  0
   21.1735   18.4592   23.4345 H   0  0  0  0  0  0  0  0  0  0  0  0
   19.8926   17.5082   22.6835 H   0  0  0  0  0  0  0  0  0  0  0  0
   19.2219   18.7703   24.3344 C   0  0  0  0  0  0  0  0  0  0  0  0
   19.6474   19.1902   25.2561 H   0  0  0  0  0  0  0  0  0  0  0  0
   18.3629   18.1621   24.6447 H   0  0  0  0  0  0  0  0  0  0  0  0
   18.6850   19.9211   23.4438 C   0  0  0  0  0  0  0  0  0  0  0  0
   18.1574   19.5088   22.5724 H   0  0  0  0  0  0  0  0  0  0  0  0
   17.9233   20.4601   24.0240 H   0  0  0  0  0  0  0  0  0  0  0  0
   19.7527   20.9449   22.9823 C   0  0  0  0  0  0  0  0  0  0  0  0
   20.5030   21.0902   23.7708 H   0  0  0  0  0  0  0  0  0  0  0  0
   19.2643   21.9176   22.8362 H   0  0  0  0  0  0  0  0  0  0  0  0
   20.4346   20.5494   21.6578 C   0  0  0  0  0  0  0  0  0  0  0  0
   20.9330   19.5838   21.7611 H   0  0  0  0  0  0  0  0  0  0  0  0
   19.6808   20.4611   20.8708 H   0  0  0  0  0  0  0  0  0  0  0  0
   21.4687   21.5579   21.2009 N   0  3  0  0  0  0  0  0  0  0  0  0
   21.0576   22.4852   21.0513 H   0  0  0  0  0  0  0  0  0  0  0  0
   21.9074   21.2799   20.3162 H   0  0  0  0  0  0  0  0  0  0  0  0
   22.2230   21.6694   21.8863 H   0  0  0  0  0  0  0  0  0  0  0  0
  1  2  1  0  0  0  0
  1  3  1  0  0  0  0
  1  4  1  0  0  0  0
  1  5  1  0  0  0  0
  5  6  1  0  0  0  0
  5  7  1  0  0  0  0
  5  8  1  0  0  0  0
  8  9  1  0  0  0  0
  8 10  1  0  0  0  0
  8 11  1  0  0  0  0
 11 12  1  0  0  0  0
 11 13  1  0  0  0  0
 11 14  1  0  0  0  0
 14 15  1  0  0  0  0
 14 16  1  0  0  0  0
 14 17  1  0  0  0  0
 17 18  1  0  0  0  0
 17 19  1  0  0  0  0
 17 20  1  0  0  0  0
 20 21  1  0  0  0  0
 20 22  1  0  0  0  0
 20 23  1  0  0  0  0
 23 24  1  0  0  0  0
 23 25  1  0  0  0  0
 23 26  1  0  0  0  0
M  END
> <VConfSearch Rank>
974

> <Conf_Id>
94

> <Delta U+W>
3.247

> <U+W>
-2.305

> <U>
51.609

> <W>
-53.914

> <W(PB)>
-56.221

> <W(SA)>
2.307

> <Valence>
5.204

> <Coulomb>
45.645

> <VdW>
0.760

> <VdW6>
-7.997

> <VdW12>
8.757

> <Bond>
0.240

> <Angle>
1.456

> <Pdih>
3.508

> <Idih>
0.000

> <Tether>
0.000

$$$$
VeraChem MOL file


 26 25  0  0  0  0  0  0  0  0999 V2000     
   23.7452   20.6020   24.0153 C   0  0  0  0  0  0  0  0  0  0  0  0
   24.4205   19.7371   23.9786 H   0  0  0  0  0  0  0  0  0  0  0  0
   23.7709   21.0976   23.0360 H   0  0  0  0  0  0  0  0  0  0  0  0
   24.1394   21.3059   24.7596 H   0  0  0  0  0  0  0  0  0  0  0  0
   22.3094   20.1696   24.3808 C   0  0  0  0  0  0  0  0  0  0  0  0
   21.6659   21.0584   24.4431 H   0  0  0  0  0  0  0  0  0  0  0  0
   22.3104   19.7084   25.3784 H   0  0  0  0  0  0  0  0  0  0  0  0
   21.7303   19.1775   23.3481 C   0  0  0  0  0  0  0  0  0  0  0  0
   21.7332   19.6422   22.3523 H   0  0  0  0  0  0  0  0  0  0  0  0
   22.3786   18.2924   23.2876 H   0  0  0  0  0  0  0  0  0  0  0  0
   20.2927   18.7419   23.7110 C   0  0  0  0  0  0  0  0  0  0  0  0
   19.6527   19.6318   23.7772 H   0  0  0  0  0  0  0  0  0  0  0  0
   20.2919   18.2743   24.7054 H   0  0  0  0  0  0  0  0  0  0  0  0
   19.7143   17.7497   22.6737 C   0  0  0  0  0  0  0  0  0  0  0  0
   19.6900   18.2210   21.6821 H   0  0  0  0  0  0  0  0  0  0  0  0
   20.3897   16.8876   22.5849 H   0  0  0  0  0  0  0  0  0  0  0  0
   18.3023   17.2323   23.0464 C   0  0  0  0  0  0  0  0  0  0  0  0
   18.3563   16.6867   23.9978 H   0  0  0  0  0  0  0  0  0  0  0  0
   17.9727   16.5033   22.2941 H   0  0  0  0  0  0  0  0  0  0  0  0
   17.2392   18.3424   23.1727 C   0  0  0  0  0  0  0  0  0  0  0  0
   16.2831   17.8978   23.4623 H   0  0  0  0  0  0  0  0  0  0  0  0
   17.5337   19.0500   23.9518 H   0  0  0  0  0  0  0  0  0  0  0  0
   17.0168   19.1202   21.8907 N   0  3  0  0  0  0  0  0  0  0  0  0
   16.7094   18.5116   21.1252 H   0  0  0  0  0  0  0  0  0  0  0  0
   17.8735   19.5890   21.5804 H   0  0  0  0  0  0  0  0  0  0  0  0
   16.2999   19.8450   22.0040 H   0  0  0  0  0  0  0  0  0  0  0  0
  1  2  1  0  0  0  0
  1  3  1  0  0  0  0
  1  4  1  0  0  0  0
  1  5  1  0  0  0  0
  5  6  1  0  0  0  0
  5  7  1  0  0  0  0
  5  8  1  0  0  0  0
  8  9  1  0  0  0  0
  8 10  1  0  0  0  0
  8 11  1  0  0  0  0
 11 12  1  0  0  0  0
 11 13  1  0  0  0  0
 11 14  1  0  0  0  0
 14 15  1  0  0  0  0
 14 16  1  0  0  0  0
 14 17  1  0  0  0  0
 17 18  1  0  0  0  0
 17 19  1  0  0  0  0
 17 20  1  0  0  0  0
 20 21  1  0  0  0  0
 20 22  1  0  0  0  0
 20 23  1  0  0  0  0
 23 24  1  0  0  0  0
 23 25  1  0  0  0  0
 23 26  1  0  0  0  0
M  END
> <VConfSearch Rank>
975

> <Conf_Id>
83

> <Delta U+W>
0.559

> <U+W>
-4.994

> <U>
48.668

> <W>
-53.661

> <W(PB)>
-55.972

> <W(SA)>
2.311

> <Valence>
2.543

> <Coulomb>
45.478

> <VdW>
0.646

> <VdW6>
-7.096

> <VdW12>
7.742

> <Bond>
0.176

> <Angle>
0.630

> <Pdih>
1.738

> <Idih>
0.000

> <Tether>
0.000

$$$$
VeraChem MOL file


 26 25  0  0  0  0  0  0  0  0999 V2000     
   17.8114   17.3562   26.0472 C   0  0  0  0  0  0  0  0  0  0  0  0
   17.7977   16.2613   26.1255 H   0  0  0  0  0  0  0  0  0  0  0  0
   18.3627   17.7539   26.9093 H   0  0  0  0  0  0  0  0  0  0  0  0
   16.7751   17.7117   26.1168 H   0  0  0  0  0  0  0  0  0  0  0  0
   18.4553   17.8103   24.7200 C   0  0  0  0  0  0  0  0  0  0  0  0
   18.4130   18.9058   24.6608 H   0  0  0  0  0  0  0  0  0  0  0  0
   17.8657   17.4220   23.8777 H   0  0  0  0  0  0  0  0  0  0  0  0
   19.9192   17.3242   24.6012 C   0  0  0  0  0  0  0  0  0  0  0  0
   20.5202   17.7566   25.4130 H   0  0  0  0  0  0  0  0  0  0  0  0
   19.9459   16.2352   24.7450 H   0  0  0  0  0  0  0  0  0  0  0  0
   20.5743   17.6543   23.2374 C   0  0  0  0  0  0  0  0  0  0  0  0
   19.9806   17.2093   22.4270 H   0  0  0  0  0  0  0  0  0  0  0  0
   21.5596   17.1694   23.1997 H   0  0  0  0  0  0  0  0  0  0  0  0
   20.7489   19.1713   22.9851 C   0  0  0  0  0  0  0  0  0  0  0  0
   19.7652   19.6555   22.9489 H   0  0  0  0  0  0  0  0  0  0  0  0
   21.2981   19.6219   23.8235 H   0  0  0  0  0  0  0  0  0  0  0  0
   21.5076   19.4478   21.6654 C   0  0  0  0  0  0  0  0  0  0  0  0
   20.9531   19.0251   20.8169 H   0  0  0  0  0  0  0  0  0  0  0  0
   22.4794   18.9370   21.6902 H   0  0  0  0  0  0  0  0  0  0  0  0
   21.7535   20.9495   21.4226 C   0  0  0  0  0  0  0  0  0  0  0  0
   22.2984   21.3750   22.2697 H   0  0  0  0  0  0  0  0  0  0  0  0
   22.3655   21.0761   20.5254 H   0  0  0  0  0  0  0  0  0  0  0  0
   20.4826   21.7533   21.2288 N   0  3  0  0  0  0  0  0  0  0  0  0
   19.8758   21.7091   22.0532 H   0  0  0  0  0  0  0  0  0  0  0  0
   19.9357   21.4143   20.4307 H   0  0  0  0  0  0  0  0  0  0  0  0
   20.6821   22.7445   21.0557 H   0  0  0  0  0  0  0  0  0  0  0  0
  1  2  1  0  0  0  0
  1  3  1  0  0  0  0
  1  4  1  0  0  0  0
  1  5  1  0  0  0  0
  5  6  1  0  0  0  0
  5  7  1  0  0  0  0
  5  8  1  0  0  0  0
  8  9  1  0  0  0  0
  8 10  1  0  0  0  0
  8 11  1  0  0  0  0
 11 12  1  0  0  0  0
 11 13  1  0  0  0  0
 11 14  1  0  0  0  0
 14 15  1  0  0  0  0
 14 16  1  0  0  0  0
 14 17  1  0  0  0  0
 17 18  1  0  0  0  0
 17 19  1  0  0  0  0
 17 20  1  0  0  0  0
 20 21  1  0  0  0  0
 20 22  1  0  0  0  0
 20 23  1  0  0  0  0
 23 24  1  0  0  0  0
 23 25  1  0  0  0  0
 23 26  1  0  0  0  0
M  END
> <VConfSearch Rank>
976

> <Conf_Id>
18

> <Delta U+W>
0.759

> <U+W>
-4.793

> <U>
48.945

> <W>
-53.738

> <W(PB)>
-56.051

> <W(SA)>
2.313

> <Valence>
2.802

> <Coulomb>
45.335

> <VdW>
0.807

> <VdW6>
-6.962

> <VdW12>
7.769

> <Bond>
0.189

> <Angle>
0.696

> <Pdih>
1.917

> <Idih>
0.000

> <Tether>
0.000

$$$$
VeraChem MOL file


 26 25  0  0  0  0  0  0  0  0999 V2000     
   21.3007   17.2791   26.5912 C   0  0  0  0  0  0  0  0  0  0  0  0
   22.2476   17.8340   26.6190 H   0  0  0  0  0  0  0  0  0  0  0  0
   20.7566   17.4843   27.5224 H   0  0  0  0  0  0  0  0  0  0  0  0
   21.5385   16.2076   26.5695 H   0  0  0  0  0  0  0  0  0  0  0  0
   20.4614   17.6762   25.3583 C   0  0  0  0  0  0  0  0  0  0  0  0
   19.5355   17.0844   25.3423 H   0  0  0  0  0  0  0  0  0  0  0  0
   21.0206   17.4182   24.4494 H   0  0  0  0  0  0  0  0  0  0  0  0
   20.1175   19.1845   25.3649 C   0  0  0  0  0  0  0  0  0  0  0  0
   19.6318   19.4352   26.3181 H   0  0  0  0  0  0  0  0  0  0  0  0
   21.0428   19.7757   25.3261 H   0  0  0  0  0  0  0  0  0  0  0  0
   19.1791   19.6124   24.2097 C   0  0  0  0  0  0  0  0  0  0  0  0
   18.8951   20.6625   24.3647 H   0  0  0  0  0  0  0  0  0  0  0  0
   18.2480   19.0311   24.2579 H   0  0  0  0  0  0  0  0  0  0  0  0
   19.8159   19.4640   22.8069 C   0  0  0  0  0  0  0  0  0  0  0  0
   20.7726   20.0039   22.7793 H   0  0  0  0  0  0  0  0  0  0  0  0
   20.0381   18.4076   22.6119 H   0  0  0  0  0  0  0  0  0  0  0  0
   18.8861   20.0080   21.6964 C   0  0  0  0  0  0  0  0  0  0  0  0
   18.6395   21.0567   21.9094 H   0  0  0  0  0  0  0  0  0  0  0  0
   17.9364   19.4566   21.6971 H   0  0  0  0  0  0  0  0  0  0  0  0
   19.5237   19.9331   20.2956 C   0  0  0  0  0  0  0  0  0  0  0  0
   18.8591   20.4086   19.5691 H   0  0  0  0  0  0  0  0  0  0  0  0
   20.4735   20.4746   20.2940 H   0  0  0  0  0  0  0  0  0  0  0  0
   19.7877   18.5181   19.8192 N   0  3  0  0  0  0  0  0  0  0  0  0
   18.9265   17.9634   19.7781 H   0  0  0  0  0  0  0  0  0  0  0  0
   20.4377   18.0240   20.4382 H   0  0  0  0  0  0  0  0  0  0  0  0
   20.1984   18.5036   18.8793 H   0  0  0  0  0  0  0  0  0  0  0  0
  1  2  1  0  0  0  0
  1  3  1  0  0  0  0
  1  4  1  0  0  0  0
  1  5  1  0  0  0  0
  5  6  1  0  0  0  0
  5  7  1  0  0  0  0
  5  8  1  0  0  0  0
  8  9  1  0  0  0  0
  8 10  1  0  0  0  0
  8 11  1  0  0  0  0
 11 12  1  0  0  0  0
 11 13  1  0  0  0  0
 11 14  1  0  0  0  0
 14 15  1  0  0  0  0
 14 16  1  0  0  0  0
 14 17  1  0  0  0  0
 17 18  1  0  0  0  0
 17 19  1  0  0  0  0
 17 20  1  0  0  0  0
 20 21  1  0  0  0  0
 20 22  1  0  0  0  0
 20 23  1  0  0  0  0
 23 24  1  0  0  0  0
 23 25  1  0  0  0  0
 23 26  1  0  0  0  0
M  END
> <VConfSearch Rank>
977

> <Conf_Id>
17

> <Delta U+W>
0.843

> <U+W>
-4.709

> <U>
48.945

> <W>
-53.653

> <W(PB)>
-55.991

> <W(SA)>
2.338

> <Valence>
2.802

> <Coulomb>
45.335

> <VdW>
0.807

> <VdW6>
-6.962

> <VdW12>
7.769

> <Bond>
0.189

> <Angle>
0.696

> <Pdih>
1.917

> <Idih>
0.000

> <Tether>
0.000

$$$$
VeraChem MOL file


 26 25  0  0  0  0  0  0  0  0999 V2000     
   23.3815   18.8593   23.4949 C   0  0  0  0  0  0  0  0  0  0  0  0
   22.8158   18.0267   23.0588 H   0  0  0  0  0  0  0  0  0  0  0  0
   23.4946   19.6377   22.7292 H   0  0  0  0  0  0  0  0  0  0  0  0
   24.3829   18.4836   23.7419 H   0  0  0  0  0  0  0  0  0  0  0  0
   22.6873   19.4184   24.7576 C   0  0  0  0  0  0  0  0  0  0  0  0
   23.3490   20.1606   25.2257 H   0  0  0  0  0  0  0  0  0  0  0  0
   22.5577   18.6139   25.4950 H   0  0  0  0  0  0  0  0  0  0  0  0
   21.3216   20.0856   24.4652 C   0  0  0  0  0  0  0  0  0  0  0  0
   20.9559   20.5503   25.3913 H   0  0  0  0  0  0  0  0  0  0  0  0
   21.4595   20.9023   23.7432 H   0  0  0  0  0  0  0  0  0  0  0  0
   20.2528   19.0982   23.9384 C   0  0  0  0  0  0  0  0  0  0  0  0
   20.1535   18.2580   24.6394 H   0  0  0  0  0  0  0  0  0  0  0  0
   20.5819   18.6781   22.9797 H   0  0  0  0  0  0  0  0  0  0  0  0
   18.8780   19.7858   23.7583 C   0  0  0  0  0  0  0  0  0  0  0  0
   18.5738   20.2412   24.7109 H   0  0  0  0  0  0  0  0  0  0  0  0
   18.9670   20.6085   23.0352 H   0  0  0  0  0  0  0  0  0  0  0  0
   17.7674   18.8124   23.2981 C   0  0  0  0  0  0  0  0  0  0  0  0
   16.8091   19.3484   23.2797 H   0  0  0  0  0  0  0  0  0  0  0  0
   17.6602   18.0017   24.0311 H   0  0  0  0  0  0  0  0  0  0  0  0
   18.0375   18.2172   21.9034 C   0  0  0  0  0  0  0  0  0  0  0  0
   18.1437   19.0242   21.1733 H   0  0  0  0  0  0  0  0  0  0  0  0
   18.9671   17.6426   21.9195 H   0  0  0  0  0  0  0  0  0  0  0  0
   16.9315   17.2979   21.4269 N   0  3  0  0  0  0  0  0  0  0  0  0
   17.1302   16.9126   20.4972 H   0  0  0  0  0  0  0  0  0  0  0  0
   16.0315   17.7848   21.3618 H   0  0  0  0  0  0  0  0  0  0  0  0
   16.7985   16.5010   22.0581 H   0  0  0  0  0  0  0  0  0  0  0  0
  1  2  1  0  0  0  0
  1  3  1  0  0  0  0
  1  4  1  0  0  0  0
  1  5  1  0  0  0  0
  5  6  1  0  0  0  0
  5  7  1  0  0  0  0
  5  8  1  0  0  0  0
  8  9  1  0  0  0  0
  8 10  1  0  0  0  0
  8 11  1  0  0  0  0
 11 12  1  0  0  0  0
 11 13  1  0  0  0  0
 11 14  1  0  0  0  0
 14 15  1  0  0  0  0
 14 16  1  0  0  0  0
 14 17  1  0  0  0  0
 17 18  1  0  0  0  0
 17 19  1  0  0  0  0
 17 20  1  0  0  0  0
 20 21  1  0  0  0  0
 20 22  1  0  0  0  0
 20 23  1  0  0  0  0
 23 24  1  0  0  0  0
 23 25  1  0  0  0  0
 23 26  1  0  0  0  0
M  END
> <VConfSearch Rank>
978

> <Conf_Id>
96

> <Delta U+W>
0.912

> <U+W>
-4.640

> <U>
48.723

> <W>
-53.364

> <W(PB)>
-55.683

> <W(SA)>
2.320

> <Valence>
2.962

> <Coulomb>
44.993

> <VdW>
0.768

> <VdW6>
-7.008

> <VdW12>
7.776

> <Bond>
0.188

> <Angle>
0.757

> <Pdih>
2.018

> <Idih>
0.000

> <Tether>
0.000

$$$$
VeraChem MOL file


 26 25  0  0  0  0  0  0  0  0999 V2000     
   18.5025   21.9378   24.1880 C   0  0  0  0  0  0  0  0  0  0  0  0
   18.2624   23.0084   24.1567 H   0  0  0  0  0  0  0  0  0  0  0  0
   18.1384   21.5400   25.1442 H   0  0  0  0  0  0  0  0  0  0  0  0
   19.5954   21.8448   24.1702 H   0  0  0  0  0  0  0  0  0  0  0  0
   17.8501   21.2023   22.9954 C   0  0  0  0  0  0  0  0  0  0  0  0
   18.2539   21.5965   22.0524 H   0  0  0  0  0  0  0  0  0  0  0  0
   16.7744   21.4271   22.9868 H   0  0  0  0  0  0  0  0  0  0  0  0
   18.0356   19.6664   23.0430 C   0  0  0  0  0  0  0  0  0  0  0  0
   17.6123   19.2746   23.9782 H   0  0  0  0  0  0  0  0  0  0  0  0
   17.4499   19.2196   22.2277 H   0  0  0  0  0  0  0  0  0  0  0  0
   19.5111   19.2187   22.9102 C   0  0  0  0  0  0  0  0  0  0  0  0
   20.0903   19.6076   23.7570 H   0  0  0  0  0  0  0  0  0  0  0  0
   19.9446   19.6530   21.9988 H   0  0  0  0  0  0  0  0  0  0  0  0
   19.6388   17.6772   22.8591 C   0  0  0  0  0  0  0  0  0  0  0  0
   19.2327   17.2409   23.7823 H   0  0  0  0  0  0  0  0  0  0  0  0
   19.0228   17.2903   22.0356 H   0  0  0  0  0  0  0  0  0  0  0  0
   21.0945   17.1946   22.6573 C   0  0  0  0  0  0  0  0  0  0  0  0
   21.4950   17.6103   21.7231 H   0  0  0  0  0  0  0  0  0  0  0  0
   21.0948   16.1026   22.5410 H   0  0  0  0  0  0  0  0  0  0  0  0
   22.0164   17.5755   23.8310 C   0  0  0  0  0  0  0  0  0  0  0  0
   22.0606   18.6632   23.9293 H   0  0  0  0  0  0  0  0  0  0  0  0
   21.6181   17.1612   24.7611 H   0  0  0  0  0  0  0  0  0  0  0  0
   23.4332   17.0666   23.6611 N   0  3  0  0  0  0  0  0  0  0  0  0
   23.8753   17.4419   22.8155 H   0  0  0  0  0  0  0  0  0  0  0  0
   23.4661   16.0443   23.5905 H   0  0  0  0  0  0  0  0  0  0  0  0
   24.0304   17.3304   24.4525 H   0  0  0  0  0  0  0  0  0  0  0  0
  1  2  1  0  0  0  0
  1  3  1  0  0  0  0
  1  4  1  0  0  0  0
  1  5  1  0  0  0  0
  5  6  1  0  0  0  0
  5  7  1  0  0  0  0
  5  8  1  0  0  0  0
  8  9  1  0  0  0  0
  8 10  1  0  0  0  0
  8 11  1  0  0  0  0
 11 12  1  0  0  0  0
 11 13  1  0  0  0  0
 11 14  1  0  0  0  0
 14 15  1  0  0  0  0
 14 16  1  0  0  0  0
 14 17  1  0  0  0  0
 17 18  1  0  0  0  0
 17 19  1  0  0  0  0
 17 20  1  0  0  0  0
 20 21  1  0  0  0  0
 20 22  1  0  0  0  0
 20 23  1  0  0  0  0
 23 24  1  0  0  0  0
 23 25  1  0  0  0  0
 23 26  1  0  0  0  0
M  END
> <VConfSearch Rank>
979

> <Conf_Id>
133

> <Delta U+W>
0.844

> <U+W>
-4.708

> <U>
48.723

> <W>
-53.431

> <W(PB)>
-55.776

> <W(SA)>
2.344

> <Valence>
2.962

> <Coulomb>
44.993

> <VdW>
0.768

> <VdW6>
-7.008

> <VdW12>
7.776

> <Bond>
0.188

> <Angle>
0.756

> <Pdih>
2.018

> <Idih>
0.000

> <Tether>
0.000

$$$$
VeraChem MOL file


 26 25  0  0  0  0  0  0  0  0999 V2000     
   18.3416   21.8507   23.6040 C   0  0  0  0  0  0  0  0  0  0  0  0
   17.2467   21.8448   23.5249 H   0  0  0  0  0  0  0  0  0  0  0  0
   18.6325   21.1619   24.4068 H   0  0  0  0  0  0  0  0  0  0  0  0
   18.6514   22.8596   23.9059 H   0  0  0  0  0  0  0  0  0  0  0  0
   18.9976   21.4624   22.2597 C   0  0  0  0  0  0  0  0  0  0  0  0
   20.0903   21.4557   22.3687 H   0  0  0  0  0  0  0  0  0  0  0  0
   18.7749   22.2432   21.5191 H   0  0  0  0  0  0  0  0  0  0  0  0
   18.5058   20.1016   21.7040 C   0  0  0  0  0  0  0  0  0  0  0  0
   17.4311   20.1745   21.4874 H   0  0  0  0  0  0  0  0  0  0  0  0
   18.9948   19.9165   20.7377 H   0  0  0  0  0  0  0  0  0  0  0  0
   18.7439   18.8816   22.6310 C   0  0  0  0  0  0  0  0  0  0  0  0
   18.3376   17.9884   22.1366 H   0  0  0  0  0  0  0  0  0  0  0  0
   18.1700   18.9994   23.5597 H   0  0  0  0  0  0  0  0  0  0  0  0
   20.2356   18.6388   22.9637 C   0  0  0  0  0  0  0  0  0  0  0  0
   20.8131   18.5664   22.0316 H   0  0  0  0  0  0  0  0  0  0  0  0
   20.6378   19.4935   23.5236 H   0  0  0  0  0  0  0  0  0  0  0  0
   20.4360   17.3527   23.7952 C   0  0  0  0  0  0  0  0  0  0  0  0
   20.0473   16.4885   23.2403 H   0  0  0  0  0  0  0  0  0  0  0  0
   19.8607   17.4225   24.7281 H   0  0  0  0  0  0  0  0  0  0  0  0
   21.9211   17.1220   24.1259 C   0  0  0  0  0  0  0  0  0  0  0  0
   22.4954   17.0360   23.1995 H   0  0  0  0  0  0  0  0  0  0  0  0
   22.3085   17.9727   24.6931 H   0  0  0  0  0  0  0  0  0  0  0  0
   22.1596   15.8681   24.9421 N   0  3  0  0  0  0  0  0  0  0  0  0
   23.1548   15.7332   25.1513 H   0  0  0  0  0  0  0  0  0  0  0  0
   21.8411   15.0262   24.4512 H   0  0  0  0  0  0  0  0  0  0  0  0
   21.6672   15.8978   25.8410 H   0  0  0  0  0  0  0  0  0  0  0  0
  1  2  1  0  0  0  0
  1  3  1  0  0  0  0
  1  4  1  0  0  0  0
  1  5  1  0  0  0  0
  5  6  1  0  0  0  0
  5  7  1  0  0  0  0
  5  8  1  0  0  0  0
  8  9  1  0  0  0  0
  8 10  1  0  0  0  0
  8 11  1  0  0  0  0
 11 12  1  0  0  0  0
 11 13  1  0  0  0  0
 11 14  1  0  0  0  0
 14 15  1  0  0  0  0
 14 16  1  0  0  0  0
 14 17  1  0  0  0  0
 17 18  1  0  0  0  0
 17 19  1  0  0  0  0
 17 20  1  0  0  0  0
 20 21  1  0  0  0  0
 20 22  1  0  0  0  0
 20 23  1  0  0  0  0
 23 24  1  0  0  0  0
 23 25  1  0  0  0  0
 23 26  1  0  0  0  0
M  END
> <VConfSearch Rank>
980

> <Conf_Id>
106

> <Delta U+W>
0.767

> <U+W>
-4.785

> <U>
48.494

> <W>
-53.279

> <W(PB)>
-55.569

> <W(SA)>
2.290

> <Valence>
3.117

> <Coulomb>
44.693

> <VdW>
0.684

> <VdW6>
-7.347

> <VdW12>
8.030

> <Bond>
0.208

> <Angle>
1.039

> <Pdih>
1.870

> <Idih>
0.000

> <Tether>
0.000

$$$$
VeraChem MOL file


 26 25  0  0  0  0  0  0  0  0999 V2000     
   17.4959   15.2913   22.4779 C   0  0  0  0  0  0  0  0  0  0  0  0
   16.7421   15.8217   21.8816 H   0  0  0  0  0  0  0  0  0  0  0  0
   18.2124   14.8263   21.7881 H   0  0  0  0  0  0  0  0  0  0  0  0
   16.9872   14.4883   23.0270 H   0  0  0  0  0  0  0  0  0  0  0  0
   18.2084   16.2521   23.4532 C   0  0  0  0  0  0  0  0  0  0  0  0
   18.9312   15.6872   24.0585 H   0  0  0  0  0  0  0  0  0  0  0  0
   17.4722   16.6748   24.1513 H   0  0  0  0  0  0  0  0  0  0  0  0
   18.9331   17.3930   22.7053 C   0  0  0  0  0  0  0  0  0  0  0  0
   19.6660   16.9655   22.0071 H   0  0  0  0  0  0  0  0  0  0  0  0
   18.2069   17.9532   22.1001 H   0  0  0  0  0  0  0  0  0  0  0  0
   19.6479   18.3573   23.6787 C   0  0  0  0  0  0  0  0  0  0  0  0
   20.3736   17.7961   24.2837 H   0  0  0  0  0  0  0  0  0  0  0  0
   18.9144   18.7839   24.3769 H   0  0  0  0  0  0  0  0  0  0  0  0
   20.3726   19.4986   22.9299 C   0  0  0  0  0  0  0  0  0  0  0  0
   21.1064   19.0723   22.2316 H   0  0  0  0  0  0  0  0  0  0  0  0
   19.6471   20.0601   22.3249 H   0  0  0  0  0  0  0  0  0  0  0  0
   21.0874   20.4627   23.9022 C   0  0  0  0  0  0  0  0  0  0  0  0
   21.8174   19.9062   24.5051 H   0  0  0  0  0  0  0  0  0  0  0  0
   20.3565   20.8949   24.5987 H   0  0  0  0  0  0  0  0  0  0  0  0
   21.8052   21.5948   23.1464 C   0  0  0  0  0  0  0  0  0  0  0  0
   22.5458   21.1697   22.4635 H   0  0  0  0  0  0  0  0  0  0  0  0
   21.0795   22.1620   22.5572 H   0  0  0  0  0  0  0  0  0  0  0  0
   22.5194   22.5633   24.0669 N   0  3  0  0  0  0  0  0  0  0  0  0
   22.9907   23.3092   23.5434 H   0  0  0  0  0  0  0  0  0  0  0  0
   23.2366   22.0960   24.6313 H   0  0  0  0  0  0  0  0  0  0  0  0
   21.8723   23.0192   24.7185 H   0  0  0  0  0  0  0  0  0  0  0  0
  1  2  1  0  0  0  0
  1  3  1  0  0  0  0
  1  4  1  0  0  0  0
  1  5  1  0  0  0  0
  5  6  1  0  0  0  0
  5  7  1  0  0  0  0
  5  8  1  0  0  0  0
  8  9  1  0  0  0  0
  8 10  1  0  0  0  0
  8 11  1  0  0  0  0
 11 12  1  0  0  0  0
 11 13  1  0  0  0  0
 11 14  1  0  0  0  0
 14 15  1  0  0  0  0
 14 16  1  0  0  0  0
 14 17  1  0  0  0  0
 17 18  1  0  0  0  0
 17 19  1  0  0  0  0
 17 20  1  0  0  0  0
 20 21  1  0  0  0  0
 20 22  1  0  0  0  0
 20 23  1  0  0  0  0
 23 24  1  0  0  0  0
 23 25  1  0  0  0  0
 23 26  1  0  0  0  0
M  END
> <VConfSearch Rank>
981

> <Conf_Id>
25

> <Delta U+W>
0.000

> <U+W>
-5.552

> <U>
47.192

> <W>
-52.745

> <W(PB)>
-55.134

> <W(SA)>
2.389

> <Valence>
2.156

> <Coulomb>
44.449

> <VdW>
0.587

> <VdW6>
-5.761

> <VdW12>
6.348

> <Bond>
0.129

> <Angle>
0.393

> <Pdih>
1.634

> <Idih>
0.000

> <Tether>
0.000

$$$$
VeraChem MOL file


 26 25  0  0  0  0  0  0  0  0999 V2000     
   21.3429   21.7997   20.2639 C   0  0  0  0  0  0  0  0  0  0  0  0
   21.1307   22.6936   20.8648 H   0  0  0  0  0  0  0  0  0  0  0  0
   22.3944   21.5249   20.4190 H   0  0  0  0  0  0  0  0  0  0  0  0
   21.2168   22.0667   19.2066 H   0  0  0  0  0  0  0  0  0  0  0  0
   20.4032   20.6371   20.6481 C   0  0  0  0  0  0  0  0  0  0  0  0
   20.6161   19.7695   20.0080 H   0  0  0  0  0  0  0  0  0  0  0  0
   19.3623   20.9292   20.4503 H   0  0  0  0  0  0  0  0  0  0  0  0
   20.5606   20.2411   22.1329 C   0  0  0  0  0  0  0  0  0  0  0  0
   21.6030   19.9524   22.3263 H   0  0  0  0  0  0  0  0  0  0  0  0
   20.3489   21.1120   22.7686 H   0  0  0  0  0  0  0  0  0  0  0  0
   19.6211   19.0771   22.5215 C   0  0  0  0  0  0  0  0  0  0  0  0
   19.8335   18.2065   21.8855 H   0  0  0  0  0  0  0  0  0  0  0  0
   18.5791   19.3666   22.3266 H   0  0  0  0  0  0  0  0  0  0  0  0
   19.7784   18.6815   24.0071 C   0  0  0  0  0  0  0  0  0  0  0  0
   20.8222   18.3980   24.1972 H   0  0  0  0  0  0  0  0  0  0  0  0
   19.5631   19.5514   24.6432 H   0  0  0  0  0  0  0  0  0  0  0  0
   18.8379   17.5156   24.3937 C   0  0  0  0  0  0  0  0  0  0  0  0
   19.0655   16.6304   23.7850 H   0  0  0  0  0  0  0  0  0  0  0  0
   17.8004   17.7943   24.1656 H   0  0  0  0  0  0  0  0  0  0  0  0
   18.9267   17.1492   25.8878 C   0  0  0  0  0  0  0  0  0  0  0  0
   18.7064   18.0302   26.4966 H   0  0  0  0  0  0  0  0  0  0  0  0
   18.1830   16.3813   26.1176 H   0  0  0  0  0  0  0  0  0  0  0  0
   20.2828   16.6153   26.3058 N   0  3  0  0  0  0  0  0  0  0  0  0
   21.0261   17.3034   26.1507 H   0  0  0  0  0  0  0  0  0  0  0  0
   20.5372   15.7708   25.7831 H   0  0  0  0  0  0  0  0  0  0  0  0
   20.3045   16.3692   27.3014 H   0  0  0  0  0  0  0  0  0  0  0  0
  1  2  1  0  0  0  0
  1  3  1  0  0  0  0
  1  4  1  0  0  0  0
  1  5  1  0  0  0  0
  5  6  1  0  0  0  0
  5  7  1  0  0  0  0
  5  8  1  0  0  0  0
  8  9  1  0  0  0  0
  8 10  1  0  0  0  0
  8 11  1  0  0  0  0
 11 12  1  0  0  0  0
 11 13  1  0  0  0  0
 11 14  1  0  0  0  0
 14 15  1  0  0  0  0
 14 16  1  0  0  0  0
 14 17  1  0  0  0  0
 17 18  1  0  0  0  0
 17 19  1  0  0  0  0
 17 20  1  0  0  0  0
 20 21  1  0  0  0  0
 20 22  1  0  0  0  0
 20 23  1  0  0  0  0
 23 24  1  0  0  0  0
 23 25  1  0  0  0  0
 23 26  1  0  0  0  0
M  END
> <VConfSearch Rank>
982

> <Conf_Id>
20

> <Delta U+W>
0.150

> <U+W>
-5.403

> <U>
47.845

> <W>
-53.248

> <W(PB)>
-55.599

> <W(SA)>
2.351

> <Valence>
2.258

> <Coulomb>
44.893

> <VdW>
0.694

> <VdW6>
-6.285

> <VdW12>
6.979

> <Bond>
0.149

> <Angle>
0.434

> <Pdih>
1.675

> <Idih>
0.000

> <Tether>
0.000

$$$$
VeraChem MOL file


 26 25  0  0  0  0  0  0  0  0999 V2000     
   20.2956   16.7162   19.5698 C   0  0  0  0  0  0  0  0  0  0  0  0
   21.3920   16.7354   19.6240 H   0  0  0  0  0  0  0  0  0  0  0  0
   19.9490   15.7632   19.9903 H   0  0  0  0  0  0  0  0  0  0  0  0
   20.0102   16.7406   18.5101 H   0  0  0  0  0  0  0  0  0  0  0  0
   19.6818   17.9128   20.3271 C   0  0  0  0  0  0  0  0  0  0  0  0
   18.5877   17.8854   20.2264 H   0  0  0  0  0  0  0  0  0  0  0  0
   20.0195   18.8500   19.8631 H   0  0  0  0  0  0  0  0  0  0  0  0
   20.0683   17.9024   21.8227 C   0  0  0  0  0  0  0  0  0  0  0  0
   19.7306   16.9628   22.2817 H   0  0  0  0  0  0  0  0  0  0  0  0
   21.1627   17.9274   21.9182 H   0  0  0  0  0  0  0  0  0  0  0  0
   19.4554   19.0992   22.5845 C   0  0  0  0  0  0  0  0  0  0  0  0
   18.3611   19.0738   22.4873 H   0  0  0  0  0  0  0  0  0  0  0  0
   19.7937   20.0384   22.1252 H   0  0  0  0  0  0  0  0  0  0  0  0
   19.8416   19.0881   24.0809 C   0  0  0  0  0  0  0  0  0  0  0  0
   19.5006   18.1501   24.5408 H   0  0  0  0  0  0  0  0  0  0  0  0
   20.9358   19.1085   24.1720 H   0  0  0  0  0  0  0  0  0  0  0  0
   19.2279   20.2874   24.8414 C   0  0  0  0  0  0  0  0  0  0  0  0
   18.1372   20.2794   24.7135 H   0  0  0  0  0  0  0  0  0  0  0  0
   19.5871   21.2309   24.4094 H   0  0  0  0  0  0  0  0  0  0  0  0
   19.5419   20.2597   26.3497 C   0  0  0  0  0  0  0  0  0  0  0  0
   19.0149   21.0799   26.8449 H   0  0  0  0  0  0  0  0  0  0  0  0
   19.1906   19.3187   26.7817 H   0  0  0  0  0  0  0  0  0  0  0  0
   21.0172   20.4023   26.6689 N   0  3  0  0  0  0  0  0  0  0  0  0
   21.4017   21.2812   26.3073 H   0  0  0  0  0  0  0  0  0  0  0  0
   21.5689   19.6402   26.2630 H   0  0  0  0  0  0  0  0  0  0  0  0
   21.1906   20.3931   27.6799 H   0  0  0  0  0  0  0  0  0  0  0  0
  1  2  1  0  0  0  0
  1  3  1  0  0  0  0
  1  4  1  0  0  0  0
  1  5  1  0  0  0  0
  5  6  1  0  0  0  0
  5  7  1  0  0  0  0
  5  8  1  0  0  0  0
  8  9  1  0  0  0  0
  8 10  1  0  0  0  0
  8 11  1  0  0  0  0
 11 12  1  0  0  0  0
 11 13  1  0  0  0  0
 11 14  1  0  0  0  0
 14 15  1  0  0  0  0
 14 16  1  0  0  0  0
 14 17  1  0  0  0  0
 17 18  1  0  0  0  0
 17 19  1  0  0  0  0
 17 20  1  0  0  0  0
 20 21  1  0  0  0  0
 20 22  1  0  0  0  0
 20 23  1  0  0  0  0
 23 24  1  0  0  0  0
 23 25  1  0  0  0  0
 23 26  1  0  0  0  0
M  END
> <VConfSearch Rank>
983

> <Conf_Id>
19

> <Delta U+W>
0.162

> <U+W>
-5.391

> <U>
47.845

> <W>
-53.235

> <W(PB)>
-55.585

> <W(SA)>
2.349

> <Valence>
2.258

> <Coulomb>
44.893

> <VdW>
0.694

> <VdW6>
-6.285

> <VdW12>
6.979

> <Bond>
0.149

> <Angle>
0.434

> <Pdih>
1.675

> <Idih>
0.000

> <Tether>
0.000

$$$$
VeraChem MOL file


 26 25  0  0  0  0  0  0  0  0999 V2000     
   19.5481   22.1827   25.9441 C   0  0  0  0  0  0  0  0  0  0  0  0
   19.8285   23.1649   25.5416 H   0  0  0  0  0  0  0  0  0  0  0  0
   18.4526   22.1352   25.9978 H   0  0  0  0  0  0  0  0  0  0  0  0
   19.9391   22.1143   26.9676 H   0  0  0  0  0  0  0  0  0  0  0  0
   20.1102   21.0426   25.0687 C   0  0  0  0  0  0  0  0  0  0  0  0
   19.8447   20.0798   25.5249 H   0  0  0  0  0  0  0  0  0  0  0  0
   21.2077   21.0989   25.0581 H   0  0  0  0  0  0  0  0  0  0  0  0
   19.5693   21.1157   23.6211 C   0  0  0  0  0  0  0  0  0  0  0  0
   18.4760   21.0063   23.6282 H   0  0  0  0  0  0  0  0  0  0  0  0
   19.7761   22.1149   23.2133 H   0  0  0  0  0  0  0  0  0  0  0  0
   20.1906   20.0611   22.6726 C   0  0  0  0  0  0  0  0  0  0  0  0
   21.2826   20.1813   22.6543 H   0  0  0  0  0  0  0  0  0  0  0  0
   19.8410   20.2644   21.6509 H   0  0  0  0  0  0  0  0  0  0  0  0
   19.8311   18.6031   23.0474 C   0  0  0  0  0  0  0  0  0  0  0  0
   20.2400   18.3576   24.0363 H   0  0  0  0  0  0  0  0  0  0  0  0
   18.7393   18.5002   23.1183 H   0  0  0  0  0  0  0  0  0  0  0  0
   20.3765   17.5941   22.0129 C   0  0  0  0  0  0  0  0  0  0  0  0
   21.4678   17.6930   21.9399 H   0  0  0  0  0  0  0  0  0  0  0  0
   19.9649   17.8219   21.0205 H   0  0  0  0  0  0  0  0  0  0  0  0
   20.0182   16.1470   22.3946 C   0  0  0  0  0  0  0  0  0  0  0  0
   20.4401   15.9097   23.3750 H   0  0  0  0  0  0  0  0  0  0  0  0
   18.9317   16.0398   22.4525 H   0  0  0  0  0  0  0  0  0  0  0  0
   20.5368   15.1259   21.4028 N   0  3  0  0  0  0  0  0  0  0  0  0
   21.5584   15.1562   21.3217 H   0  0  0  0  0  0  0  0  0  0  0  0
   20.1548   15.2773   20.4634 H   0  0  0  0  0  0  0  0  0  0  0  0
   20.2873   14.1689   21.6756 H   0  0  0  0  0  0  0  0  0  0  0  0
  1  2  1  0  0  0  0
  1  3  1  0  0  0  0
  1  4  1  0  0  0  0
  1  5  1  0  0  0  0
  5  6  1  0  0  0  0
  5  7  1  0  0  0  0
  5  8  1  0  0  0  0
  8  9  1  0  0  0  0
  8 10  1  0  0  0  0
  8 11  1  0  0  0  0
 11 12  1  0  0  0  0
 11 13  1  0  0  0  0
 11 14  1  0  0  0  0
 14 15  1  0  0  0  0
 14 16  1  0  0  0  0
 14 17  1  0  0  0  0
 17 18  1  0  0  0  0
 17 19  1  0  0  0  0
 17 20  1  0  0  0  0
 20 21  1  0  0  0  0
 20 22  1  0  0  0  0
 20 23  1  0  0  0  0
 23 24  1  0  0  0  0
 23 25  1  0  0  0  0
 23 26  1  0  0  0  0
M  END
> <VConfSearch Rank>
984

> <Conf_Id>
37

> <Delta U+W>
0.565

> <U+W>
-4.988

> <U>
48.035

> <W>
-53.022

> <W(PB)>
-55.379

> <W(SA)>
2.357

> <Valence>
2.701

> <Coulomb>
44.622

> <VdW>
0.712

> <VdW6>
-6.418

> <VdW12>
7.129

> <Bond>
0.168

> <Angle>
0.659

> <Pdih>
1.875

> <Idih>
0.000

> <Tether>
0.000

$$$$
VeraChem MOL file


 26 25  0  0  0  0  0  0  0  0999 V2000     
   22.5345   20.9266   20.9691 C   0  0  0  0  0  0  0  0  0  0  0  0
   22.3689   21.6976   21.7329 H   0  0  0  0  0  0  0  0  0  0  0  0
   23.4079   20.3320   21.2672 H   0  0  0  0  0  0  0  0  0  0  0  0
   22.7776   21.4332   20.0261 H   0  0  0  0  0  0  0  0  0  0  0  0
   21.2865   20.0339   20.8021 C   0  0  0  0  0  0  0  0  0  0  0  0
   21.4702   19.2962   20.0084 H   0  0  0  0  0  0  0  0  0  0  0  0
   20.4387   20.6504   20.4720 H   0  0  0  0  0  0  0  0  0  0  0  0
   20.9225   19.3077   22.1161 C   0  0  0  0  0  0  0  0  0  0  0  0
   21.7721   18.6913   22.4408 H   0  0  0  0  0  0  0  0  0  0  0  0
   20.7509   20.0549   22.9018 H   0  0  0  0  0  0  0  0  0  0  0  0
   19.6687   18.4154   21.9506 C   0  0  0  0  0  0  0  0  0  0  0  0
   19.8290   17.7263   21.1099 H   0  0  0  0  0  0  0  0  0  0  0  0
   18.8044   19.0371   21.6790 H   0  0  0  0  0  0  0  0  0  0  0  0
   19.3316   17.5805   23.2105 C   0  0  0  0  0  0  0  0  0  0  0  0
   18.5065   16.8974   22.9651 H   0  0  0  0  0  0  0  0  0  0  0  0
   20.1896   16.9457   23.4722 H   0  0  0  0  0  0  0  0  0  0  0  0
   18.9260   18.4385   24.4320 C   0  0  0  0  0  0  0  0  0  0  0  0
   18.1016   19.1091   24.1556 H   0  0  0  0  0  0  0  0  0  0  0  0
   19.7664   19.0700   24.7466 H   0  0  0  0  0  0  0  0  0  0  0  0
   18.4922   17.5566   25.6161 C   0  0  0  0  0  0  0  0  0  0  0  0
   17.6424   16.9354   25.3206 H   0  0  0  0  0  0  0  0  0  0  0  0
   19.3156   16.8981   25.9057 H   0  0  0  0  0  0  0  0  0  0  0  0
   18.0836   18.3582   26.8352 N   0  3  0  0  0  0  0  0  0  0  0  0
   17.2930   18.9801   26.6362 H   0  0  0  0  0  0  0  0  0  0  0  0
   18.8497   18.9450   27.1814 H   0  0  0  0  0  0  0  0  0  0  0  0
   17.7980   17.7516   27.6116 H   0  0  0  0  0  0  0  0  0  0  0  0
  1  2  1  0  0  0  0
  1  3  1  0  0  0  0
  1  4  1  0  0  0  0
  1  5  1  0  0  0  0
  5  6  1  0  0  0  0
  5  7  1  0  0  0  0
  5  8  1  0  0  0  0
  8  9  1  0  0  0  0
  8 10  1  0  0  0  0
  8 11  1  0  0  0  0
 11 12  1  0  0  0  0
 11 13  1  0  0  0  0
 11 14  1  0  0  0  0
 14 15  1  0  0  0  0
 14 16  1  0  0  0  0
 14 17  1  0  0  0  0
 17 18  1  0  0  0  0
 17 19  1  0  0  0  0
 17 20  1  0  0  0  0
 20 21  1  0  0  0  0
 20 22  1  0  0  0  0
 20 23  1  0  0  0  0
 23 24  1  0  0  0  0
 23 25  1  0  0  0  0
 23 26  1  0  0  0  0
M  END
> <VConfSearch Rank>
985

> <Conf_Id>
35

> <Delta U+W>
0.587

> <U+W>
-4.965

> <U>
48.214

> <W>
-53.179

> <W(PB)>
-55.527

> <W(SA)>
2.348

> <Valence>
2.697

> <Coulomb>
44.819

> <VdW>
0.699

> <VdW6>
-6.437

> <VdW12>
7.136

> <Bond>
0.168

> <Angle>
0.657

> <Pdih>
1.872

> <Idih>
0.000

> <Tether>
0.000

$$$$
VeraChem MOL file


 26 25  0  0  0  0  0  0  0  0999 V2000     
   20.3335   22.3346   21.0656 C   0  0  0  0  0  0  0  0  0  0  0  0
   19.7963   22.9643   21.7868 H   0  0  0  0  0  0  0  0  0  0  0  0
   21.3836   22.2741   21.3800 H   0  0  0  0  0  0  0  0  0  0  0  0
   20.3022   22.8374   20.0903 H   0  0  0  0  0  0  0  0  0  0  0  0
   19.6996   20.9302   20.9752 C   0  0  0  0  0  0  0  0  0  0  0  0
   20.2367   20.3354   20.2232 H   0  0  0  0  0  0  0  0  0  0  0  0
   18.6617   21.0211   20.6254 H   0  0  0  0  0  0  0  0  0  0  0  0
   19.7299   20.2000   22.3362 C   0  0  0  0  0  0  0  0  0  0  0  0
   20.7704   20.1242   22.6781 H   0  0  0  0  0  0  0  0  0  0  0  0
   19.1902   20.7974   23.0839 H   0  0  0  0  0  0  0  0  0  0  0  0
   19.0981   18.7900   22.2455 C   0  0  0  0  0  0  0  0  0  0  0  0
   19.6692   18.1725   21.5385 H   0  0  0  0  0  0  0  0  0  0  0  0
   18.0852   18.8785   21.8289 H   0  0  0  0  0  0  0  0  0  0  0  0
   19.0045   18.0640   23.6101 C   0  0  0  0  0  0  0  0  0  0  0  0
   18.4186   18.6733   24.3122 H   0  0  0  0  0  0  0  0  0  0  0  0
   18.4427   17.1300   23.4698 H   0  0  0  0  0  0  0  0  0  0  0  0
   20.3818   17.7324   24.2312 C   0  0  0  0  0  0  0  0  0  0  0  0
   20.9275   18.6571   24.4570 H   0  0  0  0  0  0  0  0  0  0  0  0
   20.9862   17.1666   23.5098 H   0  0  0  0  0  0  0  0  0  0  0  0
   20.2298   16.9126   25.5246 C   0  0  0  0  0  0  0  0  0  0  0  0
   19.6421   17.4788   26.2523 H   0  0  0  0  0  0  0  0  0  0  0  0
   19.7033   15.9789   25.3090 H   0  0  0  0  0  0  0  0  0  0  0  0
   21.5573   16.5633   26.1658 N   0  3  0  0  0  0  0  0  0  0  0  0
   22.0916   17.4008   26.4193 H   0  0  0  0  0  0  0  0  0  0  0  0
   22.1486   16.0055   25.5408 H   0  0  0  0  0  0  0  0  0  0  0  0
   21.4331   16.0170   27.0252 H   0  0  0  0  0  0  0  0  0  0  0  0
  1  2  1  0  0  0  0
  1  3  1  0  0  0  0
  1  4  1  0  0  0  0
  1  5  1  0  0  0  0
  5  6  1  0  0  0  0
  5  7  1  0  0  0  0
  5  8  1  0  0  0  0
  8  9  1  0  0  0  0
  8 10  1  0  0  0  0
  8 11  1  0  0  0  0
 11 12  1  0  0  0  0
 11 13  1  0  0  0  0
 11 14  1  0  0  0  0
 14 15  1  0  0  0  0
 14 16  1  0  0  0  0
 14 17  1  0  0  0  0
 17 18  1  0  0  0  0
 17 19  1  0  0  0  0
 17 20  1  0  0  0  0
 20 21  1  0  0  0  0
 20 22  1  0  0  0  0
 20 23  1  0  0  0  0
 23 24  1  0  0  0  0
 23 25  1  0  0  0  0
 23 26  1  0  0  0  0
M  END
> <VConfSearch Rank>
986

> <Conf_Id>
36

> <Delta U+W>
0.565

> <U+W>
-4.987

> <U>
48.214

> <W>
-53.201

> <W(PB)>
-55.543

> <W(SA)>
2.342

> <Valence>
2.697

> <Coulomb>
44.819

> <VdW>
0.698

> <VdW6>
-6.437

> <VdW12>
7.136

> <Bond>
0.168

> <Angle>
0.657

> <Pdih>
1.872

> <Idih>
0.000

> <Tether>
0.000

$$$$
VeraChem MOL file


 26 25  0  0  0  0  0  0  0  0999 V2000     
   17.9242   16.8597   20.1064 C   0  0  0  0  0  0  0  0  0  0  0  0
   17.2233   17.6287   19.7565 H   0  0  0  0  0  0  0  0  0  0  0  0
   18.2706   16.2958   19.2306 H   0  0  0  0  0  0  0  0  0  0  0  0
   17.3749   16.1671   20.7574 H   0  0  0  0  0  0  0  0  0  0  0  0
   19.1170   17.4943   20.8526 C   0  0  0  0  0  0  0  0  0  0  0  0
   19.6661   18.1549   20.1670 H   0  0  0  0  0  0  0  0  0  0  0  0
   19.8165   16.7044   21.1601 H   0  0  0  0  0  0  0  0  0  0  0  0
   18.6566   18.2947   22.0911 C   0  0  0  0  0  0  0  0  0  0  0  0
   17.9554   19.0809   21.7787 H   0  0  0  0  0  0  0  0  0  0  0  0
   18.1066   17.6308   22.7725 H   0  0  0  0  0  0  0  0  0  0  0  0
   19.8482   18.9321   22.8408 C   0  0  0  0  0  0  0  0  0  0  0  0
   20.3957   19.5977   22.1591 H   0  0  0  0  0  0  0  0  0  0  0  0
   20.5475   18.1415   23.1443 H   0  0  0  0  0  0  0  0  0  0  0  0
   19.3840   19.7320   24.0817 C   0  0  0  0  0  0  0  0  0  0  0  0
   18.6484   20.4868   23.7705 H   0  0  0  0  0  0  0  0  0  0  0  0
   18.8648   19.0626   24.7816 H   0  0  0  0  0  0  0  0  0  0  0  0
   20.5452   20.4441   24.8145 C   0  0  0  0  0  0  0  0  0  0  0  0
   20.1314   21.0587   25.6250 H   0  0  0  0  0  0  0  0  0  0  0  0
   21.0502   21.1329   24.1241 H   0  0  0  0  0  0  0  0  0  0  0  0
   21.5706   19.4578   25.4043 C   0  0  0  0  0  0  0  0  0  0  0  0
   21.0683   18.7727   26.0925 H   0  0  0  0  0  0  0  0  0  0  0  0
   22.0230   18.8697   24.6017 H   0  0  0  0  0  0  0  0  0  0  0  0
   22.6875   20.1463   26.1618 N   0  3  0  0  0  0  0  0  0  0  0  0
   23.3589   19.4727   26.5463 H   0  0  0  0  0  0  0  0  0  0  0  0
   22.3318   20.6962   26.9507 H   0  0  0  0  0  0  0  0  0  0  0  0
   23.2177   20.7870   25.5622 H   0  0  0  0  0  0  0  0  0  0  0  0
  1  2  1  0  0  0  0
  1  3  1  0  0  0  0
  1  4  1  0  0  0  0
  1  5  1  0  0  0  0
  5  6  1  0  0  0  0
  5  7  1  0  0  0  0
  5  8  1  0  0  0  0
  8  9  1  0  0  0  0
  8 10  1  0  0  0  0
  8 11  1  0  0  0  0
 11 12  1  0  0  0  0
 11 13  1  0  0  0  0
 11 14  1  0  0  0  0
 14 15  1  0  0  0  0
 14 16  1  0  0  0  0
 14 17  1  0  0  0  0
 17 18  1  0  0  0  0
 17 19  1  0  0  0  0
 17 20  1  0  0  0  0
 20 21  1  0  0  0  0
 20 22  1  0  0  0  0
 20 23  1  0  0  0  0
 23 24  1  0  0  0  0
 23 25  1  0  0  0  0
 23 26  1  0  0  0  0
M  END
> <VConfSearch Rank>
987

> <Conf_Id>
44

> <Delta U+W>
0.371

> <U+W>
-5.181

> <U>
48.002

> <W>
-53.183

> <W(PB)>
-55.533

> <W(SA)>
2.350

> <Valence>
2.459

> <Coulomb>
44.901

> <VdW>
0.643

> <VdW6>
-6.362

> <VdW12>
7.005

> <Bond>
0.151

> <Angle>
0.519

> <Pdih>
1.789

> <Idih>
0.000

> <Tether>
0.000

$$$$
VeraChem MOL file


 26 25  0  0  0  0  0  0  0  0999 V2000     
   16.9567   17.7379   25.4911 C   0  0  0  0  0  0  0  0  0  0  0  0
   17.2121   18.4164   26.3153 H   0  0  0  0  0  0  0  0  0  0  0  0
   15.9476   17.3483   25.6780 H   0  0  0  0  0  0  0  0  0  0  0  0
   17.6479   16.8866   25.5189 H   0  0  0  0  0  0  0  0  0  0  0  0
   17.0095   18.4704   24.1310 C   0  0  0  0  0  0  0  0  0  0  0  0
   16.2128   19.2271   24.1076 H   0  0  0  0  0  0  0  0  0  0  0  0
   16.7849   17.7631   23.3205 H   0  0  0  0  0  0  0  0  0  0  0  0
   18.3635   19.1689   23.8567 C   0  0  0  0  0  0  0  0  0  0  0  0
   18.2551   19.7690   22.9445 H   0  0  0  0  0  0  0  0  0  0  0  0
   18.5823   19.8756   24.6690 H   0  0  0  0  0  0  0  0  0  0  0  0
   19.5453   18.1796   23.6908 C   0  0  0  0  0  0  0  0  0  0  0  0
   19.3286   17.4752   22.8760 H   0  0  0  0  0  0  0  0  0  0  0  0
   19.6449   17.5762   24.6022 H   0  0  0  0  0  0  0  0  0  0  0  0
   20.9047   18.8742   23.4287 C   0  0  0  0  0  0  0  0  0  0  0  0
   21.1143   19.5891   24.2365 H   0  0  0  0  0  0  0  0  0  0  0  0
   21.6921   18.1108   23.4809 H   0  0  0  0  0  0  0  0  0  0  0  0
   20.9808   19.5954   22.0593 C   0  0  0  0  0  0  0  0  0  0  0  0
   20.2286   20.3924   22.0150 H   0  0  0  0  0  0  0  0  0  0  0  0
   20.7433   18.8927   21.2496 H   0  0  0  0  0  0  0  0  0  0  0  0
   22.3601   20.2315   21.7991 C   0  0  0  0  0  0  0  0  0  0  0  0
   22.3239   20.8064   20.8697 H   0  0  0  0  0  0  0  0  0  0  0  0
   22.6093   20.9166   22.6140 H   0  0  0  0  0  0  0  0  0  0  0  0
   23.4852   19.2232   21.6704 N   0  3  0  0  0  0  0  0  0  0  0  0
   23.6010   18.6716   22.5260 H   0  0  0  0  0  0  0  0  0  0  0  0
   24.3850   19.6789   21.4831 H   0  0  0  0  0  0  0  0  0  0  0  0
   23.3189   18.5629   20.9040 H   0  0  0  0  0  0  0  0  0  0  0  0
  1  2  1  0  0  0  0
  1  3  1  0  0  0  0
  1  4  1  0  0  0  0
  1  5  1  0  0  0  0
  5  6  1  0  0  0  0
  5  7  1  0  0  0  0
  5  8  1  0  0  0  0
  8  9  1  0  0  0  0
  8 10  1  0  0  0  0
  8 11  1  0  0  0  0
 11 12  1  0  0  0  0
 11 13  1  0  0  0  0
 11 14  1  0  0  0  0
 14 15  1  0  0  0  0
 14 16  1  0  0  0  0
 14 17  1  0  0  0  0
 17 18  1  0  0  0  0
 17 19  1  0  0  0  0
 17 20  1  0  0  0  0
 20 21  1  0  0  0  0
 20 22  1  0  0  0  0
 20 23  1  0  0  0  0
 23 24  1  0  0  0  0
 23 25  1  0  0  0  0
 23 26  1  0  0  0  0
M  END
> <VConfSearch Rank>
988

> <Conf_Id>
112

> <Delta U+W>
1.422

> <U+W>
-4.130

> <U>
49.323

> <W>
-53.453

> <W(PB)>
-55.749

> <W(SA)>
2.296

> <Valence>
3.408

> <Coulomb>
44.893

> <VdW>
1.021

> <VdW6>
-7.481

> <VdW12>
8.503

> <Bond>
0.239

> <Angle>
1.013

> <Pdih>
2.156

> <Idih>
0.000

> <Tether>
0.000

$$$$
VeraChem MOL file


 26 25  0  0  0  0  0  0  0  0999 V2000     
   23.1008   20.7234   24.0356 C   0  0  0  0  0  0  0  0  0  0  0  0
   23.8890   21.4709   24.1936 H   0  0  0  0  0  0  0  0  0  0  0  0
   22.6198   20.5413   25.0046 H   0  0  0  0  0  0  0  0  0  0  0  0
   23.5818   19.7921   23.7095 H   0  0  0  0  0  0  0  0  0  0  0  0
   22.0851   21.2224   22.9831 C   0  0  0  0  0  0  0  0  0  0  0  0
   22.6289   21.5011   22.0696 H   0  0  0  0  0  0  0  0  0  0  0  0
   21.5998   22.1401   23.3439 H   0  0  0  0  0  0  0  0  0  0  0  0
   21.0104   20.1693   22.6204 C   0  0  0  0  0  0  0  0  0  0  0  0
   20.3962   20.5655   21.8000 H   0  0  0  0  0  0  0  0  0  0  0  0
   21.5071   19.2707   22.2319 H   0  0  0  0  0  0  0  0  0  0  0  0
   20.0894   19.7983   23.8103 C   0  0  0  0  0  0  0  0  0  0  0  0
   19.7055   20.7214   24.2659 H   0  0  0  0  0  0  0  0  0  0  0  0
   20.6688   19.2858   24.5896 H   0  0  0  0  0  0  0  0  0  0  0  0
   18.8848   18.9128   23.4069 C   0  0  0  0  0  0  0  0  0  0  0  0
   18.2312   18.8055   24.2826 H   0  0  0  0  0  0  0  0  0  0  0  0
   18.2904   19.4275   22.6393 H   0  0  0  0  0  0  0  0  0  0  0  0
   19.2946   17.5090   22.8951 C   0  0  0  0  0  0  0  0  0  0  0  0
   19.9098   16.9983   23.6479 H   0  0  0  0  0  0  0  0  0  0  0  0
   19.9155   17.6079   21.9961 H   0  0  0  0  0  0  0  0  0  0  0  0
   18.0809   16.6285   22.5397 C   0  0  0  0  0  0  0  0  0  0  0  0
   17.4563   17.1422   21.8039 H   0  0  0  0  0  0  0  0  0  0  0  0
   18.4305   15.6924   22.0956 H   0  0  0  0  0  0  0  0  0  0  0  0
   17.2118   16.2742   23.7305 N   0  3  0  0  0  0  0  0  0  0  0  0
   16.8174   17.1090   24.1749 H   0  0  0  0  0  0  0  0  0  0  0  0
   17.7391   15.7682   24.4495 H   0  0  0  0  0  0  0  0  0  0  0  0
   16.4228   15.6764   23.4614 H   0  0  0  0  0  0  0  0  0  0  0  0
  1  2  1  0  0  0  0
  1  3  1  0  0  0  0
  1  4  1  0  0  0  0
  1  5  1  0  0  0  0
  5  6  1  0  0  0  0
  5  7  1  0  0  0  0
  5  8  1  0  0  0  0
  8  9  1  0  0  0  0
  8 10  1  0  0  0  0
  8 11  1  0  0  0  0
 11 12  1  0  0  0  0
 11 13  1  0  0  0  0
 11 14  1  0  0  0  0
 14 15  1  0  0  0  0
 14 16  1  0  0  0  0
 14 17  1  0  0  0  0
 17 18  1  0  0  0  0
 17 19  1  0  0  0  0
 17 20  1  0  0  0  0
 20 21  1  0  0  0  0
 20 22  1  0  0  0  0
 20 23  1  0  0  0  0
 23 24  1  0  0  0  0
 23 25  1  0  0  0  0
 23 26  1  0  0  0  0
M  END
> <VConfSearch Rank>
989

> <Conf_Id>
130

> <Delta U+W>
1.282

> <U+W>
-4.270

> <U>
49.153

> <W>
-53.422

> <W(PB)>
-55.725

> <W(SA)>
2.303

> <Valence>
3.298

> <Coulomb>
44.907

> <VdW>
0.948

> <VdW6>
-7.574

> <VdW12>
8.522

> <Bond>
0.229

> <Angle>
0.912

> <Pdih>
2.157

> <Idih>
0.000

> <Tether>
0.000

$$$$
VeraChem MOL file


 26 25  0  0  0  0  0  0  0  0999 V2000     
   20.4301   18.1983   19.9661 C   0  0  0  0  0  0  0  0  0  0  0  0
   21.5089   18.1294   19.7749 H   0  0  0  0  0  0  0  0  0  0  0  0
   19.9118   18.1149   19.0021 H   0  0  0  0  0  0  0  0  0  0  0  0
   20.2151   19.1949   20.3714 H   0  0  0  0  0  0  0  0  0  0  0  0
   19.9645   17.0832   20.9294 C   0  0  0  0  0  0  0  0  0  0  0  0
   20.0893   16.1114   20.4316 H   0  0  0  0  0  0  0  0  0  0  0  0
   18.8881   17.1847   21.1217 H   0  0  0  0  0  0  0  0  0  0  0  0
   20.7486   17.0557   22.2664 C   0  0  0  0  0  0  0  0  0  0  0  0
   20.3750   16.2233   22.8785 H   0  0  0  0  0  0  0  0  0  0  0  0
   21.8011   16.8229   22.0540 H   0  0  0  0  0  0  0  0  0  0  0  0
   20.6885   18.3614   23.1009 C   0  0  0  0  0  0  0  0  0  0  0  0
   21.1548   19.1838   22.5425 H   0  0  0  0  0  0  0  0  0  0  0  0
   21.3060   18.2173   23.9971 H   0  0  0  0  0  0  0  0  0  0  0  0
   19.2517   18.7617   23.5217 C   0  0  0  0  0  0  0  0  0  0  0  0
   18.6413   18.9354   22.6260 H   0  0  0  0  0  0  0  0  0  0  0  0
   18.7793   17.9322   24.0658 H   0  0  0  0  0  0  0  0  0  0  0  0
   19.2083   20.0407   24.3908 C   0  0  0  0  0  0  0  0  0  0  0  0
   18.1598   20.3204   24.5593 H   0  0  0  0  0  0  0  0  0  0  0  0
   19.6720   20.8734   23.8454 H   0  0  0  0  0  0  0  0  0  0  0  0
   19.9042   19.8611   25.7532 C   0  0  0  0  0  0  0  0  0  0  0  0
   19.4430   19.0311   26.2952 H   0  0  0  0  0  0  0  0  0  0  0  0
   20.9614   19.6289   25.6020 H   0  0  0  0  0  0  0  0  0  0  0  0
   19.8208   21.0950   26.6283 N   0  3  0  0  0  0  0  0  0  0  0  0
   20.2618   21.9079   26.1857 H   0  0  0  0  0  0  0  0  0  0  0  0
   20.2895   20.9550   27.5300 H   0  0  0  0  0  0  0  0  0  0  0  0
   18.8500   21.3529   26.8337 H   0  0  0  0  0  0  0  0  0  0  0  0
  1  2  1  0  0  0  0
  1  3  1  0  0  0  0
  1  4  1  0  0  0  0
  1  5  1  0  0  0  0
  5  6  1  0  0  0  0
  5  7  1  0  0  0  0
  5  8  1  0  0  0  0
  8  9  1  0  0  0  0
  8 10  1  0  0  0  0
  8 11  1  0  0  0  0
 11 12  1  0  0  0  0
 11 13  1  0  0  0  0
 11 14  1  0  0  0  0
 14 15  1  0  0  0  0
 14 16  1  0  0  0  0
 14 17  1  0  0  0  0
 17 18  1  0  0  0  0
 17 19  1  0  0  0  0
 17 20  1  0  0  0  0
 20 21  1  0  0  0  0
 20 22  1  0  0  0  0
 20 23  1  0  0  0  0
 23 24  1  0  0  0  0
 23 25  1  0  0  0  0
 23 26  1  0  0  0  0
M  END
> <VConfSearch Rank>
990

> <Conf_Id>
111

> <Delta U+W>
1.290

> <U+W>
-4.262

> <U>
49.209

> <W>
-53.471

> <W(PB)>
-55.745

> <W(SA)>
2.274

> <Valence>
3.465

> <Coulomb>
44.958

> <VdW>
0.786

> <VdW6>
-7.903

> <VdW12>
8.689

> <Bond>
0.237

> <Angle>
1.212

> <Pdih>
2.015

> <Idih>
0.000

> <Tether>
0.000

$$$$
VeraChem MOL file


 26 25  0  0  0  0  0  0  0  0999 V2000     
   19.6991   21.6237   26.2736 C   0  0  0  0  0  0  0  0  0  0  0  0
   19.5816   20.8301   27.0231 H   0  0  0  0  0  0  0  0  0  0  0  0
   20.5984   22.2010   26.5249 H   0  0  0  0  0  0  0  0  0  0  0  0
   18.8344   22.2951   26.3552 H   0  0  0  0  0  0  0  0  0  0  0  0
   19.7978   21.0327   24.8512 C   0  0  0  0  0  0  0  0  0  0  0  0
   19.8848   21.8506   24.1224 H   0  0  0  0  0  0  0  0  0  0  0  0
   18.8658   20.4992   24.6221 H   0  0  0  0  0  0  0  0  0  0  0  0
   21.0079   20.0788   24.7131 C   0  0  0  0  0  0  0  0  0  0  0  0
   21.9181   20.6102   25.0237 H   0  0  0  0  0  0  0  0  0  0  0  0
   20.8939   19.2331   25.4052 H   0  0  0  0  0  0  0  0  0  0  0  0
   21.2177   19.5474   23.2738 C   0  0  0  0  0  0  0  0  0  0  0  0
   22.1580   18.9793   23.2470 H   0  0  0  0  0  0  0  0  0  0  0  0
   21.3491   20.3936   22.5854 H   0  0  0  0  0  0  0  0  0  0  0  0
   20.0672   18.6405   22.7747 C   0  0  0  0  0  0  0  0  0  0  0  0
   19.9033   17.8323   23.4998 H   0  0  0  0  0  0  0  0  0  0  0  0
   19.1338   19.2158   22.7187 H   0  0  0  0  0  0  0  0  0  0  0  0
   20.3744   18.0424   21.3813 C   0  0  0  0  0  0  0  0  0  0  0  0
   21.2857   17.4313   21.4259 H   0  0  0  0  0  0  0  0  0  0  0  0
   20.5775   18.8568   20.6732 H   0  0  0  0  0  0  0  0  0  0  0  0
   19.2132   17.1937   20.8285 C   0  0  0  0  0  0  0  0  0  0  0  0
   18.3027   17.7976   20.7876 H   0  0  0  0  0  0  0  0  0  0  0  0
   19.4530   16.8691   19.8123 H   0  0  0  0  0  0  0  0  0  0  0  0
   18.9188   15.9536   21.6497 N   0  3  0  0  0  0  0  0  0  0  0  0
   18.1504   15.4050   21.2485 H   0  0  0  0  0  0  0  0  0  0  0  0
   18.6498   16.1891   22.6100 H   0  0  0  0  0  0  0  0  0  0  0  0
   19.7324   15.3325   21.7061 H   0  0  0  0  0  0  0  0  0  0  0  0
  1  2  1  0  0  0  0
  1  3  1  0  0  0  0
  1  4  1  0  0  0  0
  1  5  1  0  0  0  0
  5  6  1  0  0  0  0
  5  7  1  0  0  0  0
  5  8  1  0  0  0  0
  8  9  1  0  0  0  0
  8 10  1  0  0  0  0
  8 11  1  0  0  0  0
 11 12  1  0  0  0  0
 11 13  1  0  0  0  0
 11 14  1  0  0  0  0
 14 15  1  0  0  0  0
 14 16  1  0  0  0  0
 14 17  1  0  0  0  0
 17 18  1  0  0  0  0
 17 19  1  0  0  0  0
 17 20  1  0  0  0  0
 20 21  1  0  0  0  0
 20 22  1  0  0  0  0
 20 23  1  0  0  0  0
 23 24  1  0  0  0  0
 23 25  1  0  0  0  0
 23 26  1  0  0  0  0
M  END
> <VConfSearch Rank>
991

> <Conf_Id>
105

> <Delta U+W>
0.736

> <U+W>
-4.817

> <U>
48.735

> <W>
-53.552

> <W(PB)>
-55.889

> <W(SA)>
2.337

> <Valence>
2.803

> <Coulomb>
45.123

> <VdW>
0.809

> <VdW6>
-6.953

> <VdW12>
7.761

> <Bond>
0.188

> <Angle>
0.699

> <Pdih>
1.917

> <Idih>
0.000

> <Tether>
0.000

$$$$
VeraChem MOL file


 26 25  0  0  0  0  0  0  0  0999 V2000     
   18.3392   18.8084   26.6293 C   0  0  0  0  0  0  0  0  0  0  0  0
   17.4872   18.1396   26.8082 H   0  0  0  0  0  0  0  0  0  0  0  0
   19.2474   18.3099   26.9925 H   0  0  0  0  0  0  0  0  0  0  0  0
   18.1884   19.7142   27.2307 H   0  0  0  0  0  0  0  0  0  0  0  0
   18.4623   19.1625   25.1321 C   0  0  0  0  0  0  0  0  0  0  0  0
   19.2982   19.8623   24.9993 H   0  0  0  0  0  0  0  0  0  0  0  0
   17.5529   19.6856   24.8050 H   0  0  0  0  0  0  0  0  0  0  0  0
   18.6800   17.9012   24.2637 C   0  0  0  0  0  0  0  0  0  0  0  0
   19.6103   17.4003   24.5622 H   0  0  0  0  0  0  0  0  0  0  0  0
   17.8739   17.1835   24.4696 H   0  0  0  0  0  0  0  0  0  0  0  0
   18.6963   18.1902   22.7401 C   0  0  0  0  0  0  0  0  0  0  0  0
   17.7100   18.5711   22.4411 H   0  0  0  0  0  0  0  0  0  0  0  0
   18.8260   17.2406   22.2028 H   0  0  0  0  0  0  0  0  0  0  0  0
   19.7807   19.1902   22.2613 C   0  0  0  0  0  0  0  0  0  0  0  0
   19.6705   19.3145   21.1760 H   0  0  0  0  0  0  0  0  0  0  0  0
   19.5971   20.1809   22.6978 H   0  0  0  0  0  0  0  0  0  0  0  0
   21.2268   18.7366   22.5826 C   0  0  0  0  0  0  0  0  0  0  0  0
   21.4099   17.7377   22.1650 H   0  0  0  0  0  0  0  0  0  0  0  0
   21.3560   18.6526   23.6689 H   0  0  0  0  0  0  0  0  0  0  0  0
   22.2893   19.7189   22.0529 C   0  0  0  0  0  0  0  0  0  0  0  0
   22.0980   20.7187   22.4520 H   0  0  0  0  0  0  0  0  0  0  0  0
   23.2784   19.3999   22.3925 H   0  0  0  0  0  0  0  0  0  0  0  0
   22.3334   19.8157   20.5404 N   0  3  0  0  0  0  0  0  0  0  0  0
   21.4441   20.1477   20.1547 H   0  0  0  0  0  0  0  0  0  0  0  0
   22.5323   18.9084   20.1066 H   0  0  0  0  0  0  0  0  0  0  0  0
   23.0601   20.4658   20.2216 H   0  0  0  0  0  0  0  0  0  0  0  0
  1  2  1  0  0  0  0
  1  3  1  0  0  0  0
  1  4  1  0  0  0  0
  1  5  1  0  0  0  0
  5  6  1  0  0  0  0
  5  7  1  0  0  0  0
  5  8  1  0  0  0  0
  8  9  1  0  0  0  0
  8 10  1  0  0  0  0
  8 11  1  0  0  0  0
 11 12  1  0  0  0  0
 11 13  1  0  0  0  0
 11 14  1  0  0  0  0
 14 15  1  0  0  0  0
 14 16  1  0  0  0  0
 14 17  1  0  0  0  0
 17 18  1  0  0  0  0
 17 19  1  0  0  0  0
 17 20  1  0  0  0  0
 20 21  1  0  0  0  0
 20 22  1  0  0  0  0
 20 23  1  0  0  0  0
 23 24  1  0  0  0  0
 23 25  1  0  0  0  0
 23 26  1  0  0  0  0
M  END
> <VConfSearch Rank>
992

> <Conf_Id>
144

> <Delta U+W>
1.073

> <U+W>
-4.479

> <U>
49.231

> <W>
-53.710

> <W(PB)>
-55.983

> <W(SA)>
2.273

> <Valence>
3.276

> <Coulomb>
45.175

> <VdW>
0.779

> <VdW6>
-7.944

> <VdW12>
8.723

> <Bond>
0.239

> <Angle>
1.155

> <Pdih>
1.883

> <Idih>
0.000

> <Tether>
0.000

$$$$
VeraChem MOL file


 26 25  0  0  0  0  0  0  0  0999 V2000     
   21.1205   22.2301   24.2858 C   0  0  0  0  0  0  0  0  0  0  0  0
   20.9845   21.9293   25.3317 H   0  0  0  0  0  0  0  0  0  0  0  0
   21.8721   23.0299   24.2691 H   0  0  0  0  0  0  0  0  0  0  0  0
   20.1742   22.6520   23.9229 H   0  0  0  0  0  0  0  0  0  0  0  0
   21.5747   21.0442   23.4044 C   0  0  0  0  0  0  0  0  0  0  0  0
   22.5041   20.6173   23.8065 H   0  0  0  0  0  0  0  0  0  0  0  0
   21.8200   21.4252   22.4032 H   0  0  0  0  0  0  0  0  0  0  0  0
   20.5055   19.9337   23.2619 C   0  0  0  0  0  0  0  0  0  0  0  0
   19.5722   20.3691   22.8796 H   0  0  0  0  0  0  0  0  0  0  0  0
   20.8603   19.2255   22.5027 H   0  0  0  0  0  0  0  0  0  0  0  0
   20.2306   19.1680   24.5801 C   0  0  0  0  0  0  0  0  0  0  0  0
   19.9743   19.8824   25.3725 H   0  0  0  0  0  0  0  0  0  0  0  0
   21.1514   18.6662   24.9077 H   0  0  0  0  0  0  0  0  0  0  0  0
   19.0811   18.1304   24.4936 C   0  0  0  0  0  0  0  0  0  0  0  0
   18.9593   17.6881   25.4922 H   0  0  0  0  0  0  0  0  0  0  0  0
   18.1308   18.6375   24.2760 H   0  0  0  0  0  0  0  0  0  0  0  0
   19.3122   16.9794   23.4821 C   0  0  0  0  0  0  0  0  0  0  0  0
   18.7735   16.0900   23.8354 H   0  0  0  0  0  0  0  0  0  0  0  0
   20.3758   16.7074   23.4555 H   0  0  0  0  0  0  0  0  0  0  0  0
   18.8068   17.3119   22.0645 C   0  0  0  0  0  0  0  0  0  0  0  0
   17.7356   17.5280   22.0998 H   0  0  0  0  0  0  0  0  0  0  0  0
   19.3190   18.1941   21.6762 H   0  0  0  0  0  0  0  0  0  0  0  0
   19.0213   16.1808   21.0798 N   0  3  0  0  0  0  0  0  0  0  0  0
   18.5355   15.3255   21.3690 H   0  0  0  0  0  0  0  0  0  0  0  0
   20.0139   15.9445   20.9792 H   0  0  0  0  0  0  0  0  0  0  0  0
   18.6744   16.4189   20.1442 H   0  0  0  0  0  0  0  0  0  0  0  0
  1  2  1  0  0  0  0
  1  3  1  0  0  0  0
  1  4  1  0  0  0  0
  1  5  1  0  0  0  0
  5  6  1  0  0  0  0
  5  7  1  0  0  0  0
  5  8  1  0  0  0  0
  8  9  1  0  0  0  0
  8 10  1  0  0  0  0
  8 11  1  0  0  0  0
 11 12  1  0  0  0  0
 11 13  1  0  0  0  0
 11 14  1  0  0  0  0
 14 15  1  0  0  0  0
 14 16  1  0  0  0  0
 14 17  1  0  0  0  0
 17 18  1  0  0  0  0
 17 19  1  0  0  0  0
 17 20  1  0  0  0  0
 20 21  1  0  0  0  0
 20 22  1  0  0  0  0
 20 23  1  0  0  0  0
 23 24  1  0  0  0  0
 23 25  1  0  0  0  0
 23 26  1  0  0  0  0
M  END
> <VConfSearch Rank>
993

> <Conf_Id>
93

> <Delta U+W>
3.253

> <U+W>
-2.300

> <U>
51.609

> <W>
-53.909

> <W(PB)>
-56.178

> <W(SA)>
2.270

> <Valence>
5.204

> <Coulomb>
45.645

> <VdW>
0.760

> <VdW6>
-7.997

> <VdW12>
8.758

> <Bond>
0.240

> <Angle>
1.456

> <Pdih>
3.507

> <Idih>
0.000

> <Tether>
0.000

$$$$
VeraChem MOL file


 26 25  0  0  0  0  0  0  0  0999 V2000     
   23.3093   20.5009   22.6009 C   0  0  0  0  0  0  0  0  0  0  0  0
   22.7869   21.2715   22.0211 H   0  0  0  0  0  0  0  0  0  0  0  0
   23.3575   20.8303   23.6469 H   0  0  0  0  0  0  0  0  0  0  0  0
   24.3372   20.4436   22.2199 H   0  0  0  0  0  0  0  0  0  0  0  0
   22.6124   19.1261   22.4825 C   0  0  0  0  0  0  0  0  0  0  0  0
   23.2433   18.3701   22.9706 H   0  0  0  0  0  0  0  0  0  0  0  0
   22.5453   18.8336   21.4253 H   0  0  0  0  0  0  0  0  0  0  0  0
   21.2060   19.0874   23.1283 C   0  0  0  0  0  0  0  0  0  0  0  0
   20.8690   18.0432   23.1296 H   0  0  0  0  0  0  0  0  0  0  0  0
   21.2754   19.4008   24.1790 H   0  0  0  0  0  0  0  0  0  0  0  0
   20.1609   19.9563   22.3853 C   0  0  0  0  0  0  0  0  0  0  0  0
   20.0375   19.5797   21.3607 H   0  0  0  0  0  0  0  0  0  0  0  0
   20.5384   20.9821   22.2896 H   0  0  0  0  0  0  0  0  0  0  0  0
   18.7751   20.0288   23.0781 C   0  0  0  0  0  0  0  0  0  0  0  0
   18.8701   20.5082   24.0623 H   0  0  0  0  0  0  0  0  0  0  0  0
   18.1419   20.6998   22.4812 H   0  0  0  0  0  0  0  0  0  0  0  0
   18.0407   18.6715   23.2176 C   0  0  0  0  0  0  0  0  0  0  0  0
   18.2481   18.0379   22.3450 H   0  0  0  0  0  0  0  0  0  0  0  0
   16.9584   18.8576   23.2152 H   0  0  0  0  0  0  0  0  0  0  0  0
   18.3938   17.9258   24.5195 C   0  0  0  0  0  0  0  0  0  0  0  0
   19.4653   17.7217   24.5612 H   0  0  0  0  0  0  0  0  0  0  0  0
   18.1319   18.5479   25.3796 H   0  0  0  0  0  0  0  0  0  0  0  0
   17.6650   16.6052   24.6609 N   0  3  0  0  0  0  0  0  0  0  0  0
   16.6473   16.7292   24.6632 H   0  0  0  0  0  0  0  0  0  0  0  0
   17.9091   16.1268   25.5349 H   0  0  0  0  0  0  0  0  0  0  0  0
   17.8887   15.9612   23.8952 H   0  0  0  0  0  0  0  0  0  0  0  0
  1  2  1  0  0  0  0
  1  3  1  0  0  0  0
  1  4  1  0  0  0  0
  1  5  1  0  0  0  0
  5  6  1  0  0  0  0
  5  7  1  0  0  0  0
  5  8  1  0  0  0  0
  8  9  1  0  0  0  0
  8 10  1  0  0  0  0
  8 11  1  0  0  0  0
 11 12  1  0  0  0  0
 11 13  1  0  0  0  0
 11 14  1  0  0  0  0
 14 15  1  0  0  0  0
 14 16  1  0  0  0  0
 14 17  1  0  0  0  0
 17 18  1  0  0  0  0
 17 19  1  0  0  0  0
 17 20  1  0  0  0  0
 20 21  1  0  0  0  0
 20 22  1  0  0  0  0
 20 23  1  0  0  0  0
 23 24  1  0  0  0  0
 23 25  1  0  0  0  0
 23 26  1  0  0  0  0
M  END
> <VConfSearch Rank>
994

> <Conf_Id>
94

> <Delta U+W>
3.247

> <U+W>
-2.305

> <U>
51.609

> <W>
-53.914

> <W(PB)>
-56.221

> <W(SA)>
2.307

> <Valence>
5.204

> <Coulomb>
45.645

> <VdW>
0.760

> <VdW6>
-7.997

> <VdW12>
8.757

> <Bond>
0.240

> <Angle>
1.456

> <Pdih>
3.508

> <Idih>
0.000

> <Tether>
0.000

$$$$
VeraChem MOL file


 26 25  0  0  0  0  0  0  0  0999 V2000     
   17.5301   16.0811   24.6699 C   0  0  0  0  0  0  0  0  0  0  0  0
   16.8918   16.6295   25.3749 H   0  0  0  0  0  0  0  0  0  0  0  0
   17.0029   16.0182   23.7090 H   0  0  0  0  0  0  0  0  0  0  0  0
   17.6556   15.0601   25.0530 H   0  0  0  0  0  0  0  0  0  0  0  0
   18.8995   16.7742   24.5069 C   0  0  0  0  0  0  0  0  0  0  0  0
   19.5271   16.1851   23.8234 H   0  0  0  0  0  0  0  0  0  0  0  0
   19.4169   16.7919   25.4764 H   0  0  0  0  0  0  0  0  0  0  0  0
   18.7513   18.2145   23.9685 C   0  0  0  0  0  0  0  0  0  0  0  0
   18.2319   18.1919   23.0004 H   0  0  0  0  0  0  0  0  0  0  0  0
   18.1210   18.7981   24.6537 H   0  0  0  0  0  0  0  0  0  0  0  0
   20.1205   18.9119   23.8044 C   0  0  0  0  0  0  0  0  0  0  0  0
   20.7473   18.3193   23.1247 H   0  0  0  0  0  0  0  0  0  0  0  0
   20.6372   18.9369   24.7738 H   0  0  0  0  0  0  0  0  0  0  0  0
   19.9691   20.3537   23.2630 C   0  0  0  0  0  0  0  0  0  0  0  0
   19.4751   20.3325   22.2824 H   0  0  0  0  0  0  0  0  0  0  0  0
   19.3021   20.9197   23.9280 H   0  0  0  0  0  0  0  0  0  0  0  0
   21.3171   21.1103   23.1580 C   0  0  0  0  0  0  0  0  0  0  0  0
   21.7595   21.2018   24.1589 H   0  0  0  0  0  0  0  0  0  0  0  0
   21.1318   22.1354   22.8107 H   0  0  0  0  0  0  0  0  0  0  0  0
   22.3436   20.4388   22.2233 C   0  0  0  0  0  0  0  0  0  0  0  0
   23.2707   21.0184   22.2265 H   0  0  0  0  0  0  0  0  0  0  0  0
   22.5715   19.4330   22.5854 H   0  0  0  0  0  0  0  0  0  0  0  0
   21.8749   20.3262   20.7861 N   0  3  0  0  0  0  0  0  0  0  0  0
   21.6716   21.2449   20.3793 H   0  0  0  0  0  0  0  0  0  0  0  0
   21.0208   19.7651   20.7106 H   0  0  0  0  0  0  0  0  0  0  0  0
   22.5811   19.8831   20.1884 H   0  0  0  0  0  0  0  0  0  0  0  0
  1  2  1  0  0  0  0
  1  3  1  0  0  0  0
  1  4  1  0  0  0  0
  1  5  1  0  0  0  0
  5  6  1  0  0  0  0
  5  7  1  0  0  0  0
  5  8  1  0  0  0  0
  8  9  1  0  0  0  0
  8 10  1  0  0  0  0
  8 11  1  0  0  0  0
 11 12  1  0  0  0  0
 11 13  1  0  0  0  0
 11 14  1  0  0  0  0
 14 15  1  0  0  0  0
 14 16  1  0  0  0  0
 14 17  1  0  0  0  0
 17 18  1  0  0  0  0
 17 19  1  0  0  0  0
 17 20  1  0  0  0  0
 20 21  1  0  0  0  0
 20 22  1  0  0  0  0
 20 23  1  0  0  0  0
 23 24  1  0  0  0  0
 23 25  1  0  0  0  0
 23 26  1  0  0  0  0
M  END
> <VConfSearch Rank>
995

> <Conf_Id>
83

> <Delta U+W>
0.559

> <U+W>
-4.994

> <U>
48.668

> <W>
-53.661

> <W(PB)>
-55.972

> <W(SA)>
2.311

> <Valence>
2.543

> <Coulomb>
45.478

> <VdW>
0.646

> <VdW6>
-7.096

> <VdW12>
7.742

> <Bond>
0.176

> <Angle>
0.630

> <Pdih>
1.738

> <Idih>
0.000

> <Tether>
0.000

$$$$
VeraChem MOL file


 26 25  0  0  0  0  0  0  0  0999 V2000     
   22.8762   21.6860   22.6623 C   0  0  0  0  0  0  0  0  0  0  0  0
   23.6904   21.4382   21.9687 H   0  0  0  0  0  0  0  0  0  0  0  0
   22.2292   22.4293   22.1785 H   0  0  0  0  0  0  0  0  0  0  0  0
   23.3211   22.1533   23.5504 H   0  0  0  0  0  0  0  0  0  0  0  0
   22.0762   20.4251   23.0528 C   0  0  0  0  0  0  0  0  0  0  0  0
   21.3001   20.7066   23.7767 H   0  0  0  0  0  0  0  0  0  0  0  0
   22.7428   19.7136   23.5599 H   0  0  0  0  0  0  0  0  0  0  0  0
   21.4355   19.7510   21.8165 C   0  0  0  0  0  0  0  0  0  0  0  0
   20.7281   20.4446   21.3413 H   0  0  0  0  0  0  0  0  0  0  0  0
   22.2194   19.5530   21.0724 H   0  0  0  0  0  0  0  0  0  0  0  0
   20.7180   18.4171   22.1387 C   0  0  0  0  0  0  0  0  0  0  0  0
   21.4297   17.7190   22.6007 H   0  0  0  0  0  0  0  0  0  0  0  0
   20.4034   17.9554   21.1926 H   0  0  0  0  0  0  0  0  0  0  0  0
   19.4811   18.5844   23.0539 C   0  0  0  0  0  0  0  0  0  0  0  0
   19.7935   18.9782   24.0290 H   0  0  0  0  0  0  0  0  0  0  0  0
   18.7962   19.3225   22.6139 H   0  0  0  0  0  0  0  0  0  0  0  0
   18.7335   17.2449   23.2553 C   0  0  0  0  0  0  0  0  0  0  0  0
   19.4013   16.5074   23.7201 H   0  0  0  0  0  0  0  0  0  0  0  0
   18.4484   16.8364   22.2766 H   0  0  0  0  0  0  0  0  0  0  0  0
   17.4596   17.3958   24.1090 C   0  0  0  0  0  0  0  0  0  0  0  0
   16.7962   18.1356   23.6529 H   0  0  0  0  0  0  0  0  0  0  0  0
   16.9310   16.4393   24.1435 H   0  0  0  0  0  0  0  0  0  0  0  0
   17.7292   17.8232   25.5385 N   0  3  0  0  0  0  0  0  0  0  0  0
   18.1922   18.7363   25.5812 H   0  0  0  0  0  0  0  0  0  0  0  0
   18.3316   17.1541   26.0288 H   0  0  0  0  0  0  0  0  0  0  0  0
   16.8628   17.9003   26.0824 H   0  0  0  0  0  0  0  0  0  0  0  0
  1  2  1  0  0  0  0
  1  3  1  0  0  0  0
  1  4  1  0  0  0  0
  1  5  1  0  0  0  0
  5  6  1  0  0  0  0
  5  7  1  0  0  0  0
  5  8  1  0  0  0  0
  8  9  1  0  0  0  0
  8 10  1  0  0  0  0
  8 11  1  0  0  0  0
 11 12  1  0  0  0  0
 11 13  1  0  0  0  0
 11 14  1  0  0  0  0
 14 15  1  0  0  0  0
 14 16  1  0  0  0  0
 14 17  1  0  0  0  0
 17 18  1  0  0  0  0
 17 19  1  0  0  0  0
 17 20  1  0  0  0  0
 20 21  1  0  0  0  0
 20 22  1  0  0  0  0
 20 23  1  0  0  0  0
 23 24  1  0  0  0  0
 23 25  1  0  0  0  0
 23 26  1  0  0  0  0
M  END
> <VConfSearch Rank>
996

> <Conf_Id>
18

> <Delta U+W>
0.759

> <U+W>
-4.793

> <U>
48.945

> <W>
-53.738

> <W(PB)>
-56.051

> <W(SA)>
2.313

> <Valence>
2.802

> <Coulomb>
45.335

> <VdW>
0.807

> <VdW6>
-6.962

> <VdW12>
7.769

> <Bond>
0.189

> <Angle>
0.696

> <Pdih>
1.917

> <Idih>
0.000

> <Tether>
0.000

$$$$
VeraChem MOL file


 26 25  0  0  0  0  0  0  0  0999 V2000     
   21.1203   15.7322   21.2193 C   0  0  0  0  0  0  0  0  0  0  0  0
   20.2895   15.7270   20.5016 H   0  0  0  0  0  0  0  0  0  0  0  0
   22.0590   15.8091   20.6552 H   0  0  0  0  0  0  0  0  0  0  0  0
   21.1200   14.7671   21.7423 H   0  0  0  0  0  0  0  0  0  0  0  0
   20.9785   16.8961   22.2231 C   0  0  0  0  0  0  0  0  0  0  0  0
   21.8065   16.8575   22.9446 H   0  0  0  0  0  0  0  0  0  0  0  0
   20.0508   16.7615   22.7947 H   0  0  0  0  0  0  0  0  0  0  0  0
   20.9719   18.2679   21.5079 C   0  0  0  0  0  0  0  0  0  0  0  0
   21.8693   18.3460   20.8786 H   0  0  0  0  0  0  0  0  0  0  0  0
   20.1120   18.3263   20.8264 H   0  0  0  0  0  0  0  0  0  0  0  0
   20.9480   19.4741   22.4786 C   0  0  0  0  0  0  0  0  0  0  0  0
   21.0672   20.3947   21.8906 H   0  0  0  0  0  0  0  0  0  0  0  0
   21.8162   19.4228   23.1502 H   0  0  0  0  0  0  0  0  0  0  0  0
   19.6476   19.5730   23.3121 C   0  0  0  0  0  0  0  0  0  0  0  0
   18.7793   19.5714   22.6387 H   0  0  0  0  0  0  0  0  0  0  0  0
   19.5545   18.6908   23.9575 H   0  0  0  0  0  0  0  0  0  0  0  0
   19.6218   20.8523   24.1818 C   0  0  0  0  0  0  0  0  0  0  0  0
   19.7461   21.7330   23.5377 H   0  0  0  0  0  0  0  0  0  0  0  0
   20.4709   20.8511   24.8782 H   0  0  0  0  0  0  0  0  0  0  0  0
   18.3082   21.0092   24.9721 C   0  0  0  0  0  0  0  0  0  0  0  0
   18.3133   21.9686   25.4966 H   0  0  0  0  0  0  0  0  0  0  0  0
   17.4603   21.0026   24.2819 H   0  0  0  0  0  0  0  0  0  0  0  0
   18.0830   19.9223   26.0049 N   0  3  0  0  0  0  0  0  0  0  0  0
   18.8385   19.8926   26.6973 H   0  0  0  0  0  0  0  0  0  0  0  0
   18.0293   18.9942   25.5742 H   0  0  0  0  0  0  0  0  0  0  0  0
   17.2084   20.0643   26.5220 H   0  0  0  0  0  0  0  0  0  0  0  0
  1  2  1  0  0  0  0
  1  3  1  0  0  0  0
  1  4  1  0  0  0  0
  1  5  1  0  0  0  0
  5  6  1  0  0  0  0
  5  7  1  0  0  0  0
  5  8  1  0  0  0  0
  8  9  1  0  0  0  0
  8 10  1  0  0  0  0
  8 11  1  0  0  0  0
 11 12  1  0  0  0  0
 11 13  1  0  0  0  0
 11 14  1  0  0  0  0
 14 15  1  0  0  0  0
 14 16  1  0  0  0  0
 14 17  1  0  0  0  0
 17 18  1  0  0  0  0
 17 19  1  0  0  0  0
 17 20  1  0  0  0  0
 20 21  1  0  0  0  0
 20 22  1  0  0  0  0
 20 23  1  0  0  0  0
 23 24  1  0  0  0  0
 23 25  1  0  0  0  0
 23 26  1  0  0  0  0
M  END
> <VConfSearch Rank>
997

> <Conf_Id>
17

> <Delta U+W>
0.843

> <U+W>
-4.709

> <U>
48.945

> <W>
-53.653

> <W(PB)>
-55.991

> <W(SA)>
2.338

> <Valence>
2.802

> <Coulomb>
45.335

> <VdW>
0.807

> <VdW6>
-6.962

> <VdW12>
7.769

> <Bond>
0.189

> <Angle>
0.696

> <Pdih>
1.917

> <Idih>
0.000

> <Tether>
0.000

$$$$
VeraChem MOL file


 26 25  0  0  0  0  0  0  0  0999 V2000     
   17.4066   20.9541   22.1586 C   0  0  0  0  0  0  0  0  0  0  0  0
   18.4445   21.2966   22.2531 H   0  0  0  0  0  0  0  0  0  0  0  0
   17.3068   20.4152   21.2075 H   0  0  0  0  0  0  0  0  0  0  0  0
   16.7687   21.8460   22.1076 H   0  0  0  0  0  0  0  0  0  0  0  0
   16.9923   20.0607   23.3498 C   0  0  0  0  0  0  0  0  0  0  0  0
   15.9169   19.8470   23.2746 H   0  0  0  0  0  0  0  0  0  0  0  0
   17.1310   20.6114   24.2907 H   0  0  0  0  0  0  0  0  0  0  0  0
   17.7617   18.7189   23.4102 C   0  0  0  0  0  0  0  0  0  0  0  0
   17.3286   18.1052   24.2121 H   0  0  0  0  0  0  0  0  0  0  0  0
   17.6033   18.1630   22.4758 H   0  0  0  0  0  0  0  0  0  0  0  0
   19.2786   18.8885   23.6659 C   0  0  0  0  0  0  0  0  0  0  0  0
   19.4318   19.4869   24.5746 H   0  0  0  0  0  0  0  0  0  0  0  0
   19.7308   19.4454   22.8358 H   0  0  0  0  0  0  0  0  0  0  0  0
   19.9887   17.5222   23.8213 C   0  0  0  0  0  0  0  0  0  0  0  0
   19.5039   16.9520   24.6257 H   0  0  0  0  0  0  0  0  0  0  0  0
   19.8624   16.9323   22.9027 H   0  0  0  0  0  0  0  0  0  0  0  0
   21.4952   17.6541   24.1465 C   0  0  0  0  0  0  0  0  0  0  0  0
   21.9088   16.6535   24.3305 H   0  0  0  0  0  0  0  0  0  0  0  0
   21.6235   18.2232   25.0769 H   0  0  0  0  0  0  0  0  0  0  0  0
   22.2925   18.3272   23.0135 C   0  0  0  0  0  0  0  0  0  0  0  0
   22.1655   17.7603   22.0873 H   0  0  0  0  0  0  0  0  0  0  0  0
   21.9200   19.3417   22.8505 H   0  0  0  0  0  0  0  0  0  0  0  0
   23.7762   18.4187   23.3062 N   0  3  0  0  0  0  0  0  0  0  0  0
   24.2887   18.8693   22.5402 H   0  0  0  0  0  0  0  0  0  0  0  0
   24.1965   17.4935   23.4424 H   0  0  0  0  0  0  0  0  0  0  0  0
   23.9657   18.9639   24.1536 H   0  0  0  0  0  0  0  0  0  0  0  0
  1  2  1  0  0  0  0
  1  3  1  0  0  0  0
  1  4  1  0  0  0  0
  1  5  1  0  0  0  0
  5  6  1  0  0  0  0
  5  7  1  0  0  0  0
  5  8  1  0  0  0  0
  8  9  1  0  0  0  0
  8 10  1  0  0  0  0
  8 11  1  0  0  0  0
 11 12  1  0  0  0  0
 11 13  1  0  0  0  0
 11 14  1  0  0  0  0
 14 15  1  0  0  0  0
 14 16  1  0  0  0  0
 14 17  1  0  0  0  0
 17 18  1  0  0  0  0
 17 19  1  0  0  0  0
 17 20  1  0  0  0  0
 20 21  1  0  0  0  0
 20 22  1  0  0  0  0
 20 23  1  0  0  0  0
 23 24  1  0  0  0  0
 23 25  1  0  0  0  0
 23 26  1  0  0  0  0
M  END
> <VConfSearch Rank>
998

> <Conf_Id>
96

> <Delta U+W>
0.912

> <U+W>
-4.640

> <U>
48.723

> <W>
-53.364

> <W(PB)>
-55.683

> <W(SA)>
2.320

> <Valence>
2.962

> <Coulomb>
44.993

> <VdW>
0.768

> <VdW6>
-7.008

> <VdW12>
7.776

> <Bond>
0.188

> <Angle>
0.757

> <Pdih>
2.018

> <Idih>
0.000

> <Tether>
0.000

$$$$
VeraChem MOL file


 26 25  0  0  0  0  0  0  0  0999 V2000     
   20.9976   20.5806   20.3875 C   0  0  0  0  0  0  0  0  0  0  0  0
   21.4476   21.3520   19.7493 H   0  0  0  0  0  0  0  0  0  0  0  0
   20.2851   20.0124   19.7756 H   0  0  0  0  0  0  0  0  0  0  0  0
   20.4387   21.0936   21.1799 H   0  0  0  0  0  0  0  0  0  0  0  0
   22.0906   19.6561   20.9704 C   0  0  0  0  0  0  0  0  0  0  0  0
   22.7715   20.2422   21.6033 H   0  0  0  0  0  0  0  0  0  0  0  0
   22.7000   19.2643   20.1440 H   0  0  0  0  0  0  0  0  0  0  0  0
   21.5226   18.4634   21.7769 C   0  0  0  0  0  0  0  0  0  0  0  0
   20.8585   17.8691   21.1342 H   0  0  0  0  0  0  0  0  0  0  0  0
   22.3556   17.8031   22.0551 H   0  0  0  0  0  0  0  0  0  0  0  0
   20.7654   18.8894   23.0576 C   0  0  0  0  0  0  0  0  0  0  0  0
   19.8934   19.4964   22.7837 H   0  0  0  0  0  0  0  0  0  0  0  0
   21.4169   19.5241   23.6739 H   0  0  0  0  0  0  0  0  0  0  0  0
   20.3054   17.6646   23.8843 C   0  0  0  0  0  0  0  0  0  0  0  0
   19.6298   17.0426   23.2807 H   0  0  0  0  0  0  0  0  0  0  0  0
   21.1773   17.0385   24.1190 H   0  0  0  0  0  0  0  0  0  0  0  0
   19.6045   18.0532   25.2074 C   0  0  0  0  0  0  0  0  0  0  0  0
   20.2860   18.6553   25.8230 H   0  0  0  0  0  0  0  0  0  0  0  0
   19.3893   17.1399   25.7780 H   0  0  0  0  0  0  0  0  0  0  0  0
   18.2914   18.8259   24.9812 C   0  0  0  0  0  0  0  0  0  0  0  0
   18.4978   19.7603   24.4530 H   0  0  0  0  0  0  0  0  0  0  0  0
   17.6126   18.2264   24.3688 H   0  0  0  0  0  0  0  0  0  0  0  0
   17.5765   19.1702   26.2718 N   0  3  0  0  0  0  0  0  0  0  0  0
   18.1532   19.7573   26.8833 H   0  0  0  0  0  0  0  0  0  0  0  0
   17.3274   18.3314   26.8061 H   0  0  0  0  0  0  0  0  0  0  0  0
   16.7053   19.6839   26.0996 H   0  0  0  0  0  0  0  0  0  0  0  0
  1  2  1  0  0  0  0
  1  3  1  0  0  0  0
  1  4  1  0  0  0  0
  1  5  1  0  0  0  0
  5  6  1  0  0  0  0
  5  7  1  0  0  0  0
  5  8  1  0  0  0  0
  8  9  1  0  0  0  0
  8 10  1  0  0  0  0
  8 11  1  0  0  0  0
 11 12  1  0  0  0  0
 11 13  1  0  0  0  0
 11 14  1  0  0  0  0
 14 15  1  0  0  0  0
 14 16  1  0  0  0  0
 14 17  1  0  0  0  0
 17 18  1  0  0  0  0
 17 19  1  0  0  0  0
 17 20  1  0  0  0  0
 20 21  1  0  0  0  0
 20 22  1  0  0  0  0
 20 23  1  0  0  0  0
 23 24  1  0  0  0  0
 23 25  1  0  0  0  0
 23 26  1  0  0  0  0
M  END
> <VConfSearch Rank>
999

> <Conf_Id>
133

> <Delta U+W>
0.844

> <U+W>
-4.708

> <U>
48.723

> <W>
-53.431

> <W(PB)>
-55.776

> <W(SA)>
2.344

> <Valence>
2.962

> <Coulomb>
44.993

> <VdW>
0.768

> <VdW6>
-7.008

> <VdW12>
7.776

> <Bond>
0.188

> <Angle>
0.756

> <Pdih>
2.018

> <Idih>
0.000

> <Tether>
0.000

$$$$
VeraChem MOL file


 26 25  0  0  0  0  0  0  0  0999 V2000     
   17.8377   20.8409   21.5570 C   0  0  0  0  0  0  0  0  0  0  0  0
   18.1846   21.2133   20.5844 H   0  0  0  0  0  0  0  0  0  0  0  0
   17.9142   19.7464   21.5539 H   0  0  0  0  0  0  0  0  0  0  0  0
   16.7751   21.0976   21.6558 H   0  0  0  0  0  0  0  0  0  0  0  0
   18.6544   21.4618   22.7127 C   0  0  0  0  0  0  0  0  0  0  0  0
   18.3034   21.0599   23.6725 H   0  0  0  0  0  0  0  0  0  0  0  0
   18.4526   22.5415   22.7480 H   0  0  0  0  0  0  0  0  0  0  0  0
   20.1834   21.2508   22.5701 C   0  0  0  0  0  0  0  0  0  0  0  0
   20.5298   21.7681   21.6648 H   0  0  0  0  0  0  0  0  0  0  0  0
   20.6888   21.7460   23.4108 H   0  0  0  0  0  0  0  0  0  0  0  0
   20.6456   19.7721   22.5049 C   0  0  0  0  0  0  0  0  0  0  0  0
   21.7377   19.7571   22.3857 H   0  0  0  0  0  0  0  0  0  0  0  0
   20.2376   19.2917   21.6056 H   0  0  0  0  0  0  0  0  0  0  0  0
   20.2641   18.9484   23.7582 C   0  0  0  0  0  0  0  0  0  0  0  0
   20.6357   19.4564   24.6590 H   0  0  0  0  0  0  0  0  0  0  0  0
   19.1714   18.8922   23.8505 H   0  0  0  0  0  0  0  0  0  0  0  0
   20.8390   17.5160   23.7002 C   0  0  0  0  0  0  0  0  0  0  0  0
   21.9333   17.5591   23.6190 H   0  0  0  0  0  0  0  0  0  0  0  0
   20.4685   17.0053   22.8013 H   0  0  0  0  0  0  0  0  0  0  0  0
   20.4505   16.7028   24.9475 C   0  0  0  0  0  0  0  0  0  0  0  0
   20.8313   17.1994   25.8441 H   0  0  0  0  0  0  0  0  0  0  0  0
   19.3615   16.6429   25.0236 H   0  0  0  0  0  0  0  0  0  0  0  0
   20.9964   15.2896   24.9283 N   0  3  0  0  0  0  0  0  0  0  0  0
   20.7262   14.7654   25.7678 H   0  0  0  0  0  0  0  0  0  0  0  0
   22.0206   15.2761   24.8849 H   0  0  0  0  0  0  0  0  0  0  0  0
   20.6530   14.7582   24.1215 H   0  0  0  0  0  0  0  0  0  0  0  0
  1  2  1  0  0  0  0
  1  3  1  0  0  0  0
  1  4  1  0  0  0  0
  1  5  1  0  0  0  0
  5  6  1  0  0  0  0
  5  7  1  0  0  0  0
  5  8  1  0  0  0  0
  8  9  1  0  0  0  0
  8 10  1  0  0  0  0
  8 11  1  0  0  0  0
 11 12  1  0  0  0  0
 11 13  1  0  0  0  0
 11 14  1  0  0  0  0
 14 15  1  0  0  0  0
 14 16  1  0  0  0  0
 14 17  1  0  0  0  0
 17 18  1  0  0  0  0
 17 19  1  0  0  0  0
 17 20  1  0  0  0  0
 20 21  1  0  0  0  0
 20 22  1  0  0  0  0
 20 23  1  0  0  0  0
 23 24  1  0  0  0  0
 23 25  1  0  0  0  0
 23 26  1  0  0  0  0
M  END
> <VConfSearch Rank>
1000

> <Conf_Id>
106

> <Delta U+W>
0.767

> <U+W>
-4.785

> <U>
48.494

> <W>
-53.279

> <W(PB)>
-55.569

> <W(SA)>
2.290

> <Valence>
3.117

> <Coulomb>
44.693

> <VdW>
0.684

> <VdW6>
-7.347

> <VdW12>
8.030

> <Bond>
0.208

> <Angle>
1.039

> <Pdih>
1.870

> <Idih>
0.000

> <Tether>
0.000

$$$$
