@<TRIPOS>MOLECULE
guest-8_vm2.mol2 : vm2 ligand conformer 1
          25          24           1
SMALL
USER_CHARGES
 
@<TRIPOS>ATOM
       1    C1      20.160093   19.340144   27.808437 C.2        1 MOL1         0.6168
       2    O1      21.215706   19.704989   28.287176 O.co2      1 MOL1        -0.6703
       3    O2      19.077743   19.569007   28.311191 O.co2      1 MOL1        -0.6703
       4    C2      20.194138   18.572403   26.491816 C.3        1 MOL1        -0.1963
       5    H1      19.354716   17.866745   26.487218 H          1 MOL1         0.0750
       6    H2      21.116370   17.979547   26.466963 H          1 MOL1         0.0750
       7    C3      20.120555   19.499060   25.253305 C.3        1 MOL1        -0.1860
       8    H3      19.198437   20.094955   25.300219 H          1 MOL1         0.0752
       9    H4      20.959971   20.207765   25.279946 H          1 MOL1         0.0752
      10    C4      20.156617   18.698625   23.933449 C.3        1 MOL1        -0.1858
      11    H5      19.317089   17.990213   23.910574 H          1 MOL1         0.0752
      12    H6      21.079011   18.103228   23.890161 H          1 MOL1         0.0752
      13    C5      20.082898   19.624965   22.700598 C.3        1 MOL1        -0.1858
      14    H7      19.160571   20.220414   22.743675 H          1 MOL1         0.0752
      15    H8      20.922349   20.333425   22.723226 H          1 MOL1         0.0752
      16    C6      20.118870   18.825210   21.380380 C.3        1 MOL1        -0.1858
      17    H9      19.279514   18.116654   21.357444 H          1 MOL1         0.0752
      18    H10     21.041150   18.229718   21.336953 H          1 MOL1         0.0752
      19    C7      20.045114   19.750974   20.147951 C.3        1 MOL1        -0.1834
      20    H11     19.122762   20.346989   20.186975 H          1 MOL1         0.0752
      21    H12     20.884390   20.460031   20.166460 H          1 MOL1         0.0752
      22    C8      20.081265   18.948622   18.831696 C.3        1 MOL1        -0.2849
      23    H13     19.234002   18.252907   18.772332 H          1 MOL1         0.0764
      24    H14     20.027959   19.622106   17.966442 H          1 MOL1         0.0764
      25    H15     21.008887   18.366808   18.751644 H          1 MOL1         0.0764
@<TRIPOS>BOND
    1     1     2    1
    2     1     3    2
    3     1     4    1
    4     4     5    1
    5     4     6    1
    6     4     7    1
    7     7     8    1
    8     7     9    1
    9     7    10    1
   10    10    11    1
   11    10    12    1
   12    10    13    1
   13    13    14    1
   14    13    15    1
   15    13    16    1
   16    16    17    1
   17    16    18    1
   18    16    19    1
   19    19    20    1
   20    19    21    1
   21    19    22    1
   22    22    23    1
   23    22    24    1
   24    22    25    1
@<TRIPOS>SUBSTRUCTURE
       1 MOL1            1 RESIDUE      1      MOL     
@<SCITEGIC>MOL_PROPERTY
VM2 Rank
SciTegic.value.IntegerValue
1

@<SCITEGIC>MOL_PROPERTY
Conf_Id
SciTegic.value.IntegerValue
348

@<SCITEGIC>MOL_PROPERTY
Probability
SciTegic.value.DoubleValue
22.97

@<SCITEGIC>MOL_PROPERTY
Sum Probability
SciTegic.value.DoubleValue
22.97

@<SCITEGIC>MOL_PROPERTY
Delta G
SciTegic.value.DoubleValue
0.000

@<SCITEGIC>MOL_PROPERTY
G
SciTegic.value.DoubleValue
-7.962

@<SCITEGIC>MOL_PROPERTY
E
SciTegic.value.DoubleValue
-32.361

@<SCITEGIC>MOL_PROPERTY
-TS
SciTegic.value.DoubleValue
24.399

@<SCITEGIC>MOL_PROPERTY
U+W
SciTegic.value.DoubleValue
-52.928

@<SCITEGIC>MOL_PROPERTY
U
SciTegic.value.DoubleValue
5.617

@<SCITEGIC>MOL_PROPERTY
W
SciTegic.value.DoubleValue
-58.544

@<SCITEGIC>MOL_PROPERTY
W(PB)
SciTegic.value.DoubleValue
-61.064

@<SCITEGIC>MOL_PROPERTY
W(SA)
SciTegic.value.DoubleValue
2.520

@<SCITEGIC>MOL_PROPERTY
Valence
SciTegic.value.DoubleValue
7.531

@<SCITEGIC>MOL_PROPERTY
Coulomb
SciTegic.value.DoubleValue
-2.818

@<SCITEGIC>MOL_PROPERTY
VdW
SciTegic.value.DoubleValue
0.904

@<SCITEGIC>MOL_PROPERTY
VdW6
SciTegic.value.DoubleValue
-7.640

@<SCITEGIC>MOL_PROPERTY
VdW12
SciTegic.value.DoubleValue
8.544

@<SCITEGIC>MOL_PROPERTY
Bond
SciTegic.value.DoubleValue
0.115

@<SCITEGIC>MOL_PROPERTY
Angle
SciTegic.value.DoubleValue
2.271

@<SCITEGIC>MOL_PROPERTY
Pdih
SciTegic.value.DoubleValue
5.144

@<SCITEGIC>MOL_PROPERTY
Idih
SciTegic.value.DoubleValue
0.001

@<SCITEGIC>MOL_PROPERTY
Tether
SciTegic.value.DoubleValue
0.000

@<TRIPOS>MOLECULE
guest-8_vm2.mol2 : vm2 ligand conformer 2
          25          24           1
SMALL
USER_CHARGES
 
@<TRIPOS>ATOM
       1    C1      19.860636   19.163730   27.540711 C.2        1 MOL1         0.6168
       2    O1      20.673961   18.786533   28.361046 O.co2      1 MOL1        -0.6703
       3    O2      18.868468   19.806222   27.822659 O.co2      1 MOL1        -0.6703
       4    C2      20.111525   18.832961   26.073850 C.3        1 MOL1        -0.1963
       5    H1      19.136910   18.696761   25.591885 H          1 MOL1         0.0750
       6    H2      20.635633   17.870939   26.026997 H          1 MOL1         0.0750
       7    C3      20.934384   19.926917   25.344971 C.3        1 MOL1        -0.1860
       8    H3      20.378620   20.874688   25.359384 H          1 MOL1         0.0752
       9    H4      21.862208   20.103100   25.906726 H          1 MOL1         0.0752
      10    C4      21.299896   19.557118   23.887733 C.3        1 MOL1        -0.1858
      11    H5      21.864432   18.614674   23.877796 H          1 MOL1         0.0752
      12    H6      21.975064   20.327939   23.491529 H          1 MOL1         0.0752
      13    C5      20.071053   19.438427   22.956880 C.3        1 MOL1        -0.1858
      14    H7      19.421119   18.621559   23.296323 H          1 MOL1         0.0752
      15    H8      19.479869   20.362868   23.009767 H          1 MOL1         0.0752
      16    C6      20.487563   19.176423   21.493309 C.3        1 MOL1        -0.1858
      17    H9      21.082151   18.254040   21.440772 H          1 MOL1         0.0752
      18    H10     21.133200   19.993416   21.142984 H          1 MOL1         0.0752
      19    C7      19.262732   19.053485   20.562638 C.3        1 MOL1        -0.1834
      20    H11     18.615415   18.235534   20.908198 H          1 MOL1         0.0752
      21    H12     18.666282   19.975069   20.611704 H          1 MOL1         0.0752
      22    C8      19.682783   18.792182   19.102203 C.3        1 MOL1        -0.2849
      23    H13     20.254754   17.858738   19.019007 H          1 MOL1         0.0764
      24    H14     18.800161   18.707613   18.454974 H          1 MOL1         0.0764
      25    H15     20.305975   19.611359   18.720143 H          1 MOL1         0.0764
@<TRIPOS>BOND
    1     1     2    1
    2     1     3    2
    3     1     4    1
    4     4     5    1
    5     4     6    1
    6     4     7    1
    7     7     8    1
    8     7     9    1
    9     7    10    1
   10    10    11    1
   11    10    12    1
   12    10    13    1
   13    13    14    1
   14    13    15    1
   15    13    16    1
   16    16    17    1
   17    16    18    1
   18    16    19    1
   19    19    20    1
   20    19    21    1
   21    19    22    1
   22    22    23    1
   23    22    24    1
   24    22    25    1
@<TRIPOS>SUBSTRUCTURE
       1 MOL1            1 RESIDUE      1      MOL     
@<SCITEGIC>MOL_PROPERTY
VM2 Rank
SciTegic.value.IntegerValue
2

@<SCITEGIC>MOL_PROPERTY
Conf_Id
SciTegic.value.IntegerValue
1268

@<SCITEGIC>MOL_PROPERTY
Probability
SciTegic.value.DoubleValue
5.62

@<SCITEGIC>MOL_PROPERTY
Sum Probability
SciTegic.value.DoubleValue
28.59

@<SCITEGIC>MOL_PROPERTY
Delta G
SciTegic.value.DoubleValue
0.839

@<SCITEGIC>MOL_PROPERTY
G
SciTegic.value.DoubleValue
-7.123

@<SCITEGIC>MOL_PROPERTY
E
SciTegic.value.DoubleValue
-31.631

@<SCITEGIC>MOL_PROPERTY
-TS
SciTegic.value.DoubleValue
24.508

@<SCITEGIC>MOL_PROPERTY
U+W
SciTegic.value.DoubleValue
-52.199

@<SCITEGIC>MOL_PROPERTY
U
SciTegic.value.DoubleValue
6.575

@<SCITEGIC>MOL_PROPERTY
W
SciTegic.value.DoubleValue
-58.774

@<SCITEGIC>MOL_PROPERTY
W(PB)
SciTegic.value.DoubleValue
-61.317

@<SCITEGIC>MOL_PROPERTY
W(SA)
SciTegic.value.DoubleValue
2.543

@<SCITEGIC>MOL_PROPERTY
Valence
SciTegic.value.DoubleValue
8.051

@<SCITEGIC>MOL_PROPERTY
Coulomb
SciTegic.value.DoubleValue
-2.490

@<SCITEGIC>MOL_PROPERTY
VdW
SciTegic.value.DoubleValue
1.015

@<SCITEGIC>MOL_PROPERTY
VdW6
SciTegic.value.DoubleValue
-8.339

@<SCITEGIC>MOL_PROPERTY
VdW12
SciTegic.value.DoubleValue
9.354

@<SCITEGIC>MOL_PROPERTY
Bond
SciTegic.value.DoubleValue
0.157

@<SCITEGIC>MOL_PROPERTY
Angle
SciTegic.value.DoubleValue
2.513

@<SCITEGIC>MOL_PROPERTY
Pdih
SciTegic.value.DoubleValue
5.379

@<SCITEGIC>MOL_PROPERTY
Idih
SciTegic.value.DoubleValue
0.001

@<SCITEGIC>MOL_PROPERTY
Tether
SciTegic.value.DoubleValue
0.000

@<TRIPOS>MOLECULE
guest-8_vm2.mol2 : vm2 ligand conformer 3
          25          24           1
SMALL
USER_CHARGES
 
@<TRIPOS>ATOM
       1    C1      20.131458   19.707470   27.520780 C.2        1 MOL1         0.6168
       2    O1      20.946386   19.333330   28.340924 O.co2      1 MOL1        -0.6703
       3    O2      19.029253   20.128989   27.810871 O.co2      1 MOL1        -0.6703
       4    C2      20.503514   19.620125   26.044981 C.3        1 MOL1        -0.1963
       5    H1      21.585125   19.777473   25.957066 H          1 MOL1         0.0750
       6    H2      20.010389   20.450719   25.527624 H          1 MOL1         0.0750
       7    C3      20.106117   18.264130   25.405878 C.3        1 MOL1        -0.1860
       8    H3      20.541429   17.451493   26.003867 H          1 MOL1         0.0752
       9    H4      19.015825   18.138724   25.459617 H          1 MOL1         0.0752
      10    C4      20.578733   18.109376   23.940757 C.3        1 MOL1        -0.1858
      11    H5      20.359407   17.084840   23.610275 H          1 MOL1         0.0752
      12    H6      21.670225   18.224603   23.892081 H          1 MOL1         0.0752
      13    C5      19.905578   19.106051   22.969095 C.3        1 MOL1        -0.1858
      14    H7      18.813636   19.025525   23.058900 H          1 MOL1         0.0752
      15    H8      20.175316   20.134778   23.240889 H          1 MOL1         0.0752
      16    C6      20.322618   18.845381   21.505437 C.3        1 MOL1        -0.1858
      17    H9      20.049794   17.819394   21.222646 H          1 MOL1         0.0752
      18    H10     21.414987   18.921888   21.416209 H          1 MOL1         0.0752
      19    C7      19.655376   19.841497   20.533837 C.3        1 MOL1        -0.1834
      20    H11     18.562420   19.766842   20.619574 H          1 MOL1         0.0752
      21    H12     19.927907   20.869111   20.811704 H          1 MOL1         0.0752
      22    C8      20.073966   19.577651   19.073440 C.3        1 MOL1        -0.2849
      23    H13     19.784758   18.566434   18.758498 H          1 MOL1         0.0764
      24    H14     19.590717   20.294483   18.396904 H          1 MOL1         0.0764
      25    H15     21.160643   19.676848   18.952263 H          1 MOL1         0.0764
@<TRIPOS>BOND
    1     1     2    1
    2     1     3    2
    3     1     4    1
    4     4     5    1
    5     4     6    1
    6     4     7    1
    7     7     8    1
    8     7     9    1
    9     7    10    1
   10    10    11    1
   11    10    12    1
   12    10    13    1
   13    13    14    1
   14    13    15    1
   15    13    16    1
   16    16    17    1
   17    16    18    1
   18    16    19    1
   19    19    20    1
   20    19    21    1
   21    19    22    1
   22    22    23    1
   23    22    24    1
   24    22    25    1
@<TRIPOS>SUBSTRUCTURE
       1 MOL1            1 RESIDUE      1      MOL     
@<SCITEGIC>MOL_PROPERTY
VM2 Rank
SciTegic.value.IntegerValue
3

@<SCITEGIC>MOL_PROPERTY
Conf_Id
SciTegic.value.IntegerValue
1314

@<SCITEGIC>MOL_PROPERTY
Probability
SciTegic.value.DoubleValue
5.44

@<SCITEGIC>MOL_PROPERTY
Sum Probability
SciTegic.value.DoubleValue
34.04

@<SCITEGIC>MOL_PROPERTY
Delta G
SciTegic.value.DoubleValue
0.858

@<SCITEGIC>MOL_PROPERTY
G
SciTegic.value.DoubleValue
-7.104

@<SCITEGIC>MOL_PROPERTY
E
SciTegic.value.DoubleValue
-31.612

@<SCITEGIC>MOL_PROPERTY
-TS
SciTegic.value.DoubleValue
24.508

@<SCITEGIC>MOL_PROPERTY
U+W
SciTegic.value.DoubleValue
-52.179

@<SCITEGIC>MOL_PROPERTY
U
SciTegic.value.DoubleValue
6.575

@<SCITEGIC>MOL_PROPERTY
W
SciTegic.value.DoubleValue
-58.755

@<SCITEGIC>MOL_PROPERTY
W(PB)
SciTegic.value.DoubleValue
-61.293

@<SCITEGIC>MOL_PROPERTY
W(SA)
SciTegic.value.DoubleValue
2.538

@<SCITEGIC>MOL_PROPERTY
Valence
SciTegic.value.DoubleValue
8.050

@<SCITEGIC>MOL_PROPERTY
Coulomb
SciTegic.value.DoubleValue
-2.490

@<SCITEGIC>MOL_PROPERTY
VdW
SciTegic.value.DoubleValue
1.015

@<SCITEGIC>MOL_PROPERTY
VdW6
SciTegic.value.DoubleValue
-8.339

@<SCITEGIC>MOL_PROPERTY
VdW12
SciTegic.value.DoubleValue
9.354

@<SCITEGIC>MOL_PROPERTY
Bond
SciTegic.value.DoubleValue
0.157

@<SCITEGIC>MOL_PROPERTY
Angle
SciTegic.value.DoubleValue
2.513

@<SCITEGIC>MOL_PROPERTY
Pdih
SciTegic.value.DoubleValue
5.379

@<SCITEGIC>MOL_PROPERTY
Idih
SciTegic.value.DoubleValue
0.001

@<SCITEGIC>MOL_PROPERTY
Tether
SciTegic.value.DoubleValue
0.000

@<TRIPOS>MOLECULE
guest-8_vm2.mol2 : vm2 ligand conformer 4
          25          24           1
SMALL
USER_CHARGES
 
@<TRIPOS>ATOM
       1    C1      20.130523   19.167820   27.705071 C.2        1 MOL1         0.6168
       2    O1      21.227822   19.243968   28.221570 O.co2      1 MOL1        -0.6703
       3    O2      19.227615   18.480772   28.140219 O.co2      1 MOL1        -0.6703
       4    C2      19.880098   19.960384   26.427098 C.3        1 MOL1        -0.1963
       5    H1      20.471764   20.882379   26.476623 H          1 MOL1         0.0750
       6    H2      18.823531   20.253571   26.409638 H          1 MOL1         0.0750
       7    C3      20.235536   19.165033   25.146825 C.3        1 MOL1        -0.1860
       8    H3      21.292723   18.867720   25.185993 H          1 MOL1         0.0752
       9    H4      19.644628   18.238940   25.119175 H          1 MOL1         0.0752
      10    C4      19.973389   19.988294   23.867116 C.3        1 MOL1        -0.1858
      11    H5      20.564270   20.914014   23.899012 H          1 MOL1         0.0752
      12    H6      18.915973   20.284485   23.831090 H          1 MOL1         0.0752
      13    C5      20.328775   19.192879   22.592379 C.3        1 MOL1        -0.1858
      14    H7      21.386841   18.899381   22.626157 H          1 MOL1         0.0752
      15    H8      19.739305   18.267066   22.570197 H          1 MOL1         0.0752
      16    C6      20.062245   20.017233   21.311661 C.3        1 MOL1        -0.1858
      17    H9      20.603246   20.970834   21.381446 H          1 MOL1         0.0752
      18    H10     18.994752   20.269102   21.248997 H          1 MOL1         0.0752
      19    C7      20.500788   19.297851   20.014838 C.3        1 MOL1        -0.1834
      20    H11     20.387563   19.992381   19.171007 H          1 MOL1         0.0752
      21    H12     21.569782   19.050085   20.071269 H          1 MOL1         0.0752
      22    C8      19.686209   18.019765   19.719223 C.3        1 MOL1        -0.2849
      23    H13     18.610737   18.237700   19.687769 H          1 MOL1         0.0764
      24    H14     19.973933   17.597396   18.747766 H          1 MOL1         0.0764
      25    H15     19.859553   17.248999   20.480523 H          1 MOL1         0.0764
@<TRIPOS>BOND
    1     1     2    1
    2     1     3    2
    3     1     4    1
    4     4     5    1
    5     4     6    1
    6     4     7    1
    7     7     8    1
    8     7     9    1
    9     7    10    1
   10    10    11    1
   11    10    12    1
   12    10    13    1
   13    13    14    1
   14    13    15    1
   15    13    16    1
   16    16    17    1
   17    16    18    1
   18    16    19    1
   19    19    20    1
   20    19    21    1
   21    19    22    1
   22    22    23    1
   23    22    24    1
   24    22    25    1
@<TRIPOS>SUBSTRUCTURE
       1 MOL1            1 RESIDUE      1      MOL     
@<SCITEGIC>MOL_PROPERTY
VM2 Rank
SciTegic.value.IntegerValue
4

@<SCITEGIC>MOL_PROPERTY
Conf_Id
SciTegic.value.IntegerValue
1027

@<SCITEGIC>MOL_PROPERTY
Probability
SciTegic.value.DoubleValue
5.00

@<SCITEGIC>MOL_PROPERTY
Sum Probability
SciTegic.value.DoubleValue
39.03

@<SCITEGIC>MOL_PROPERTY
Delta G
SciTegic.value.DoubleValue
0.909

@<SCITEGIC>MOL_PROPERTY
G
SciTegic.value.DoubleValue
-7.053

@<SCITEGIC>MOL_PROPERTY
E
SciTegic.value.DoubleValue
-31.561

@<SCITEGIC>MOL_PROPERTY
-TS
SciTegic.value.DoubleValue
24.508

@<SCITEGIC>MOL_PROPERTY
U+W
SciTegic.value.DoubleValue
-52.128

@<SCITEGIC>MOL_PROPERTY
U
SciTegic.value.DoubleValue
6.630

@<SCITEGIC>MOL_PROPERTY
W
SciTegic.value.DoubleValue
-58.758

@<SCITEGIC>MOL_PROPERTY
W(PB)
SciTegic.value.DoubleValue
-61.279

@<SCITEGIC>MOL_PROPERTY
W(SA)
SciTegic.value.DoubleValue
2.521

@<SCITEGIC>MOL_PROPERTY
Valence
SciTegic.value.DoubleValue
8.032

@<SCITEGIC>MOL_PROPERTY
Coulomb
SciTegic.value.DoubleValue
-2.441

@<SCITEGIC>MOL_PROPERTY
VdW
SciTegic.value.DoubleValue
1.039

@<SCITEGIC>MOL_PROPERTY
VdW6
SciTegic.value.DoubleValue
-8.257

@<SCITEGIC>MOL_PROPERTY
VdW12
SciTegic.value.DoubleValue
9.295

@<SCITEGIC>MOL_PROPERTY
Bond
SciTegic.value.DoubleValue
0.146

@<SCITEGIC>MOL_PROPERTY
Angle
SciTegic.value.DoubleValue
2.498

@<SCITEGIC>MOL_PROPERTY
Pdih
SciTegic.value.DoubleValue
5.387

@<SCITEGIC>MOL_PROPERTY
Idih
SciTegic.value.DoubleValue
0.001

@<SCITEGIC>MOL_PROPERTY
Tether
SciTegic.value.DoubleValue
0.000

@<TRIPOS>MOLECULE
guest-8_vm2.mol2 : vm2 ligand conformer 5
          25          24           1
SMALL
USER_CHARGES
 
@<TRIPOS>ATOM
       1    C1      20.021571   19.170479   27.669843 C.2        1 MOL1         0.6168
       2    O1      21.060544   19.268502   28.292391 O.co2      1 MOL1        -0.6703
       3    O2      18.941009   19.517509   28.104113 O.co2      1 MOL1        -0.6703
       4    C2      20.080201   18.601108   26.256882 C.3        1 MOL1        -0.1963
       5    H1      19.141994   18.066396   26.065966 H          1 MOL1         0.0750
       6    H2      20.888462   17.860818   26.221174 H          1 MOL1         0.0750
       7    C3      20.304264   19.689759   25.178568 C.3        1 MOL1        -0.1860
       8    H3      19.493881   20.429736   25.235935 H          1 MOL1         0.0752
       9    H4      21.240242   20.224394   25.392227 H          1 MOL1         0.0752
      10    C4      20.359882   19.088470   23.757383 C.3        1 MOL1        -0.1858
      11    H5      19.423872   18.550660   23.558298 H          1 MOL1         0.0752
      12    H6      21.172479   18.351198   23.702405 H          1 MOL1         0.0752
      13    C5      20.579518   20.179953   22.684508 C.3        1 MOL1        -0.1858
      14    H7      19.740557   20.889050   22.700061 H          1 MOL1         0.0752
      15    H8      21.478496   20.756820   22.941344 H          1 MOL1         0.0752
      16    C6      20.752909   19.614186   21.254814 C.3        1 MOL1        -0.1858
      17    H9      21.594596   18.908367   21.237949 H          1 MOL1         0.0752
      18    H10     21.027281   20.440399   20.584744 H          1 MOL1         0.0752
      19    C7      19.483412   18.924348   20.706134 C.3        1 MOL1        -0.1834
      20    H11     19.235947   18.046190   21.316821 H          1 MOL1         0.0752
      21    H12     18.629485   19.612524   20.772724 H          1 MOL1         0.0752
      22    C8      19.669691   18.479685   19.241363 C.3        1 MOL1        -0.2849
      23    H13     20.501225   17.768664   19.149839 H          1 MOL1         0.0764
      24    H14     18.761562   17.989084   18.867636 H          1 MOL1         0.0764
      25    H15     19.881078   19.340026   18.592923 H          1 MOL1         0.0764
@<TRIPOS>BOND
    1     1     2    1
    2     1     3    2
    3     1     4    1
    4     4     5    1
    5     4     6    1
    6     4     7    1
    7     7     8    1
    8     7     9    1
    9     7    10    1
   10    10    11    1
   11    10    12    1
   12    10    13    1
   13    13    14    1
   14    13    15    1
   15    13    16    1
   16    16    17    1
   17    16    18    1
   18    16    19    1
   19    19    20    1
   20    19    21    1
   21    19    22    1
   22    22    23    1
   23    22    24    1
   24    22    25    1
@<TRIPOS>SUBSTRUCTURE
       1 MOL1            1 RESIDUE      1      MOL     
@<SCITEGIC>MOL_PROPERTY
VM2 Rank
SciTegic.value.IntegerValue
5

@<SCITEGIC>MOL_PROPERTY
Conf_Id
SciTegic.value.IntegerValue
1009

@<SCITEGIC>MOL_PROPERTY
Probability
SciTegic.value.DoubleValue
4.93

@<SCITEGIC>MOL_PROPERTY
Sum Probability
SciTegic.value.DoubleValue
43.96

@<SCITEGIC>MOL_PROPERTY
Delta G
SciTegic.value.DoubleValue
0.918

@<SCITEGIC>MOL_PROPERTY
G
SciTegic.value.DoubleValue
-7.044

@<SCITEGIC>MOL_PROPERTY
E
SciTegic.value.DoubleValue
-31.544

@<SCITEGIC>MOL_PROPERTY
-TS
SciTegic.value.DoubleValue
24.499

@<SCITEGIC>MOL_PROPERTY
U+W
SciTegic.value.DoubleValue
-52.111

@<SCITEGIC>MOL_PROPERTY
U
SciTegic.value.DoubleValue
6.583

@<SCITEGIC>MOL_PROPERTY
W
SciTegic.value.DoubleValue
-58.695

@<SCITEGIC>MOL_PROPERTY
W(PB)
SciTegic.value.DoubleValue
-61.197

@<SCITEGIC>MOL_PROPERTY
W(SA)
SciTegic.value.DoubleValue
2.502

@<SCITEGIC>MOL_PROPERTY
Valence
SciTegic.value.DoubleValue
8.068

@<SCITEGIC>MOL_PROPERTY
Coulomb
SciTegic.value.DoubleValue
-2.516

@<SCITEGIC>MOL_PROPERTY
VdW
SciTegic.value.DoubleValue
1.031

@<SCITEGIC>MOL_PROPERTY
VdW6
SciTegic.value.DoubleValue
-8.305

@<SCITEGIC>MOL_PROPERTY
VdW12
SciTegic.value.DoubleValue
9.335

@<SCITEGIC>MOL_PROPERTY
Bond
SciTegic.value.DoubleValue
0.150

@<SCITEGIC>MOL_PROPERTY
Angle
SciTegic.value.DoubleValue
2.522

@<SCITEGIC>MOL_PROPERTY
Pdih
SciTegic.value.DoubleValue
5.396

@<SCITEGIC>MOL_PROPERTY
Idih
SciTegic.value.DoubleValue
0.001

@<SCITEGIC>MOL_PROPERTY
Tether
SciTegic.value.DoubleValue
0.000

@<TRIPOS>MOLECULE
guest-8_vm2.mol2 : vm2 ligand conformer 6
          25          24           1
SMALL
USER_CHARGES
 
@<TRIPOS>ATOM
       1    C1      20.373710   19.642780   27.443287 C.2        1 MOL1         0.6168
       2    O1      21.515241   20.032150   27.591395 O.co2      1 MOL1        -0.6703
       3    O2      19.421031   20.108349   28.036846 O.co2      1 MOL1        -0.6703
       4    C2      20.119822   18.521853   26.441659 C.3        1 MOL1        -0.1963
       5    H1      19.273686   17.926210   26.804720 H          1 MOL1         0.0750
       6    H2      20.998774   17.866125   26.434117 H          1 MOL1         0.0750
       7    C3      19.832093   19.045895   25.013087 C.3        1 MOL1        -0.1860
       8    H3      18.955323   19.707640   25.039269 H          1 MOL1         0.0752
       9    H4      20.683191   19.654781   24.680832 H          1 MOL1         0.0752
      10    C4      19.583292   17.889228   24.017380 C.3        1 MOL1        -0.1858
      11    H5      18.780547   17.248712   24.407643 H          1 MOL1         0.0752
      12    H6      20.479988   17.257957   23.950823 H          1 MOL1         0.0752
      13    C5      19.182191   18.369544   22.602398 C.3        1 MOL1        -0.1858
      14    H7      18.905591   17.491631   22.002686 H          1 MOL1         0.0752
      15    H8      18.282589   18.996693   22.668092 H          1 MOL1         0.0752
      16    C6      20.304626   19.142838   21.872119 C.3        1 MOL1        -0.1858
      17    H9      21.219312   18.534628   21.856285 H          1 MOL1         0.0752
      18    H10     20.541553   20.064857   22.418633 H          1 MOL1         0.0752
      19    C7      19.901210   19.503454   20.426797 C.3        1 MOL1        -0.1834
      20    H11     19.669617   18.586949   19.866607 H          1 MOL1         0.0752
      21    H12     18.985306   20.110451   20.438781 H          1 MOL1         0.0752
      22    C8      21.019784   20.277908   19.701033 C.3        1 MOL1        -0.2849
      23    H13     21.939693   19.681018   19.647484 H          1 MOL1         0.0764
      24    H14     20.716314   20.525626   18.675556 H          1 MOL1         0.0764
      25    H15     21.249884   21.216311   20.222418 H          1 MOL1         0.0764
@<TRIPOS>BOND
    1     1     2    1
    2     1     3    2
    3     1     4    1
    4     4     5    1
    5     4     6    1
    6     4     7    1
    7     7     8    1
    8     7     9    1
    9     7    10    1
   10    10    11    1
   11    10    12    1
   12    10    13    1
   13    13    14    1
   14    13    15    1
   15    13    16    1
   16    16    17    1
   17    16    18    1
   18    16    19    1
   19    19    20    1
   20    19    21    1
   21    19    22    1
   22    22    23    1
   23    22    24    1
   24    22    25    1
@<TRIPOS>SUBSTRUCTURE
       1 MOL1            1 RESIDUE      1      MOL     
@<SCITEGIC>MOL_PROPERTY
VM2 Rank
SciTegic.value.IntegerValue
6

@<SCITEGIC>MOL_PROPERTY
Conf_Id
SciTegic.value.IntegerValue
779

@<SCITEGIC>MOL_PROPERTY
Probability
SciTegic.value.DoubleValue
4.87

@<SCITEGIC>MOL_PROPERTY
Sum Probability
SciTegic.value.DoubleValue
48.83

@<SCITEGIC>MOL_PROPERTY
Delta G
SciTegic.value.DoubleValue
0.925

@<SCITEGIC>MOL_PROPERTY
G
SciTegic.value.DoubleValue
-7.037

@<SCITEGIC>MOL_PROPERTY
E
SciTegic.value.DoubleValue
-31.542

@<SCITEGIC>MOL_PROPERTY
-TS
SciTegic.value.DoubleValue
24.505

@<SCITEGIC>MOL_PROPERTY
U+W
SciTegic.value.DoubleValue
-52.110

@<SCITEGIC>MOL_PROPERTY
U
SciTegic.value.DoubleValue
7.044

@<SCITEGIC>MOL_PROPERTY
W
SciTegic.value.DoubleValue
-59.154

@<SCITEGIC>MOL_PROPERTY
W(PB)
SciTegic.value.DoubleValue
-61.665

@<SCITEGIC>MOL_PROPERTY
W(SA)
SciTegic.value.DoubleValue
2.511

@<SCITEGIC>MOL_PROPERTY
Valence
SciTegic.value.DoubleValue
8.064

@<SCITEGIC>MOL_PROPERTY
Coulomb
SciTegic.value.DoubleValue
-2.027

@<SCITEGIC>MOL_PROPERTY
VdW
SciTegic.value.DoubleValue
1.007

@<SCITEGIC>MOL_PROPERTY
VdW6
SciTegic.value.DoubleValue
-8.345

@<SCITEGIC>MOL_PROPERTY
VdW12
SciTegic.value.DoubleValue
9.352

@<SCITEGIC>MOL_PROPERTY
Bond
SciTegic.value.DoubleValue
0.151

@<SCITEGIC>MOL_PROPERTY
Angle
SciTegic.value.DoubleValue
2.518

@<SCITEGIC>MOL_PROPERTY
Pdih
SciTegic.value.DoubleValue
5.395

@<SCITEGIC>MOL_PROPERTY
Idih
SciTegic.value.DoubleValue
0.001

@<SCITEGIC>MOL_PROPERTY
Tether
SciTegic.value.DoubleValue
0.000

@<TRIPOS>MOLECULE
guest-8_vm2.mol2 : vm2 ligand conformer 7
          25          24           1
SMALL
USER_CHARGES
 
@<TRIPOS>ATOM
       1    C1      19.901321   19.612438   27.448820 C.2        1 MOL1         0.6168
       2    O1      20.800255   20.196312   28.021249 O.co2      1 MOL1        -0.6703
       3    O2      18.723180   19.853451   27.623562 O.co2      1 MOL1        -0.6703
       4    C2      20.272964   18.531655   26.439868 C.3        1 MOL1        -0.1963
       5    H1      19.484862   17.769190   26.451518 H          1 MOL1         0.0750
       6    H2      21.196271   18.049272   26.782451 H          1 MOL1         0.0750
       7    C3      20.458581   19.086125   25.005873 C.3        1 MOL1        -0.1860
       8    H3      19.529328   19.580931   24.694168 H          1 MOL1         0.0752
       9    H4      21.244083   19.854405   25.012949 H          1 MOL1         0.0752
      10    C4      20.830075   17.969281   24.002943 C.3        1 MOL1        -0.1858
      11    H5      20.020046   17.228571   23.956057 H          1 MOL1         0.0752
      12    H6      21.716806   17.437082   24.373669 H          1 MOL1         0.0752
      13    C5      21.133906   18.494880   22.579851 C.3        1 MOL1        -0.1858
      14    H7      21.947151   19.232058   22.625842 H          1 MOL1         0.0752
      15    H8      21.506730   17.658688   21.972662 H          1 MOL1         0.0752
      16    C6      19.905323   19.117142   21.876624 C.3        1 MOL1        -0.1858
      17    H9      19.564903   20.002015   22.429835 H          1 MOL1         0.0752
      18    H10     19.075881   18.396843   21.880778 H          1 MOL1         0.0752
      19    C7      20.226096   19.524400   20.423008 C.3        1 MOL1        -0.1834
      20    H11     21.056819   20.243640   20.414977 H          1 MOL1         0.0752
      21    H12     20.560198   18.644290   19.856251 H          1 MOL1         0.0752
      22    C8      19.001301   20.148317   19.724201 C.3        1 MOL1        -0.2849
      23    H13     19.247039   20.431413   18.692439 H          1 MOL1         0.0764
      24    H14     18.164366   19.438526   19.690768 H          1 MOL1         0.0764
      25    H15     18.664979   21.050277   20.252164 H          1 MOL1         0.0764
@<TRIPOS>BOND
    1     1     2    1
    2     1     3    2
    3     1     4    1
    4     4     5    1
    5     4     6    1
    6     4     7    1
    7     7     8    1
    8     7     9    1
    9     7    10    1
   10    10    11    1
   11    10    12    1
   12    10    13    1
   13    13    14    1
   14    13    15    1
   15    13    16    1
   16    16    17    1
   17    16    18    1
   18    16    19    1
   19    19    20    1
   20    19    21    1
   21    19    22    1
   22    22    23    1
   23    22    24    1
   24    22    25    1
@<TRIPOS>SUBSTRUCTURE
       1 MOL1            1 RESIDUE      1      MOL     
@<SCITEGIC>MOL_PROPERTY
VM2 Rank
SciTegic.value.IntegerValue
7

@<SCITEGIC>MOL_PROPERTY
Conf_Id
SciTegic.value.IntegerValue
1287

@<SCITEGIC>MOL_PROPERTY
Probability
SciTegic.value.DoubleValue
4.71

@<SCITEGIC>MOL_PROPERTY
Sum Probability
SciTegic.value.DoubleValue
53.54

@<SCITEGIC>MOL_PROPERTY
Delta G
SciTegic.value.DoubleValue
0.944

@<SCITEGIC>MOL_PROPERTY
G
SciTegic.value.DoubleValue
-7.018

@<SCITEGIC>MOL_PROPERTY
E
SciTegic.value.DoubleValue
-31.524

@<SCITEGIC>MOL_PROPERTY
-TS
SciTegic.value.DoubleValue
24.506

@<SCITEGIC>MOL_PROPERTY
U+W
SciTegic.value.DoubleValue
-52.091

@<SCITEGIC>MOL_PROPERTY
U
SciTegic.value.DoubleValue
7.044

@<SCITEGIC>MOL_PROPERTY
W
SciTegic.value.DoubleValue
-59.135

@<SCITEGIC>MOL_PROPERTY
W(PB)
SciTegic.value.DoubleValue
-61.631

@<SCITEGIC>MOL_PROPERTY
W(SA)
SciTegic.value.DoubleValue
2.496

@<SCITEGIC>MOL_PROPERTY
Valence
SciTegic.value.DoubleValue
8.065

@<SCITEGIC>MOL_PROPERTY
Coulomb
SciTegic.value.DoubleValue
-2.027

@<SCITEGIC>MOL_PROPERTY
VdW
SciTegic.value.DoubleValue
1.007

@<SCITEGIC>MOL_PROPERTY
VdW6
SciTegic.value.DoubleValue
-8.345

@<SCITEGIC>MOL_PROPERTY
VdW12
SciTegic.value.DoubleValue
9.352

@<SCITEGIC>MOL_PROPERTY
Bond
SciTegic.value.DoubleValue
0.151

@<SCITEGIC>MOL_PROPERTY
Angle
SciTegic.value.DoubleValue
2.518

@<SCITEGIC>MOL_PROPERTY
Pdih
SciTegic.value.DoubleValue
5.395

@<SCITEGIC>MOL_PROPERTY
Idih
SciTegic.value.DoubleValue
0.001

@<SCITEGIC>MOL_PROPERTY
Tether
SciTegic.value.DoubleValue
0.000

@<TRIPOS>MOLECULE
guest-8_vm2.mol2 : vm2 ligand conformer 8
          25          24           1
SMALL
USER_CHARGES
 
@<TRIPOS>ATOM
       1    C1      20.315781   19.189142   27.666447 C.2        1 MOL1         0.6168
       2    O1      21.353321   19.671016   28.076256 O.co2      1 MOL1        -0.6703
       3    O2      19.287382   19.155473   28.312902 O.co2      1 MOL1        -0.6703
       4    C2      20.297320   18.614945   26.254345 C.3        1 MOL1        -0.1963
       5    H1      19.588703   17.778214   26.236065 H          1 MOL1         0.0750
       6    H2      21.291055   18.203074   26.041159 H          1 MOL1         0.0750
       7    C3      19.912532   19.664931   25.183084 C.3        1 MOL1        -0.1860
       8    H3      18.921560   20.077081   25.418979 H          1 MOL1         0.0752
       9    H4      20.623824   20.501624   25.222917 H          1 MOL1         0.0752
      10    C4      19.900847   19.059386   23.762665 C.3        1 MOL1        -0.1858
      11    H5      19.187144   18.225036   23.725310 H          1 MOL1         0.0752
      12    H6      20.892615   18.644192   23.541306 H          1 MOL1         0.0752
      13    C5      19.520085   20.112681   22.696727 C.3        1 MOL1        -0.1858
      14    H7      18.561439   20.571419   22.975043 H          1 MOL1         0.0752
      15    H8      20.262611   20.922349   22.693988 H          1 MOL1         0.0752
      16    C6      19.386866   19.527403   21.270582 C.3        1 MOL1        -0.1858
      17    H9      18.994823   20.311262   20.608186 H          1 MOL1         0.0752
      18    H10     18.641090   18.720732   21.272059 H          1 MOL1         0.0752
      19    C7      20.720494   19.002917   20.691871 C.3        1 MOL1        -0.1834
      20    H11     21.481799   19.793693   20.739828 H          1 MOL1         0.0752
      21    H12     21.091035   18.164015   21.295430 H          1 MOL1         0.0752
      22    C8      20.558372   18.536106   19.231122 C.3        1 MOL1        -0.2849
      23    H13     20.225000   19.361832   18.588950 H          1 MOL1         0.0764
      24    H14     21.512450   18.163792   18.835926 H          1 MOL1         0.0764
      25    H15     19.821599   17.725459   19.157694 H          1 MOL1         0.0764
@<TRIPOS>BOND
    1     1     2    1
    2     1     3    2
    3     1     4    1
    4     4     5    1
    5     4     6    1
    6     4     7    1
    7     7     8    1
    8     7     9    1
    9     7    10    1
   10    10    11    1
   11    10    12    1
   12    10    13    1
   13    13    14    1
   14    13    15    1
   15    13    16    1
   16    16    17    1
   17    16    18    1
   18    16    19    1
   19    19    20    1
   20    19    21    1
   21    19    22    1
   22    22    23    1
   23    22    24    1
   24    22    25    1
@<TRIPOS>SUBSTRUCTURE
       1 MOL1            1 RESIDUE      1      MOL     
@<SCITEGIC>MOL_PROPERTY
VM2 Rank
SciTegic.value.IntegerValue
8

@<SCITEGIC>MOL_PROPERTY
Conf_Id
SciTegic.value.IntegerValue
1291

@<SCITEGIC>MOL_PROPERTY
Probability
SciTegic.value.DoubleValue
4.70

@<SCITEGIC>MOL_PROPERTY
Sum Probability
SciTegic.value.DoubleValue
58.24

@<SCITEGIC>MOL_PROPERTY
Delta G
SciTegic.value.DoubleValue
0.946

@<SCITEGIC>MOL_PROPERTY
G
SciTegic.value.DoubleValue
-7.016

@<SCITEGIC>MOL_PROPERTY
E
SciTegic.value.DoubleValue
-31.516

@<SCITEGIC>MOL_PROPERTY
-TS
SciTegic.value.DoubleValue
24.500

@<SCITEGIC>MOL_PROPERTY
U+W
SciTegic.value.DoubleValue
-52.083

@<SCITEGIC>MOL_PROPERTY
U
SciTegic.value.DoubleValue
6.583

@<SCITEGIC>MOL_PROPERTY
W
SciTegic.value.DoubleValue
-58.667

@<SCITEGIC>MOL_PROPERTY
W(PB)
SciTegic.value.DoubleValue
-61.150

@<SCITEGIC>MOL_PROPERTY
W(SA)
SciTegic.value.DoubleValue
2.483

@<SCITEGIC>MOL_PROPERTY
Valence
SciTegic.value.DoubleValue
8.068

@<SCITEGIC>MOL_PROPERTY
Coulomb
SciTegic.value.DoubleValue
-2.516

@<SCITEGIC>MOL_PROPERTY
VdW
SciTegic.value.DoubleValue
1.031

@<SCITEGIC>MOL_PROPERTY
VdW6
SciTegic.value.DoubleValue
-8.305

@<SCITEGIC>MOL_PROPERTY
VdW12
SciTegic.value.DoubleValue
9.336

@<SCITEGIC>MOL_PROPERTY
Bond
SciTegic.value.DoubleValue
0.150

@<SCITEGIC>MOL_PROPERTY
Angle
SciTegic.value.DoubleValue
2.522

@<SCITEGIC>MOL_PROPERTY
Pdih
SciTegic.value.DoubleValue
5.396

@<SCITEGIC>MOL_PROPERTY
Idih
SciTegic.value.DoubleValue
0.001

@<SCITEGIC>MOL_PROPERTY
Tether
SciTegic.value.DoubleValue
0.000

@<TRIPOS>MOLECULE
guest-8_vm2.mol2 : vm2 ligand conformer 9
          25          24           1
SMALL
USER_CHARGES
 
@<TRIPOS>ATOM
       1    C1      20.059073   19.446571   27.699975 C.2        1 MOL1         0.6168
       2    O1      21.053160   19.925150   28.209272 O.co2      1 MOL1        -0.6703
       3    O2      18.933259   19.628713   28.119494 O.co2      1 MOL1        -0.6703
       4    C2      20.231961   18.588204   26.452015 C.3        1 MOL1        -0.1963
       5    H1      19.446854   17.822565   26.453767 H          1 MOL1         0.0750
       6    H2      21.193698   18.066748   26.527801 H          1 MOL1         0.0750
       7    C3      20.172249   19.412294   25.142310 C.3        1 MOL1        -0.1860
       8    H3      19.209060   19.938539   25.088287 H          1 MOL1         0.0752
       9    H4      20.955800   20.182512   25.162044 H          1 MOL1         0.0752
      10    C4      20.349464   18.521304   23.893766 C.3        1 MOL1        -0.1858
      11    H5      19.565160   17.752052   23.877159 H          1 MOL1         0.0752
      12    H6      21.312420   17.995530   23.952010 H          1 MOL1         0.0752
      13    C5      20.289587   19.345579   22.589572 C.3        1 MOL1        -0.1858
      14    H7      19.327722   19.872412   22.540999 H          1 MOL1         0.0752
      15    H8      21.075751   20.112731   22.604025 H          1 MOL1         0.0752
      16    C6      20.463538   18.451471   21.340110 C.3        1 MOL1        -0.1858
      17    H9      19.649293   17.715323   21.295417 H          1 MOL1         0.0752
      18    H10     21.395818   17.878545   21.437669 H          1 MOL1         0.0752
      19    C7      20.513445   19.248363   20.015703 C.3        1 MOL1        -0.1834
      20    H11     21.331059   19.981399   20.054284 H          1 MOL1         0.0752
      21    H12     20.755520   18.556613   19.197091 H          1 MOL1         0.0752
      22    C8      19.187264   19.966352   19.683782 C.3        1 MOL1        -0.2849
      23    H13     18.961927   20.750945   20.416819 H          1 MOL1         0.0764
      24    H14     19.244941   20.441651   18.696019 H          1 MOL1         0.0764
      25    H15     18.349419   19.257180   19.669136 H          1 MOL1         0.0764
@<TRIPOS>BOND
    1     1     2    1
    2     1     3    2
    3     1     4    1
    4     4     5    1
    5     4     6    1
    6     4     7    1
    7     7     8    1
    8     7     9    1
    9     7    10    1
   10    10    11    1
   11    10    12    1
   12    10    13    1
   13    13    14    1
   14    13    15    1
   15    13    16    1
   16    16    17    1
   17    16    18    1
   18    16    19    1
   19    19    20    1
   20    19    21    1
   21    19    22    1
   22    22    23    1
   23    22    24    1
   24    22    25    1
@<TRIPOS>SUBSTRUCTURE
       1 MOL1            1 RESIDUE      1      MOL     
@<SCITEGIC>MOL_PROPERTY
VM2 Rank
SciTegic.value.IntegerValue
9

@<SCITEGIC>MOL_PROPERTY
Conf_Id
SciTegic.value.IntegerValue
1351

@<SCITEGIC>MOL_PROPERTY
Probability
SciTegic.value.DoubleValue
4.66

@<SCITEGIC>MOL_PROPERTY
Sum Probability
SciTegic.value.DoubleValue
62.90

@<SCITEGIC>MOL_PROPERTY
Delta G
SciTegic.value.DoubleValue
0.951

@<SCITEGIC>MOL_PROPERTY
G
SciTegic.value.DoubleValue
-7.011

@<SCITEGIC>MOL_PROPERTY
E
SciTegic.value.DoubleValue
-31.519

@<SCITEGIC>MOL_PROPERTY
-TS
SciTegic.value.DoubleValue
24.508

@<SCITEGIC>MOL_PROPERTY
U+W
SciTegic.value.DoubleValue
-52.086

@<SCITEGIC>MOL_PROPERTY
U
SciTegic.value.DoubleValue
6.630

@<SCITEGIC>MOL_PROPERTY
W
SciTegic.value.DoubleValue
-58.716

@<SCITEGIC>MOL_PROPERTY
W(PB)
SciTegic.value.DoubleValue
-61.242

@<SCITEGIC>MOL_PROPERTY
W(SA)
SciTegic.value.DoubleValue
2.525

@<SCITEGIC>MOL_PROPERTY
Valence
SciTegic.value.DoubleValue
8.032

@<SCITEGIC>MOL_PROPERTY
Coulomb
SciTegic.value.DoubleValue
-2.441

@<SCITEGIC>MOL_PROPERTY
VdW
SciTegic.value.DoubleValue
1.039

@<SCITEGIC>MOL_PROPERTY
VdW6
SciTegic.value.DoubleValue
-8.256

@<SCITEGIC>MOL_PROPERTY
VdW12
SciTegic.value.DoubleValue
9.295

@<SCITEGIC>MOL_PROPERTY
Bond
SciTegic.value.DoubleValue
0.146

@<SCITEGIC>MOL_PROPERTY
Angle
SciTegic.value.DoubleValue
2.498

@<SCITEGIC>MOL_PROPERTY
Pdih
SciTegic.value.DoubleValue
5.387

@<SCITEGIC>MOL_PROPERTY
Idih
SciTegic.value.DoubleValue
0.001

@<SCITEGIC>MOL_PROPERTY
Tether
SciTegic.value.DoubleValue
0.000

@<TRIPOS>MOLECULE
guest-8_vm2.mol2 : vm2 ligand conformer 10
          25          24           1
SMALL
USER_CHARGES
 
@<TRIPOS>ATOM
       1    C1      19.939180   19.564755   27.329953 C.2        1 MOL1         0.6168
       2    O1      20.737783   20.365880   27.774368 O.co2      1 MOL1        -0.6703
       3    O2      18.736698   19.740796   27.333614 O.co2      1 MOL1        -0.6703
       4    C2      20.477235   18.259149   26.751290 C.3        1 MOL1        -0.1963
       5    H1      19.660658   17.527704   26.719085 H          1 MOL1         0.0750
       6    H2      21.223153   17.871424   27.455036 H          1 MOL1         0.0750
       7    C3      21.118137   18.408855   25.347091 C.3        1 MOL1        -0.1860
       8    H3      21.915024   19.164403   25.389426 H          1 MOL1         0.0752
       9    H4      21.596883   17.459640   25.070790 H          1 MOL1         0.0752
      10    C4      20.088101   18.794799   24.261809 C.3        1 MOL1        -0.1858
      11    H5      19.617049   19.752734   24.522376 H          1 MOL1         0.0752
      12    H6      19.286791   18.043748   24.232671 H          1 MOL1         0.0752
      13    C5      20.741508   18.907114   22.867510 C.3        1 MOL1        -0.1858
      14    H7      21.542618   19.658382   22.897638 H          1 MOL1         0.0752
      15    H8      21.210632   17.949371   22.603523 H          1 MOL1         0.0752
      16    C6      19.713042   19.293535   21.782712 C.3        1 MOL1        -0.1858
      17    H9      19.243747   20.251262   22.046618 H          1 MOL1         0.0752
      18    H10     18.911653   18.542567   21.752641 H          1 MOL1         0.0752
      19    C7      20.365792   19.406464   20.388965 C.3        1 MOL1        -0.1834
      20    H11     21.166820   20.158239   20.414879 H          1 MOL1         0.0752
      21    H12     20.834647   18.449510   20.120837 H          1 MOL1         0.0752
      22    C8      19.335522   19.792654   19.308687 C.3        1 MOL1        -0.2849
      23    H13     18.873267   20.762327   19.535522 H          1 MOL1         0.0764
      24    H14     19.816471   19.868416   18.324803 H          1 MOL1         0.0764
      25    H15     18.538504   19.040759   19.239326 H          1 MOL1         0.0764
@<TRIPOS>BOND
    1     1     2    1
    2     1     3    2
    3     1     4    1
    4     4     5    1
    5     4     6    1
    6     4     7    1
    7     7     8    1
    8     7     9    1
    9     7    10    1
   10    10    11    1
   11    10    12    1
   12    10    13    1
   13    13    14    1
   14    13    15    1
   15    13    16    1
   16    16    17    1
   17    16    18    1
   18    16    19    1
   19    19    20    1
   20    19    21    1
   21    19    22    1
   22    22    23    1
   23    22    24    1
   24    22    25    1
@<TRIPOS>SUBSTRUCTURE
       1 MOL1            1 RESIDUE      1      MOL     
@<SCITEGIC>MOL_PROPERTY
VM2 Rank
SciTegic.value.IntegerValue
10

@<SCITEGIC>MOL_PROPERTY
Conf_Id
SciTegic.value.IntegerValue
194

@<SCITEGIC>MOL_PROPERTY
Probability
SciTegic.value.DoubleValue
2.27

@<SCITEGIC>MOL_PROPERTY
Sum Probability
SciTegic.value.DoubleValue
65.17

@<SCITEGIC>MOL_PROPERTY
Delta G
SciTegic.value.DoubleValue
1.381

@<SCITEGIC>MOL_PROPERTY
G
SciTegic.value.DoubleValue
-6.581

@<SCITEGIC>MOL_PROPERTY
E
SciTegic.value.DoubleValue
-31.293

@<SCITEGIC>MOL_PROPERTY
-TS
SciTegic.value.DoubleValue
24.711

@<SCITEGIC>MOL_PROPERTY
U+W
SciTegic.value.DoubleValue
-51.860

@<SCITEGIC>MOL_PROPERTY
U
SciTegic.value.DoubleValue
7.816

@<SCITEGIC>MOL_PROPERTY
W
SciTegic.value.DoubleValue
-59.676

@<SCITEGIC>MOL_PROPERTY
W(PB)
SciTegic.value.DoubleValue
-62.181

@<SCITEGIC>MOL_PROPERTY
W(SA)
SciTegic.value.DoubleValue
2.505

@<SCITEGIC>MOL_PROPERTY
Valence
SciTegic.value.DoubleValue
7.785

@<SCITEGIC>MOL_PROPERTY
Coulomb
SciTegic.value.DoubleValue
-0.714

@<SCITEGIC>MOL_PROPERTY
VdW
SciTegic.value.DoubleValue
0.744

@<SCITEGIC>MOL_PROPERTY
VdW6
SciTegic.value.DoubleValue
-8.514

@<SCITEGIC>MOL_PROPERTY
VdW12
SciTegic.value.DoubleValue
9.259

@<SCITEGIC>MOL_PROPERTY
Bond
SciTegic.value.DoubleValue
0.136

@<SCITEGIC>MOL_PROPERTY
Angle
SciTegic.value.DoubleValue
2.433

@<SCITEGIC>MOL_PROPERTY
Pdih
SciTegic.value.DoubleValue
5.216

@<SCITEGIC>MOL_PROPERTY
Idih
SciTegic.value.DoubleValue
0.000

@<SCITEGIC>MOL_PROPERTY
Tether
SciTegic.value.DoubleValue
0.000

@<TRIPOS>MOLECULE
guest-8_vm2.mol2 : vm2 ligand conformer 11
          25          24           1
SMALL
USER_CHARGES
 
@<TRIPOS>ATOM
       1    C1      20.230279   18.954583   27.335179 C.2        1 MOL1         0.6168
       2    O1      21.352718   19.077458   27.784744 O.co2      1 MOL1        -0.6703
       3    O2      19.610580   17.909243   27.349358 O.co2      1 MOL1        -0.6703
       4    C2      19.557709   20.185996   26.734980 C.3        1 MOL1        -0.1963
       5    H1      19.720908   21.019392   27.428378 H          1 MOL1         0.0750
       6    H2      18.475670   20.010856   26.698043 H          1 MOL1         0.0750
       7    C3      20.086528   20.570624   25.328795 C.3        1 MOL1        -0.1860
       8    H3      19.651681   21.535961   25.036251 H          1 MOL1         0.0752
       9    H4      21.174849   20.715434   25.376328 H          1 MOL1         0.0752
      10    C4      19.745729   19.512223   24.255757 C.3        1 MOL1        -0.1858
      11    H5      18.658026   19.361397   24.221455 H          1 MOL1         0.0752
      12    H6      20.192222   18.547143   24.532683 H          1 MOL1         0.0752
      13    C5      20.253400   19.930160   22.858893 C.3        1 MOL1        -0.1858
      14    H7      19.805936   20.893614   22.578593 H          1 MOL1         0.0752
      15    H8      21.341152   20.080624   22.894175 H          1 MOL1         0.0752
      16    C6      19.913847   18.872742   21.786314 C.3        1 MOL1        -0.1858
      17    H9      18.826149   18.721911   21.751069 H          1 MOL1         0.0752
      18    H10     20.361152   17.909147   22.066547 H          1 MOL1         0.0752
      19    C7      20.421628   19.289758   20.390025 C.3        1 MOL1        -0.1834
      20    H11     19.974764   20.252516   20.105619 H          1 MOL1         0.0752
      21    H12     21.509771   19.439633   20.421100 H          1 MOL1         0.0752
      22    C8      20.080581   18.231214   19.321955 C.3        1 MOL1        -0.2849
      23    H13     18.995151   18.084012   19.247341 H          1 MOL1         0.0764
      24    H14     20.448734   18.543695   18.336104 H          1 MOL1         0.0764
      25    H15     20.541667   17.264983   19.565256 H          1 MOL1         0.0764
@<TRIPOS>BOND
    1     1     2    1
    2     1     3    2
    3     1     4    1
    4     4     5    1
    5     4     6    1
    6     4     7    1
    7     7     8    1
    8     7     9    1
    9     7    10    1
   10    10    11    1
   11    10    12    1
   12    10    13    1
   13    13    14    1
   14    13    15    1
   15    13    16    1
   16    16    17    1
   17    16    18    1
   18    16    19    1
   19    19    20    1
   20    19    21    1
   21    19    22    1
   22    22    23    1
   23    22    24    1
   24    22    25    1
@<TRIPOS>SUBSTRUCTURE
       1 MOL1            1 RESIDUE      1      MOL     
@<SCITEGIC>MOL_PROPERTY
VM2 Rank
SciTegic.value.IntegerValue
11

@<SCITEGIC>MOL_PROPERTY
Conf_Id
SciTegic.value.IntegerValue
54

@<SCITEGIC>MOL_PROPERTY
Probability
SciTegic.value.DoubleValue
2.24

@<SCITEGIC>MOL_PROPERTY
Sum Probability
SciTegic.value.DoubleValue
67.41

@<SCITEGIC>MOL_PROPERTY
Delta G
SciTegic.value.DoubleValue
1.388

@<SCITEGIC>MOL_PROPERTY
G
SciTegic.value.DoubleValue
-6.575

@<SCITEGIC>MOL_PROPERTY
E
SciTegic.value.DoubleValue
-31.286

@<SCITEGIC>MOL_PROPERTY
-TS
SciTegic.value.DoubleValue
24.711

@<SCITEGIC>MOL_PROPERTY
U+W
SciTegic.value.DoubleValue
-51.854

@<SCITEGIC>MOL_PROPERTY
U
SciTegic.value.DoubleValue
7.816

@<SCITEGIC>MOL_PROPERTY
W
SciTegic.value.DoubleValue
-59.670

@<SCITEGIC>MOL_PROPERTY
W(PB)
SciTegic.value.DoubleValue
-62.157

@<SCITEGIC>MOL_PROPERTY
W(SA)
SciTegic.value.DoubleValue
2.487

@<SCITEGIC>MOL_PROPERTY
Valence
SciTegic.value.DoubleValue
7.785

@<SCITEGIC>MOL_PROPERTY
Coulomb
SciTegic.value.DoubleValue
-0.713

@<SCITEGIC>MOL_PROPERTY
VdW
SciTegic.value.DoubleValue
0.744

@<SCITEGIC>MOL_PROPERTY
VdW6
SciTegic.value.DoubleValue
-8.515

@<SCITEGIC>MOL_PROPERTY
VdW12
SciTegic.value.DoubleValue
9.259

@<SCITEGIC>MOL_PROPERTY
Bond
SciTegic.value.DoubleValue
0.136

@<SCITEGIC>MOL_PROPERTY
Angle
SciTegic.value.DoubleValue
2.433

@<SCITEGIC>MOL_PROPERTY
Pdih
SciTegic.value.DoubleValue
5.215

@<SCITEGIC>MOL_PROPERTY
Idih
SciTegic.value.DoubleValue
0.000

@<SCITEGIC>MOL_PROPERTY
Tether
SciTegic.value.DoubleValue
0.000

@<TRIPOS>MOLECULE
guest-8_vm2.mol2 : vm2 ligand conformer 12
          25          24           1
SMALL
USER_CHARGES
 
@<TRIPOS>ATOM
       1    C1      20.319037   19.711776   27.385449 C.2        1 MOL1         0.6168
       2    O1      21.449605   20.131277   27.535550 O.co2      1 MOL1        -0.6703
       3    O2      19.607538   19.351376   28.302306 O.co2      1 MOL1        -0.6703
       4    C2      19.771477   19.609153   25.966408 C.3        1 MOL1        -0.1963
       5    H1      20.201748   20.431060   25.383238 H          1 MOL1         0.0750
       6    H2      18.687749   19.771017   26.007477 H          1 MOL1         0.0750
       7    C3      20.083950   18.243852   25.300539 C.3        1 MOL1        -0.1860
       8    H3      21.172315   18.113743   25.223879 H          1 MOL1         0.0752
       9    H4      19.721109   17.440285   25.956333 H          1 MOL1         0.0752
      10    C4      19.437602   18.074718   23.904963 C.3        1 MOL1        -0.1858
      11    H5      18.348421   18.192213   23.987579 H          1 MOL1         0.0752
      12    H6      19.614206   17.046285   23.561280 H          1 MOL1         0.0752
      13    C5      19.989860   19.059195   22.848171 C.3        1 MOL1        -0.1858
      14    H7      19.752532   20.091106   23.137062 H          1 MOL1         0.0752
      15    H8      21.083956   18.976399   22.816324 H          1 MOL1         0.0752
      16    C6      19.400266   18.778626   21.446503 C.3        1 MOL1        -0.1858
      17    H9      18.303666   18.790134   21.511617 H          1 MOL1         0.0752
      18    H10     19.682113   17.767768   21.121542 H          1 MOL1         0.0752
      19    C7      19.839610   19.806230   20.377536 C.3        1 MOL1        -0.1834
      20    H11     19.290248   19.604280   19.447675 H          1 MOL1         0.0752
      21    H12     19.551129   20.817912   20.694689 H          1 MOL1         0.0752
      22    C8      21.354056   19.767796   20.078576 C.3        1 MOL1        -0.2849
      23    H13     21.942692   20.076480   20.951479 H          1 MOL1         0.0764
      24    H14     21.671732   18.757958   19.788030 H          1 MOL1         0.0764
      25    H15     21.600006   20.449711   19.254321 H          1 MOL1         0.0764
@<TRIPOS>BOND
    1     1     2    1
    2     1     3    2
    3     1     4    1
    4     4     5    1
    5     4     6    1
    6     4     7    1
    7     7     8    1
    8     7     9    1
    9     7    10    1
   10    10    11    1
   11    10    12    1
   12    10    13    1
   13    13    14    1
   14    13    15    1
   15    13    16    1
   16    16    17    1
   17    16    18    1
   18    16    19    1
   19    19    20    1
   20    19    21    1
   21    19    22    1
   22    22    23    1
   23    22    24    1
   24    22    25    1
@<TRIPOS>SUBSTRUCTURE
       1 MOL1            1 RESIDUE      1      MOL     
@<SCITEGIC>MOL_PROPERTY
VM2 Rank
SciTegic.value.IntegerValue
12

@<SCITEGIC>MOL_PROPERTY
Conf_Id
SciTegic.value.IntegerValue
783

@<SCITEGIC>MOL_PROPERTY
Probability
SciTegic.value.DoubleValue
1.35

@<SCITEGIC>MOL_PROPERTY
Sum Probability
SciTegic.value.DoubleValue
68.76

@<SCITEGIC>MOL_PROPERTY
Delta G
SciTegic.value.DoubleValue
1.688

@<SCITEGIC>MOL_PROPERTY
G
SciTegic.value.DoubleValue
-6.274

@<SCITEGIC>MOL_PROPERTY
E
SciTegic.value.DoubleValue
-30.894

@<SCITEGIC>MOL_PROPERTY
-TS
SciTegic.value.DoubleValue
24.620

@<SCITEGIC>MOL_PROPERTY
U+W
SciTegic.value.DoubleValue
-51.461

@<SCITEGIC>MOL_PROPERTY
U
SciTegic.value.DoubleValue
7.651

@<SCITEGIC>MOL_PROPERTY
W
SciTegic.value.DoubleValue
-59.112

@<SCITEGIC>MOL_PROPERTY
W(PB)
SciTegic.value.DoubleValue
-61.583

@<SCITEGIC>MOL_PROPERTY
W(SA)
SciTegic.value.DoubleValue
2.471

@<SCITEGIC>MOL_PROPERTY
Valence
SciTegic.value.DoubleValue
8.550

@<SCITEGIC>MOL_PROPERTY
Coulomb
SciTegic.value.DoubleValue
-2.034

@<SCITEGIC>MOL_PROPERTY
VdW
SciTegic.value.DoubleValue
1.135

@<SCITEGIC>MOL_PROPERTY
VdW6
SciTegic.value.DoubleValue
-8.973

@<SCITEGIC>MOL_PROPERTY
VdW12
SciTegic.value.DoubleValue
10.108

@<SCITEGIC>MOL_PROPERTY
Bond
SciTegic.value.DoubleValue
0.188

@<SCITEGIC>MOL_PROPERTY
Angle
SciTegic.value.DoubleValue
2.738

@<SCITEGIC>MOL_PROPERTY
Pdih
SciTegic.value.DoubleValue
5.623

@<SCITEGIC>MOL_PROPERTY
Idih
SciTegic.value.DoubleValue
0.001

@<SCITEGIC>MOL_PROPERTY
Tether
SciTegic.value.DoubleValue
0.000

@<TRIPOS>MOLECULE
guest-8_vm2.mol2 : vm2 ligand conformer 13
          25          24           1
SMALL
USER_CHARGES
 
@<TRIPOS>ATOM
       1    C1      20.109503   19.818930   27.332386 C.2        1 MOL1         0.6168
       2    O1      21.133605   20.435728   27.550260 O.co2      1 MOL1        -0.6703
       3    O2      19.379735   19.395518   28.206974 O.co2      1 MOL1        -0.6703
       4    C2      19.731650   19.539841   25.882091 C.3        1 MOL1        -0.1963
       5    H1      20.074858   20.388329   25.279600 H          1 MOL1         0.0750
       6    H2      18.637517   19.513602   25.814712 H          1 MOL1         0.0750
       7    C3      20.332697   18.212574   25.350726 C.3        1 MOL1        -0.1860
       8    H3      21.429648   18.269153   25.379476 H          1 MOL1         0.0752
       9    H4      20.046351   17.398655   26.031158 H          1 MOL1         0.0752
      10    C4      19.865068   17.850629   23.920876 C.3        1 MOL1        -0.1858
      11    H5      18.768642   17.785178   23.897734 H          1 MOL1         0.0752
      12    H6      20.241527   16.848254   23.675045 H          1 MOL1         0.0752
      13    C5      20.349849   18.848845   22.843961 C.3        1 MOL1        -0.1858
      14    H7      19.923206   19.839373   23.042596 H          1 MOL1         0.0752
      15    H8      21.442060   18.949953   22.902394 H          1 MOL1         0.0752
      16    C6      19.949297   18.391490   21.422137 C.3        1 MOL1        -0.1858
      17    H9      18.854796   18.334566   21.346542 H          1 MOL1         0.0752
      18    H10     20.326093   17.373317   21.254231 H          1 MOL1         0.0752
      19    C7      20.498083   19.307795   20.303640 C.3        1 MOL1        -0.1834
      20    H11     21.593288   19.362781   20.373005 H          1 MOL1         0.0752
      21    H12     20.271585   18.850297   19.330696 H          1 MOL1         0.0752
      22    C8      19.903512   20.732649   20.332949 C.3        1 MOL1        -0.2849
      23    H13     20.203277   21.273557   21.239175 H          1 MOL1         0.0764
      24    H14     20.253915   21.312488   19.469294 H          1 MOL1         0.0764
      25    H15     18.806777   20.701645   20.296659 H          1 MOL1         0.0764
@<TRIPOS>BOND
    1     1     2    1
    2     1     3    2
    3     1     4    1
    4     4     5    1
    5     4     6    1
    6     4     7    1
    7     7     8    1
    8     7     9    1
    9     7    10    1
   10    10    11    1
   11    10    12    1
   12    10    13    1
   13    13    14    1
   14    13    15    1
   15    13    16    1
   16    16    17    1
   17    16    18    1
   18    16    19    1
   19    19    20    1
   20    19    21    1
   21    19    22    1
   22    22    23    1
   23    22    24    1
   24    22    25    1
@<TRIPOS>SUBSTRUCTURE
       1 MOL1            1 RESIDUE      1      MOL     
@<SCITEGIC>MOL_PROPERTY
VM2 Rank
SciTegic.value.IntegerValue
13

@<SCITEGIC>MOL_PROPERTY
Conf_Id
SciTegic.value.IntegerValue
196

@<SCITEGIC>MOL_PROPERTY
Probability
SciTegic.value.DoubleValue
1.32

@<SCITEGIC>MOL_PROPERTY
Sum Probability
SciTegic.value.DoubleValue
70.08

@<SCITEGIC>MOL_PROPERTY
Delta G
SciTegic.value.DoubleValue
1.702

@<SCITEGIC>MOL_PROPERTY
G
SciTegic.value.DoubleValue
-6.260

@<SCITEGIC>MOL_PROPERTY
E
SciTegic.value.DoubleValue
-30.875

@<SCITEGIC>MOL_PROPERTY
-TS
SciTegic.value.DoubleValue
24.615

@<SCITEGIC>MOL_PROPERTY
U+W
SciTegic.value.DoubleValue
-51.443

@<SCITEGIC>MOL_PROPERTY
U
SciTegic.value.DoubleValue
7.701

@<SCITEGIC>MOL_PROPERTY
W
SciTegic.value.DoubleValue
-59.144

@<SCITEGIC>MOL_PROPERTY
W(PB)
SciTegic.value.DoubleValue
-61.609

@<SCITEGIC>MOL_PROPERTY
W(SA)
SciTegic.value.DoubleValue
2.466

@<SCITEGIC>MOL_PROPERTY
Valence
SciTegic.value.DoubleValue
8.550

@<SCITEGIC>MOL_PROPERTY
Coulomb
SciTegic.value.DoubleValue
-1.988

@<SCITEGIC>MOL_PROPERTY
VdW
SciTegic.value.DoubleValue
1.139

@<SCITEGIC>MOL_PROPERTY
VdW6
SciTegic.value.DoubleValue
-8.989

@<SCITEGIC>MOL_PROPERTY
VdW12
SciTegic.value.DoubleValue
10.127

@<SCITEGIC>MOL_PROPERTY
Bond
SciTegic.value.DoubleValue
0.191

@<SCITEGIC>MOL_PROPERTY
Angle
SciTegic.value.DoubleValue
2.738

@<SCITEGIC>MOL_PROPERTY
Pdih
SciTegic.value.DoubleValue
5.621

@<SCITEGIC>MOL_PROPERTY
Idih
SciTegic.value.DoubleValue
0.001

@<SCITEGIC>MOL_PROPERTY
Tether
SciTegic.value.DoubleValue
0.000

@<TRIPOS>MOLECULE
guest-8_vm2.mol2 : vm2 ligand conformer 14
          25          24           1
SMALL
USER_CHARGES
 
@<TRIPOS>ATOM
       1    C1      20.551473   19.270291   27.396117 C.2        1 MOL1         0.6168
       2    O1      21.534409   19.970276   27.539478 O.co2      1 MOL1        -0.6703
       3    O2      19.833499   18.922218   28.312690 O.co2      1 MOL1        -0.6703
       4    C2      20.185224   18.823327   25.985403 C.3        1 MOL1        -0.1963
       5    H1      19.704322   17.840291   26.054153 H          1 MOL1         0.0750
       6    H2      21.117758   18.691338   25.425303 H          1 MOL1         0.0750
       7    C3      19.250224   19.827257   25.262238 C.3        1 MOL1        -0.1860
       8    H3      18.369520   20.007197   25.894237 H          1 MOL1         0.0752
       9    H4      19.760623   20.794824   25.159043 H          1 MOL1         0.0752
      10    C4      18.772787   19.337367   23.874409 C.3        1 MOL1        -0.1858
      11    H5      18.032106   20.051156   23.488565 H          1 MOL1         0.0752
      12    H6      18.251367   18.376508   23.983096 H          1 MOL1         0.0752
      13    C5      19.917809   19.196049   22.844872 C.3        1 MOL1        -0.1858
      14    H7      20.469521   20.143307   22.788055 H          1 MOL1         0.0752
      15    H8      20.628135   18.428256   23.177360 H          1 MOL1         0.0752
      16    C6      19.380821   18.815523   21.445639 C.3        1 MOL1        -0.1858
      17    H9      18.713639   19.606657   21.077067 H          1 MOL1         0.0752
      18    H10     18.768413   17.907655   21.533029 H          1 MOL1         0.0752
      19    C7      20.497728   18.556529   20.407792 C.3        1 MOL1        -0.1834
      20    H11     21.162020   17.759196   20.768742 H          1 MOL1         0.0752
      21    H12     20.038916   18.182567   19.482121 H          1 MOL1         0.0752
      22    C8      21.329026   19.815163   20.077362 C.3        1 MOL1        -0.2849
      23    H13     21.899189   20.159026   20.949377 H          1 MOL1         0.0764
      24    H14     22.046675   19.601366   19.274764 H          1 MOL1         0.0764
      25    H15     20.682242   20.636530   19.742496 H          1 MOL1         0.0764
@<TRIPOS>BOND
    1     1     2    1
    2     1     3    2
    3     1     4    1
    4     4     5    1
    5     4     6    1
    6     4     7    1
    7     7     8    1
    8     7     9    1
    9     7    10    1
   10    10    11    1
   11    10    12    1
   12    10    13    1
   13    13    14    1
   14    13    15    1
   15    13    16    1
   16    16    17    1
   17    16    18    1
   18    16    19    1
   19    19    20    1
   20    19    21    1
   21    19    22    1
   22    22    23    1
   23    22    24    1
   24    22    25    1
@<TRIPOS>SUBSTRUCTURE
       1 MOL1            1 RESIDUE      1      MOL     
@<SCITEGIC>MOL_PROPERTY
VM2 Rank
SciTegic.value.IntegerValue
14

@<SCITEGIC>MOL_PROPERTY
Conf_Id
SciTegic.value.IntegerValue
828

@<SCITEGIC>MOL_PROPERTY
Probability
SciTegic.value.DoubleValue
1.27

@<SCITEGIC>MOL_PROPERTY
Sum Probability
SciTegic.value.DoubleValue
71.35

@<SCITEGIC>MOL_PROPERTY
Delta G
SciTegic.value.DoubleValue
1.727

@<SCITEGIC>MOL_PROPERTY
G
SciTegic.value.DoubleValue
-6.236

@<SCITEGIC>MOL_PROPERTY
E
SciTegic.value.DoubleValue
-30.855

@<SCITEGIC>MOL_PROPERTY
-TS
SciTegic.value.DoubleValue
24.619

@<SCITEGIC>MOL_PROPERTY
U+W
SciTegic.value.DoubleValue
-51.422

@<SCITEGIC>MOL_PROPERTY
U
SciTegic.value.DoubleValue
7.651

@<SCITEGIC>MOL_PROPERTY
W
SciTegic.value.DoubleValue
-59.073

@<SCITEGIC>MOL_PROPERTY
W(PB)
SciTegic.value.DoubleValue
-61.559

@<SCITEGIC>MOL_PROPERTY
W(SA)
SciTegic.value.DoubleValue
2.486

@<SCITEGIC>MOL_PROPERTY
Valence
SciTegic.value.DoubleValue
8.550

@<SCITEGIC>MOL_PROPERTY
Coulomb
SciTegic.value.DoubleValue
-2.035

@<SCITEGIC>MOL_PROPERTY
VdW
SciTegic.value.DoubleValue
1.135

@<SCITEGIC>MOL_PROPERTY
VdW6
SciTegic.value.DoubleValue
-8.973

@<SCITEGIC>MOL_PROPERTY
VdW12
SciTegic.value.DoubleValue
10.109

@<SCITEGIC>MOL_PROPERTY
Bond
SciTegic.value.DoubleValue
0.188

@<SCITEGIC>MOL_PROPERTY
Angle
SciTegic.value.DoubleValue
2.738

@<SCITEGIC>MOL_PROPERTY
Pdih
SciTegic.value.DoubleValue
5.623

@<SCITEGIC>MOL_PROPERTY
Idih
SciTegic.value.DoubleValue
0.001

@<SCITEGIC>MOL_PROPERTY
Tether
SciTegic.value.DoubleValue
0.000

@<TRIPOS>MOLECULE
guest-8_vm2.mol2 : vm2 ligand conformer 15
          25          24           1
SMALL
USER_CHARGES
 
@<TRIPOS>ATOM
       1    C1      20.559223   19.082006   27.349313 C.2        1 MOL1         0.6168
       2    O1      21.571833   19.717629   27.566790 O.co2      1 MOL1        -0.6703
       3    O2      19.831112   18.655826   28.223937 O.co2      1 MOL1        -0.6703
       4    C2      20.167889   18.825087   25.898497 C.3        1 MOL1        -0.1963
       5    H1      19.645367   17.862165   25.852598 H          1 MOL1         0.0750
       6    H2      21.091495   18.722518   25.317848 H          1 MOL1         0.0750
       7    C3      19.273816   19.947849   25.310895 C.3        1 MOL1        -0.1860
       8    H3      18.405397   20.087832   25.969454 H          1 MOL1         0.0752
       9    H4      19.825408   20.898116   25.319086 H          1 MOL1         0.0752
      10    C4      18.767241   19.649602   23.879611 C.3        1 MOL1        -0.1858
      11    H5      18.053397   20.433861   23.592772 H          1 MOL1         0.0752
      12    H6      18.207906   18.704029   23.876713 H          1 MOL1         0.0752
      13    C5      19.898357   19.588604   22.826973 C.3        1 MOL1        -0.1858
      14    H7      20.486701   20.515353   22.866384 H          1 MOL1         0.0752
      15    H8      20.579709   18.763600   23.067300 H          1 MOL1         0.0752
      16    C6      19.337485   19.393774   21.399156 C.3        1 MOL1        -0.1858
      17    H9      18.608036   20.188047   21.189683 H          1 MOL1         0.0752
      18    H10     18.787827   18.444179   21.344088 H          1 MOL1         0.0752
      19    C7      20.425879   19.425889   20.300894 C.3        1 MOL1        -0.1834
      20    H11     19.935347   19.400831   19.318053 H          1 MOL1         0.0752
      21    H12     20.974215   20.376815   20.349633 H          1 MOL1         0.0752
      22    C8      21.420165   18.247733   20.389934 C.3        1 MOL1        -0.2849
      23    H13     20.891789   17.285598   20.374975 H          1 MOL1         0.0764
      24    H14     22.113570   18.265694   19.539192 H          1 MOL1         0.0764
      25    H15     22.019648   18.297563   21.307445 H          1 MOL1         0.0764
@<TRIPOS>BOND
    1     1     2    1
    2     1     3    2
    3     1     4    1
    4     4     5    1
    5     4     6    1
    6     4     7    1
    7     7     8    1
    8     7     9    1
    9     7    10    1
   10    10    11    1
   11    10    12    1
   12    10    13    1
   13    13    14    1
   14    13    15    1
   15    13    16    1
   16    16    17    1
   17    16    18    1
   18    16    19    1
   19    19    20    1
   20    19    21    1
   21    19    22    1
   22    22    23    1
   23    22    24    1
   24    22    25    1
@<TRIPOS>SUBSTRUCTURE
       1 MOL1            1 RESIDUE      1      MOL     
@<SCITEGIC>MOL_PROPERTY
VM2 Rank
SciTegic.value.IntegerValue
15

@<SCITEGIC>MOL_PROPERTY
Conf_Id
SciTegic.value.IntegerValue
885

@<SCITEGIC>MOL_PROPERTY
Probability
SciTegic.value.DoubleValue
1.25

@<SCITEGIC>MOL_PROPERTY
Sum Probability
SciTegic.value.DoubleValue
72.60

@<SCITEGIC>MOL_PROPERTY
Delta G
SciTegic.value.DoubleValue
1.733

@<SCITEGIC>MOL_PROPERTY
G
SciTegic.value.DoubleValue
-6.229

@<SCITEGIC>MOL_PROPERTY
E
SciTegic.value.DoubleValue
-30.844

@<SCITEGIC>MOL_PROPERTY
-TS
SciTegic.value.DoubleValue
24.616

@<SCITEGIC>MOL_PROPERTY
U+W
SciTegic.value.DoubleValue
-51.412

@<SCITEGIC>MOL_PROPERTY
U
SciTegic.value.DoubleValue
7.701

@<SCITEGIC>MOL_PROPERTY
W
SciTegic.value.DoubleValue
-59.113

@<SCITEGIC>MOL_PROPERTY
W(PB)
SciTegic.value.DoubleValue
-61.599

@<SCITEGIC>MOL_PROPERTY
W(SA)
SciTegic.value.DoubleValue
2.486

@<SCITEGIC>MOL_PROPERTY
Valence
SciTegic.value.DoubleValue
8.550

@<SCITEGIC>MOL_PROPERTY
Coulomb
SciTegic.value.DoubleValue
-1.988

@<SCITEGIC>MOL_PROPERTY
VdW
SciTegic.value.DoubleValue
1.139

@<SCITEGIC>MOL_PROPERTY
VdW6
SciTegic.value.DoubleValue
-8.988

@<SCITEGIC>MOL_PROPERTY
VdW12
SciTegic.value.DoubleValue
10.127

@<SCITEGIC>MOL_PROPERTY
Bond
SciTegic.value.DoubleValue
0.191

@<SCITEGIC>MOL_PROPERTY
Angle
SciTegic.value.DoubleValue
2.738

@<SCITEGIC>MOL_PROPERTY
Pdih
SciTegic.value.DoubleValue
5.621

@<SCITEGIC>MOL_PROPERTY
Idih
SciTegic.value.DoubleValue
0.001

@<SCITEGIC>MOL_PROPERTY
Tether
SciTegic.value.DoubleValue
0.000

@<TRIPOS>MOLECULE
guest-8_vm2.mol2 : vm2 ligand conformer 16
          25          24           1
SMALL
USER_CHARGES
 
@<TRIPOS>ATOM
       1    C1      20.138471   19.033058   27.484575 C.2        1 MOL1         0.6168
       2    O1      21.226720   19.230953   27.987832 O.co2      1 MOL1        -0.6703
       3    O2      19.103228   18.979850   28.118754 O.co2      1 MOL1        -0.6703
       4    C2      20.064766   18.865383   25.971159 C.3        1 MOL1        -0.1963
       5    H1      19.236567   18.183456   25.744373 H          1 MOL1         0.0750
       6    H2      20.988833   18.375204   25.644556 H          1 MOL1         0.0750
       7    C3      19.868175   20.211916   25.227420 C.3        1 MOL1        -0.1860
       8    H3      18.984338   20.717759   25.640191 H          1 MOL1         0.0752
       9    H4      20.724387   20.870520   25.428533 H          1 MOL1         0.0752
      10    C4      19.679563   20.050174   23.700309 C.3        1 MOL1        -0.1858
      11    H5      19.442394   21.033286   23.271392 H          1 MOL1         0.0752
      12    H6      18.809187   19.408366   23.511173 H          1 MOL1         0.0752
      13    C5      20.928171   19.476216   22.986996 C.3        1 MOL1        -0.1858
      14    H7      21.810653   20.056670   23.288636 H          1 MOL1         0.0752
      15    H8      21.107297   18.443278   23.312739 H          1 MOL1         0.0752
      16    C6      20.822620   19.509721   21.443711 C.3        1 MOL1        -0.1858
      17    H9      21.787101   19.195813   21.021679 H          1 MOL1         0.0752
      18    H10     20.658552   20.542835   21.108119 H          1 MOL1         0.0752
      19    C7      19.708435   18.596888   20.883600 C.3        1 MOL1        -0.1834
      20    H11     19.843489   17.573617   21.260275 H          1 MOL1         0.0752
      21    H12     18.726401   18.940538   21.234323 H          1 MOL1         0.0752
      22    C8      19.712850   18.579842   19.341645 C.3        1 MOL1        -0.2849
      23    H13     20.669301   18.204092   18.955184 H          1 MOL1         0.0764
      24    H14     18.914635   17.930175   18.959761 H          1 MOL1         0.0764
      25    H15     19.551879   19.587917   18.937620 H          1 MOL1         0.0764
@<TRIPOS>BOND
    1     1     2    1
    2     1     3    2
    3     1     4    1
    4     4     5    1
    5     4     6    1
    6     4     7    1
    7     7     8    1
    8     7     9    1
    9     7    10    1
   10    10    11    1
   11    10    12    1
   12    10    13    1
   13    13    14    1
   14    13    15    1
   15    13    16    1
   16    16    17    1
   17    16    18    1
   18    16    19    1
   19    19    20    1
   20    19    21    1
   21    19    22    1
   22    22    23    1
   23    22    24    1
   24    22    25    1
@<TRIPOS>SUBSTRUCTURE
       1 MOL1            1 RESIDUE      1      MOL     
@<SCITEGIC>MOL_PROPERTY
VM2 Rank
SciTegic.value.IntegerValue
16

@<SCITEGIC>MOL_PROPERTY
Conf_Id
SciTegic.value.IntegerValue
845

@<SCITEGIC>MOL_PROPERTY
Probability
SciTegic.value.DoubleValue
1.23

@<SCITEGIC>MOL_PROPERTY
Sum Probability
SciTegic.value.DoubleValue
73.83

@<SCITEGIC>MOL_PROPERTY
Delta G
SciTegic.value.DoubleValue
1.746

@<SCITEGIC>MOL_PROPERTY
G
SciTegic.value.DoubleValue
-6.216

@<SCITEGIC>MOL_PROPERTY
E
SciTegic.value.DoubleValue
-30.853

@<SCITEGIC>MOL_PROPERTY
-TS
SciTegic.value.DoubleValue
24.636

@<SCITEGIC>MOL_PROPERTY
U+W
SciTegic.value.DoubleValue
-51.420

@<SCITEGIC>MOL_PROPERTY
U
SciTegic.value.DoubleValue
7.389

@<SCITEGIC>MOL_PROPERTY
W
SciTegic.value.DoubleValue
-58.809

@<SCITEGIC>MOL_PROPERTY
W(PB)
SciTegic.value.DoubleValue
-61.285

@<SCITEGIC>MOL_PROPERTY
W(SA)
SciTegic.value.DoubleValue
2.476

@<SCITEGIC>MOL_PROPERTY
Valence
SciTegic.value.DoubleValue
8.557

@<SCITEGIC>MOL_PROPERTY
Coulomb
SciTegic.value.DoubleValue
-2.278

@<SCITEGIC>MOL_PROPERTY
VdW
SciTegic.value.DoubleValue
1.110

@<SCITEGIC>MOL_PROPERTY
VdW6
SciTegic.value.DoubleValue
-9.029

@<SCITEGIC>MOL_PROPERTY
VdW12
SciTegic.value.DoubleValue
10.139

@<SCITEGIC>MOL_PROPERTY
Bond
SciTegic.value.DoubleValue
0.192

@<SCITEGIC>MOL_PROPERTY
Angle
SciTegic.value.DoubleValue
2.716

@<SCITEGIC>MOL_PROPERTY
Pdih
SciTegic.value.DoubleValue
5.648

@<SCITEGIC>MOL_PROPERTY
Idih
SciTegic.value.DoubleValue
0.001

@<SCITEGIC>MOL_PROPERTY
Tether
SciTegic.value.DoubleValue
0.000

@<TRIPOS>MOLECULE
guest-8_vm2.mol2 : vm2 ligand conformer 17
          25          24           1
SMALL
USER_CHARGES
 
@<TRIPOS>ATOM
       1    C1      20.213061   19.037996   27.483836 C.2        1 MOL1         0.6168
       2    O1      21.260993   19.116912   28.094041 O.co2      1 MOL1        -0.6703
       3    O2      19.120356   19.097767   28.012170 O.co2      1 MOL1        -0.6703
       4    C2      20.272655   18.878551   25.968908 C.3        1 MOL1        -0.1963
       5    H1      19.410944   18.274626   25.663010 H          1 MOL1         0.0750
       6    H2      21.175209   18.306777   25.722246 H          1 MOL1         0.0750
       7    C3      20.279757   20.237935   25.222606 C.3        1 MOL1        -0.1860
       8    H3      19.351783   20.782961   25.444234 H          1 MOL1         0.0752
       9    H4      21.101556   20.852450   25.615594 H          1 MOL1         0.0752
      10    C4      20.452181   20.098965   23.691345 C.3        1 MOL1        -0.1858
      11    H5      21.392440   19.572594   23.481354 H          1 MOL1         0.0752
      12    H6      20.552618   21.103541   23.258371 H          1 MOL1         0.0752
      13    C5      19.270507   19.369890   23.006248 C.3        1 MOL1        -0.1858
      14    H7      19.231877   18.322985   23.334362 H          1 MOL1         0.0752
      15    H8      18.328590   19.833741   23.329242 H          1 MOL1         0.0752
      16    C6      19.335056   19.414532   21.460986 C.3        1 MOL1        -0.1858
      17    H9      19.358215   20.459691   21.123391 H          1 MOL1         0.0752
      18    H10     18.408932   18.979654   21.060929 H          1 MOL1         0.0752
      19    C7      20.543237   18.650499   20.873661 C.3        1 MOL1        -0.1834
      20    H11     21.481306   19.117068   21.202041 H          1 MOL1         0.0752
      21    H12     20.548585   17.618871   21.251706 H          1 MOL1         0.0752
      22    C8      20.505199   18.630954   19.332198 C.3        1 MOL1        -0.2849
      23    H13     20.526834   19.650783   18.926189 H          1 MOL1         0.0764
      24    H14     21.370670   18.087901   18.930821 H          1 MOL1         0.0764
      25    H15     19.595770   18.135749   18.967439 H          1 MOL1         0.0764
@<TRIPOS>BOND
    1     1     2    1
    2     1     3    2
    3     1     4    1
    4     4     5    1
    5     4     6    1
    6     4     7    1
    7     7     8    1
    8     7     9    1
    9     7    10    1
   10    10    11    1
   11    10    12    1
   12    10    13    1
   13    13    14    1
   14    13    15    1
   15    13    16    1
   16    16    17    1
   17    16    18    1
   18    16    19    1
   19    19    20    1
   20    19    21    1
   21    19    22    1
   22    22    23    1
   23    22    24    1
   24    22    25    1
@<TRIPOS>SUBSTRUCTURE
       1 MOL1            1 RESIDUE      1      MOL     
@<SCITEGIC>MOL_PROPERTY
VM2 Rank
SciTegic.value.IntegerValue
17

@<SCITEGIC>MOL_PROPERTY
Conf_Id
SciTegic.value.IntegerValue
823

@<SCITEGIC>MOL_PROPERTY
Probability
SciTegic.value.DoubleValue
1.21

@<SCITEGIC>MOL_PROPERTY
Sum Probability
SciTegic.value.DoubleValue
75.04

@<SCITEGIC>MOL_PROPERTY
Delta G
SciTegic.value.DoubleValue
1.755

@<SCITEGIC>MOL_PROPERTY
G
SciTegic.value.DoubleValue
-6.207

@<SCITEGIC>MOL_PROPERTY
E
SciTegic.value.DoubleValue
-30.844

@<SCITEGIC>MOL_PROPERTY
-TS
SciTegic.value.DoubleValue
24.637

@<SCITEGIC>MOL_PROPERTY
U+W
SciTegic.value.DoubleValue
-51.411

@<SCITEGIC>MOL_PROPERTY
U
SciTegic.value.DoubleValue
7.389

@<SCITEGIC>MOL_PROPERTY
W
SciTegic.value.DoubleValue
-58.801

@<SCITEGIC>MOL_PROPERTY
W(PB)
SciTegic.value.DoubleValue
-61.267

@<SCITEGIC>MOL_PROPERTY
W(SA)
SciTegic.value.DoubleValue
2.466

@<SCITEGIC>MOL_PROPERTY
Valence
SciTegic.value.DoubleValue
8.557

@<SCITEGIC>MOL_PROPERTY
Coulomb
SciTegic.value.DoubleValue
-2.278

@<SCITEGIC>MOL_PROPERTY
VdW
SciTegic.value.DoubleValue
1.110

@<SCITEGIC>MOL_PROPERTY
VdW6
SciTegic.value.DoubleValue
-9.029

@<SCITEGIC>MOL_PROPERTY
VdW12
SciTegic.value.DoubleValue
10.139

@<SCITEGIC>MOL_PROPERTY
Bond
SciTegic.value.DoubleValue
0.192

@<SCITEGIC>MOL_PROPERTY
Angle
SciTegic.value.DoubleValue
2.716

@<SCITEGIC>MOL_PROPERTY
Pdih
SciTegic.value.DoubleValue
5.648

@<SCITEGIC>MOL_PROPERTY
Idih
SciTegic.value.DoubleValue
0.001

@<SCITEGIC>MOL_PROPERTY
Tether
SciTegic.value.DoubleValue
0.000

@<TRIPOS>MOLECULE
guest-8_vm2.mol2 : vm2 ligand conformer 18
          25          24           1
SMALL
USER_CHARGES
 
@<TRIPOS>ATOM
       1    C1      20.130033   19.338273   27.829253 C.2        1 MOL1         0.6168
       2    O1      21.019369   20.166701   27.866561 O.co2      1 MOL1        -0.6703
       3    O2      19.610120   18.877206   28.825860 O.co2      1 MOL1        -0.6703
       4    C2      19.620382   18.832762   26.478656 C.3        1 MOL1        -0.1963
       5    H1      18.543305   19.033515   26.439793 H          1 MOL1         0.0750
       6    H2      19.744458   17.743530   26.469352 H          1 MOL1         0.0750
       7    C3      20.314418   19.450536   25.235642 C.3        1 MOL1        -0.1860
       8    H3      20.191720   20.542363   25.254704 H          1 MOL1         0.0752
       9    H4      21.393953   19.251169   25.284248 H          1 MOL1         0.0752
      10    C4      19.740692   18.886179   23.917694 C.3        1 MOL1        -0.1858
      11    H5      18.661424   19.086597   23.871334 H          1 MOL1         0.0752
      12    H6      19.864429   17.794600   23.900888 H          1 MOL1         0.0752
      13    C5      20.432483   19.502069   22.682546 C.3        1 MOL1        -0.1858
      14    H7      20.308881   20.593652   22.699068 H          1 MOL1         0.0752
      15    H8      21.511771   19.301770   22.728608 H          1 MOL1         0.0752
      16    C6      19.859290   18.938222   21.364426 C.3        1 MOL1        -0.1858
      17    H9      18.780006   19.138460   21.318130 H          1 MOL1         0.0752
      18    H10     19.982883   17.846646   21.347644 H          1 MOL1         0.0752
      19    C7      20.550672   19.553800   20.129754 C.3        1 MOL1        -0.1834
      20    H11     20.427510   20.645664   20.142131 H          1 MOL1         0.0752
      21    H12     21.630375   19.353859   20.171636 H          1 MOL1         0.0752
      22    C8      19.975540   18.988253   18.815607 C.3        1 MOL1        -0.2849
      23    H13     18.901823   19.201904   18.732646 H          1 MOL1         0.0764
      24    H14     20.478197   19.436520   17.948727 H          1 MOL1         0.0764
      25    H15     20.113757   17.900385   18.762360 H          1 MOL1         0.0764
@<TRIPOS>BOND
    1     1     2    1
    2     1     3    2
    3     1     4    1
    4     4     5    1
    5     4     6    1
    6     4     7    1
    7     7     8    1
    8     7     9    1
    9     7    10    1
   10    10    11    1
   11    10    12    1
   12    10    13    1
   13    13    14    1
   14    13    15    1
   15    13    16    1
   16    16    17    1
   17    16    18    1
   18    16    19    1
   19    19    20    1
   20    19    21    1
   21    19    22    1
   22    22    23    1
   23    22    24    1
   24    22    25    1
@<TRIPOS>SUBSTRUCTURE
       1 MOL1            1 RESIDUE      1      MOL     
@<SCITEGIC>MOL_PROPERTY
VM2 Rank
SciTegic.value.IntegerValue
18

@<SCITEGIC>MOL_PROPERTY
Conf_Id
SciTegic.value.IntegerValue
0

@<SCITEGIC>MOL_PROPERTY
Probability
SciTegic.value.DoubleValue
1.09

@<SCITEGIC>MOL_PROPERTY
Sum Probability
SciTegic.value.DoubleValue
76.13

@<SCITEGIC>MOL_PROPERTY
Delta G
SciTegic.value.DoubleValue
1.818

@<SCITEGIC>MOL_PROPERTY
G
SciTegic.value.DoubleValue
-6.144

@<SCITEGIC>MOL_PROPERTY
E
SciTegic.value.DoubleValue
-31.062

@<SCITEGIC>MOL_PROPERTY
-TS
SciTegic.value.DoubleValue
24.917

@<SCITEGIC>MOL_PROPERTY
U+W
SciTegic.value.DoubleValue
-51.629

@<SCITEGIC>MOL_PROPERTY
U
SciTegic.value.DoubleValue
6.586

@<SCITEGIC>MOL_PROPERTY
W
SciTegic.value.DoubleValue
-58.216

@<SCITEGIC>MOL_PROPERTY
W(PB)
SciTegic.value.DoubleValue
-60.757

@<SCITEGIC>MOL_PROPERTY
W(SA)
SciTegic.value.DoubleValue
2.541

@<SCITEGIC>MOL_PROPERTY
Valence
SciTegic.value.DoubleValue
8.027

@<SCITEGIC>MOL_PROPERTY
Coulomb
SciTegic.value.DoubleValue
-2.892

@<SCITEGIC>MOL_PROPERTY
VdW
SciTegic.value.DoubleValue
1.451

@<SCITEGIC>MOL_PROPERTY
VdW6
SciTegic.value.DoubleValue
-7.931

@<SCITEGIC>MOL_PROPERTY
VdW12
SciTegic.value.DoubleValue
9.383

@<SCITEGIC>MOL_PROPERTY
Bond
SciTegic.value.DoubleValue
0.149

@<SCITEGIC>MOL_PROPERTY
Angle
SciTegic.value.DoubleValue
2.726

@<SCITEGIC>MOL_PROPERTY
Pdih
SciTegic.value.DoubleValue
5.152

@<SCITEGIC>MOL_PROPERTY
Idih
SciTegic.value.DoubleValue
0.000

@<SCITEGIC>MOL_PROPERTY
Tether
SciTegic.value.DoubleValue
0.000

@<TRIPOS>MOLECULE
guest-8_vm2.mol2 : vm2 ligand conformer 19
          25          24           1
SMALL
USER_CHARGES
 
@<TRIPOS>ATOM
       1    C1      20.152244   19.650811   27.426036 C.2        1 MOL1         0.6168
       2    O1      21.197848   20.201431   27.709209 O.co2      1 MOL1        -0.6703
       3    O2      19.077410   19.962067   27.899881 O.co2      1 MOL1        -0.6703
       4    C2      20.187994   18.519916   26.404275 C.3        1 MOL1        -0.1963
       5    H1      19.401094   17.801626   26.663870 H          1 MOL1         0.0750
       6    H2      21.148196   17.999886   26.505079 H          1 MOL1         0.0750
       7    C3      20.000184   19.017561   24.949882 C.3        1 MOL1        -0.1860
       8    H3      19.039166   19.543884   24.867701 H          1 MOL1         0.0752
       9    H4      20.786372   19.748989   24.720644 H          1 MOL1         0.0752
      10    C4      20.045025   17.852175   23.934533 C.3        1 MOL1        -0.1858
      11    H5      19.301809   17.096723   24.224086 H          1 MOL1         0.0752
      12    H6      21.025009   17.357767   23.980701 H          1 MOL1         0.0752
      13    C5      19.755140   18.292877   22.480038 C.3        1 MOL1        -0.1858
      14    H7      19.694592   17.395644   21.849256 H          1 MOL1         0.0752
      15    H8      18.767847   18.771232   22.438066 H          1 MOL1         0.0752
      16    C6      20.830394   19.244466   21.900501 C.3        1 MOL1        -0.1858
      17    H9      21.823566   18.804296   22.063292 H          1 MOL1         0.0752
      18    H10     20.818990   20.199749   22.441309 H          1 MOL1         0.0752
      19    C7      20.654544   19.516906   20.388426 C.3        1 MOL1        -0.1834
      20    H11     21.510338   20.108138   20.034490 H          1 MOL1         0.0752
      21    H12     20.682571   18.568426   19.834465 H          1 MOL1         0.0752
      22    C8      19.352216   20.275789   20.053219 C.3        1 MOL1        -0.2849
      23    H13     19.289574   21.216146   20.616186 H          1 MOL1         0.0764
      24    H14     19.313813   20.518904   18.983499 H          1 MOL1         0.0764
      25    H15     18.466027   19.673452   20.289174 H          1 MOL1         0.0764
@<TRIPOS>BOND
    1     1     2    1
    2     1     3    2
    3     1     4    1
    4     4     5    1
    5     4     6    1
    6     4     7    1
    7     7     8    1
    8     7     9    1
    9     7    10    1
   10    10    11    1
   11    10    12    1
   12    10    13    1
   13    13    14    1
   14    13    15    1
   15    13    16    1
   16    16    17    1
   17    16    18    1
   18    16    19    1
   19    19    20    1
   20    19    21    1
   21    19    22    1
   22    22    23    1
   23    22    24    1
   24    22    25    1
@<TRIPOS>SUBSTRUCTURE
       1 MOL1            1 RESIDUE      1      MOL     
@<SCITEGIC>MOL_PROPERTY
VM2 Rank
SciTegic.value.IntegerValue
19

@<SCITEGIC>MOL_PROPERTY
Conf_Id
SciTegic.value.IntegerValue
1290

@<SCITEGIC>MOL_PROPERTY
Probability
SciTegic.value.DoubleValue
1.09

@<SCITEGIC>MOL_PROPERTY
Sum Probability
SciTegic.value.DoubleValue
77.22

@<SCITEGIC>MOL_PROPERTY
Delta G
SciTegic.value.DoubleValue
1.819

@<SCITEGIC>MOL_PROPERTY
G
SciTegic.value.DoubleValue
-6.143

@<SCITEGIC>MOL_PROPERTY
E
SciTegic.value.DoubleValue
-30.785

@<SCITEGIC>MOL_PROPERTY
-TS
SciTegic.value.DoubleValue
24.642

@<SCITEGIC>MOL_PROPERTY
U+W
SciTegic.value.DoubleValue
-51.352

@<SCITEGIC>MOL_PROPERTY
U
SciTegic.value.DoubleValue
7.838

@<SCITEGIC>MOL_PROPERTY
W
SciTegic.value.DoubleValue
-59.191

@<SCITEGIC>MOL_PROPERTY
W(PB)
SciTegic.value.DoubleValue
-61.683

@<SCITEGIC>MOL_PROPERTY
W(SA)
SciTegic.value.DoubleValue
2.492

@<SCITEGIC>MOL_PROPERTY
Valence
SciTegic.value.DoubleValue
8.536

@<SCITEGIC>MOL_PROPERTY
Coulomb
SciTegic.value.DoubleValue
-1.810

@<SCITEGIC>MOL_PROPERTY
VdW
SciTegic.value.DoubleValue
1.112

@<SCITEGIC>MOL_PROPERTY
VdW6
SciTegic.value.DoubleValue
-8.987

@<SCITEGIC>MOL_PROPERTY
VdW12
SciTegic.value.DoubleValue
10.100

@<SCITEGIC>MOL_PROPERTY
Bond
SciTegic.value.DoubleValue
0.183

@<SCITEGIC>MOL_PROPERTY
Angle
SciTegic.value.DoubleValue
2.700

@<SCITEGIC>MOL_PROPERTY
Pdih
SciTegic.value.DoubleValue
5.652

@<SCITEGIC>MOL_PROPERTY
Idih
SciTegic.value.DoubleValue
0.001

@<SCITEGIC>MOL_PROPERTY
Tether
SciTegic.value.DoubleValue
0.000

@<TRIPOS>MOLECULE
guest-8_vm2.mol2 : vm2 ligand conformer 20
          25          24           1
SMALL
USER_CHARGES
 
@<TRIPOS>ATOM
       1    C1      20.152049   19.475466   27.576012 C.2        1 MOL1         0.6168
       2    O1      21.235817   19.874437   27.954145 O.co2      1 MOL1        -0.6703
       3    O2      19.354835   18.907998   28.296552 O.co2      1 MOL1        -0.6703
       4    C2      19.781786   19.676550   26.110877 C.3        1 MOL1        -0.1963
       5    H1      20.237887   20.615768   25.778869 H          1 MOL1         0.0750
       6    H2      18.694266   19.802589   26.049435 H          1 MOL1         0.0750
       7    C3      20.235748   18.497677   25.210997 C.3        1 MOL1        -0.1860
       8    H3      21.330744   18.411949   25.241940 H          1 MOL1         0.0752
       9    H4      19.840038   17.562777   25.631544 H          1 MOL1         0.0752
      10    C4      19.761535   18.618404   23.742884 C.3        1 MOL1        -0.1858
      11    H5      18.667435   18.713027   23.716290 H          1 MOL1         0.0752
      12    H6      20.005412   17.679408   23.230145 H          1 MOL1         0.0752
      13    C5      20.407432   19.803418   22.983275 C.3        1 MOL1        -0.1858
      14    H7      20.164728   20.742074   23.497095 H          1 MOL1         0.0752
      15    H8      21.501501   19.708269   23.008598 H          1 MOL1         0.0752
      16    C6      19.932285   19.927475   21.515676 C.3        1 MOL1        -0.1858
      17    H9      20.321660   20.868552   21.103759 H          1 MOL1         0.0752
      18    H10     18.836922   20.007079   21.488785 H          1 MOL1         0.0752
      19    C7      20.393151   18.759745   20.613975 C.3        1 MOL1        -0.1834
      20    H11     21.483481   18.644430   20.685263 H          1 MOL1         0.0752
      21    H12     19.947819   17.816845   20.956934 H          1 MOL1         0.0752
      22    C8      19.998361   18.992830   19.141606 C.3        1 MOL1        -0.2849
      23    H13     20.459182   19.909626   18.751125 H          1 MOL1         0.0764
      24    H14     20.329137   18.154307   18.515086 H          1 MOL1         0.0764
      25    H15     18.909330   19.084997   19.037240 H          1 MOL1         0.0764
@<TRIPOS>BOND
    1     1     2    1
    2     1     3    2
    3     1     4    1
    4     4     5    1
    5     4     6    1
    6     4     7    1
    7     7     8    1
    8     7     9    1
    9     7    10    1
   10    10    11    1
   11    10    12    1
   12    10    13    1
   13    13    14    1
   14    13    15    1
   15    13    16    1
   16    16    17    1
   17    16    18    1
   18    16    19    1
   19    19    20    1
   20    19    21    1
   21    19    22    1
   22    22    23    1
   23    22    24    1
   24    22    25    1
@<TRIPOS>SUBSTRUCTURE
       1 MOL1            1 RESIDUE      1      MOL     
@<SCITEGIC>MOL_PROPERTY
VM2 Rank
SciTegic.value.IntegerValue
20

@<SCITEGIC>MOL_PROPERTY
Conf_Id
SciTegic.value.IntegerValue
1039

@<SCITEGIC>MOL_PROPERTY
Probability
SciTegic.value.DoubleValue
1.08

@<SCITEGIC>MOL_PROPERTY
Sum Probability
SciTegic.value.DoubleValue
78.30

@<SCITEGIC>MOL_PROPERTY
Delta G
SciTegic.value.DoubleValue
1.822

@<SCITEGIC>MOL_PROPERTY
G
SciTegic.value.DoubleValue
-6.140

@<SCITEGIC>MOL_PROPERTY
E
SciTegic.value.DoubleValue
-30.690

@<SCITEGIC>MOL_PROPERTY
-TS
SciTegic.value.DoubleValue
24.549

@<SCITEGIC>MOL_PROPERTY
U+W
SciTegic.value.DoubleValue
-51.257

@<SCITEGIC>MOL_PROPERTY
U
SciTegic.value.DoubleValue
7.507

@<SCITEGIC>MOL_PROPERTY
W
SciTegic.value.DoubleValue
-58.764

@<SCITEGIC>MOL_PROPERTY
W(PB)
SciTegic.value.DoubleValue
-61.246

@<SCITEGIC>MOL_PROPERTY
W(SA)
SciTegic.value.DoubleValue
2.482

@<SCITEGIC>MOL_PROPERTY
Valence
SciTegic.value.DoubleValue
8.668

@<SCITEGIC>MOL_PROPERTY
Coulomb
SciTegic.value.DoubleValue
-2.355

@<SCITEGIC>MOL_PROPERTY
VdW
SciTegic.value.DoubleValue
1.193

@<SCITEGIC>MOL_PROPERTY
VdW6
SciTegic.value.DoubleValue
-8.929

@<SCITEGIC>MOL_PROPERTY
VdW12
SciTegic.value.DoubleValue
10.122

@<SCITEGIC>MOL_PROPERTY
Bond
SciTegic.value.DoubleValue
0.201

@<SCITEGIC>MOL_PROPERTY
Angle
SciTegic.value.DoubleValue
2.816

@<SCITEGIC>MOL_PROPERTY
Pdih
SciTegic.value.DoubleValue
5.651

@<SCITEGIC>MOL_PROPERTY
Idih
SciTegic.value.DoubleValue
0.001

@<SCITEGIC>MOL_PROPERTY
Tether
SciTegic.value.DoubleValue
0.000

@<TRIPOS>MOLECULE
guest-8_vm2.mol2 : vm2 ligand conformer 21
          25          24           1
SMALL
USER_CHARGES
 
@<TRIPOS>ATOM
       1    C1      20.670931   19.501927   27.038546 C.2        1 MOL1         0.6168
       2    O1      21.539082   20.328771   26.840226 O.co2      1 MOL1        -0.6703
       3    O2      20.186184   19.283779   28.131374 O.co2      1 MOL1        -0.6703
       4    C2      20.144641   18.710004   25.847054 C.3        1 MOL1        -0.1963
       5    H1      19.843501   17.717658   26.203125 H          1 MOL1         0.0750
       6    H2      20.976766   18.567412   25.148229 H          1 MOL1         0.0750
       7    C3      18.954533   19.409392   25.140696 C.3        1 MOL1        -0.1860
       8    H3      18.175953   19.620218   25.886769 H          1 MOL1         0.0752
       9    H4      19.277998   20.386011   24.756788 H          1 MOL1         0.0752
      10    C4      18.329078   18.567305   24.000140 C.3        1 MOL1        -0.1858
      11    H5      17.481315   19.122533   23.576110 H          1 MOL1         0.0752
      12    H6      17.905447   17.648597   24.428248 H          1 MOL1         0.0752
      13    C5      19.297985   18.180292   22.854508 C.3        1 MOL1        -0.1858
      14    H7      20.092713   17.527862   23.239192 H          1 MOL1         0.0752
      15    H8      18.742293   17.580947   22.120529 H          1 MOL1         0.0752
      16    C6      19.924018   19.398476   22.137091 C.3        1 MOL1        -0.1858
      17    H9      20.545825   19.967135   22.841031 H          1 MOL1         0.0752
      18    H10     19.127088   20.072527   21.794666 H          1 MOL1         0.0752
      19    C7      20.789294   18.969125   20.933551 C.3        1 MOL1        -0.1834
      20    H11     21.586143   18.293130   21.273404 H          1 MOL1         0.0752
      21    H12     20.175455   18.405020   20.217751 H          1 MOL1         0.0752
      22    C8      21.417254   20.184930   20.222813 C.3        1 MOL1        -0.2849
      23    H13     22.028653   19.861603   19.370354 H          1 MOL1         0.0764
      24    H14     20.640903   20.863276   19.845350 H          1 MOL1         0.0764
      25    H15     22.062718   20.750050   20.907957 H          1 MOL1         0.0764
@<TRIPOS>BOND
    1     1     2    1
    2     1     3    2
    3     1     4    1
    4     4     5    1
    5     4     6    1
    6     4     7    1
    7     7     8    1
    8     7     9    1
    9     7    10    1
   10    10    11    1
   11    10    12    1
   12    10    13    1
   13    13    14    1
   14    13    15    1
   15    13    16    1
   16    16    17    1
   17    16    18    1
   18    16    19    1
   19    19    20    1
   20    19    21    1
   21    19    22    1
   22    22    23    1
   23    22    24    1
   24    22    25    1
@<TRIPOS>SUBSTRUCTURE
       1 MOL1            1 RESIDUE      1      MOL     
@<SCITEGIC>MOL_PROPERTY
VM2 Rank
SciTegic.value.IntegerValue
21

@<SCITEGIC>MOL_PROPERTY
Conf_Id
SciTegic.value.IntegerValue
1271

@<SCITEGIC>MOL_PROPERTY
Probability
SciTegic.value.DoubleValue
1.05

@<SCITEGIC>MOL_PROPERTY
Sum Probability
SciTegic.value.DoubleValue
79.35

@<SCITEGIC>MOL_PROPERTY
Delta G
SciTegic.value.DoubleValue
1.840

@<SCITEGIC>MOL_PROPERTY
G
SciTegic.value.DoubleValue
-6.123

@<SCITEGIC>MOL_PROPERTY
E
SciTegic.value.DoubleValue
-30.966

@<SCITEGIC>MOL_PROPERTY
-TS
SciTegic.value.DoubleValue
24.844

@<SCITEGIC>MOL_PROPERTY
U+W
SciTegic.value.DoubleValue
-51.534

@<SCITEGIC>MOL_PROPERTY
U
SciTegic.value.DoubleValue
8.114

@<SCITEGIC>MOL_PROPERTY
W
SciTegic.value.DoubleValue
-59.648

@<SCITEGIC>MOL_PROPERTY
W(PB)
SciTegic.value.DoubleValue
-62.099

@<SCITEGIC>MOL_PROPERTY
W(SA)
SciTegic.value.DoubleValue
2.451

@<SCITEGIC>MOL_PROPERTY
Valence
SciTegic.value.DoubleValue
8.487

@<SCITEGIC>MOL_PROPERTY
Coulomb
SciTegic.value.DoubleValue
-1.260

@<SCITEGIC>MOL_PROPERTY
VdW
SciTegic.value.DoubleValue
0.887

@<SCITEGIC>MOL_PROPERTY
VdW6
SciTegic.value.DoubleValue
-9.447

@<SCITEGIC>MOL_PROPERTY
VdW12
SciTegic.value.DoubleValue
10.334

@<SCITEGIC>MOL_PROPERTY
Bond
SciTegic.value.DoubleValue
0.199

@<SCITEGIC>MOL_PROPERTY
Angle
SciTegic.value.DoubleValue
2.915

@<SCITEGIC>MOL_PROPERTY
Pdih
SciTegic.value.DoubleValue
5.373

@<SCITEGIC>MOL_PROPERTY
Idih
SciTegic.value.DoubleValue
0.001

@<SCITEGIC>MOL_PROPERTY
Tether
SciTegic.value.DoubleValue
0.000

@<TRIPOS>MOLECULE
guest-8_vm2.mol2 : vm2 ligand conformer 22
          25          24           1
SMALL
USER_CHARGES
 
@<TRIPOS>ATOM
       1    C1      20.273148   18.984471   27.436439 C.2        1 MOL1         0.6168
       2    O1      21.443914   18.844867   27.730506 O.co2      1 MOL1        -0.6703
       3    O2      19.373477   18.329645   27.924772 O.co2      1 MOL1        -0.6703
       4    C2      19.915224   20.024673   26.380944 C.3        1 MOL1        -0.1963
       5    H1      20.631253   20.851419   26.460783 H          1 MOL1         0.0750
       6    H2      18.924888   20.428537   26.623165 H          1 MOL1         0.0750
       7    C3      19.921883   19.449267   24.943218 C.3        1 MOL1        -0.1860
       8    H3      20.916027   19.033854   24.731702 H          1 MOL1         0.0752
       9    H4      19.207266   18.616844   24.882212 H          1 MOL1         0.0752
      10    C4      19.560164   20.525116   23.893083 C.3        1 MOL1        -0.1858
      11    H5      20.303875   21.333299   23.918994 H          1 MOL1         0.0752
      12    H6      18.597449   20.979830   24.163888 H          1 MOL1         0.0752
      13    C5      19.451349   19.967184   22.454097 C.3        1 MOL1        -0.1858
      14    H7      18.695323   19.171405   22.431997 H          1 MOL1         0.0752
      15    H8      19.082764   20.766557   21.797036 H          1 MOL1         0.0752
      16    C6      20.795468   19.437144   21.897362 C.3        1 MOL1        -0.1858
      17    H9      21.117688   18.555578   22.466731 H          1 MOL1         0.0752
      18    H10     21.569714   20.202977   22.041182 H          1 MOL1         0.0752
      19    C7      20.734538   19.074796   20.395192 C.3        1 MOL1        -0.1834
      20    H11     20.430295   19.955432   19.812794 H          1 MOL1         0.0752
      21    H12     21.745384   18.811704   20.054336 H          1 MOL1         0.0752
      22    C8      19.783837   17.896836   20.090387 C.3        1 MOL1        -0.2849
      23    H13     19.838958   17.623581   19.028703 H          1 MOL1         0.0764
      24    H14     20.052772   17.011904   20.681738 H          1 MOL1         0.0764
      25    H15     18.741248   18.156075   20.313146 H          1 MOL1         0.0764
@<TRIPOS>BOND
    1     1     2    1
    2     1     3    2
    3     1     4    1
    4     4     5    1
    5     4     6    1
    6     4     7    1
    7     7     8    1
    8     7     9    1
    9     7    10    1
   10    10    11    1
   11    10    12    1
   12    10    13    1
   13    13    14    1
   14    13    15    1
   15    13    16    1
   16    16    17    1
   17    16    18    1
   18    16    19    1
   19    19    20    1
   20    19    21    1
   21    19    22    1
   22    22    23    1
   23    22    24    1
   24    22    25    1
@<TRIPOS>SUBSTRUCTURE
       1 MOL1            1 RESIDUE      1      MOL     
@<SCITEGIC>MOL_PROPERTY
VM2 Rank
SciTegic.value.IntegerValue
22

@<SCITEGIC>MOL_PROPERTY
Conf_Id
SciTegic.value.IntegerValue
1087

@<SCITEGIC>MOL_PROPERTY
Probability
SciTegic.value.DoubleValue
1.05

@<SCITEGIC>MOL_PROPERTY
Sum Probability
SciTegic.value.DoubleValue
80.40

@<SCITEGIC>MOL_PROPERTY
Delta G
SciTegic.value.DoubleValue
1.840

@<SCITEGIC>MOL_PROPERTY
G
SciTegic.value.DoubleValue
-6.122

@<SCITEGIC>MOL_PROPERTY
E
SciTegic.value.DoubleValue
-30.764

@<SCITEGIC>MOL_PROPERTY
-TS
SciTegic.value.DoubleValue
24.642

@<SCITEGIC>MOL_PROPERTY
U+W
SciTegic.value.DoubleValue
-51.331

@<SCITEGIC>MOL_PROPERTY
U
SciTegic.value.DoubleValue
7.838

@<SCITEGIC>MOL_PROPERTY
W
SciTegic.value.DoubleValue
-59.170

@<SCITEGIC>MOL_PROPERTY
W(PB)
SciTegic.value.DoubleValue
-61.675

@<SCITEGIC>MOL_PROPERTY
W(SA)
SciTegic.value.DoubleValue
2.505

@<SCITEGIC>MOL_PROPERTY
Valence
SciTegic.value.DoubleValue
8.536

@<SCITEGIC>MOL_PROPERTY
Coulomb
SciTegic.value.DoubleValue
-1.810

@<SCITEGIC>MOL_PROPERTY
VdW
SciTegic.value.DoubleValue
1.112

@<SCITEGIC>MOL_PROPERTY
VdW6
SciTegic.value.DoubleValue
-8.987

@<SCITEGIC>MOL_PROPERTY
VdW12
SciTegic.value.DoubleValue
10.099

@<SCITEGIC>MOL_PROPERTY
Bond
SciTegic.value.DoubleValue
0.183

@<SCITEGIC>MOL_PROPERTY
Angle
SciTegic.value.DoubleValue
2.701

@<SCITEGIC>MOL_PROPERTY
Pdih
SciTegic.value.DoubleValue
5.652

@<SCITEGIC>MOL_PROPERTY
Idih
SciTegic.value.DoubleValue
0.001

@<SCITEGIC>MOL_PROPERTY
Tether
SciTegic.value.DoubleValue
0.000

@<TRIPOS>MOLECULE
guest-8_vm2.mol2 : vm2 ligand conformer 23
          25          24           1
SMALL
USER_CHARGES
 
@<TRIPOS>ATOM
       1    C1      20.088335   19.110651   27.539494 C.2        1 MOL1         0.6168
       2    O1      21.157193   18.946030   28.093671 O.co2      1 MOL1        -0.6703
       3    O2      19.070694   18.524397   27.851526 O.co2      1 MOL1        -0.6703
       4    C2      20.025423   20.091473   26.374056 C.3        1 MOL1        -0.1963
       5    H1      20.746701   20.894863   26.566084 H          1 MOL1         0.0750
       6    H2      19.027671   20.546445   26.365158 H          1 MOL1         0.0750
       7    C3      20.319616   19.422576   25.008641 C.3        1 MOL1        -0.1860
       8    H3      21.317928   18.964462   25.037049 H          1 MOL1         0.0752
       9    H4      19.598619   18.610041   24.850217 H          1 MOL1         0.0752
      10    C4      20.244515   20.438361   23.844898 C.3        1 MOL1        -0.1858
      11    H5      20.913104   21.281710   24.065595 H          1 MOL1         0.0752
      12    H6      19.230049   20.855090   23.780378 H          1 MOL1         0.0752
      13    C5      20.647443   19.841884   22.475024 C.3        1 MOL1        -0.1858
      14    H7      20.707740   20.665020   21.751819 H          1 MOL1         0.0752
      15    H8      21.656255   19.412626   22.543043 H          1 MOL1         0.0752
      16    C6      19.657713   18.771242   21.952688 C.3        1 MOL1        -0.1858
      17    H9      18.648364   19.199762   21.887810 H          1 MOL1         0.0752
      18    H10     19.599880   17.944830   22.672230 H          1 MOL1         0.0752
      19    C7      20.058477   18.181858   20.579933 C.3        1 MOL1        -0.1834
      20    H11     21.072384   17.762400   20.637769 H          1 MOL1         0.0752
      21    H12     19.388559   17.342066   20.349259 H          1 MOL1         0.0752
      22    C8      19.983591   19.205528   19.426069 C.3        1 MOL1        -0.2849
      23    H13     20.724642   20.004943   19.549297 H          1 MOL1         0.0764
      24    H14     20.182749   18.714679   18.464658 H          1 MOL1         0.0764
      25    H15     18.987543   19.663779   19.371250 H          1 MOL1         0.0764
@<TRIPOS>BOND
    1     1     2    1
    2     1     3    2
    3     1     4    1
    4     4     5    1
    5     4     6    1
    6     4     7    1
    7     7     8    1
    8     7     9    1
    9     7    10    1
   10    10    11    1
   11    10    12    1
   12    10    13    1
   13    13    14    1
   14    13    15    1
   15    13    16    1
   16    16    17    1
   17    16    18    1
   18    16    19    1
   19    19    20    1
   20    19    21    1
   21    19    22    1
   22    22    23    1
   23    22    24    1
   24    22    25    1
@<TRIPOS>SUBSTRUCTURE
       1 MOL1            1 RESIDUE      1      MOL     
@<SCITEGIC>MOL_PROPERTY
VM2 Rank
SciTegic.value.IntegerValue
23

@<SCITEGIC>MOL_PROPERTY
Conf_Id
SciTegic.value.IntegerValue
530

@<SCITEGIC>MOL_PROPERTY
Probability
SciTegic.value.DoubleValue
1.04

@<SCITEGIC>MOL_PROPERTY
Sum Probability
SciTegic.value.DoubleValue
81.43

@<SCITEGIC>MOL_PROPERTY
Delta G
SciTegic.value.DoubleValue
1.847

@<SCITEGIC>MOL_PROPERTY
G
SciTegic.value.DoubleValue
-6.115

@<SCITEGIC>MOL_PROPERTY
E
SciTegic.value.DoubleValue
-30.674

@<SCITEGIC>MOL_PROPERTY
-TS
SciTegic.value.DoubleValue
24.558

@<SCITEGIC>MOL_PROPERTY
U+W
SciTegic.value.DoubleValue
-51.242

@<SCITEGIC>MOL_PROPERTY
U
SciTegic.value.DoubleValue
7.805

@<SCITEGIC>MOL_PROPERTY
W
SciTegic.value.DoubleValue
-59.047

@<SCITEGIC>MOL_PROPERTY
W(PB)
SciTegic.value.DoubleValue
-61.531

@<SCITEGIC>MOL_PROPERTY
W(SA)
SciTegic.value.DoubleValue
2.484

@<SCITEGIC>MOL_PROPERTY
Valence
SciTegic.value.DoubleValue
8.642

@<SCITEGIC>MOL_PROPERTY
Coulomb
SciTegic.value.DoubleValue
-2.028

@<SCITEGIC>MOL_PROPERTY
VdW
SciTegic.value.DoubleValue
1.191

@<SCITEGIC>MOL_PROPERTY
VdW6
SciTegic.value.DoubleValue
-8.891

@<SCITEGIC>MOL_PROPERTY
VdW12
SciTegic.value.DoubleValue
10.082

@<SCITEGIC>MOL_PROPERTY
Bond
SciTegic.value.DoubleValue
0.190

@<SCITEGIC>MOL_PROPERTY
Angle
SciTegic.value.DoubleValue
2.795

@<SCITEGIC>MOL_PROPERTY
Pdih
SciTegic.value.DoubleValue
5.656

@<SCITEGIC>MOL_PROPERTY
Idih
SciTegic.value.DoubleValue
0.001

@<SCITEGIC>MOL_PROPERTY
Tether
SciTegic.value.DoubleValue
0.000

@<TRIPOS>MOLECULE
guest-8_vm2.mol2 : vm2 ligand conformer 24
          25          24           1
SMALL
USER_CHARGES
 
@<TRIPOS>ATOM
       1    C1      20.253047   19.120554   27.537579 C.2        1 MOL1         0.6168
       2    O1      21.340774   18.661642   27.825503 O.co2      1 MOL1        -0.6703
       3    O2      19.224736   18.829060   28.115749 O.co2      1 MOL1        -0.6703
       4    C2      20.170702   20.100229   26.372387 C.3        1 MOL1        -0.1963
       5    H1      21.105968   20.671980   26.341252 H          1 MOL1         0.0750
       6    H2      19.362558   20.811217   26.582034 H          1 MOL1         0.0750
       7    C3      19.927932   19.398918   25.013138 C.3        1 MOL1        -0.1860
       8    H3      20.737681   18.678875   24.837083 H          1 MOL1         0.0752
       9    H4      18.992946   18.823996   25.063783 H          1 MOL1         0.0752
      10    C4      19.853502   20.414763   23.849405 C.3        1 MOL1        -0.1858
      11    H5      20.808690   20.950469   23.762218 H          1 MOL1         0.0752
      12    H6      19.093513   21.171817   24.086562 H          1 MOL1         0.0752
      13    C5      19.493974   19.772263   22.488294 C.3        1 MOL1        -0.1858
      14    H7      18.545858   19.225014   22.578766 H          1 MOL1         0.0752
      15    H8      19.318711   20.581174   21.767767 H          1 MOL1         0.0752
      16    C6      20.592956   18.827523   21.942052 C.3        1 MOL1        -0.1858
      17    H9      20.765844   18.014906   22.658858 H          1 MOL1         0.0752
      18    H10     21.541850   19.374004   21.854966 H          1 MOL1         0.0752
      19    C7      20.234797   18.192625   20.577843 C.3        1 MOL1        -0.1834
      20    H11     20.995073   17.438790   20.330935 H          1 MOL1         0.0752
      21    H12     19.279966   17.654865   20.657911 H          1 MOL1         0.0752
      22    C8      20.160578   19.216425   19.424050 C.3        1 MOL1        -0.2849
      23    H13     21.093159   19.790468   19.347398 H          1 MOL1         0.0764
      24    H14     19.999898   18.704046   18.466680 H          1 MOL1         0.0764
      25    H15     19.332197   19.921609   19.565137 H          1 MOL1         0.0764
@<TRIPOS>BOND
    1     1     2    1
    2     1     3    2
    3     1     4    1
    4     4     5    1
    5     4     6    1
    6     4     7    1
    7     7     8    1
    8     7     9    1
    9     7    10    1
   10    10    11    1
   11    10    12    1
   12    10    13    1
   13    13    14    1
   14    13    15    1
   15    13    16    1
   16    16    17    1
   17    16    18    1
   18    16    19    1
   19    19    20    1
   20    19    21    1
   21    19    22    1
   22    22    23    1
   23    22    24    1
   24    22    25    1
@<TRIPOS>SUBSTRUCTURE
       1 MOL1            1 RESIDUE      1      MOL     
@<SCITEGIC>MOL_PROPERTY
VM2 Rank
SciTegic.value.IntegerValue
24

@<SCITEGIC>MOL_PROPERTY
Conf_Id
SciTegic.value.IntegerValue
492

@<SCITEGIC>MOL_PROPERTY
Probability
SciTegic.value.DoubleValue
1.03

@<SCITEGIC>MOL_PROPERTY
Sum Probability
SciTegic.value.DoubleValue
82.46

@<SCITEGIC>MOL_PROPERTY
Delta G
SciTegic.value.DoubleValue
1.852

@<SCITEGIC>MOL_PROPERTY
G
SciTegic.value.DoubleValue
-6.111

@<SCITEGIC>MOL_PROPERTY
E
SciTegic.value.DoubleValue
-30.669

@<SCITEGIC>MOL_PROPERTY
-TS
SciTegic.value.DoubleValue
24.559

@<SCITEGIC>MOL_PROPERTY
U+W
SciTegic.value.DoubleValue
-51.237

@<SCITEGIC>MOL_PROPERTY
U
SciTegic.value.DoubleValue
7.805

@<SCITEGIC>MOL_PROPERTY
W
SciTegic.value.DoubleValue
-59.042

@<SCITEGIC>MOL_PROPERTY
W(PB)
SciTegic.value.DoubleValue
-61.534

@<SCITEGIC>MOL_PROPERTY
W(SA)
SciTegic.value.DoubleValue
2.491

@<SCITEGIC>MOL_PROPERTY
Valence
SciTegic.value.DoubleValue
8.642

@<SCITEGIC>MOL_PROPERTY
Coulomb
SciTegic.value.DoubleValue
-2.028

@<SCITEGIC>MOL_PROPERTY
VdW
SciTegic.value.DoubleValue
1.191

@<SCITEGIC>MOL_PROPERTY
VdW6
SciTegic.value.DoubleValue
-8.891

@<SCITEGIC>MOL_PROPERTY
VdW12
SciTegic.value.DoubleValue
10.082

@<SCITEGIC>MOL_PROPERTY
Bond
SciTegic.value.DoubleValue
0.190

@<SCITEGIC>MOL_PROPERTY
Angle
SciTegic.value.DoubleValue
2.795

@<SCITEGIC>MOL_PROPERTY
Pdih
SciTegic.value.DoubleValue
5.656

@<SCITEGIC>MOL_PROPERTY
Idih
SciTegic.value.DoubleValue
0.001

@<SCITEGIC>MOL_PROPERTY
Tether
SciTegic.value.DoubleValue
0.000

@<TRIPOS>MOLECULE
guest-8_vm2.mol2 : vm2 ligand conformer 25
          25          24           1
SMALL
USER_CHARGES
 
@<TRIPOS>ATOM
       1    C1      20.238506   19.260703   27.581677 C.2        1 MOL1         0.6168
       2    O1      21.289762   19.740491   27.957677 O.co2      1 MOL1        -0.6703
       3    O2      19.257427   19.150269   28.290220 O.co2      1 MOL1        -0.6703
       4    C2      20.137349   18.792760   26.134283 C.3        1 MOL1        -0.1963
       5    H1      19.441035   17.946451   26.098643 H          1 MOL1         0.0750
       6    H2      21.122593   18.416776   25.837099 H          1 MOL1         0.0750
       7    C3      19.665416   19.915095   25.173423 C.3        1 MOL1        -0.1860
       8    H3      18.725114   20.333811   25.558118 H          1 MOL1         0.0752
       9    H4      20.395578   20.736154   25.180307 H          1 MOL1         0.0752
      10    C4      19.433716   19.432963   23.721296 C.3        1 MOL1        -0.1858
      11    H5      18.969195   20.254772   23.161883 H          1 MOL1         0.0752
      12    H6      18.710237   18.606348   23.719135 H          1 MOL1         0.0752
      13    C5      20.733861   18.991723   23.004792 C.3        1 MOL1        -0.1858
      14    H7      21.457005   19.818610   23.005726 H          1 MOL1         0.0752
      15    H8      21.198926   18.170974   23.565215 H          1 MOL1         0.0752
      16    C6      20.503812   18.506656   21.553314 C.3        1 MOL1        -0.1858
      17    H9      19.768969   17.690031   21.550113 H          1 MOL1         0.0752
      18    H10     21.443638   18.079404   21.177685 H          1 MOL1         0.0752
      19    C7      20.044832   19.625767   20.591035 C.3        1 MOL1        -0.1834
      20    H11     19.064638   20.012479   20.898729 H          1 MOL1         0.0752
      21    H12     20.750518   20.466651   20.637049 H          1 MOL1         0.0752
      22    C8      19.948321   19.117573   19.138285 C.3        1 MOL1        -0.2849
      23    H13     19.228078   18.292830   19.058128 H          1 MOL1         0.0764
      24    H14     19.618344   19.922062   18.468232 H          1 MOL1         0.0764
      25    H15     20.922478   18.758128   18.781684 H          1 MOL1         0.0764
@<TRIPOS>BOND
    1     1     2    1
    2     1     3    2
    3     1     4    1
    4     4     5    1
    5     4     6    1
    6     4     7    1
    7     7     8    1
    8     7     9    1
    9     7    10    1
   10    10    11    1
   11    10    12    1
   12    10    13    1
   13    13    14    1
   14    13    15    1
   15    13    16    1
   16    16    17    1
   17    16    18    1
   18    16    19    1
   19    19    20    1
   20    19    21    1
   21    19    22    1
   22    22    23    1
   23    22    24    1
   24    22    25    1
@<TRIPOS>SUBSTRUCTURE
       1 MOL1            1 RESIDUE      1      MOL     
@<SCITEGIC>MOL_PROPERTY
VM2 Rank
SciTegic.value.IntegerValue
25

@<SCITEGIC>MOL_PROPERTY
Conf_Id
SciTegic.value.IntegerValue
974

@<SCITEGIC>MOL_PROPERTY
Probability
SciTegic.value.DoubleValue
1.01

@<SCITEGIC>MOL_PROPERTY
Sum Probability
SciTegic.value.DoubleValue
83.47

@<SCITEGIC>MOL_PROPERTY
Delta G
SciTegic.value.DoubleValue
1.866

@<SCITEGIC>MOL_PROPERTY
G
SciTegic.value.DoubleValue
-6.097

@<SCITEGIC>MOL_PROPERTY
E
SciTegic.value.DoubleValue
-30.645

@<SCITEGIC>MOL_PROPERTY
-TS
SciTegic.value.DoubleValue
24.549

@<SCITEGIC>MOL_PROPERTY
U+W
SciTegic.value.DoubleValue
-51.213

@<SCITEGIC>MOL_PROPERTY
U
SciTegic.value.DoubleValue
7.506

@<SCITEGIC>MOL_PROPERTY
W
SciTegic.value.DoubleValue
-58.719

@<SCITEGIC>MOL_PROPERTY
W(PB)
SciTegic.value.DoubleValue
-61.242

@<SCITEGIC>MOL_PROPERTY
W(SA)
SciTegic.value.DoubleValue
2.522

@<SCITEGIC>MOL_PROPERTY
Valence
SciTegic.value.DoubleValue
8.668

@<SCITEGIC>MOL_PROPERTY
Coulomb
SciTegic.value.DoubleValue
-2.355

@<SCITEGIC>MOL_PROPERTY
VdW
SciTegic.value.DoubleValue
1.194

@<SCITEGIC>MOL_PROPERTY
VdW6
SciTegic.value.DoubleValue
-8.929

@<SCITEGIC>MOL_PROPERTY
VdW12
SciTegic.value.DoubleValue
10.122

@<SCITEGIC>MOL_PROPERTY
Bond
SciTegic.value.DoubleValue
0.201

@<SCITEGIC>MOL_PROPERTY
Angle
SciTegic.value.DoubleValue
2.816

@<SCITEGIC>MOL_PROPERTY
Pdih
SciTegic.value.DoubleValue
5.651

@<SCITEGIC>MOL_PROPERTY
Idih
SciTegic.value.DoubleValue
0.001

@<SCITEGIC>MOL_PROPERTY
Tether
SciTegic.value.DoubleValue
0.000

@<TRIPOS>MOLECULE
guest-8_vm2.mol2 : vm2 ligand conformer 26
          25          24           1
SMALL
USER_CHARGES
 
@<TRIPOS>ATOM
       1    C1      19.703902   19.229201   27.221025 C.2        1 MOL1         0.6168
       2    O1      20.410192   18.634231   28.010893 O.co2      1 MOL1        -0.6703
       3    O2      18.489454   19.194831   27.245184 O.co2      1 MOL1        -0.6703
       4    C2      20.379344   20.048930   26.127400 C.3        1 MOL1        -0.1963
       5    H1      21.313597   20.454428   26.533887 H          1 MOL1         0.0750
       6    H2      19.731201   20.901318   25.890908 H          1 MOL1         0.0750
       7    C3      20.665181   19.224666   24.847986 C.3        1 MOL1        -0.1860
       8    H3      21.307671   18.370296   25.101843 H          1 MOL1         0.0752
       9    H4      19.718722   18.813894   24.471943 H          1 MOL1         0.0752
      10    C4      21.343432   20.080692   23.753538 C.3        1 MOL1        -0.1858
      11    H5      22.246558   20.545225   24.172283 H          1 MOL1         0.0752
      12    H6      20.681824   20.908421   23.466388 H          1 MOL1         0.0752
      13    C5      21.751270   19.268886   22.498287 C.3        1 MOL1        -0.1858
      14    H7      22.257800   19.941813   21.793108 H          1 MOL1         0.0752
      15    H8      22.498187   18.517662   22.788909 H          1 MOL1         0.0752
      16    C6      20.589655   18.554947   21.761741 C.3        1 MOL1        -0.1858
      17    H9      20.140196   17.796137   22.415526 H          1 MOL1         0.0752
      18    H10     21.008265   18.008022   20.905968 H          1 MOL1         0.0752
      19    C7      19.495238   19.519987   21.252914 C.3        1 MOL1        -0.1834
      20    H11     19.008715   20.018412   22.101828 H          1 MOL1         0.0752
      21    H12     19.952002   20.306729   20.636899 H          1 MOL1         0.0752
      22    C8      18.425331   18.777628   20.427032 C.3        1 MOL1        -0.2849
      23    H13     17.933104   18.002704   21.029160 H          1 MOL1         0.0764
      24    H14     17.653951   19.475712   20.076813 H          1 MOL1         0.0764
      25    H15     18.871616   18.296457   19.546923 H          1 MOL1         0.0764
@<TRIPOS>BOND
    1     1     2    1
    2     1     3    2
    3     1     4    1
    4     4     5    1
    5     4     6    1
    6     4     7    1
    7     7     8    1
    8     7     9    1
    9     7    10    1
   10    10    11    1
   11    10    12    1
   12    10    13    1
   13    13    14    1
   14    13    15    1
   15    13    16    1
   16    16    17    1
   17    16    18    1
   18    16    19    1
   19    19    20    1
   20    19    21    1
   21    19    22    1
   22    22    23    1
   23    22    24    1
   24    22    25    1
@<TRIPOS>SUBSTRUCTURE
       1 MOL1            1 RESIDUE      1      MOL     
@<SCITEGIC>MOL_PROPERTY
VM2 Rank
SciTegic.value.IntegerValue
26

@<SCITEGIC>MOL_PROPERTY
Conf_Id
SciTegic.value.IntegerValue
1046

@<SCITEGIC>MOL_PROPERTY
Probability
SciTegic.value.DoubleValue
1.00

@<SCITEGIC>MOL_PROPERTY
Sum Probability
SciTegic.value.DoubleValue
84.46

@<SCITEGIC>MOL_PROPERTY
Delta G
SciTegic.value.DoubleValue
1.871

@<SCITEGIC>MOL_PROPERTY
G
SciTegic.value.DoubleValue
-6.092

@<SCITEGIC>MOL_PROPERTY
E
SciTegic.value.DoubleValue
-30.923

@<SCITEGIC>MOL_PROPERTY
-TS
SciTegic.value.DoubleValue
24.831

@<SCITEGIC>MOL_PROPERTY
U+W
SciTegic.value.DoubleValue
-51.490

@<SCITEGIC>MOL_PROPERTY
U
SciTegic.value.DoubleValue
8.128

@<SCITEGIC>MOL_PROPERTY
W
SciTegic.value.DoubleValue
-59.618

@<SCITEGIC>MOL_PROPERTY
W(PB)
SciTegic.value.DoubleValue
-62.092

@<SCITEGIC>MOL_PROPERTY
W(SA)
SciTegic.value.DoubleValue
2.474

@<SCITEGIC>MOL_PROPERTY
Valence
SciTegic.value.DoubleValue
8.508

@<SCITEGIC>MOL_PROPERTY
Coulomb
SciTegic.value.DoubleValue
-1.299

@<SCITEGIC>MOL_PROPERTY
VdW
SciTegic.value.DoubleValue
0.919

@<SCITEGIC>MOL_PROPERTY
VdW6
SciTegic.value.DoubleValue
-9.370

@<SCITEGIC>MOL_PROPERTY
VdW12
SciTegic.value.DoubleValue
10.289

@<SCITEGIC>MOL_PROPERTY
Bond
SciTegic.value.DoubleValue
0.193

@<SCITEGIC>MOL_PROPERTY
Angle
SciTegic.value.DoubleValue
2.932

@<SCITEGIC>MOL_PROPERTY
Pdih
SciTegic.value.DoubleValue
5.383

@<SCITEGIC>MOL_PROPERTY
Idih
SciTegic.value.DoubleValue
0.000

@<SCITEGIC>MOL_PROPERTY
Tether
SciTegic.value.DoubleValue
0.000

@<TRIPOS>MOLECULE
guest-8_vm2.mol2 : vm2 ligand conformer 27
          25          24           1
SMALL
USER_CHARGES
 
@<TRIPOS>ATOM
       1    C1      20.507035   19.753086   27.031760 C.2        1 MOL1         0.6168
       2    O1      21.618095   20.207618   26.842985 O.co2      1 MOL1        -0.6703
       3    O2      20.086079   19.437524   28.127230 O.co2      1 MOL1        -0.6703
       4    C2      19.599038   19.545508   25.825019 C.3        1 MOL1        -0.1963
       5    H1      19.820192   20.338503   25.101577 H          1 MOL1         0.0750
       6    H2      18.561196   19.681485   26.151539 H          1 MOL1         0.0750
       7    C3      19.776999   18.149586   25.173732 C.3        1 MOL1        -0.1860
       8    H3      20.810119   18.039325   24.818339 H          1 MOL1         0.0752
       9    H4      19.638667   17.379935   25.945586 H          1 MOL1         0.0752
      10    C4      18.782050   17.873310   24.018342 C.3        1 MOL1        -0.1858
      11    H5      17.760555   17.870133   24.422446 H          1 MOL1         0.0752
      12    H6      18.959226   16.859015   23.635464 H          1 MOL1         0.0752
      13    C5      18.845224   18.873281   22.836351 C.3        1 MOL1        -0.1858
      14    H7      18.090848   18.578277   22.094312 H          1 MOL1         0.0752
      15    H8      18.558548   19.876573   23.177613 H          1 MOL1         0.0752
      16    C6      20.229234   18.931034   22.149505 C.3        1 MOL1        -0.1858
      17    H9      20.533793   17.918612   21.851277 H          1 MOL1         0.0752
      18    H10     20.982844   19.297729   22.858838 H          1 MOL1         0.0752
      19    C7      20.213378   19.851091   20.910638 C.3        1 MOL1        -0.1834
      20    H11     19.467519   19.489346   20.189377 H          1 MOL1         0.0752
      21    H12     19.906943   20.864094   21.206199 H          1 MOL1         0.0752
      22    C8      21.595867   19.911962   20.230438 C.3        1 MOL1        -0.2849
      23    H13     22.356089   20.301239   20.920316 H          1 MOL1         0.0764
      24    H14     21.913666   18.915379   19.897002 H          1 MOL1         0.0764
      25    H15     21.566412   20.569901   19.352210 H          1 MOL1         0.0764
@<TRIPOS>BOND
    1     1     2    1
    2     1     3    2
    3     1     4    1
    4     4     5    1
    5     4     6    1
    6     4     7    1
    7     7     8    1
    8     7     9    1
    9     7    10    1
   10    10    11    1
   11    10    12    1
   12    10    13    1
   13    13    14    1
   14    13    15    1
   15    13    16    1
   16    16    17    1
   17    16    18    1
   18    16    19    1
   19    19    20    1
   20    19    21    1
   21    19    22    1
   22    22    23    1
   23    22    24    1
   24    22    25    1
@<TRIPOS>SUBSTRUCTURE
       1 MOL1            1 RESIDUE      1      MOL     
@<SCITEGIC>MOL_PROPERTY
VM2 Rank
SciTegic.value.IntegerValue
27

@<SCITEGIC>MOL_PROPERTY
Conf_Id
SciTegic.value.IntegerValue
793

@<SCITEGIC>MOL_PROPERTY
Probability
SciTegic.value.DoubleValue
0.97

@<SCITEGIC>MOL_PROPERTY
Sum Probability
SciTegic.value.DoubleValue
85.43

@<SCITEGIC>MOL_PROPERTY
Delta G
SciTegic.value.DoubleValue
1.888

@<SCITEGIC>MOL_PROPERTY
G
SciTegic.value.DoubleValue
-6.074

@<SCITEGIC>MOL_PROPERTY
E
SciTegic.value.DoubleValue
-30.918

@<SCITEGIC>MOL_PROPERTY
-TS
SciTegic.value.DoubleValue
24.844

@<SCITEGIC>MOL_PROPERTY
U+W
SciTegic.value.DoubleValue
-51.485

@<SCITEGIC>MOL_PROPERTY
U
SciTegic.value.DoubleValue
8.115

@<SCITEGIC>MOL_PROPERTY
W
SciTegic.value.DoubleValue
-59.600

@<SCITEGIC>MOL_PROPERTY
W(PB)
SciTegic.value.DoubleValue
-62.072

@<SCITEGIC>MOL_PROPERTY
W(SA)
SciTegic.value.DoubleValue
2.472

@<SCITEGIC>MOL_PROPERTY
Valence
SciTegic.value.DoubleValue
8.487

@<SCITEGIC>MOL_PROPERTY
Coulomb
SciTegic.value.DoubleValue
-1.259

@<SCITEGIC>MOL_PROPERTY
VdW
SciTegic.value.DoubleValue
0.887

@<SCITEGIC>MOL_PROPERTY
VdW6
SciTegic.value.DoubleValue
-9.448

@<SCITEGIC>MOL_PROPERTY
VdW12
SciTegic.value.DoubleValue
10.335

@<SCITEGIC>MOL_PROPERTY
Bond
SciTegic.value.DoubleValue
0.199

@<SCITEGIC>MOL_PROPERTY
Angle
SciTegic.value.DoubleValue
2.915

@<SCITEGIC>MOL_PROPERTY
Pdih
SciTegic.value.DoubleValue
5.372

@<SCITEGIC>MOL_PROPERTY
Idih
SciTegic.value.DoubleValue
0.001

@<SCITEGIC>MOL_PROPERTY
Tether
SciTegic.value.DoubleValue
0.000

@<TRIPOS>MOLECULE
guest-8_vm2.mol2 : vm2 ligand conformer 28
          25          24           1
SMALL
USER_CHARGES
 
@<TRIPOS>ATOM
       1    C1      19.773474   19.590836   27.210837 C.2        1 MOL1         0.6168
       2    O1      20.658063   19.923450   27.974772 O.co2      1 MOL1        -0.6703
       3    O2      18.658579   20.074123   27.220335 O.co2      1 MOL1        -0.6703
       4    C2      20.085502   18.520801   26.170713 C.3        1 MOL1        -0.1963
       5    H1      19.165180   17.957755   25.974319 H          1 MOL1         0.0750
       6    H2      20.807190   17.820789   26.608476 H          1 MOL1         0.0750
       7    C3      20.642965   19.109323   24.851286 C.3        1 MOL1        -0.1860
       8    H3      19.912172   19.820326   24.443437 H          1 MOL1         0.0752
       9    H4      21.558894   19.677339   25.064869 H          1 MOL1         0.0752
      10    C4      20.944303   18.004541   23.812409 C.3        1 MOL1        -0.1858
      11    H5      20.020160   17.466443   23.563967 H          1 MOL1         0.0752
      12    H6      21.615425   17.262113   24.265365 H          1 MOL1         0.0752
      13    C5      21.610667   18.537647   22.519053 C.3        1 MOL1        -0.1858
      14    H7      22.585672   18.973529   22.776066 H          1 MOL1         0.0752
      15    H8      21.824580   17.687507   21.857100 H          1 MOL1         0.0752
      16    C6      20.788424   19.589582   21.732346 C.3        1 MOL1        -0.1858
      17    H9      21.370887   19.894946   20.852461 H          1 MOL1         0.0752
      18    H10     20.658737   20.495407   22.338897 H          1 MOL1         0.0752
      19    C7      19.409223   19.072151   21.265415 C.3        1 MOL1        -0.1834
      20    H11     19.535744   18.139752   20.698234 H          1 MOL1         0.0752
      21    H12     18.781543   18.836591   22.135079 H          1 MOL1         0.0752
      22    C8      18.681801   20.111545   20.388834 C.3        1 MOL1        -0.2849
      23    H13     19.265409   20.344316   19.488551 H          1 MOL1         0.0764
      24    H14     17.703170   19.730702   20.069083 H          1 MOL1         0.0764
      25    H15     18.517798   21.045352   20.942423 H          1 MOL1         0.0764
@<TRIPOS>BOND
    1     1     2    1
    2     1     3    2
    3     1     4    1
    4     4     5    1
    5     4     6    1
    6     4     7    1
    7     7     8    1
    8     7     9    1
    9     7    10    1
   10    10    11    1
   11    10    12    1
   12    10    13    1
   13    13    14    1
   14    13    15    1
   15    13    16    1
   16    16    17    1
   17    16    18    1
   18    16    19    1
   19    19    20    1
   20    19    21    1
   21    19    22    1
   22    22    23    1
   23    22    24    1
   24    22    25    1
@<TRIPOS>SUBSTRUCTURE
       1 MOL1            1 RESIDUE      1      MOL     
@<SCITEGIC>MOL_PROPERTY
VM2 Rank
SciTegic.value.IntegerValue
28

@<SCITEGIC>MOL_PROPERTY
Conf_Id
SciTegic.value.IntegerValue
402

@<SCITEGIC>MOL_PROPERTY
Probability
SciTegic.value.DoubleValue
0.93

@<SCITEGIC>MOL_PROPERTY
Sum Probability
SciTegic.value.DoubleValue
86.36

@<SCITEGIC>MOL_PROPERTY
Delta G
SciTegic.value.DoubleValue
1.910

@<SCITEGIC>MOL_PROPERTY
G
SciTegic.value.DoubleValue
-6.052

@<SCITEGIC>MOL_PROPERTY
E
SciTegic.value.DoubleValue
-30.883

@<SCITEGIC>MOL_PROPERTY
-TS
SciTegic.value.DoubleValue
24.830

@<SCITEGIC>MOL_PROPERTY
U+W
SciTegic.value.DoubleValue
-51.450

@<SCITEGIC>MOL_PROPERTY
U
SciTegic.value.DoubleValue
8.128

@<SCITEGIC>MOL_PROPERTY
W
SciTegic.value.DoubleValue
-59.578

@<SCITEGIC>MOL_PROPERTY
W(PB)
SciTegic.value.DoubleValue
-62.032

@<SCITEGIC>MOL_PROPERTY
W(SA)
SciTegic.value.DoubleValue
2.454

@<SCITEGIC>MOL_PROPERTY
Valence
SciTegic.value.DoubleValue
8.508

@<SCITEGIC>MOL_PROPERTY
Coulomb
SciTegic.value.DoubleValue
-1.300

@<SCITEGIC>MOL_PROPERTY
VdW
SciTegic.value.DoubleValue
0.920

@<SCITEGIC>MOL_PROPERTY
VdW6
SciTegic.value.DoubleValue
-9.369

@<SCITEGIC>MOL_PROPERTY
VdW12
SciTegic.value.DoubleValue
10.289

@<SCITEGIC>MOL_PROPERTY
Bond
SciTegic.value.DoubleValue
0.192

@<SCITEGIC>MOL_PROPERTY
Angle
SciTegic.value.DoubleValue
2.932

@<SCITEGIC>MOL_PROPERTY
Pdih
SciTegic.value.DoubleValue
5.383

@<SCITEGIC>MOL_PROPERTY
Idih
SciTegic.value.DoubleValue
0.001

@<SCITEGIC>MOL_PROPERTY
Tether
SciTegic.value.DoubleValue
0.000

@<TRIPOS>MOLECULE
guest-8_vm2.mol2 : vm2 ligand conformer 29
          25          24           1
SMALL
USER_CHARGES
 
@<TRIPOS>ATOM
       1    C1      20.411109   19.256701   27.522437 C.2        1 MOL1         0.6168
       2    O1      21.511421   19.671578   27.828778 O.co2      1 MOL1        -0.6703
       3    O2      19.433582   19.348275   28.238485 O.co2      1 MOL1        -0.6703
       4    C2      20.242967   18.604225   26.154927 C.3        1 MOL1        -0.1963
       5    H1      19.470101   17.830817   26.239106 H          1 MOL1         0.0750
       6    H2      21.182114   18.098007   25.901275 H          1 MOL1         0.0750
       7    C3      19.866058   19.618226   25.046862 C.3        1 MOL1        -0.1860
       8    H3      18.931152   20.125716   25.322344 H          1 MOL1         0.0752
       9    H4      20.643103   20.392692   24.983944 H          1 MOL1         0.0752
      10    C4      19.702341   18.933477   23.672601 C.3        1 MOL1        -0.1858
      11    H5      18.923269   18.161660   23.736676 H          1 MOL1         0.0752
      12    H6      20.639234   18.424460   23.410970 H          1 MOL1         0.0752
      13    C5      19.332429   19.950424   22.568494 C.3        1 MOL1        -0.1858
      14    H7      18.436598   20.504710   22.879825 H          1 MOL1         0.0752
      15    H8      20.131653   20.696398   22.468133 H          1 MOL1         0.0752
      16    C6      19.045610   19.294371   21.194217 C.3        1 MOL1        -0.1858
      17    H9      18.741661   20.077967   20.486927 H          1 MOL1         0.0752
      18    H10     18.180743   18.624455   21.293790 H          1 MOL1         0.0752
      19    C7      20.224295   18.498230   20.581170 C.3        1 MOL1        -0.1834
      20    H11     20.477976   17.643154   21.221549 H          1 MOL1         0.0752
      21    H12     19.897134   18.072243   19.622762 H          1 MOL1         0.0752
      22    C8      21.483187   19.358491   20.338029 C.3        1 MOL1        -0.2849
      23    H13     21.913468   19.711295   21.283789 H          1 MOL1         0.0764
      24    H14     22.254008   18.773728   19.819706 H          1 MOL1         0.0764
      25    H15     21.247662   20.233356   19.718257 H          1 MOL1         0.0764
@<TRIPOS>BOND
    1     1     2    1
    2     1     3    2
    3     1     4    1
    4     4     5    1
    5     4     6    1
    6     4     7    1
    7     7     8    1
    8     7     9    1
    9     7    10    1
   10    10    11    1
   11    10    12    1
   12    10    13    1
   13    13    14    1
   14    13    15    1
   15    13    16    1
   16    16    17    1
   17    16    18    1
   18    16    19    1
   19    19    20    1
   20    19    21    1
   21    19    22    1
   22    22    23    1
   23    22    24    1
   24    22    25    1
@<TRIPOS>SUBSTRUCTURE
       1 MOL1            1 RESIDUE      1      MOL     
@<SCITEGIC>MOL_PROPERTY
VM2 Rank
SciTegic.value.IntegerValue
29

@<SCITEGIC>MOL_PROPERTY
Conf_Id
SciTegic.value.IntegerValue
190

@<SCITEGIC>MOL_PROPERTY
Probability
SciTegic.value.DoubleValue
0.88

@<SCITEGIC>MOL_PROPERTY
Sum Probability
SciTegic.value.DoubleValue
87.25

@<SCITEGIC>MOL_PROPERTY
Delta G
SciTegic.value.DoubleValue
1.944

@<SCITEGIC>MOL_PROPERTY
G
SciTegic.value.DoubleValue
-6.018

@<SCITEGIC>MOL_PROPERTY
E
SciTegic.value.DoubleValue
-30.820

@<SCITEGIC>MOL_PROPERTY
-TS
SciTegic.value.DoubleValue
24.802

@<SCITEGIC>MOL_PROPERTY
U+W
SciTegic.value.DoubleValue
-51.388

@<SCITEGIC>MOL_PROPERTY
U
SciTegic.value.DoubleValue
7.567

@<SCITEGIC>MOL_PROPERTY
W
SciTegic.value.DoubleValue
-58.954

@<SCITEGIC>MOL_PROPERTY
W(PB)
SciTegic.value.DoubleValue
-61.394

@<SCITEGIC>MOL_PROPERTY
W(SA)
SciTegic.value.DoubleValue
2.440

@<SCITEGIC>MOL_PROPERTY
Valence
SciTegic.value.DoubleValue
8.483

@<SCITEGIC>MOL_PROPERTY
Coulomb
SciTegic.value.DoubleValue
-1.912

@<SCITEGIC>MOL_PROPERTY
VdW
SciTegic.value.DoubleValue
0.996

@<SCITEGIC>MOL_PROPERTY
VdW6
SciTegic.value.DoubleValue
-9.207

@<SCITEGIC>MOL_PROPERTY
VdW12
SciTegic.value.DoubleValue
10.202

@<SCITEGIC>MOL_PROPERTY
Bond
SciTegic.value.DoubleValue
0.188

@<SCITEGIC>MOL_PROPERTY
Angle
SciTegic.value.DoubleValue
2.901

@<SCITEGIC>MOL_PROPERTY
Pdih
SciTegic.value.DoubleValue
5.393

@<SCITEGIC>MOL_PROPERTY
Idih
SciTegic.value.DoubleValue
0.001

@<SCITEGIC>MOL_PROPERTY
Tether
SciTegic.value.DoubleValue
0.000

@<TRIPOS>MOLECULE
guest-8_vm2.mol2 : vm2 ligand conformer 30
          25          24           1
SMALL
USER_CHARGES
 
@<TRIPOS>ATOM
       1    C1      19.915196   19.225171   27.528155 C.2        1 MOL1         0.6168
       2    O1      20.889532   19.441137   28.221479 O.co2      1 MOL1        -0.6703
       3    O2      18.778529   19.497514   27.860528 O.co2      1 MOL1        -0.6703
       4    C2      20.133045   18.597256   26.156170 C.3        1 MOL1        -0.1963
       5    H1      19.259921   17.975905   25.923424 H          1 MOL1         0.0750
       6    H2      20.999295   17.927985   26.221404 H          1 MOL1         0.0750
       7    C3      20.353034   19.649209   25.041243 C.3        1 MOL1        -0.1860
       8    H3      19.483000   20.319036   24.997361 H          1 MOL1         0.0752
       9    H4      21.222298   20.271312   25.295910 H          1 MOL1         0.0752
      10    C4      20.570432   18.988694   23.662570 C.3        1 MOL1        -0.1858
      11    H5      19.699709   18.364842   23.421802 H          1 MOL1         0.0752
      12    H6      21.442166   18.321751   23.707579 H          1 MOL1         0.0752
      13    C5      20.783205   20.042664   22.551741 C.3        1 MOL1        -0.1858
      14    H7      19.893900   20.681336   22.470854 H          1 MOL1         0.0752
      15    H8      21.608592   20.706329   22.843217 H          1 MOL1         0.0752
      16    C6      21.119105   19.426179   21.170281 C.3        1 MOL1        -0.1858
      17    H9      22.063893   18.871308   21.248969 H          1 MOL1         0.0752
      18    H10     21.305046   20.240906   20.457321 H          1 MOL1         0.0752
      19    C7      20.036930   18.486298   20.583355 C.3        1 MOL1        -0.1834
      20    H11     20.393267   18.103746   19.617062 H          1 MOL1         0.0752
      21    H12     19.908354   17.606930   21.228162 H          1 MOL1         0.0752
      22    C8      18.673992   19.179879   20.370478 C.3        1 MOL1        -0.2849
      23    H13     17.971705   18.501465   19.869164 H          1 MOL1         0.0764
      24    H14     18.224368   19.476753   21.326395 H          1 MOL1         0.0764
      25    H15     18.782536   20.076614   19.746729 H          1 MOL1         0.0764
@<TRIPOS>BOND
    1     1     2    1
    2     1     3    2
    3     1     4    1
    4     4     5    1
    5     4     6    1
    6     4     7    1
    7     7     8    1
    8     7     9    1
    9     7    10    1
   10    10    11    1
   11    10    12    1
   12    10    13    1
   13    13    14    1
   14    13    15    1
   15    13    16    1
   16    16    17    1
   17    16    18    1
   18    16    19    1
   19    19    20    1
   20    19    21    1
   21    19    22    1
   22    22    23    1
   23    22    24    1
   24    22    25    1
@<TRIPOS>SUBSTRUCTURE
       1 MOL1            1 RESIDUE      1      MOL     
@<SCITEGIC>MOL_PROPERTY
VM2 Rank
SciTegic.value.IntegerValue
30

@<SCITEGIC>MOL_PROPERTY
Conf_Id
SciTegic.value.IntegerValue
1035

@<SCITEGIC>MOL_PROPERTY
Probability
SciTegic.value.DoubleValue
0.85

@<SCITEGIC>MOL_PROPERTY
Sum Probability
SciTegic.value.DoubleValue
88.10

@<SCITEGIC>MOL_PROPERTY
Delta G
SciTegic.value.DoubleValue
1.963

@<SCITEGIC>MOL_PROPERTY
G
SciTegic.value.DoubleValue
-5.999

@<SCITEGIC>MOL_PROPERTY
E
SciTegic.value.DoubleValue
-30.800

@<SCITEGIC>MOL_PROPERTY
-TS
SciTegic.value.DoubleValue
24.801

@<SCITEGIC>MOL_PROPERTY
U+W
SciTegic.value.DoubleValue
-51.368

@<SCITEGIC>MOL_PROPERTY
U
SciTegic.value.DoubleValue
7.567

@<SCITEGIC>MOL_PROPERTY
W
SciTegic.value.DoubleValue
-58.935

@<SCITEGIC>MOL_PROPERTY
W(PB)
SciTegic.value.DoubleValue
-61.397

@<SCITEGIC>MOL_PROPERTY
W(SA)
SciTegic.value.DoubleValue
2.463

@<SCITEGIC>MOL_PROPERTY
Valence
SciTegic.value.DoubleValue
8.483

@<SCITEGIC>MOL_PROPERTY
Coulomb
SciTegic.value.DoubleValue
-1.912

@<SCITEGIC>MOL_PROPERTY
VdW
SciTegic.value.DoubleValue
0.996

@<SCITEGIC>MOL_PROPERTY
VdW6
SciTegic.value.DoubleValue
-9.207

@<SCITEGIC>MOL_PROPERTY
VdW12
SciTegic.value.DoubleValue
10.203

@<SCITEGIC>MOL_PROPERTY
Bond
SciTegic.value.DoubleValue
0.188

@<SCITEGIC>MOL_PROPERTY
Angle
SciTegic.value.DoubleValue
2.901

@<SCITEGIC>MOL_PROPERTY
Pdih
SciTegic.value.DoubleValue
5.393

@<SCITEGIC>MOL_PROPERTY
Idih
SciTegic.value.DoubleValue
0.001

@<SCITEGIC>MOL_PROPERTY
Tether
SciTegic.value.DoubleValue
0.000

@<TRIPOS>MOLECULE
guest-8_vm2.mol2 : vm2 ligand conformer 31
          25          24           1
SMALL
USER_CHARGES
 
@<TRIPOS>ATOM
       1    C1      19.908740   19.596481   27.147221 C.2        1 MOL1         0.6168
       2    O1      20.883872   20.197267   27.553709 O.co2      1 MOL1        -0.6703
       3    O2      18.778063   20.039842   27.192769 O.co2      1 MOL1        -0.6703
       4    C2      20.110297   18.200095   26.565487 C.3        1 MOL1        -0.1963
       5    H1      19.334141   17.552397   26.989815 H          1 MOL1         0.0750
       6    H2      21.074289   17.811126   26.915053 H          1 MOL1         0.0750
       7    C3      20.039807   18.147427   25.017210 C.3        1 MOL1        -0.1860
       8    H3      20.063200   17.097881   24.694449 H          1 MOL1         0.0752
       9    H4      19.075421   18.558936   24.691187 H          1 MOL1         0.0752
      10    C4      21.203649   18.914730   24.345293 C.3        1 MOL1        -0.1858
      11    H5      22.155552   18.547188   24.752285 H          1 MOL1         0.0752
      12    H6      21.147353   19.980750   24.605588 H          1 MOL1         0.0752
      13    C5      21.235457   18.761218   22.806089 C.3        1 MOL1        -0.1858
      14    H7      22.154023   19.231096   22.428848 H          1 MOL1         0.0752
      15    H8      21.300749   17.696490   22.543524 H          1 MOL1         0.0752
      16    C6      20.017761   19.399310   22.098217 C.3        1 MOL1        -0.1858
      17    H9      19.923229   20.449669   22.405956 H          1 MOL1         0.0752
      18    H10     19.095552   18.890343   22.407104 H          1 MOL1         0.0752
      19    C7      20.146041   19.322145   20.562202 C.3        1 MOL1        -0.1834
      20    H11     21.062224   19.836276   20.240172 H          1 MOL1         0.0752
      21    H12     20.242640   18.272661   20.251220 H          1 MOL1         0.0752
      22    C8      18.929313   19.955485   19.857804 C.3        1 MOL1        -0.2849
      23    H13     18.826936   21.014818   20.127458 H          1 MOL1         0.0764
      24    H14     19.037376   19.892251   18.767216 H          1 MOL1         0.0764
      25    H15     18.001305   19.439470   20.136934 H          1 MOL1         0.0764
@<TRIPOS>BOND
    1     1     2    1
    2     1     3    2
    3     1     4    1
    4     4     5    1
    5     4     6    1
    6     4     7    1
    7     7     8    1
    8     7     9    1
    9     7    10    1
   10    10    11    1
   11    10    12    1
   12    10    13    1
   13    13    14    1
   14    13    15    1
   15    13    16    1
   16    16    17    1
   17    16    18    1
   18    16    19    1
   19    19    20    1
   20    19    21    1
   21    19    22    1
   22    22    23    1
   23    22    24    1
   24    22    25    1
@<TRIPOS>SUBSTRUCTURE
       1 MOL1            1 RESIDUE      1      MOL     
@<SCITEGIC>MOL_PROPERTY
VM2 Rank
SciTegic.value.IntegerValue
31

@<SCITEGIC>MOL_PROPERTY
Conf_Id
SciTegic.value.IntegerValue
1352

@<SCITEGIC>MOL_PROPERTY
Probability
SciTegic.value.DoubleValue
0.53

@<SCITEGIC>MOL_PROPERTY
Sum Probability
SciTegic.value.DoubleValue
88.63

@<SCITEGIC>MOL_PROPERTY
Delta G
SciTegic.value.DoubleValue
2.245

@<SCITEGIC>MOL_PROPERTY
G
SciTegic.value.DoubleValue
-5.717

@<SCITEGIC>MOL_PROPERTY
E
SciTegic.value.DoubleValue
-30.531

@<SCITEGIC>MOL_PROPERTY
-TS
SciTegic.value.DoubleValue
24.815

@<SCITEGIC>MOL_PROPERTY
U+W
SciTegic.value.DoubleValue
-51.099

@<SCITEGIC>MOL_PROPERTY
U
SciTegic.value.DoubleValue
8.902

@<SCITEGIC>MOL_PROPERTY
W
SciTegic.value.DoubleValue
-60.001

@<SCITEGIC>MOL_PROPERTY
W(PB)
SciTegic.value.DoubleValue
-62.478

@<SCITEGIC>MOL_PROPERTY
W(SA)
SciTegic.value.DoubleValue
2.477

@<SCITEGIC>MOL_PROPERTY
Valence
SciTegic.value.DoubleValue
8.306

@<SCITEGIC>MOL_PROPERTY
Coulomb
SciTegic.value.DoubleValue
-0.225

@<SCITEGIC>MOL_PROPERTY
VdW
SciTegic.value.DoubleValue
0.821

@<SCITEGIC>MOL_PROPERTY
VdW6
SciTegic.value.DoubleValue
-9.236

@<SCITEGIC>MOL_PROPERTY
VdW12
SciTegic.value.DoubleValue
10.057

@<SCITEGIC>MOL_PROPERTY
Bond
SciTegic.value.DoubleValue
0.173

@<SCITEGIC>MOL_PROPERTY
Angle
SciTegic.value.DoubleValue
2.663

@<SCITEGIC>MOL_PROPERTY
Pdih
SciTegic.value.DoubleValue
5.469

@<SCITEGIC>MOL_PROPERTY
Idih
SciTegic.value.DoubleValue
0.001

@<SCITEGIC>MOL_PROPERTY
Tether
SciTegic.value.DoubleValue
0.000

@<TRIPOS>MOLECULE
guest-8_vm2.mol2 : vm2 ligand conformer 32
          25          24           1
SMALL
USER_CHARGES
 
@<TRIPOS>ATOM
       1    C1      20.245402   18.985668   27.270695 C.2        1 MOL1         0.6168
       2    O1      21.379964   18.709142   27.607426 O.co2      1 MOL1        -0.6703
       3    O2      19.299123   18.237085   27.416169 O.co2      1 MOL1        -0.6703
       4    C2      19.994570   20.355774   26.647093 C.3        1 MOL1        -0.1963
       5    H1      20.520078   21.096602   27.261089 H          1 MOL1         0.0750
       6    H2      18.924307   20.583538   26.721239 H          1 MOL1         0.0750
       7    C3      20.466810   20.474195   25.174712 C.3        1 MOL1        -0.1860
       8    H3      20.376011   21.520914   24.854292 H          1 MOL1         0.0752
       9    H4      21.533144   20.215848   25.112629 H          1 MOL1         0.0752
      10    C4      19.653908   19.575659   24.215708 C.3        1 MOL1        -0.1858
      11    H5      18.587527   19.828628   24.291841 H          1 MOL1         0.0752
      12    H6      19.754152   18.524305   24.519045 H          1 MOL1         0.0752
      13    C5      20.119557   19.733087   22.751976 C.3        1 MOL1        -0.1858
      14    H7      20.014687   20.782340   22.444100 H          1 MOL1         0.0752
      15    H8      21.186618   19.483917   22.685814 H          1 MOL1         0.0752
      16    C6      19.307991   18.830418   21.794186 C.3        1 MOL1        -0.1858
      17    H9      18.237956   19.042629   21.924139 H          1 MOL1         0.0752
      18    H10     19.451512   17.776372   22.068632 H          1 MOL1         0.0752
      19    C7      19.671010   19.031086   20.304372 C.3        1 MOL1        -0.1834
      20    H11     18.973607   18.445354   19.689731 H          1 MOL1         0.0752
      21    H12     19.522422   20.083237   20.024712 H          1 MOL1         0.0752
      22    C8      21.114665   18.601886   19.963665 C.3        1 MOL1        -0.2849
      23    H13     21.295979   17.561121   20.262092 H          1 MOL1         0.0764
      24    H14     21.293383   18.679700   18.883428 H          1 MOL1         0.0764
      25    H15     21.851773   19.238595   20.468617 H          1 MOL1         0.0764
@<TRIPOS>BOND
    1     1     2    1
    2     1     3    2
    3     1     4    1
    4     4     5    1
    5     4     6    1
    6     4     7    1
    7     7     8    1
    8     7     9    1
    9     7    10    1
   10    10    11    1
   11    10    12    1
   12    10    13    1
   13    13    14    1
   14    13    15    1
   15    13    16    1
   16    16    17    1
   17    16    18    1
   18    16    19    1
   19    19    20    1
   20    19    21    1
   21    19    22    1
   22    22    23    1
   23    22    24    1
   24    22    25    1
@<TRIPOS>SUBSTRUCTURE
       1 MOL1            1 RESIDUE      1      MOL     
@<SCITEGIC>MOL_PROPERTY
VM2 Rank
SciTegic.value.IntegerValue
32

@<SCITEGIC>MOL_PROPERTY
Conf_Id
SciTegic.value.IntegerValue
1107

@<SCITEGIC>MOL_PROPERTY
Probability
SciTegic.value.DoubleValue
0.53

@<SCITEGIC>MOL_PROPERTY
Sum Probability
SciTegic.value.DoubleValue
89.16

@<SCITEGIC>MOL_PROPERTY
Delta G
SciTegic.value.DoubleValue
2.246

@<SCITEGIC>MOL_PROPERTY
G
SciTegic.value.DoubleValue
-5.717

@<SCITEGIC>MOL_PROPERTY
E
SciTegic.value.DoubleValue
-30.538

@<SCITEGIC>MOL_PROPERTY
-TS
SciTegic.value.DoubleValue
24.822

@<SCITEGIC>MOL_PROPERTY
U+W
SciTegic.value.DoubleValue
-51.106

@<SCITEGIC>MOL_PROPERTY
U
SciTegic.value.DoubleValue
8.783

@<SCITEGIC>MOL_PROPERTY
W
SciTegic.value.DoubleValue
-59.889

@<SCITEGIC>MOL_PROPERTY
W(PB)
SciTegic.value.DoubleValue
-62.358

@<SCITEGIC>MOL_PROPERTY
W(SA)
SciTegic.value.DoubleValue
2.470

@<SCITEGIC>MOL_PROPERTY
Valence
SciTegic.value.DoubleValue
8.287

@<SCITEGIC>MOL_PROPERTY
Coulomb
SciTegic.value.DoubleValue
-0.381

@<SCITEGIC>MOL_PROPERTY
VdW
SciTegic.value.DoubleValue
0.877

@<SCITEGIC>MOL_PROPERTY
VdW6
SciTegic.value.DoubleValue
-9.131

@<SCITEGIC>MOL_PROPERTY
VdW12
SciTegic.value.DoubleValue
10.007

@<SCITEGIC>MOL_PROPERTY
Bond
SciTegic.value.DoubleValue
0.167

@<SCITEGIC>MOL_PROPERTY
Angle
SciTegic.value.DoubleValue
2.661

@<SCITEGIC>MOL_PROPERTY
Pdih
SciTegic.value.DoubleValue
5.459

@<SCITEGIC>MOL_PROPERTY
Idih
SciTegic.value.DoubleValue
0.000

@<SCITEGIC>MOL_PROPERTY
Tether
SciTegic.value.DoubleValue
0.000

@<TRIPOS>MOLECULE
guest-8_vm2.mol2 : vm2 ligand conformer 33
          25          24           1
SMALL
USER_CHARGES
 
@<TRIPOS>ATOM
       1    C1      20.115558   19.290232   27.403049 C.2        1 MOL1         0.6168
       2    O1      21.213862   19.655874   27.773290 O.co2      1 MOL1        -0.6703
       3    O2      19.074483   19.750656   27.828806 O.co2      1 MOL1        -0.6703
       4    C2      20.036805   18.179746   26.359139 C.3        1 MOL1        -0.1963
       5    H1      19.286274   17.459072   26.704541 H          1 MOL1         0.0750
       6    H2      20.997532   17.651246   26.336377 H          1 MOL1         0.0750
       7    C3      19.663731   18.674075   24.937167 C.3        1 MOL1        -0.1860
       8    H3      19.481123   17.798160   24.301868 H          1 MOL1         0.0752
       9    H4      18.720260   19.235476   24.983041 H          1 MOL1         0.0752
      10    C4      20.768535   19.555098   24.305809 C.3        1 MOL1        -0.1858
      11    H5      21.699575   18.978182   24.221285 H          1 MOL1         0.0752
      12    H6      20.986509   20.396597   24.977645 H          1 MOL1         0.0752
      13    C5      20.384951   20.126541   22.920045 C.3        1 MOL1        -0.1858
      14    H7      19.454161   20.703827   23.005321 H          1 MOL1         0.0752
      15    H8      21.163492   20.836945   22.610090 H          1 MOL1         0.0752
      16    C6      20.229549   19.044363   21.826406 C.3        1 MOL1        -0.1858
      17    H9      19.401923   18.369806   22.080932 H          1 MOL1         0.0752
      18    H10     21.141053   18.432748   21.782834 H          1 MOL1         0.0752
      19    C7      19.962050   19.668770   20.440644 C.3        1 MOL1        -0.1834
      20    H11     19.051824   20.283039   20.481059 H          1 MOL1         0.0752
      21    H12     20.788762   20.340325   20.170473 H          1 MOL1         0.0752
      22    C8      19.803476   18.588644   19.351645 C.3        1 MOL1        -0.2849
      23    H13     19.614400   19.050036   18.373672 H          1 MOL1         0.0764
      24    H14     20.712350   17.978385   19.268507 H          1 MOL1         0.0764
      25    H15     18.962111   17.921260   19.579870 H          1 MOL1         0.0764
@<TRIPOS>BOND
    1     1     2    1
    2     1     3    2
    3     1     4    1
    4     4     5    1
    5     4     6    1
    6     4     7    1
    7     7     8    1
    8     7     9    1
    9     7    10    1
   10    10    11    1
   11    10    12    1
   12    10    13    1
   13    13    14    1
   14    13    15    1
   15    13    16    1
   16    16    17    1
   17    16    18    1
   18    16    19    1
   19    19    20    1
   20    19    21    1
   21    19    22    1
   22    22    23    1
   23    22    24    1
   24    22    25    1
@<TRIPOS>SUBSTRUCTURE
       1 MOL1            1 RESIDUE      1      MOL     
@<SCITEGIC>MOL_PROPERTY
VM2 Rank
SciTegic.value.IntegerValue
33

@<SCITEGIC>MOL_PROPERTY
Conf_Id
SciTegic.value.IntegerValue
1070

@<SCITEGIC>MOL_PROPERTY
Probability
SciTegic.value.DoubleValue
0.52

@<SCITEGIC>MOL_PROPERTY
Sum Probability
SciTegic.value.DoubleValue
89.68

@<SCITEGIC>MOL_PROPERTY
Delta G
SciTegic.value.DoubleValue
2.258

@<SCITEGIC>MOL_PROPERTY
G
SciTegic.value.DoubleValue
-5.704

@<SCITEGIC>MOL_PROPERTY
E
SciTegic.value.DoubleValue
-30.525

@<SCITEGIC>MOL_PROPERTY
-TS
SciTegic.value.DoubleValue
24.821

@<SCITEGIC>MOL_PROPERTY
U+W
SciTegic.value.DoubleValue
-51.092

@<SCITEGIC>MOL_PROPERTY
U
SciTegic.value.DoubleValue
8.377

@<SCITEGIC>MOL_PROPERTY
W
SciTegic.value.DoubleValue
-59.469

@<SCITEGIC>MOL_PROPERTY
W(PB)
SciTegic.value.DoubleValue
-61.944

@<SCITEGIC>MOL_PROPERTY
W(SA)
SciTegic.value.DoubleValue
2.474

@<SCITEGIC>MOL_PROPERTY
Valence
SciTegic.value.DoubleValue
8.357

@<SCITEGIC>MOL_PROPERTY
Coulomb
SciTegic.value.DoubleValue
-0.892

@<SCITEGIC>MOL_PROPERTY
VdW
SciTegic.value.DoubleValue
0.912

@<SCITEGIC>MOL_PROPERTY
VdW6
SciTegic.value.DoubleValue
-9.161

@<SCITEGIC>MOL_PROPERTY
VdW12
SciTegic.value.DoubleValue
10.073

@<SCITEGIC>MOL_PROPERTY
Bond
SciTegic.value.DoubleValue
0.177

@<SCITEGIC>MOL_PROPERTY
Angle
SciTegic.value.DoubleValue
2.702

@<SCITEGIC>MOL_PROPERTY
Pdih
SciTegic.value.DoubleValue
5.478

@<SCITEGIC>MOL_PROPERTY
Idih
SciTegic.value.DoubleValue
0.000

@<SCITEGIC>MOL_PROPERTY
Tether
SciTegic.value.DoubleValue
0.000

@<TRIPOS>MOLECULE
guest-8_vm2.mol2 : vm2 ligand conformer 34
          25          24           1
SMALL
USER_CHARGES
 
@<TRIPOS>ATOM
       1    C1      20.133274   19.608546   27.263876 C.2        1 MOL1         0.6168
       2    O1      21.098891   20.270270   27.590667 O.co2      1 MOL1        -0.6703
       3    O2      18.984801   19.982962   27.397302 O.co2      1 MOL1        -0.6703
       4    C2      20.378341   18.224152   26.670261 C.3        1 MOL1        -0.1963
       5    H1      19.454415   17.639077   26.753249 H          1 MOL1         0.0750
       6    H2      21.126871   17.726201   27.297736 H          1 MOL1         0.0750
       7    C3      20.867820   18.246837   25.198924 C.3        1 MOL1        -0.1860
       8    H3      21.777387   18.859400   25.127371 H          1 MOL1         0.0752
       9    H4      21.148891   17.227644   24.900972 H          1 MOL1         0.0752
      10    C4      19.796290   18.785146   24.224293 C.3        1 MOL1        -0.1858
      11    H5      19.522612   19.811660   24.504961 H          1 MOL1         0.0752
      12    H6      18.884703   18.177984   24.309861 H          1 MOL1         0.0752
      13    C5      20.293098   18.768993   22.762432 C.3        1 MOL1        -0.1858
      14    H7      21.206619   19.373028   22.686906 H          1 MOL1         0.0752
      15    H8      20.561706   17.742734   22.477197 H          1 MOL1         0.0752
      16    C6      19.221378   19.311691   21.788929 C.3        1 MOL1        -0.1858
      17    H9      18.987484   20.355218   22.040477 H          1 MOL1         0.0752
      18    H10     18.291937   18.742626   21.927488 H          1 MOL1         0.0752
      19    C7      19.637134   19.218656   20.302295 C.3        1 MOL1        -0.1834
      20    H11     19.865580   18.175018   20.045500 H          1 MOL1         0.0752
      21    H12     18.781626   19.511488   19.678122 H          1 MOL1         0.0752
      22    C8      20.841974   20.116748   19.947020 C.3        1 MOL1        -0.2849
      23    H13     21.040619   20.083306   18.867981 H          1 MOL1         0.0764
      24    H14     20.648120   21.161510   20.222736 H          1 MOL1         0.0764
      25    H15     21.752878   19.787632   20.462424 H          1 MOL1         0.0764
@<TRIPOS>BOND
    1     1     2    1
    2     1     3    2
    3     1     4    1
    4     4     5    1
    5     4     6    1
    6     4     7    1
    7     7     8    1
    8     7     9    1
    9     7    10    1
   10    10    11    1
   11    10    12    1
   12    10    13    1
   13    13    14    1
   14    13    15    1
   15    13    16    1
   16    16    17    1
   17    16    18    1
   18    16    19    1
   19    19    20    1
   20    19    21    1
   21    19    22    1
   22    22    23    1
   23    22    24    1
   24    22    25    1
@<TRIPOS>SUBSTRUCTURE
       1 MOL1            1 RESIDUE      1      MOL     
@<SCITEGIC>MOL_PROPERTY
VM2 Rank
SciTegic.value.IntegerValue
34

@<SCITEGIC>MOL_PROPERTY
Conf_Id
SciTegic.value.IntegerValue
768

@<SCITEGIC>MOL_PROPERTY
Probability
SciTegic.value.DoubleValue
0.52

@<SCITEGIC>MOL_PROPERTY
Sum Probability
SciTegic.value.DoubleValue
90.20

@<SCITEGIC>MOL_PROPERTY
Delta G
SciTegic.value.DoubleValue
2.260

@<SCITEGIC>MOL_PROPERTY
G
SciTegic.value.DoubleValue
-5.702

@<SCITEGIC>MOL_PROPERTY
E
SciTegic.value.DoubleValue
-30.524

@<SCITEGIC>MOL_PROPERTY
-TS
SciTegic.value.DoubleValue
24.821

@<SCITEGIC>MOL_PROPERTY
U+W
SciTegic.value.DoubleValue
-51.091

@<SCITEGIC>MOL_PROPERTY
U
SciTegic.value.DoubleValue
8.782

@<SCITEGIC>MOL_PROPERTY
W
SciTegic.value.DoubleValue
-59.873

@<SCITEGIC>MOL_PROPERTY
W(PB)
SciTegic.value.DoubleValue
-62.358

@<SCITEGIC>MOL_PROPERTY
W(SA)
SciTegic.value.DoubleValue
2.484

@<SCITEGIC>MOL_PROPERTY
Valence
SciTegic.value.DoubleValue
8.287

@<SCITEGIC>MOL_PROPERTY
Coulomb
SciTegic.value.DoubleValue
-0.382

@<SCITEGIC>MOL_PROPERTY
VdW
SciTegic.value.DoubleValue
0.877

@<SCITEGIC>MOL_PROPERTY
VdW6
SciTegic.value.DoubleValue
-9.130

@<SCITEGIC>MOL_PROPERTY
VdW12
SciTegic.value.DoubleValue
10.007

@<SCITEGIC>MOL_PROPERTY
Bond
SciTegic.value.DoubleValue
0.167

@<SCITEGIC>MOL_PROPERTY
Angle
SciTegic.value.DoubleValue
2.661

@<SCITEGIC>MOL_PROPERTY
Pdih
SciTegic.value.DoubleValue
5.459

@<SCITEGIC>MOL_PROPERTY
Idih
SciTegic.value.DoubleValue
0.000

@<SCITEGIC>MOL_PROPERTY
Tether
SciTegic.value.DoubleValue
0.000

@<TRIPOS>MOLECULE
guest-8_vm2.mol2 : vm2 ligand conformer 35
          25          24           1
SMALL
USER_CHARGES
 
@<TRIPOS>ATOM
       1    C1      19.959404   18.946099   27.154841 C.2        1 MOL1         0.6168
       2    O1      21.015128   18.513093   27.573189 O.co2      1 MOL1        -0.6703
       3    O2      18.911040   18.333969   27.212318 O.co2      1 MOL1        -0.6703
       4    C2      19.943262   20.343072   26.540725 C.3        1 MOL1        -0.1963
       5    H1      20.834724   20.884628   26.879525 H          1 MOL1         0.0750
       6    H2      19.075374   20.872316   26.951399 H          1 MOL1         0.0750
       7    C3      19.868277   20.348520   24.991773 C.3        1 MOL1        -0.1860
       8    H3      18.979835   19.785250   24.677022 H          1 MOL1         0.0752
       9    H4      19.729465   21.381316   24.644886 H          1 MOL1         0.0752
      10    C4      21.138108   19.755405   24.335649 C.3        1 MOL1        -0.1858
      11    H5      21.247015   18.699777   24.620447 H          1 MOL1         0.0752
      12    H6      22.020891   20.275105   24.732454 H          1 MOL1         0.0752
      13    C5      21.148624   19.876623   22.793274 C.3        1 MOL1        -0.1858
      14    H7      21.048943   20.932327   22.506224 H          1 MOL1         0.0752
      15    H8      22.129503   19.545936   22.425332 H          1 MOL1         0.0752
      16    C6      20.045573   19.041811   22.102337 C.3        1 MOL1        -0.1858
      17    H9      19.055176   19.408984   22.401044 H          1 MOL1         0.0752
      18    H10     20.114047   17.996811   22.434269 H          1 MOL1         0.0752
      19    C7      20.163223   19.102628   20.564738 C.3        1 MOL1        -0.1834
      20    H11     20.096960   20.147015   20.229588 H          1 MOL1         0.0752
      21    H12     21.148477   18.729091   20.253017 H          1 MOL1         0.0752
      22    C8      19.060362   18.272780   19.877155 C.3        1 MOL1        -0.2849
      23    H13     19.122521   17.216825   20.171221 H          1 MOL1         0.0764
      24    H14     18.063212   18.645358   20.145971 H          1 MOL1         0.0764
      25    H15     19.159363   18.326932   18.785219 H          1 MOL1         0.0764
@<TRIPOS>BOND
    1     1     2    1
    2     1     3    2
    3     1     4    1
    4     4     5    1
    5     4     6    1
    6     4     7    1
    7     7     8    1
    8     7     9    1
    9     7    10    1
   10    10    11    1
   11    10    12    1
   12    10    13    1
   13    13    14    1
   14    13    15    1
   15    13    16    1
   16    16    17    1
   17    16    18    1
   18    16    19    1
   19    19    20    1
   20    19    21    1
   21    19    22    1
   22    22    23    1
   23    22    24    1
   24    22    25    1
@<TRIPOS>SUBSTRUCTURE
       1 MOL1            1 RESIDUE      1      MOL     
@<SCITEGIC>MOL_PROPERTY
VM2 Rank
SciTegic.value.IntegerValue
35

@<SCITEGIC>MOL_PROPERTY
Conf_Id
SciTegic.value.IntegerValue
1358

@<SCITEGIC>MOL_PROPERTY
Probability
SciTegic.value.DoubleValue
0.49

@<SCITEGIC>MOL_PROPERTY
Sum Probability
SciTegic.value.DoubleValue
90.69

@<SCITEGIC>MOL_PROPERTY
Delta G
SciTegic.value.DoubleValue
2.294

@<SCITEGIC>MOL_PROPERTY
G
SciTegic.value.DoubleValue
-5.668

@<SCITEGIC>MOL_PROPERTY
E
SciTegic.value.DoubleValue
-30.483

@<SCITEGIC>MOL_PROPERTY
-TS
SciTegic.value.DoubleValue
24.815

@<SCITEGIC>MOL_PROPERTY
U+W
SciTegic.value.DoubleValue
-51.050

@<SCITEGIC>MOL_PROPERTY
U
SciTegic.value.DoubleValue
8.903

@<SCITEGIC>MOL_PROPERTY
W
SciTegic.value.DoubleValue
-59.953

@<SCITEGIC>MOL_PROPERTY
W(PB)
SciTegic.value.DoubleValue
-62.431

@<SCITEGIC>MOL_PROPERTY
W(SA)
SciTegic.value.DoubleValue
2.478

@<SCITEGIC>MOL_PROPERTY
Valence
SciTegic.value.DoubleValue
8.305

@<SCITEGIC>MOL_PROPERTY
Coulomb
SciTegic.value.DoubleValue
-0.224

@<SCITEGIC>MOL_PROPERTY
VdW
SciTegic.value.DoubleValue
0.821

@<SCITEGIC>MOL_PROPERTY
VdW6
SciTegic.value.DoubleValue
-9.236

@<SCITEGIC>MOL_PROPERTY
VdW12
SciTegic.value.DoubleValue
10.057

@<SCITEGIC>MOL_PROPERTY
Bond
SciTegic.value.DoubleValue
0.173

@<SCITEGIC>MOL_PROPERTY
Angle
SciTegic.value.DoubleValue
2.663

@<SCITEGIC>MOL_PROPERTY
Pdih
SciTegic.value.DoubleValue
5.469

@<SCITEGIC>MOL_PROPERTY
Idih
SciTegic.value.DoubleValue
0.001

@<SCITEGIC>MOL_PROPERTY
Tether
SciTegic.value.DoubleValue
0.000

@<TRIPOS>MOLECULE
guest-8_vm2.mol2 : vm2 ligand conformer 36
          25          24           1
SMALL
USER_CHARGES
 
@<TRIPOS>ATOM
       1    C1      19.821650   19.570673   27.137800 C.2        1 MOL1         0.6168
       2    O1      20.687127   20.125171   27.786339 O.co2      1 MOL1        -0.6703
       3    O2      18.718360   20.042739   26.945811 O.co2      1 MOL1        -0.6703
       4    C2      20.133310   18.197616   26.549080 C.3        1 MOL1        -0.1963
       5    H1      19.187703   17.699070   26.303880 H          1 MOL1         0.0750
       6    H2      20.610336   17.603492   27.337382 H          1 MOL1         0.0750
       7    C3      21.055212   18.240503   25.302765 C.3        1 MOL1        -0.1860
       8    H3      21.986589   18.765238   25.557345 H          1 MOL1         0.0752
       9    H4      21.334930   17.213719   25.030717 H          1 MOL1         0.0752
      10    C4      20.383658   18.923320   24.089976 C.3        1 MOL1        -0.1858
      11    H5      20.120851   19.958708   24.347033 H          1 MOL1         0.0752
      12    H6      19.444912   18.403155   23.859706 H          1 MOL1         0.0752
      13    C5      21.307648   18.920151   22.850203 C.3        1 MOL1        -0.1858
      14    H7      22.269411   19.376566   23.121464 H          1 MOL1         0.0752
      15    H8      21.527315   17.885313   22.554046 H          1 MOL1         0.0752
      16    C6      20.723111   19.691231   21.642762 C.3        1 MOL1        -0.1858
      17    H9      21.491130   19.744358   20.859053 H          1 MOL1         0.0752
      18    H10     20.507963   20.727489   21.937401 H          1 MOL1         0.0752
      19    C7      19.450050   19.042139   21.054111 C.3        1 MOL1        -0.1834
      20    H11     19.649669   17.989697   20.809757 H          1 MOL1         0.0752
      21    H12     18.642451   19.051139   21.797838 H          1 MOL1         0.0752
      22    C8      18.972874   19.780457   19.787152 C.3        1 MOL1        -0.2849
      23    H13     19.743219   19.758197   19.005224 H          1 MOL1         0.0764
      24    H14     18.066932   19.309982   19.383451 H          1 MOL1         0.0764
      25    H15     18.739614   20.830074   20.009120 H          1 MOL1         0.0764
@<TRIPOS>BOND
    1     1     2    1
    2     1     3    2
    3     1     4    1
    4     4     5    1
    5     4     6    1
    6     4     7    1
    7     7     8    1
    8     7     9    1
    9     7    10    1
   10    10    11    1
   11    10    12    1
   12    10    13    1
   13    13    14    1
   14    13    15    1
   15    13    16    1
   16    16    17    1
   17    16    18    1
   18    16    19    1
   19    19    20    1
   20    19    21    1
   21    19    22    1
   22    22    23    1
   23    22    24    1
   24    22    25    1
@<TRIPOS>SUBSTRUCTURE
       1 MOL1            1 RESIDUE      1      MOL     
@<SCITEGIC>MOL_PROPERTY
VM2 Rank
SciTegic.value.IntegerValue
36

@<SCITEGIC>MOL_PROPERTY
Conf_Id
SciTegic.value.IntegerValue
468

@<SCITEGIC>MOL_PROPERTY
Probability
SciTegic.value.DoubleValue
0.48

@<SCITEGIC>MOL_PROPERTY
Sum Probability
SciTegic.value.DoubleValue
91.17

@<SCITEGIC>MOL_PROPERTY
Delta G
SciTegic.value.DoubleValue
2.305

@<SCITEGIC>MOL_PROPERTY
G
SciTegic.value.DoubleValue
-5.657

@<SCITEGIC>MOL_PROPERTY
E
SciTegic.value.DoubleValue
-30.466

@<SCITEGIC>MOL_PROPERTY
-TS
SciTegic.value.DoubleValue
24.809

@<SCITEGIC>MOL_PROPERTY
U+W
SciTegic.value.DoubleValue
-51.033

@<SCITEGIC>MOL_PROPERTY
U
SciTegic.value.DoubleValue
8.998

@<SCITEGIC>MOL_PROPERTY
W
SciTegic.value.DoubleValue
-60.031

@<SCITEGIC>MOL_PROPERTY
W(PB)
SciTegic.value.DoubleValue
-62.529

@<SCITEGIC>MOL_PROPERTY
W(SA)
SciTegic.value.DoubleValue
2.498

@<SCITEGIC>MOL_PROPERTY
Valence
SciTegic.value.DoubleValue
8.322

@<SCITEGIC>MOL_PROPERTY
Coulomb
SciTegic.value.DoubleValue
-0.176

@<SCITEGIC>MOL_PROPERTY
VdW
SciTegic.value.DoubleValue
0.852

@<SCITEGIC>MOL_PROPERTY
VdW6
SciTegic.value.DoubleValue
-9.197

@<SCITEGIC>MOL_PROPERTY
VdW12
SciTegic.value.DoubleValue
10.048

@<SCITEGIC>MOL_PROPERTY
Bond
SciTegic.value.DoubleValue
0.171

@<SCITEGIC>MOL_PROPERTY
Angle
SciTegic.value.DoubleValue
2.683

@<SCITEGIC>MOL_PROPERTY
Pdih
SciTegic.value.DoubleValue
5.468

@<SCITEGIC>MOL_PROPERTY
Idih
SciTegic.value.DoubleValue
0.000

@<SCITEGIC>MOL_PROPERTY
Tether
SciTegic.value.DoubleValue
0.000

@<TRIPOS>MOLECULE
guest-8_vm2.mol2 : vm2 ligand conformer 37
          25          24           1
SMALL
USER_CHARGES
 
@<TRIPOS>ATOM
       1    C1      20.066397   19.460825   27.330402 C.2        1 MOL1         0.6168
       2    O1      20.965314   20.151482   27.768614 O.co2      1 MOL1        -0.6703
       3    O2      18.888127   19.730522   27.456588 O.co2      1 MOL1        -0.6703
       4    C2      20.439698   18.175541   26.597143 C.3        1 MOL1        -0.1963
       5    H1      19.562753   17.517240   26.575939 H          1 MOL1         0.0750
       6    H2      21.204220   17.666710   27.195953 H          1 MOL1         0.0750
       7    C3      20.974037   18.402631   25.159136 C.3        1 MOL1        -0.1860
       8    H3      21.834000   19.085933   25.194016 H          1 MOL1         0.0752
       9    H4      21.344744   17.448045   24.761792 H          1 MOL1         0.0752
      10    C4      19.895872   18.966591   24.206566 C.3        1 MOL1        -0.1858
      11    H5      19.532035   19.930309   24.588958 H          1 MOL1         0.0752
      12    H6      19.033221   18.286620   24.184826 H          1 MOL1         0.0752
      13    C5      20.440347   19.154945   22.774013 C.3        1 MOL1        -0.1858
      14    H7      21.300671   19.837685   22.795858 H          1 MOL1         0.0752
      15    H8      20.805128   18.190340   22.397855 H          1 MOL1         0.0752
      16    C6      19.359582   19.716463   21.821402 C.3        1 MOL1        -0.1858
      17    H9      18.954939   20.644567   22.247812 H          1 MOL1         0.0752
      18    H10     18.519578   19.011295   21.758010 H          1 MOL1         0.0752
      19    C7      19.889290   20.019104   20.400343 C.3        1 MOL1        -0.1834
      20    H11     19.096471   20.520240   19.828034 H          1 MOL1         0.0752
      21    H12     20.725414   20.729532   20.459537 H          1 MOL1         0.0752
      22    C8      20.334336   18.755897   19.631792 C.3        1 MOL1        -0.2849
      23    H13     21.203527   18.283582   20.106270 H          1 MOL1         0.0764
      24    H14     19.523081   18.017751   19.585721 H          1 MOL1         0.0764
      25    H15     20.616627   19.012434   18.602517 H          1 MOL1         0.0764
@<TRIPOS>BOND
    1     1     2    1
    2     1     3    2
    3     1     4    1
    4     4     5    1
    5     4     6    1
    6     4     7    1
    7     7     8    1
    8     7     9    1
    9     7    10    1
   10    10    11    1
   11    10    12    1
   12    10    13    1
   13    13    14    1
   14    13    15    1
   15    13    16    1
   16    16    17    1
   17    16    18    1
   18    16    19    1
   19    19    20    1
   20    19    21    1
   21    19    22    1
   22    22    23    1
   23    22    24    1
   24    22    25    1
@<TRIPOS>SUBSTRUCTURE
       1 MOL1            1 RESIDUE      1      MOL     
@<SCITEGIC>MOL_PROPERTY
VM2 Rank
SciTegic.value.IntegerValue
37

@<SCITEGIC>MOL_PROPERTY
Conf_Id
SciTegic.value.IntegerValue
1008

@<SCITEGIC>MOL_PROPERTY
Probability
SciTegic.value.DoubleValue
0.48

@<SCITEGIC>MOL_PROPERTY
Sum Probability
SciTegic.value.DoubleValue
91.65

@<SCITEGIC>MOL_PROPERTY
Delta G
SciTegic.value.DoubleValue
2.308

@<SCITEGIC>MOL_PROPERTY
G
SciTegic.value.DoubleValue
-5.654

@<SCITEGIC>MOL_PROPERTY
E
SciTegic.value.DoubleValue
-30.475

@<SCITEGIC>MOL_PROPERTY
-TS
SciTegic.value.DoubleValue
24.821

@<SCITEGIC>MOL_PROPERTY
U+W
SciTegic.value.DoubleValue
-51.043

@<SCITEGIC>MOL_PROPERTY
U
SciTegic.value.DoubleValue
8.634

@<SCITEGIC>MOL_PROPERTY
W
SciTegic.value.DoubleValue
-59.677

@<SCITEGIC>MOL_PROPERTY
W(PB)
SciTegic.value.DoubleValue
-62.166

@<SCITEGIC>MOL_PROPERTY
W(SA)
SciTegic.value.DoubleValue
2.489

@<SCITEGIC>MOL_PROPERTY
Valence
SciTegic.value.DoubleValue
8.287

@<SCITEGIC>MOL_PROPERTY
Coulomb
SciTegic.value.DoubleValue
-0.534

@<SCITEGIC>MOL_PROPERTY
VdW
SciTegic.value.DoubleValue
0.881

@<SCITEGIC>MOL_PROPERTY
VdW6
SciTegic.value.DoubleValue
-9.127

@<SCITEGIC>MOL_PROPERTY
VdW12
SciTegic.value.DoubleValue
10.009

@<SCITEGIC>MOL_PROPERTY
Bond
SciTegic.value.DoubleValue
0.168

@<SCITEGIC>MOL_PROPERTY
Angle
SciTegic.value.DoubleValue
2.660

@<SCITEGIC>MOL_PROPERTY
Pdih
SciTegic.value.DoubleValue
5.459

@<SCITEGIC>MOL_PROPERTY
Idih
SciTegic.value.DoubleValue
0.000

@<SCITEGIC>MOL_PROPERTY
Tether
SciTegic.value.DoubleValue
0.000

@<TRIPOS>MOLECULE
guest-8_vm2.mol2 : vm2 ligand conformer 38
          25          24           1
SMALL
USER_CHARGES
 
@<TRIPOS>ATOM
       1    C1      20.201469   19.295777   27.402012 C.2        1 MOL1         0.6168
       2    O1      21.185172   19.885374   27.804256 O.co2      1 MOL1        -0.6703
       3    O2      19.074458   19.519517   27.798028 O.co2      1 MOL1        -0.6703
       4    C2      20.396533   18.202679   26.355008 C.3        1 MOL1        -0.1963
       5    H1      19.510475   17.556360   26.353725 H          1 MOL1         0.0750
       6    H2      21.240333   17.583743   26.681948 H          1 MOL1         0.0750
       7    C3      20.670795   18.738219   24.925490 C.3        1 MOL1        -0.1860
       8    H3      21.536032   19.415095   24.950335 H          1 MOL1         0.0752
       9    H4      20.948565   17.891646   24.284913 H          1 MOL1         0.0752
      10    C4      19.448640   19.470628   24.321073 C.3        1 MOL1        -0.1858
      11    H5      19.140914   20.278518   24.999021 H          1 MOL1         0.0752
      12    H6      18.596865   18.779829   24.257146 H          1 MOL1         0.0752
      13    C5      19.724362   20.084259   22.927713 C.3        1 MOL1        -0.1858
      14    H7      18.854737   20.689219   22.636767 H          1 MOL1         0.0752
      15    H8      20.575715   20.775566   22.992453 H          1 MOL1         0.0752
      16    C6      19.991248   19.029125   21.829186 C.3        1 MOL1        -0.1858
      17    H9      19.164347   18.306291   21.805615 H          1 MOL1         0.0752
      18    H10     20.903699   18.465889   22.063654 H          1 MOL1         0.0752
      19    C7      20.145156   19.680540   20.438595 C.3        1 MOL1        -0.1834
      20    H11     19.233608   20.240830   20.188426 H          1 MOL1         0.0752
      21    H12     20.970328   20.405896   20.459074 H          1 MOL1         0.0752
      22    C8      20.415166   18.627882   19.344640 C.3        1 MOL1        -0.2849
      23    H13     19.589859   17.906598   19.281430 H          1 MOL1         0.0764
      24    H14     20.521416   19.108207   18.363283 H          1 MOL1         0.0764
      25    H15     21.339767   18.073555   19.552537 H          1 MOL1         0.0764
@<TRIPOS>BOND
    1     1     2    1
    2     1     3    2
    3     1     4    1
    4     4     5    1
    5     4     6    1
    6     4     7    1
    7     7     8    1
    8     7     9    1
    9     7    10    1
   10    10    11    1
   11    10    12    1
   12    10    13    1
   13    13    14    1
   14    13    15    1
   15    13    16    1
   16    16    17    1
   17    16    18    1
   18    16    19    1
   19    19    20    1
   20    19    21    1
   21    19    22    1
   22    22    23    1
   23    22    24    1
   24    22    25    1
@<TRIPOS>SUBSTRUCTURE
       1 MOL1            1 RESIDUE      1      MOL     
@<SCITEGIC>MOL_PROPERTY
VM2 Rank
SciTegic.value.IntegerValue
38

@<SCITEGIC>MOL_PROPERTY
Conf_Id
SciTegic.value.IntegerValue
1037

@<SCITEGIC>MOL_PROPERTY
Probability
SciTegic.value.DoubleValue
0.47

@<SCITEGIC>MOL_PROPERTY
Sum Probability
SciTegic.value.DoubleValue
92.12

@<SCITEGIC>MOL_PROPERTY
Delta G
SciTegic.value.DoubleValue
2.322

@<SCITEGIC>MOL_PROPERTY
G
SciTegic.value.DoubleValue
-5.640

@<SCITEGIC>MOL_PROPERTY
E
SciTegic.value.DoubleValue
-30.460

@<SCITEGIC>MOL_PROPERTY
-TS
SciTegic.value.DoubleValue
24.820

@<SCITEGIC>MOL_PROPERTY
U+W
SciTegic.value.DoubleValue
-51.028

@<SCITEGIC>MOL_PROPERTY
U
SciTegic.value.DoubleValue
8.377

@<SCITEGIC>MOL_PROPERTY
W
SciTegic.value.DoubleValue
-59.405

@<SCITEGIC>MOL_PROPERTY
W(PB)
SciTegic.value.DoubleValue
-61.871

@<SCITEGIC>MOL_PROPERTY
W(SA)
SciTegic.value.DoubleValue
2.466

@<SCITEGIC>MOL_PROPERTY
Valence
SciTegic.value.DoubleValue
8.357

@<SCITEGIC>MOL_PROPERTY
Coulomb
SciTegic.value.DoubleValue
-0.892

@<SCITEGIC>MOL_PROPERTY
VdW
SciTegic.value.DoubleValue
0.912

@<SCITEGIC>MOL_PROPERTY
VdW6
SciTegic.value.DoubleValue
-9.161

@<SCITEGIC>MOL_PROPERTY
VdW12
SciTegic.value.DoubleValue
10.073

@<SCITEGIC>MOL_PROPERTY
Bond
SciTegic.value.DoubleValue
0.177

@<SCITEGIC>MOL_PROPERTY
Angle
SciTegic.value.DoubleValue
2.702

@<SCITEGIC>MOL_PROPERTY
Pdih
SciTegic.value.DoubleValue
5.478

@<SCITEGIC>MOL_PROPERTY
Idih
SciTegic.value.DoubleValue
0.000

@<SCITEGIC>MOL_PROPERTY
Tether
SciTegic.value.DoubleValue
0.000

@<TRIPOS>MOLECULE
guest-8_vm2.mol2 : vm2 ligand conformer 39
          25          24           1
SMALL
USER_CHARGES
 
@<TRIPOS>ATOM
       1    C1      19.866963   19.746845   27.004702 C.2        1 MOL1         0.6168
       2    O1      20.727272   20.478798   27.453281 O.co2      1 MOL1        -0.6703
       3    O2      18.718077   20.095462   26.816336 O.co2      1 MOL1        -0.6703
       4    C2      20.248148   18.305494   26.678577 C.3        1 MOL1        -0.1963
       5    H1      19.331859   17.705577   26.620671 H          1 MOL1         0.0750
       6    H2      20.827115   17.919870   27.525957 H          1 MOL1         0.0750
       7    C3      21.072871   18.150992   25.374332 C.3        1 MOL1        -0.1860
       8    H3      21.971915   18.779994   25.435469 H          1 MOL1         0.0752
       9    H4      21.418974   17.111721   25.292975 H          1 MOL1         0.0752
      10    C4      20.262035   18.519170   24.111352 C.3        1 MOL1        -0.1858
      11    H5      19.924562   19.560934   24.188946 H          1 MOL1         0.0752
      12    H6      19.360308   17.893940   24.059184 H          1 MOL1         0.0752
      13    C5      21.096588   18.332238   22.823164 C.3        1 MOL1        -0.1858
      14    H7      21.970738   18.997148   22.848736 H          1 MOL1         0.0752
      15    H8      21.487516   17.305932   22.796729 H          1 MOL1         0.0752
      16    C6      20.292807   18.583328   21.525032 C.3        1 MOL1        -0.1858
      17    H9      19.421004   17.915446   21.497152 H          1 MOL1         0.0752
      18    H10     20.922110   18.308332   20.667575 H          1 MOL1         0.0752
      19    C7      19.831584   20.049021   21.358781 C.3        1 MOL1        -0.1834
      20    H11     19.136603   20.320659   22.164234 H          1 MOL1         0.0752
      21    H12     20.696639   20.721387   21.441216 H          1 MOL1         0.0752
      22    C8      19.136656   20.272652   20.000443 C.3        1 MOL1        -0.2849
      23    H13     18.250829   19.631473   19.902636 H          1 MOL1         0.0764
      24    H14     18.812337   21.316501   19.899196 H          1 MOL1         0.0764
      25    H15     19.816879   20.047184   19.168701 H          1 MOL1         0.0764
@<TRIPOS>BOND
    1     1     2    1
    2     1     3    2
    3     1     4    1
    4     4     5    1
    5     4     6    1
    6     4     7    1
    7     7     8    1
    8     7     9    1
    9     7    10    1
   10    10    11    1
   11    10    12    1
   12    10    13    1
   13    13    14    1
   14    13    15    1
   15    13    16    1
   16    16    17    1
   17    16    18    1
   18    16    19    1
   19    19    20    1
   20    19    21    1
   21    19    22    1
   22    22    23    1
   23    22    24    1
   24    22    25    1
@<TRIPOS>SUBSTRUCTURE
       1 MOL1            1 RESIDUE      1      MOL     
@<SCITEGIC>MOL_PROPERTY
VM2 Rank
SciTegic.value.IntegerValue
39

@<SCITEGIC>MOL_PROPERTY
Conf_Id
SciTegic.value.IntegerValue
1219

@<SCITEGIC>MOL_PROPERTY
Probability
SciTegic.value.DoubleValue
0.47

@<SCITEGIC>MOL_PROPERTY
Sum Probability
SciTegic.value.DoubleValue
92.58

@<SCITEGIC>MOL_PROPERTY
Delta G
SciTegic.value.DoubleValue
2.322

@<SCITEGIC>MOL_PROPERTY
G
SciTegic.value.DoubleValue
-5.640

@<SCITEGIC>MOL_PROPERTY
E
SciTegic.value.DoubleValue
-30.460

@<SCITEGIC>MOL_PROPERTY
-TS
SciTegic.value.DoubleValue
24.820

@<SCITEGIC>MOL_PROPERTY
U+W
SciTegic.value.DoubleValue
-51.027

@<SCITEGIC>MOL_PROPERTY
U
SciTegic.value.DoubleValue
9.231

@<SCITEGIC>MOL_PROPERTY
W
SciTegic.value.DoubleValue
-60.258

@<SCITEGIC>MOL_PROPERTY
W(PB)
SciTegic.value.DoubleValue
-62.741

@<SCITEGIC>MOL_PROPERTY
W(SA)
SciTegic.value.DoubleValue
2.483

@<SCITEGIC>MOL_PROPERTY
Valence
SciTegic.value.DoubleValue
8.318

@<SCITEGIC>MOL_PROPERTY
Coulomb
SciTegic.value.DoubleValue
0.075

@<SCITEGIC>MOL_PROPERTY
VdW
SciTegic.value.DoubleValue
0.838

@<SCITEGIC>MOL_PROPERTY
VdW6
SciTegic.value.DoubleValue
-9.234

@<SCITEGIC>MOL_PROPERTY
VdW12
SciTegic.value.DoubleValue
10.072

@<SCITEGIC>MOL_PROPERTY
Bond
SciTegic.value.DoubleValue
0.172

@<SCITEGIC>MOL_PROPERTY
Angle
SciTegic.value.DoubleValue
2.679

@<SCITEGIC>MOL_PROPERTY
Pdih
SciTegic.value.DoubleValue
5.467

@<SCITEGIC>MOL_PROPERTY
Idih
SciTegic.value.DoubleValue
0.000

@<SCITEGIC>MOL_PROPERTY
Tether
SciTegic.value.DoubleValue
0.000

@<TRIPOS>MOLECULE
guest-8_vm2.mol2 : vm2 ligand conformer 40
          25          24           1
SMALL
USER_CHARGES
 
@<TRIPOS>ATOM
       1    C1      20.380398   19.779781   26.998774 C.2        1 MOL1         0.6168
       2    O1      21.470834   20.271735   26.784569 O.co2      1 MOL1        -0.6703
       3    O2      19.444316   20.396767   27.468016 O.co2      1 MOL1        -0.6703
       4    C2      20.178697   18.301101   26.679446 C.3        1 MOL1        -0.1963
       5    H1      19.673200   17.846108   27.539338 H          1 MOL1         0.0750
       6    H2      21.162417   17.822802   26.599690 H          1 MOL1         0.0750
       7    C3      19.350713   18.040728   25.394245 C.3        1 MOL1        -0.1860
       8    H3      19.138150   16.965692   25.319382 H          1 MOL1         0.0752
       9    H4      18.380457   18.550077   25.476873 H          1 MOL1         0.0752
      10    C4      20.078818   18.507348   24.113518 C.3        1 MOL1        -0.1858
      11    H5      21.051494   18.002154   24.039832 H          1 MOL1         0.0752
      12    H6      20.282353   19.583764   24.184792 H          1 MOL1         0.0752
      13    C5      19.245630   18.213479   22.844548 C.3        1 MOL1        -0.1858
      14    H7      18.988474   17.145613   22.825585 H          1 MOL1         0.0752
      15    H8      18.294539   18.761341   22.891144 H          1 MOL1         0.0752
      16    C6      19.980769   18.563252   21.528692 C.3        1 MOL1        -0.1858
      17    H9      19.372363   18.208644   20.685499 H          1 MOL1         0.0752
      18    H10     20.929988   18.012348   21.479957 H          1 MOL1         0.0752
      19    C7      20.246746   20.075641   21.353895 C.3        1 MOL1        -0.1834
      20    H11     19.304888   20.631934   21.457014 H          1 MOL1         0.0752
      21    H12     20.919503   20.435255   22.143589 H          1 MOL1         0.0752
      22    C8      20.876078   20.384169   19.980298 C.3        1 MOL1        -0.2849
      23    H13     20.211437   20.072188   19.164054 H          1 MOL1         0.0764
      24    H14     21.061770   21.460769   19.873041 H          1 MOL1         0.0764
      25    H15     21.834187   19.861436   19.861368 H          1 MOL1         0.0764
@<TRIPOS>BOND
    1     1     2    1
    2     1     3    2
    3     1     4    1
    4     4     5    1
    5     4     6    1
    6     4     7    1
    7     7     8    1
    8     7     9    1
    9     7    10    1
   10    10    11    1
   11    10    12    1
   12    10    13    1
   13    13    14    1
   14    13    15    1
   15    13    16    1
   16    16    17    1
   17    16    18    1
   18    16    19    1
   19    19    20    1
   20    19    21    1
   21    19    22    1
   22    22    23    1
   23    22    24    1
   24    22    25    1
@<TRIPOS>SUBSTRUCTURE
       1 MOL1            1 RESIDUE      1      MOL     
@<SCITEGIC>MOL_PROPERTY
VM2 Rank
SciTegic.value.IntegerValue
40

@<SCITEGIC>MOL_PROPERTY
Conf_Id
SciTegic.value.IntegerValue
68

@<SCITEGIC>MOL_PROPERTY
Probability
SciTegic.value.DoubleValue
0.47

@<SCITEGIC>MOL_PROPERTY
Sum Probability
SciTegic.value.DoubleValue
93.05

@<SCITEGIC>MOL_PROPERTY
Delta G
SciTegic.value.DoubleValue
2.324

@<SCITEGIC>MOL_PROPERTY
G
SciTegic.value.DoubleValue
-5.638

@<SCITEGIC>MOL_PROPERTY
E
SciTegic.value.DoubleValue
-30.458

@<SCITEGIC>MOL_PROPERTY
-TS
SciTegic.value.DoubleValue
24.820

@<SCITEGIC>MOL_PROPERTY
U+W
SciTegic.value.DoubleValue
-51.025

@<SCITEGIC>MOL_PROPERTY
U
SciTegic.value.DoubleValue
9.231

@<SCITEGIC>MOL_PROPERTY
W
SciTegic.value.DoubleValue
-60.257

@<SCITEGIC>MOL_PROPERTY
W(PB)
SciTegic.value.DoubleValue
-62.750

@<SCITEGIC>MOL_PROPERTY
W(SA)
SciTegic.value.DoubleValue
2.494

@<SCITEGIC>MOL_PROPERTY
Valence
SciTegic.value.DoubleValue
8.319

@<SCITEGIC>MOL_PROPERTY
Coulomb
SciTegic.value.DoubleValue
0.075

@<SCITEGIC>MOL_PROPERTY
VdW
SciTegic.value.DoubleValue
0.838

@<SCITEGIC>MOL_PROPERTY
VdW6
SciTegic.value.DoubleValue
-9.234

@<SCITEGIC>MOL_PROPERTY
VdW12
SciTegic.value.DoubleValue
10.072

@<SCITEGIC>MOL_PROPERTY
Bond
SciTegic.value.DoubleValue
0.172

@<SCITEGIC>MOL_PROPERTY
Angle
SciTegic.value.DoubleValue
2.679

@<SCITEGIC>MOL_PROPERTY
Pdih
SciTegic.value.DoubleValue
5.467

@<SCITEGIC>MOL_PROPERTY
Idih
SciTegic.value.DoubleValue
0.000

@<SCITEGIC>MOL_PROPERTY
Tether
SciTegic.value.DoubleValue
0.000

@<TRIPOS>MOLECULE
guest-8_vm2.mol2 : vm2 ligand conformer 41
          25          24           1
SMALL
USER_CHARGES
 
@<TRIPOS>ATOM
       1    C1      19.830591   19.042718   27.148695 C.2        1 MOL1         0.6168
       2    O1      20.714113   18.545092   27.818679 O.co2      1 MOL1        -0.6703
       3    O2      18.744228   18.525732   26.976944 O.co2      1 MOL1        -0.6703
       4    C2      20.095701   20.400155   26.503645 C.3        1 MOL1        -0.1963
       5    H1      20.551599   21.042199   27.266461 H          1 MOL1         0.0750
       6    H2      19.133828   20.855635   26.238726 H          1 MOL1         0.0750
       7    C3      21.019450   20.337379   25.259541 C.3        1 MOL1        -0.1860
       8    H3      21.264155   21.361014   24.945168 H          1 MOL1         0.0752
       9    H4      21.968008   19.855689   25.534923 H          1 MOL1         0.0752
      10    C4      20.372470   19.582574   24.076424 C.3        1 MOL1        -0.1858
      11    H5      19.416650   20.060407   23.825582 H          1 MOL1         0.0752
      12    H6      20.145033   18.550290   24.376153 H          1 MOL1         0.0752
      13    C5      21.296649   19.566188   22.836896 C.3        1 MOL1        -0.1858
      14    H7      21.480989   20.594833   22.498134 H          1 MOL1         0.0752
      15    H8      22.273279   19.154518   23.126041 H          1 MOL1         0.0752
      16    C6      20.739624   18.726411   21.662731 C.3        1 MOL1        -0.1858
      17    H9      20.559822   17.696446   22.000037 H          1 MOL1         0.0752
      18    H10     21.509532   18.667271   20.881309 H          1 MOL1         0.0752
      19    C7      19.445511   19.306781   21.048758 C.3        1 MOL1        -0.1834
      20    H11     18.638202   19.300875   21.792830 H          1 MOL1         0.0752
      21    H12     19.609210   20.354454   20.761053 H          1 MOL1         0.0752
      22    C8      18.994663   18.500970   19.813687 C.3        1 MOL1        -0.2849
      23    H13     19.764296   18.517282   19.030911 H          1 MOL1         0.0764
      24    H14     18.797263   17.454041   20.078919 H          1 MOL1         0.0764
      25    H15     18.073432   18.923169   19.391628 H          1 MOL1         0.0764
@<TRIPOS>BOND
    1     1     2    1
    2     1     3    2
    3     1     4    1
    4     4     5    1
    5     4     6    1
    6     4     7    1
    7     7     8    1
    8     7     9    1
    9     7    10    1
   10    10    11    1
   11    10    12    1
   12    10    13    1
   13    13    14    1
   14    13    15    1
   15    13    16    1
   16    16    17    1
   17    16    18    1
   18    16    19    1
   19    19    20    1
   20    19    21    1
   21    19    22    1
   22    22    23    1
   23    22    24    1
   24    22    25    1
@<TRIPOS>SUBSTRUCTURE
       1 MOL1            1 RESIDUE      1      MOL     
@<SCITEGIC>MOL_PROPERTY
VM2 Rank
SciTegic.value.IntegerValue
41

@<SCITEGIC>MOL_PROPERTY
Conf_Id
SciTegic.value.IntegerValue
1293

@<SCITEGIC>MOL_PROPERTY
Probability
SciTegic.value.DoubleValue
0.46

@<SCITEGIC>MOL_PROPERTY
Sum Probability
SciTegic.value.DoubleValue
93.51

@<SCITEGIC>MOL_PROPERTY
Delta G
SciTegic.value.DoubleValue
2.332

@<SCITEGIC>MOL_PROPERTY
G
SciTegic.value.DoubleValue
-5.630

@<SCITEGIC>MOL_PROPERTY
E
SciTegic.value.DoubleValue
-30.439

@<SCITEGIC>MOL_PROPERTY
-TS
SciTegic.value.DoubleValue
24.809

@<SCITEGIC>MOL_PROPERTY
U+W
SciTegic.value.DoubleValue
-51.007

@<SCITEGIC>MOL_PROPERTY
U
SciTegic.value.DoubleValue
8.999

@<SCITEGIC>MOL_PROPERTY
W
SciTegic.value.DoubleValue
-60.006

@<SCITEGIC>MOL_PROPERTY
W(PB)
SciTegic.value.DoubleValue
-62.484

@<SCITEGIC>MOL_PROPERTY
W(SA)
SciTegic.value.DoubleValue
2.479

@<SCITEGIC>MOL_PROPERTY
Valence
SciTegic.value.DoubleValue
8.322

@<SCITEGIC>MOL_PROPERTY
Coulomb
SciTegic.value.DoubleValue
-0.175

@<SCITEGIC>MOL_PROPERTY
VdW
SciTegic.value.DoubleValue
0.852

@<SCITEGIC>MOL_PROPERTY
VdW6
SciTegic.value.DoubleValue
-9.197

@<SCITEGIC>MOL_PROPERTY
VdW12
SciTegic.value.DoubleValue
10.049

@<SCITEGIC>MOL_PROPERTY
Bond
SciTegic.value.DoubleValue
0.171

@<SCITEGIC>MOL_PROPERTY
Angle
SciTegic.value.DoubleValue
2.683

@<SCITEGIC>MOL_PROPERTY
Pdih
SciTegic.value.DoubleValue
5.468

@<SCITEGIC>MOL_PROPERTY
Idih
SciTegic.value.DoubleValue
0.001

@<SCITEGIC>MOL_PROPERTY
Tether
SciTegic.value.DoubleValue
0.000

@<TRIPOS>MOLECULE
guest-8_vm2.mol2 : vm2 ligand conformer 42
          25          24           1
SMALL
USER_CHARGES
 
@<TRIPOS>ATOM
       1    C1      20.226738   19.471084   27.328564 C.2        1 MOL1         0.6168
       2    O1      21.363716   19.888643   27.428079 O.co2      1 MOL1        -0.6703
       3    O2      19.257571   20.042433   27.788309 O.co2      1 MOL1        -0.6703
       4    C2      20.003225   18.147679   26.602188 C.3        1 MOL1        -0.1963
       5    H1      19.323648   17.546588   27.217688 H          1 MOL1         0.0750
       6    H2      20.956078   17.606276   26.559833 H          1 MOL1         0.0750
       7    C3      19.411373   18.302825   25.177198 C.3        1 MOL1        -0.1860
       8    H3      19.156061   17.308248   24.787106 H          1 MOL1         0.0752
       9    H4      18.472507   18.871234   25.232864 H          1 MOL1         0.0752
      10    C4      20.386826   18.997924   24.200875 C.3        1 MOL1        -0.1858
      11    H5      21.328202   18.433127   24.158237 H          1 MOL1         0.0752
      12    H6      20.633889   20.000635   24.576218 H          1 MOL1         0.0752
      13    C5      19.789942   19.113446   22.781535 C.3        1 MOL1        -0.1858
      14    H7      19.542148   18.109750   22.412460 H          1 MOL1         0.0752
      15    H8      18.850549   19.681327   22.824213 H          1 MOL1         0.0752
      16    C6      20.768320   19.806383   21.805093 C.3        1 MOL1        -0.1858
      17    H9      21.689469   19.213628   21.721329 H          1 MOL1         0.0752
      18    H10     21.061411   20.779026   22.223426 H          1 MOL1         0.0752
      19    C7      20.171830   20.037127   20.397063 C.3        1 MOL1        -0.1834
      20    H11     19.253735   20.635540   20.476555 H          1 MOL1         0.0752
      21    H12     20.881083   20.634186   19.807386 H          1 MOL1         0.0752
      22    C8      19.873459   18.726457   19.637095 C.3        1 MOL1        -0.2849
      23    H13     19.082608   18.148093   20.130809 H          1 MOL1         0.0764
      24    H14     19.537133   18.943509   18.614999 H          1 MOL1         0.0764
      25    H15     20.770742   18.097443   19.571190 H          1 MOL1         0.0764
@<TRIPOS>BOND
    1     1     2    1
    2     1     3    2
    3     1     4    1
    4     4     5    1
    5     4     6    1
    6     4     7    1
    7     7     8    1
    8     7     9    1
    9     7    10    1
   10    10    11    1
   11    10    12    1
   12    10    13    1
   13    13    14    1
   14    13    15    1
   15    13    16    1
   16    16    17    1
   17    16    18    1
   18    16    19    1
   19    19    20    1
   20    19    21    1
   21    19    22    1
   22    22    23    1
   23    22    24    1
   24    22    25    1
@<TRIPOS>SUBSTRUCTURE
       1 MOL1            1 RESIDUE      1      MOL     
@<SCITEGIC>MOL_PROPERTY
VM2 Rank
SciTegic.value.IntegerValue
42

@<SCITEGIC>MOL_PROPERTY
Conf_Id
SciTegic.value.IntegerValue
494

@<SCITEGIC>MOL_PROPERTY
Probability
SciTegic.value.DoubleValue
0.44

@<SCITEGIC>MOL_PROPERTY
Sum Probability
SciTegic.value.DoubleValue
93.95

@<SCITEGIC>MOL_PROPERTY
Delta G
SciTegic.value.DoubleValue
2.355

@<SCITEGIC>MOL_PROPERTY
G
SciTegic.value.DoubleValue
-5.608

@<SCITEGIC>MOL_PROPERTY
E
SciTegic.value.DoubleValue
-30.429

@<SCITEGIC>MOL_PROPERTY
-TS
SciTegic.value.DoubleValue
24.821

@<SCITEGIC>MOL_PROPERTY
U+W
SciTegic.value.DoubleValue
-50.997

@<SCITEGIC>MOL_PROPERTY
U
SciTegic.value.DoubleValue
8.634

@<SCITEGIC>MOL_PROPERTY
W
SciTegic.value.DoubleValue
-59.630

@<SCITEGIC>MOL_PROPERTY
W(PB)
SciTegic.value.DoubleValue
-62.120

@<SCITEGIC>MOL_PROPERTY
W(SA)
SciTegic.value.DoubleValue
2.489

@<SCITEGIC>MOL_PROPERTY
Valence
SciTegic.value.DoubleValue
8.287

@<SCITEGIC>MOL_PROPERTY
Coulomb
SciTegic.value.DoubleValue
-0.534

@<SCITEGIC>MOL_PROPERTY
VdW
SciTegic.value.DoubleValue
0.881

@<SCITEGIC>MOL_PROPERTY
VdW6
SciTegic.value.DoubleValue
-9.127

@<SCITEGIC>MOL_PROPERTY
VdW12
SciTegic.value.DoubleValue
10.008

@<SCITEGIC>MOL_PROPERTY
Bond
SciTegic.value.DoubleValue
0.168

@<SCITEGIC>MOL_PROPERTY
Angle
SciTegic.value.DoubleValue
2.660

@<SCITEGIC>MOL_PROPERTY
Pdih
SciTegic.value.DoubleValue
5.459

@<SCITEGIC>MOL_PROPERTY
Idih
SciTegic.value.DoubleValue
0.000

@<SCITEGIC>MOL_PROPERTY
Tether
SciTegic.value.DoubleValue
0.000

@<TRIPOS>MOLECULE
guest-8_vm2.mol2 : vm2 ligand conformer 43
          25          24           1
SMALL
USER_CHARGES
 
@<TRIPOS>ATOM
       1    C1      20.372638   19.738079   26.918936 C.2        1 MOL1         0.6168
       2    O1      20.997590   20.661628   26.435873 O.co2      1 MOL1        -0.6703
       3    O2      19.577012   19.867366   27.828733 O.co2      1 MOL1        -0.6703
       4    C2      20.618224   18.334254   26.373090 C.3        1 MOL1        -0.1963
       5    H1      20.818546   17.681879   27.230957 H          1 MOL1         0.0750
       6    H2      21.534836   18.346311   25.772553 H          1 MOL1         0.0750
       7    C3      19.432465   17.755468   25.553582 C.3        1 MOL1        -0.1860
       8    H3      19.670434   16.725879   25.254105 H          1 MOL1         0.0752
       9    H4      18.551509   17.689792   26.207010 H          1 MOL1         0.0752
      10    C4      19.059804   18.578870   24.296225 C.3        1 MOL1        -0.1858
      11    H5      18.771726   19.597230   24.591578 H          1 MOL1         0.0752
      12    H6      18.170264   18.127331   23.836185 H          1 MOL1         0.0752
      13    C5      20.192177   18.644950   23.245795 C.3        1 MOL1        -0.1858
      14    H7      21.057068   19.176462   23.664512 H          1 MOL1         0.0752
      15    H8      20.525901   17.627778   22.999518 H          1 MOL1         0.0752
      16    C6      19.734516   19.363825   21.958202 C.3        1 MOL1        -0.1858
      17    H9      19.399068   20.380249   22.206228 H          1 MOL1         0.0752
      18    H10     18.870608   18.837139   21.530135 H          1 MOL1         0.0752
      19    C7      20.864738   19.435688   20.909930 C.3        1 MOL1        -0.1834
      20    H11     21.729624   19.964685   21.333790 H          1 MOL1         0.0752
      21    H12     21.202718   18.420564   20.659467 H          1 MOL1         0.0752
      22    C8      20.403836   20.153872   19.625634 C.3        1 MOL1        -0.2849
      23    H13     20.089533   21.183216   19.842557 H          1 MOL1         0.0764
      24    H14     21.219348   20.196017   18.891994 H          1 MOL1         0.0764
      25    H15     19.558613   19.627571   19.163054 H          1 MOL1         0.0764
@<TRIPOS>BOND
    1     1     2    1
    2     1     3    2
    3     1     4    1
    4     4     5    1
    5     4     6    1
    6     4     7    1
    7     7     8    1
    8     7     9    1
    9     7    10    1
   10    10    11    1
   11    10    12    1
   12    10    13    1
   13    13    14    1
   14    13    15    1
   15    13    16    1
   16    16    17    1
   17    16    18    1
   18    16    19    1
   19    19    20    1
   20    19    21    1
   21    19    22    1
   22    22    23    1
   23    22    24    1
   24    22    25    1
@<TRIPOS>SUBSTRUCTURE
       1 MOL1            1 RESIDUE      1      MOL     
@<SCITEGIC>MOL_PROPERTY
VM2 Rank
SciTegic.value.IntegerValue
43

@<SCITEGIC>MOL_PROPERTY
Conf_Id
SciTegic.value.IntegerValue
88

@<SCITEGIC>MOL_PROPERTY
Probability
SciTegic.value.DoubleValue
0.33

@<SCITEGIC>MOL_PROPERTY
Sum Probability
SciTegic.value.DoubleValue
94.28

@<SCITEGIC>MOL_PROPERTY
Delta G
SciTegic.value.DoubleValue
2.535

@<SCITEGIC>MOL_PROPERTY
G
SciTegic.value.DoubleValue
-5.427

@<SCITEGIC>MOL_PROPERTY
E
SciTegic.value.DoubleValue
-30.290

@<SCITEGIC>MOL_PROPERTY
-TS
SciTegic.value.DoubleValue
24.863

@<SCITEGIC>MOL_PROPERTY
U+W
SciTegic.value.DoubleValue
-50.858

@<SCITEGIC>MOL_PROPERTY
U
SciTegic.value.DoubleValue
9.443

@<SCITEGIC>MOL_PROPERTY
W
SciTegic.value.DoubleValue
-60.301

@<SCITEGIC>MOL_PROPERTY
W(PB)
SciTegic.value.DoubleValue
-62.766

@<SCITEGIC>MOL_PROPERTY
W(SA)
SciTegic.value.DoubleValue
2.465

@<SCITEGIC>MOL_PROPERTY
Valence
SciTegic.value.DoubleValue
8.294

@<SCITEGIC>MOL_PROPERTY
Coulomb
SciTegic.value.DoubleValue
0.527

@<SCITEGIC>MOL_PROPERTY
VdW
SciTegic.value.DoubleValue
0.622

@<SCITEGIC>MOL_PROPERTY
VdW6
SciTegic.value.DoubleValue
-9.564

@<SCITEGIC>MOL_PROPERTY
VdW12
SciTegic.value.DoubleValue
10.186

@<SCITEGIC>MOL_PROPERTY
Bond
SciTegic.value.DoubleValue
0.185

@<SCITEGIC>MOL_PROPERTY
Angle
SciTegic.value.DoubleValue
2.775

@<SCITEGIC>MOL_PROPERTY
Pdih
SciTegic.value.DoubleValue
5.333

@<SCITEGIC>MOL_PROPERTY
Idih
SciTegic.value.DoubleValue
0.001

@<SCITEGIC>MOL_PROPERTY
Tether
SciTegic.value.DoubleValue
0.000

@<TRIPOS>MOLECULE
guest-8_vm2.mol2 : vm2 ligand conformer 44
          25          24           1
SMALL
USER_CHARGES
 
@<TRIPOS>ATOM
       1    C1      19.878288   19.706534   26.924406 C.2        1 MOL1         0.6168
       2    O1      20.671807   19.937648   27.815687 O.co2      1 MOL1        -0.6703
       3    O2      19.129719   20.542123   26.457188 O.co2      1 MOL1        -0.6703
       4    C2      19.800984   18.281949   26.382587 C.3        1 MOL1        -0.1963
       5    H1      18.876702   18.176164   25.803381 H          1 MOL1         0.0750
       6    H2      19.705209   17.610812   27.244017 H          1 MOL1         0.0750
       7    C3      21.031578   17.857495   25.535183 C.3        1 MOL1        -0.1860
       8    H3      21.928533   17.905443   26.168061 H          1 MOL1         0.0752
       9    H4      20.919720   16.805537   25.239817 H          1 MOL1         0.0752
      10    C4      21.267414   18.719687   24.270736 C.3        1 MOL1        -0.1858
      11    H5      22.196208   18.384112   23.789555 H          1 MOL1         0.0752
      12    H6      21.430576   19.766825   24.560839 H          1 MOL1         0.0752
      13    C5      20.111797   18.639871   23.246911 C.3        1 MOL1        -0.1858
      14    H7      19.904273   17.588190   23.006988 H          1 MOL1         0.0752
      15    H8      19.196369   19.057937   23.686314 H          1 MOL1         0.0752
      16    C6      20.444561   19.409057   21.950083 C.3        1 MOL1        -0.1858
      17    H9      21.358128   18.995565   21.501313 H          1 MOL1         0.0752
      18    H10     20.654039   20.460193   22.191727 H          1 MOL1         0.0752
      19    C7      19.290327   19.335409   20.928436 C.3        1 MOL1        -0.1834
      20    H11     19.078052   18.285239   20.684471 H          1 MOL1         0.0752
      21    H12     18.375426   19.751145   21.373003 H          1 MOL1         0.0752
      22    C8      19.626523   20.104226   19.634784 C.3        1 MOL1        -0.2849
      23    H13     20.520667   19.688588   19.151949 H          1 MOL1         0.0764
      24    H14     18.795431   20.041521   18.920347 H          1 MOL1         0.0764
      25    H15     19.812767   21.165443   19.845790 H          1 MOL1         0.0764
@<TRIPOS>BOND
    1     1     2    1
    2     1     3    2
    3     1     4    1
    4     4     5    1
    5     4     6    1
    6     4     7    1
    7     7     8    1
    8     7     9    1
    9     7    10    1
   10    10    11    1
   11    10    12    1
   12    10    13    1
   13    13    14    1
   14    13    15    1
   15    13    16    1
   16    16    17    1
   17    16    18    1
   18    16    19    1
   19    19    20    1
   20    19    21    1
   21    19    22    1
   22    22    23    1
   23    22    24    1
   24    22    25    1
@<TRIPOS>SUBSTRUCTURE
       1 MOL1            1 RESIDUE      1      MOL     
@<SCITEGIC>MOL_PROPERTY
VM2 Rank
SciTegic.value.IntegerValue
44

@<SCITEGIC>MOL_PROPERTY
Conf_Id
SciTegic.value.IntegerValue
262

@<SCITEGIC>MOL_PROPERTY
Probability
SciTegic.value.DoubleValue
0.33

@<SCITEGIC>MOL_PROPERTY
Sum Probability
SciTegic.value.DoubleValue
94.60

@<SCITEGIC>MOL_PROPERTY
Delta G
SciTegic.value.DoubleValue
2.537

@<SCITEGIC>MOL_PROPERTY
G
SciTegic.value.DoubleValue
-5.425

@<SCITEGIC>MOL_PROPERTY
E
SciTegic.value.DoubleValue
-30.288

@<SCITEGIC>MOL_PROPERTY
-TS
SciTegic.value.DoubleValue
24.863

@<SCITEGIC>MOL_PROPERTY
U+W
SciTegic.value.DoubleValue
-50.856

@<SCITEGIC>MOL_PROPERTY
U
SciTegic.value.DoubleValue
9.443

@<SCITEGIC>MOL_PROPERTY
W
SciTegic.value.DoubleValue
-60.299

@<SCITEGIC>MOL_PROPERTY
W(PB)
SciTegic.value.DoubleValue
-62.763

@<SCITEGIC>MOL_PROPERTY
W(SA)
SciTegic.value.DoubleValue
2.463

@<SCITEGIC>MOL_PROPERTY
Valence
SciTegic.value.DoubleValue
8.294

@<SCITEGIC>MOL_PROPERTY
Coulomb
SciTegic.value.DoubleValue
0.528

@<SCITEGIC>MOL_PROPERTY
VdW
SciTegic.value.DoubleValue
0.622

@<SCITEGIC>MOL_PROPERTY
VdW6
SciTegic.value.DoubleValue
-9.565

@<SCITEGIC>MOL_PROPERTY
VdW12
SciTegic.value.DoubleValue
10.186

@<SCITEGIC>MOL_PROPERTY
Bond
SciTegic.value.DoubleValue
0.185

@<SCITEGIC>MOL_PROPERTY
Angle
SciTegic.value.DoubleValue
2.775

@<SCITEGIC>MOL_PROPERTY
Pdih
SciTegic.value.DoubleValue
5.333

@<SCITEGIC>MOL_PROPERTY
Idih
SciTegic.value.DoubleValue
0.001

@<SCITEGIC>MOL_PROPERTY
Tether
SciTegic.value.DoubleValue
0.000

@<TRIPOS>MOLECULE
guest-8_vm2.mol2 : vm2 ligand conformer 45
          25          24           1
SMALL
USER_CHARGES
 
@<TRIPOS>ATOM
       1    C1      20.031228   19.763336   27.257928 C.2        1 MOL1         0.6168
       2    O1      21.118728   19.894053   27.784233 O.co2      1 MOL1        -0.6703
       3    O2      18.990813   19.665017   27.878120 O.co2      1 MOL1        -0.6703
       4    C2      19.971136   19.695694   25.736174 C.3        1 MOL1        -0.1963
       5    H1      20.768787   20.335469   25.342201 H          1 MOL1         0.0750
       6    H2      19.016932   20.129150   25.413701 H          1 MOL1         0.0750
       7    C3      20.112255   18.249670   25.193799 C.3        1 MOL1        -0.1860
       8    H3      21.090009   17.841923   25.485322 H          1 MOL1         0.0752
       9    H4      19.355462   17.615967   25.676557 H          1 MOL1         0.0752
      10    C4      19.938847   18.148389   23.659737 C.3        1 MOL1        -0.1858
      11    H5      18.952672   18.543142   23.382045 H          1 MOL1         0.0752
      12    H6      19.942703   17.087300   23.375737 H          1 MOL1         0.0752
      13    C5      21.045880   18.886338   22.868125 C.3        1 MOL1        -0.1858
      14    H7      20.988790   19.965888   23.054378 H          1 MOL1         0.0752
      15    H8      22.027255   18.563072   23.240758 H          1 MOL1         0.0752
      16    C6      20.991004   18.621148   21.342475 C.3        1 MOL1        -0.1858
      17    H9      21.153460   17.549951   21.161343 H          1 MOL1         0.0752
      18    H10     21.832768   19.140158   20.864247 H          1 MOL1         0.0752
      19    C7      19.676756   19.050956   20.644608 C.3        1 MOL1        -0.1834
      20    H11     19.749327   18.799999   19.577475 H          1 MOL1         0.0752
      21    H12     18.832222   18.468622   21.036191 H          1 MOL1         0.0752
      22    C8      19.376353   20.559398   20.780800 C.3        1 MOL1        -0.2849
      23    H13     19.180684   20.834013   21.825032 H          1 MOL1         0.0764
      24    H14     20.218627   21.162221   20.417297 H          1 MOL1         0.0764
      25    H15     18.488676   20.828948   20.194184 H          1 MOL1         0.0764
@<TRIPOS>BOND
    1     1     2    1
    2     1     3    2
    3     1     4    1
    4     4     5    1
    5     4     6    1
    6     4     7    1
    7     7     8    1
    8     7     9    1
    9     7    10    1
   10    10    11    1
   11    10    12    1
   12    10    13    1
   13    13    14    1
   14    13    15    1
   15    13    16    1
   16    16    17    1
   17    16    18    1
   18    16    19    1
   19    19    20    1
   20    19    21    1
   21    19    22    1
   22    22    23    1
   23    22    24    1
   24    22    25    1
@<TRIPOS>SUBSTRUCTURE
       1 MOL1            1 RESIDUE      1      MOL     
@<SCITEGIC>MOL_PROPERTY
VM2 Rank
SciTegic.value.IntegerValue
45

@<SCITEGIC>MOL_PROPERTY
Conf_Id
SciTegic.value.IntegerValue
1338

@<SCITEGIC>MOL_PROPERTY
Probability
SciTegic.value.DoubleValue
0.27

@<SCITEGIC>MOL_PROPERTY
Sum Probability
SciTegic.value.DoubleValue
94.87

@<SCITEGIC>MOL_PROPERTY
Delta G
SciTegic.value.DoubleValue
2.649

@<SCITEGIC>MOL_PROPERTY
G
SciTegic.value.DoubleValue
-5.314

@<SCITEGIC>MOL_PROPERTY
E
SciTegic.value.DoubleValue
-30.247

@<SCITEGIC>MOL_PROPERTY
-TS
SciTegic.value.DoubleValue
24.934

@<SCITEGIC>MOL_PROPERTY
U+W
SciTegic.value.DoubleValue
-50.815

@<SCITEGIC>MOL_PROPERTY
U
SciTegic.value.DoubleValue
8.419

@<SCITEGIC>MOL_PROPERTY
W
SciTegic.value.DoubleValue
-59.234

@<SCITEGIC>MOL_PROPERTY
W(PB)
SciTegic.value.DoubleValue
-61.655

@<SCITEGIC>MOL_PROPERTY
W(SA)
SciTegic.value.DoubleValue
2.421

@<SCITEGIC>MOL_PROPERTY
Valence
SciTegic.value.DoubleValue
8.961

@<SCITEGIC>MOL_PROPERTY
Coulomb
SciTegic.value.DoubleValue
-1.581

@<SCITEGIC>MOL_PROPERTY
VdW
SciTegic.value.DoubleValue
1.039

@<SCITEGIC>MOL_PROPERTY
VdW6
SciTegic.value.DoubleValue
-10.002

@<SCITEGIC>MOL_PROPERTY
VdW12
SciTegic.value.DoubleValue
11.041

@<SCITEGIC>MOL_PROPERTY
Bond
SciTegic.value.DoubleValue
0.231

@<SCITEGIC>MOL_PROPERTY
Angle
SciTegic.value.DoubleValue
3.079

@<SCITEGIC>MOL_PROPERTY
Pdih
SciTegic.value.DoubleValue
5.650

@<SCITEGIC>MOL_PROPERTY
Idih
SciTegic.value.DoubleValue
0.001

@<SCITEGIC>MOL_PROPERTY
Tether
SciTegic.value.DoubleValue
0.000

@<TRIPOS>MOLECULE
guest-8_vm2.mol2 : vm2 ligand conformer 46
          25          24           1
SMALL
USER_CHARGES
 
@<TRIPOS>ATOM
       1    C1      20.221226   19.775583   27.255637 C.2        1 MOL1         0.6168
       2    O1      21.279673   19.811435   27.851600 O.co2      1 MOL1        -0.6703
       3    O2      19.138323   19.767647   27.806997 O.co2      1 MOL1        -0.6703
       4    C2      20.254447   19.713797   25.732812 C.3        1 MOL1        -0.1963
       5    H1      21.137868   20.264969   25.389072 H          1 MOL1         0.0750
       6    H2      19.372829   20.245948   25.358196 H          1 MOL1         0.0750
       7    C3      20.286556   18.260747   25.191806 C.3        1 MOL1        -0.1860
       8    H3      21.128926   17.729536   25.656134 H          1 MOL1         0.0752
       9    H4      19.375786   17.732026   25.505175 H          1 MOL1         0.0752
      10    C4      20.436141   18.180064   23.654022 C.3        1 MOL1        -0.1858
      11    H5      20.561210   17.126727   23.368683 H          1 MOL1         0.0752
      12    H6      21.357219   18.697022   23.354276 H          1 MOL1         0.0752
      13    C5      19.226063   18.769475   22.889139 C.3        1 MOL1        -0.1858
      14    H7      18.302821   18.324042   23.283682 H          1 MOL1         0.0752
      15    H8      19.149063   19.847735   23.075691 H          1 MOL1         0.0752
      16    C6      19.279352   18.511331   21.362228 C.3        1 MOL1        -0.1858
      17    H9      18.367400   18.917818   20.904242 H          1 MOL1         0.0752
      18    H10     19.251036   17.427904   21.183216 H          1 MOL1         0.0752
      19    C7      20.511511   19.104635   20.635059 C.3        1 MOL1        -0.1834
      20    H11     21.432315   18.635555   21.006233 H          1 MOL1         0.0752
      21    H12     20.447120   18.844998   19.569480 H          1 MOL1         0.0752
      22    C8      20.619708   20.639287   20.766700 C.3        1 MOL1        -0.2849
      23    H13     19.699139   21.129012   20.423661 H          1 MOL1         0.0764
      24    H14     20.802692   20.938082   21.806584 H          1 MOL1         0.0764
      25    H15     21.451889   21.019289   20.160220 H          1 MOL1         0.0764
@<TRIPOS>BOND
    1     1     2    1
    2     1     3    2
    3     1     4    1
    4     4     5    1
    5     4     6    1
    6     4     7    1
    7     7     8    1
    8     7     9    1
    9     7    10    1
   10    10    11    1
   11    10    12    1
   12    10    13    1
   13    13    14    1
   14    13    15    1
   15    13    16    1
   16    16    17    1
   17    16    18    1
   18    16    19    1
   19    19    20    1
   20    19    21    1
   21    19    22    1
   22    22    23    1
   23    22    24    1
   24    22    25    1
@<TRIPOS>SUBSTRUCTURE
       1 MOL1            1 RESIDUE      1      MOL     
@<SCITEGIC>MOL_PROPERTY
VM2 Rank
SciTegic.value.IntegerValue
46

@<SCITEGIC>MOL_PROPERTY
Conf_Id
SciTegic.value.IntegerValue
544

@<SCITEGIC>MOL_PROPERTY
Probability
SciTegic.value.DoubleValue
0.26

@<SCITEGIC>MOL_PROPERTY
Sum Probability
SciTegic.value.DoubleValue
95.13

@<SCITEGIC>MOL_PROPERTY
Delta G
SciTegic.value.DoubleValue
2.682

@<SCITEGIC>MOL_PROPERTY
G
SciTegic.value.DoubleValue
-5.280

@<SCITEGIC>MOL_PROPERTY
E
SciTegic.value.DoubleValue
-30.213

@<SCITEGIC>MOL_PROPERTY
-TS
SciTegic.value.DoubleValue
24.933

@<SCITEGIC>MOL_PROPERTY
U+W
SciTegic.value.DoubleValue
-50.781

@<SCITEGIC>MOL_PROPERTY
U
SciTegic.value.DoubleValue
8.420

@<SCITEGIC>MOL_PROPERTY
W
SciTegic.value.DoubleValue
-59.200

@<SCITEGIC>MOL_PROPERTY
W(PB)
SciTegic.value.DoubleValue
-61.632

@<SCITEGIC>MOL_PROPERTY
W(SA)
SciTegic.value.DoubleValue
2.432

@<SCITEGIC>MOL_PROPERTY
Valence
SciTegic.value.DoubleValue
8.961

@<SCITEGIC>MOL_PROPERTY
Coulomb
SciTegic.value.DoubleValue
-1.581

@<SCITEGIC>MOL_PROPERTY
VdW
SciTegic.value.DoubleValue
1.040

@<SCITEGIC>MOL_PROPERTY
VdW6
SciTegic.value.DoubleValue
-10.002

@<SCITEGIC>MOL_PROPERTY
VdW12
SciTegic.value.DoubleValue
11.041

@<SCITEGIC>MOL_PROPERTY
Bond
SciTegic.value.DoubleValue
0.231

@<SCITEGIC>MOL_PROPERTY
Angle
SciTegic.value.DoubleValue
3.079

@<SCITEGIC>MOL_PROPERTY
Pdih
SciTegic.value.DoubleValue
5.650

@<SCITEGIC>MOL_PROPERTY
Idih
SciTegic.value.DoubleValue
0.001

@<SCITEGIC>MOL_PROPERTY
Tether
SciTegic.value.DoubleValue
0.000

@<TRIPOS>MOLECULE
guest-8_vm2.mol2 : vm2 ligand conformer 47
          25          24           1
SMALL
USER_CHARGES
 
@<TRIPOS>ATOM
       1    C1      19.960304   19.875059   26.949156 C.2        1 MOL1         0.6168
       2    O1      20.505520   19.626390   28.006401 O.co2      1 MOL1        -0.6703
       3    O2      18.860348   20.384278   26.862580 O.co2      1 MOL1        -0.6703
       4    C2      20.687087   19.506565   25.660857 C.3        1 MOL1        -0.1963
       5    H1      21.765093   19.598055   25.838979 H          1 MOL1         0.0750
       6    H2      20.417385   20.250116   24.902139 H          1 MOL1         0.0750
       7    C3      20.345317   18.076812   25.167236 C.3        1 MOL1        -0.1860
       8    H3      20.540092   17.365911   25.982041 H          1 MOL1         0.0752
       9    H4      19.269726   18.009034   24.956582 H          1 MOL1         0.0752
      10    C4      21.161077   17.638694   23.924712 C.3        1 MOL1        -0.1858
      11    H5      20.877207   16.610864   23.660682 H          1 MOL1         0.0752
      12    H6      22.225399   17.599254   24.193754 H          1 MOL1         0.0752
      13    C5      20.997390   18.541134   22.675826 C.3        1 MOL1        -0.1858
      14    H7      21.391273   19.542106   22.891194 H          1 MOL1         0.0752
      15    H8      21.622915   18.134196   21.869892 H          1 MOL1         0.0752
      16    C6      19.535221   18.640753   22.176704 C.3        1 MOL1        -0.1858
      17    H9      18.916164   19.150157   22.927003 H          1 MOL1         0.0752
      18    H10     19.124758   17.627808   22.067256 H          1 MOL1         0.0752
      19    C7      19.399392   19.377614   20.823983 C.3        1 MOL1        -0.1834
      20    H11     20.004766   18.868795   20.061197 H          1 MOL1         0.0752
      21    H12     18.355487   19.308944   20.488269 H          1 MOL1         0.0752
      22    C8      19.801345   20.866701   20.898545 C.3        1 MOL1        -0.2849
      23    H13     19.605398   21.365866   19.940799 H          1 MOL1         0.0764
      24    H14     19.228892   21.389440   21.675862 H          1 MOL1         0.0764
      25    H15     20.869427   20.982337   21.121140 H          1 MOL1         0.0764
@<TRIPOS>BOND
    1     1     2    1
    2     1     3    2
    3     1     4    1
    4     4     5    1
    5     4     6    1
    6     4     7    1
    7     7     8    1
    8     7     9    1
    9     7    10    1
   10    10    11    1
   11    10    12    1
   12    10    13    1
   13    13    14    1
   14    13    15    1
   15    13    16    1
   16    16    17    1
   17    16    18    1
   18    16    19    1
   19    19    20    1
   20    19    21    1
   21    19    22    1
   22    22    23    1
   23    22    24    1
   24    22    25    1
@<TRIPOS>SUBSTRUCTURE
       1 MOL1            1 RESIDUE      1      MOL     
@<SCITEGIC>MOL_PROPERTY
VM2 Rank
SciTegic.value.IntegerValue
47

@<SCITEGIC>MOL_PROPERTY
Conf_Id
SciTegic.value.IntegerValue
1294

@<SCITEGIC>MOL_PROPERTY
Probability
SciTegic.value.DoubleValue
0.25

@<SCITEGIC>MOL_PROPERTY
Sum Probability
SciTegic.value.DoubleValue
95.38

@<SCITEGIC>MOL_PROPERTY
Delta G
SciTegic.value.DoubleValue
2.690

@<SCITEGIC>MOL_PROPERTY
G
SciTegic.value.DoubleValue
-5.272

@<SCITEGIC>MOL_PROPERTY
E
SciTegic.value.DoubleValue
-30.250

@<SCITEGIC>MOL_PROPERTY
-TS
SciTegic.value.DoubleValue
24.977

@<SCITEGIC>MOL_PROPERTY
U+W
SciTegic.value.DoubleValue
-50.817

@<SCITEGIC>MOL_PROPERTY
U
SciTegic.value.DoubleValue
8.957

@<SCITEGIC>MOL_PROPERTY
W
SciTegic.value.DoubleValue
-59.775

@<SCITEGIC>MOL_PROPERTY
W(PB)
SciTegic.value.DoubleValue
-62.181

@<SCITEGIC>MOL_PROPERTY
W(SA)
SciTegic.value.DoubleValue
2.407

@<SCITEGIC>MOL_PROPERTY
Valence
SciTegic.value.DoubleValue
8.948

@<SCITEGIC>MOL_PROPERTY
Coulomb
SciTegic.value.DoubleValue
-0.940

@<SCITEGIC>MOL_PROPERTY
VdW
SciTegic.value.DoubleValue
0.949

@<SCITEGIC>MOL_PROPERTY
VdW6
SciTegic.value.DoubleValue
-10.177

@<SCITEGIC>MOL_PROPERTY
VdW12
SciTegic.value.DoubleValue
11.126

@<SCITEGIC>MOL_PROPERTY
Bond
SciTegic.value.DoubleValue
0.232

@<SCITEGIC>MOL_PROPERTY
Angle
SciTegic.value.DoubleValue
3.080

@<SCITEGIC>MOL_PROPERTY
Pdih
SciTegic.value.DoubleValue
5.636

@<SCITEGIC>MOL_PROPERTY
Idih
SciTegic.value.DoubleValue
0.001

@<SCITEGIC>MOL_PROPERTY
Tether
SciTegic.value.DoubleValue
0.000

@<TRIPOS>MOLECULE
guest-8_vm2.mol2 : vm2 ligand conformer 48
          25          24           1
SMALL
USER_CHARGES
 
@<TRIPOS>ATOM
       1    C1      19.600543   19.177454   26.974194 C.2        1 MOL1         0.6168
       2    O1      20.150587   18.938251   28.031123 O.co2      1 MOL1        -0.6703
       3    O2      18.544553   19.772046   26.884493 O.co2      1 MOL1        -0.6703
       4    C2      20.284657   18.726027   25.688926 C.3        1 MOL1        -0.1963
       5    H1      19.500884   18.472432   24.965982 H          1 MOL1         0.0750
       6    H2      20.841064   17.805927   25.903452 H          1 MOL1         0.0750
       7    C3      21.235450   19.803059   25.105273 C.3        1 MOL1        -0.1860
       8    H3      20.660218   20.705651   24.859718 H          1 MOL1         0.0752
       9    H4      21.950827   20.101909   25.883828 H          1 MOL1         0.0752
      10    C4      22.029175   19.322065   23.864337 C.3        1 MOL1        -0.1858
      11    H5      22.686748   18.493893   24.161745 H          1 MOL1         0.0752
      12    H6      22.693274   20.132496   23.534333 H          1 MOL1         0.0752
      13    C5      21.163287   18.862655   22.664303 C.3        1 MOL1        -0.1858
      14    H7      21.833976   18.543034   21.855336 H          1 MOL1         0.0752
      15    H8      20.583331   17.975562   22.947478 H          1 MOL1         0.0752
      16    C6      20.219358   19.966878   22.128887 C.3        1 MOL1        -0.1858
      17    H9      20.802587   20.880326   21.950072 H          1 MOL1         0.0752
      18    H10     19.467499   20.218987   22.888374 H          1 MOL1         0.0752
      19    C7      19.501218   19.574535   20.816785 C.3        1 MOL1        -0.1834
      20    H11     18.941924   20.444948   20.447018 H          1 MOL1         0.0752
      21    H12     20.244291   19.332248   20.044543 H          1 MOL1         0.0752
      22    C8      18.524171   18.391031   20.987679 C.3        1 MOL1        -0.2849
      23    H13     17.789211   18.599375   21.776100 H          1 MOL1         0.0764
      24    H14     17.976280   18.207423   20.054436 H          1 MOL1         0.0764
      25    H15     19.055917   17.467366   21.248076 H          1 MOL1         0.0764
@<TRIPOS>BOND
    1     1     2    1
    2     1     3    2
    3     1     4    1
    4     4     5    1
    5     4     6    1
    6     4     7    1
    7     7     8    1
    8     7     9    1
    9     7    10    1
   10    10    11    1
   11    10    12    1
   12    10    13    1
   13    13    14    1
   14    13    15    1
   15    13    16    1
   16    16    17    1
   17    16    18    1
   18    16    19    1
   19    19    20    1
   20    19    21    1
   21    19    22    1
   22    22    23    1
   23    22    24    1
   24    22    25    1
@<TRIPOS>SUBSTRUCTURE
       1 MOL1            1 RESIDUE      1      MOL     
@<SCITEGIC>MOL_PROPERTY
VM2 Rank
SciTegic.value.IntegerValue
48

@<SCITEGIC>MOL_PROPERTY
Conf_Id
SciTegic.value.IntegerValue
712

@<SCITEGIC>MOL_PROPERTY
Probability
SciTegic.value.DoubleValue
0.25

@<SCITEGIC>MOL_PROPERTY
Sum Probability
SciTegic.value.DoubleValue
95.63

@<SCITEGIC>MOL_PROPERTY
Delta G
SciTegic.value.DoubleValue
2.700

@<SCITEGIC>MOL_PROPERTY
G
SciTegic.value.DoubleValue
-5.263

@<SCITEGIC>MOL_PROPERTY
E
SciTegic.value.DoubleValue
-30.239

@<SCITEGIC>MOL_PROPERTY
-TS
SciTegic.value.DoubleValue
24.977

@<SCITEGIC>MOL_PROPERTY
U+W
SciTegic.value.DoubleValue
-50.807

@<SCITEGIC>MOL_PROPERTY
U
SciTegic.value.DoubleValue
8.957

@<SCITEGIC>MOL_PROPERTY
W
SciTegic.value.DoubleValue
-59.764

@<SCITEGIC>MOL_PROPERTY
W(PB)
SciTegic.value.DoubleValue
-62.187

@<SCITEGIC>MOL_PROPERTY
W(SA)
SciTegic.value.DoubleValue
2.423

@<SCITEGIC>MOL_PROPERTY
Valence
SciTegic.value.DoubleValue
8.948

@<SCITEGIC>MOL_PROPERTY
Coulomb
SciTegic.value.DoubleValue
-0.940

@<SCITEGIC>MOL_PROPERTY
VdW
SciTegic.value.DoubleValue
0.950

@<SCITEGIC>MOL_PROPERTY
VdW6
SciTegic.value.DoubleValue
-10.176

@<SCITEGIC>MOL_PROPERTY
VdW12
SciTegic.value.DoubleValue
11.126

@<SCITEGIC>MOL_PROPERTY
Bond
SciTegic.value.DoubleValue
0.232

@<SCITEGIC>MOL_PROPERTY
Angle
SciTegic.value.DoubleValue
3.080

@<SCITEGIC>MOL_PROPERTY
Pdih
SciTegic.value.DoubleValue
5.636

@<SCITEGIC>MOL_PROPERTY
Idih
SciTegic.value.DoubleValue
0.001

@<SCITEGIC>MOL_PROPERTY
Tether
SciTegic.value.DoubleValue
0.000

@<TRIPOS>MOLECULE
guest-8_vm2.mol2 : vm2 ligand conformer 49
          25          24           1
SMALL
USER_CHARGES
 
@<TRIPOS>ATOM
       1    C1      20.527724   19.597304   27.018685 C.2        1 MOL1         0.6168
       2    O1      21.572953   20.199355   26.871183 O.co2      1 MOL1        -0.6703
       3    O2      19.826164   19.698651   28.005818 O.co2      1 MOL1        -0.6703
       4    C2      20.060407   18.679118   25.895154 C.3        1 MOL1        -0.1963
       5    H1      19.511265   17.843046   26.344139 H          1 MOL1         0.0750
       6    H2      20.951599   18.262110   25.412595 H          1 MOL1         0.0750
       7    C3      19.169602   19.408136   24.856245 C.3        1 MOL1        -0.1860
       8    H3      18.329623   19.882337   25.382253 H          1 MOL1         0.0752
       9    H4      19.738471   20.225676   24.393678 H          1 MOL1         0.0752
      10    C4      18.601171   18.469231   23.762736 C.3        1 MOL1        -0.1858
      11    H5      17.943149   19.049843   23.102962 H          1 MOL1         0.0752
      12    H6      17.955555   17.719503   24.239890 H          1 MOL1         0.0752
      13    C5      19.665222   17.732663   22.906758 C.3        1 MOL1        -0.1858
      14    H7      20.209730   17.019812   23.539712 H          1 MOL1         0.0752
      15    H8      19.147862   17.123874   22.152933 H          1 MOL1         0.0752
      16    C6      20.688818   18.649664   22.191091 C.3        1 MOL1        -0.1858
      17    H9      21.399648   18.014712   21.645081 H          1 MOL1         0.0752
      18    H10     21.281516   19.200698   22.933174 H          1 MOL1         0.0752
      19    C7      20.039001   19.641664   21.200360 C.3        1 MOL1        -0.1834
      20    H11     19.415011   19.092479   20.481981 H          1 MOL1         0.0752
      21    H12     19.376299   20.331836   21.738995 H          1 MOL1         0.0752
      22    C8      21.101938   20.458214   20.437971 C.3        1 MOL1        -0.2849
      23    H13     21.722522   21.039221   21.132723 H          1 MOL1         0.0764
      24    H14     21.761341   19.800157   19.857091 H          1 MOL1         0.0764
      25    H15     20.624620   21.159896   19.741703 H          1 MOL1         0.0764
@<TRIPOS>BOND
    1     1     2    1
    2     1     3    2
    3     1     4    1
    4     4     5    1
    5     4     6    1
    6     4     7    1
    7     7     8    1
    8     7     9    1
    9     7    10    1
   10    10    11    1
   11    10    12    1
   12    10    13    1
   13    13    14    1
   14    13    15    1
   15    13    16    1
   16    16    17    1
   17    16    18    1
   18    16    19    1
   19    19    20    1
   20    19    21    1
   21    19    22    1
   22    22    23    1
   23    22    24    1
   24    22    25    1
@<TRIPOS>SUBSTRUCTURE
       1 MOL1            1 RESIDUE      1      MOL     
@<SCITEGIC>MOL_PROPERTY
VM2 Rank
SciTegic.value.IntegerValue
49

@<SCITEGIC>MOL_PROPERTY
Conf_Id
SciTegic.value.IntegerValue
204

@<SCITEGIC>MOL_PROPERTY
Probability
SciTegic.value.DoubleValue
0.22

@<SCITEGIC>MOL_PROPERTY
Sum Probability
SciTegic.value.DoubleValue
95.85

@<SCITEGIC>MOL_PROPERTY
Delta G
SciTegic.value.DoubleValue
2.767

@<SCITEGIC>MOL_PROPERTY
G
SciTegic.value.DoubleValue
-5.195

@<SCITEGIC>MOL_PROPERTY
E
SciTegic.value.DoubleValue
-30.373

@<SCITEGIC>MOL_PROPERTY
-TS
SciTegic.value.DoubleValue
25.177

@<SCITEGIC>MOL_PROPERTY
U+W
SciTegic.value.DoubleValue
-50.940

@<SCITEGIC>MOL_PROPERTY
U
SciTegic.value.DoubleValue
8.897

@<SCITEGIC>MOL_PROPERTY
W
SciTegic.value.DoubleValue
-59.838

@<SCITEGIC>MOL_PROPERTY
W(PB)
SciTegic.value.DoubleValue
-62.245

@<SCITEGIC>MOL_PROPERTY
W(SA)
SciTegic.value.DoubleValue
2.407

@<SCITEGIC>MOL_PROPERTY
Valence
SciTegic.value.DoubleValue
8.932

@<SCITEGIC>MOL_PROPERTY
Coulomb
SciTegic.value.DoubleValue
-0.846

@<SCITEGIC>MOL_PROPERTY
VdW
SciTegic.value.DoubleValue
0.811

@<SCITEGIC>MOL_PROPERTY
VdW6
SciTegic.value.DoubleValue
-10.410

@<SCITEGIC>MOL_PROPERTY
VdW12
SciTegic.value.DoubleValue
11.222

@<SCITEGIC>MOL_PROPERTY
Bond
SciTegic.value.DoubleValue
0.240

@<SCITEGIC>MOL_PROPERTY
Angle
SciTegic.value.DoubleValue
3.240

@<SCITEGIC>MOL_PROPERTY
Pdih
SciTegic.value.DoubleValue
5.452

@<SCITEGIC>MOL_PROPERTY
Idih
SciTegic.value.DoubleValue
0.001

@<SCITEGIC>MOL_PROPERTY
Tether
SciTegic.value.DoubleValue
0.000

@<TRIPOS>MOLECULE
guest-8_vm2.mol2 : vm2 ligand conformer 50
          25          24           1
SMALL
USER_CHARGES
 
@<TRIPOS>ATOM
       1    C1      20.297504   19.371145   27.451445 C.2        1 MOL1         0.6168
       2    O1      21.395620   19.801733   27.743805 O.co2      1 MOL1        -0.6703
       3    O2      19.342869   19.396030   28.202995 O.co2      1 MOL1        -0.6703
       4    C2      20.100520   18.787953   26.056722 C.3        1 MOL1        -0.1963
       5    H1      19.345445   17.995626   26.123182 H          1 MOL1         0.0750
       6    H2      21.042887   18.315690   25.757940 H          1 MOL1         0.0750
       7    C3      19.667263   19.854311   25.017141 C.3        1 MOL1        -0.1860
       8    H3      18.776381   20.373244   25.397226 H          1 MOL1         0.0752
       9    H4      20.452957   20.616606   24.922854 H          1 MOL1         0.0752
      10    C4      19.339274   19.266267   23.623823 C.3        1 MOL1        -0.1858
      11    H5      18.910499   20.068835   23.010206 H          1 MOL1         0.0752
      12    H6      18.560682   18.497660   23.721824 H          1 MOL1         0.0752
      13    C5      20.572909   18.672440   22.900350 C.3        1 MOL1        -0.1858
      14    H7      21.350723   19.440741   22.801685 H          1 MOL1         0.0752
      15    H8      21.008619   17.875465   23.515741 H          1 MOL1         0.0752
      16    C6      20.244406   18.070361   21.510407 C.3        1 MOL1        -0.1858
      17    H9      19.530154   17.245923   21.640105 H          1 MOL1         0.0752
      18    H10     21.157319   17.617680   21.100115 H          1 MOL1         0.0752
      19    C7      19.672872   19.066048   20.470495 C.3        1 MOL1        -0.1834
      20    H11     19.479235   18.521566   19.536104 H          1 MOL1         0.0752
      21    H12     18.699144   19.447411   20.804795 H          1 MOL1         0.0752
      22    C8      20.619763   20.247712   20.168817 C.3        1 MOL1        -0.2849
      23    H13     21.608648   19.888782   19.855361 H          1 MOL1         0.0764
      24    H14     20.213155   20.869399   19.360770 H          1 MOL1         0.0764
      25    H15     20.748705   20.889695   21.049332 H          1 MOL1         0.0764
@<TRIPOS>BOND
    1     1     2    1
    2     1     3    2
    3     1     4    1
    4     4     5    1
    5     4     6    1
    6     4     7    1
    7     7     8    1
    8     7     9    1
    9     7    10    1
   10    10    11    1
   11    10    12    1
   12    10    13    1
   13    13    14    1
   14    13    15    1
   15    13    16    1
   16    16    17    1
   17    16    18    1
   18    16    19    1
   19    19    20    1
   20    19    21    1
   21    19    22    1
   22    22    23    1
   23    22    24    1
   24    22    25    1
@<TRIPOS>SUBSTRUCTURE
       1 MOL1            1 RESIDUE      1      MOL     
@<SCITEGIC>MOL_PROPERTY
VM2 Rank
SciTegic.value.IntegerValue
50

@<SCITEGIC>MOL_PROPERTY
Conf_Id
SciTegic.value.IntegerValue
696

@<SCITEGIC>MOL_PROPERTY
Probability
SciTegic.value.DoubleValue
0.22

@<SCITEGIC>MOL_PROPERTY
Sum Probability
SciTegic.value.DoubleValue
96.07

@<SCITEGIC>MOL_PROPERTY
Delta G
SciTegic.value.DoubleValue
2.780

@<SCITEGIC>MOL_PROPERTY
G
SciTegic.value.DoubleValue
-5.182

@<SCITEGIC>MOL_PROPERTY
E
SciTegic.value.DoubleValue
-30.048

@<SCITEGIC>MOL_PROPERTY
-TS
SciTegic.value.DoubleValue
24.865

@<SCITEGIC>MOL_PROPERTY
U+W
SciTegic.value.DoubleValue
-50.615

@<SCITEGIC>MOL_PROPERTY
U
SciTegic.value.DoubleValue
8.474

@<SCITEGIC>MOL_PROPERTY
W
SciTegic.value.DoubleValue
-59.089

@<SCITEGIC>MOL_PROPERTY
W(PB)
SciTegic.value.DoubleValue
-61.530

@<SCITEGIC>MOL_PROPERTY
W(SA)
SciTegic.value.DoubleValue
2.441

@<SCITEGIC>MOL_PROPERTY
Valence
SciTegic.value.DoubleValue
9.080

@<SCITEGIC>MOL_PROPERTY
Coulomb
SciTegic.value.DoubleValue
-1.772

@<SCITEGIC>MOL_PROPERTY
VdW
SciTegic.value.DoubleValue
1.165

@<SCITEGIC>MOL_PROPERTY
VdW6
SciTegic.value.DoubleValue
-9.830

@<SCITEGIC>MOL_PROPERTY
VdW12
SciTegic.value.DoubleValue
10.996

@<SCITEGIC>MOL_PROPERTY
Bond
SciTegic.value.DoubleValue
0.240

@<SCITEGIC>MOL_PROPERTY
Angle
SciTegic.value.DoubleValue
3.225

@<SCITEGIC>MOL_PROPERTY
Pdih
SciTegic.value.DoubleValue
5.615

@<SCITEGIC>MOL_PROPERTY
Idih
SciTegic.value.DoubleValue
0.001

@<SCITEGIC>MOL_PROPERTY
Tether
SciTegic.value.DoubleValue
0.000

@<TRIPOS>MOLECULE
guest-8_vm2.mol2 : vm2 ligand conformer 51
          25          24           1
SMALL
USER_CHARGES
 
@<TRIPOS>ATOM
       1    C1      19.718734   19.343973   27.160353 C.2        1 MOL1         0.6168
       2    O1      20.320622   19.037576   28.170647 O.co2      1 MOL1        -0.6703
       3    O2      18.791794   20.129555   27.141259 O.co2      1 MOL1        -0.6703
       4    C2      20.166146   18.725544   25.840833 C.3        1 MOL1        -0.1963
       5    H1      19.277287   18.605679   25.211004 H          1 MOL1         0.0750
       6    H2      20.556558   17.722339   26.049128 H          1 MOL1         0.0750
       7    C3      21.238243   19.576788   25.112531 C.3        1 MOL1        -0.1860
       8    H3      20.823938   20.565833   24.876546 H          1 MOL1         0.0752
       9    H4      22.074209   19.756565   25.802530 H          1 MOL1         0.0752
      10    C4      21.794185   18.908940   23.829333 C.3        1 MOL1        -0.1858
      11    H5      22.317914   17.985035   24.110147 H          1 MOL1         0.0752
      12    H6      22.556527   19.567226   23.390875 H          1 MOL1         0.0752
      13    C5      20.740863   18.569855   22.744103 C.3        1 MOL1        -0.1858
      14    H7      21.262554   18.082621   21.910757 H          1 MOL1         0.0752
      15    H8      20.028185   17.829835   23.130525 H          1 MOL1         0.0752
      16    C6      19.974782   19.808165   22.217010 C.3        1 MOL1        -0.1858
      17    H9      20.687969   20.548926   21.830833 H          1 MOL1         0.0752
      18    H10     19.444449   20.288860   23.049111 H          1 MOL1         0.0752
      19    C7      18.936297   19.468382   21.122315 C.3        1 MOL1        -0.1834
      20    H11     18.228283   18.719028   21.502385 H          1 MOL1         0.0752
      21    H12     18.346659   20.369873   20.905885 H          1 MOL1         0.0752
      22    C8      19.571333   18.965221   19.807616 C.3        1 MOL1        -0.2849
      23    H13     20.071233   17.998750   19.946940 H          1 MOL1         0.0764
      24    H14     18.801544   18.831838   19.036565 H          1 MOL1         0.0764
      25    H15     20.309143   19.683703   19.427467 H          1 MOL1         0.0764
@<TRIPOS>BOND
    1     1     2    1
    2     1     3    2
    3     1     4    1
    4     4     5    1
    5     4     6    1
    6     4     7    1
    7     7     8    1
    8     7     9    1
    9     7    10    1
   10    10    11    1
   11    10    12    1
   12    10    13    1
   13    13    14    1
   14    13    15    1
   15    13    16    1
   16    16    17    1
   17    16    18    1
   18    16    19    1
   19    19    20    1
   20    19    21    1
   21    19    22    1
   22    22    23    1
   23    22    24    1
   24    22    25    1
@<TRIPOS>SUBSTRUCTURE
       1 MOL1            1 RESIDUE      1      MOL     
@<SCITEGIC>MOL_PROPERTY
VM2 Rank
SciTegic.value.IntegerValue
51

@<SCITEGIC>MOL_PROPERTY
Conf_Id
SciTegic.value.IntegerValue
1081

@<SCITEGIC>MOL_PROPERTY
Probability
SciTegic.value.DoubleValue
0.21

@<SCITEGIC>MOL_PROPERTY
Sum Probability
SciTegic.value.DoubleValue
96.28

@<SCITEGIC>MOL_PROPERTY
Delta G
SciTegic.value.DoubleValue
2.787

@<SCITEGIC>MOL_PROPERTY
G
SciTegic.value.DoubleValue
-5.176

@<SCITEGIC>MOL_PROPERTY
E
SciTegic.value.DoubleValue
-30.090

@<SCITEGIC>MOL_PROPERTY
-TS
SciTegic.value.DoubleValue
24.915

@<SCITEGIC>MOL_PROPERTY
U+W
SciTegic.value.DoubleValue
-50.658

@<SCITEGIC>MOL_PROPERTY
U
SciTegic.value.DoubleValue
8.774

@<SCITEGIC>MOL_PROPERTY
W
SciTegic.value.DoubleValue
-59.432

@<SCITEGIC>MOL_PROPERTY
W(PB)
SciTegic.value.DoubleValue
-61.890

@<SCITEGIC>MOL_PROPERTY
W(SA)
SciTegic.value.DoubleValue
2.459

@<SCITEGIC>MOL_PROPERTY
Valence
SciTegic.value.DoubleValue
9.062

@<SCITEGIC>MOL_PROPERTY
Coulomb
SciTegic.value.DoubleValue
-1.371

@<SCITEGIC>MOL_PROPERTY
VdW
SciTegic.value.DoubleValue
1.083

@<SCITEGIC>MOL_PROPERTY
VdW6
SciTegic.value.DoubleValue
-9.991

@<SCITEGIC>MOL_PROPERTY
VdW12
SciTegic.value.DoubleValue
11.074

@<SCITEGIC>MOL_PROPERTY
Bond
SciTegic.value.DoubleValue
0.239

@<SCITEGIC>MOL_PROPERTY
Angle
SciTegic.value.DoubleValue
3.221

@<SCITEGIC>MOL_PROPERTY
Pdih
SciTegic.value.DoubleValue
5.601

@<SCITEGIC>MOL_PROPERTY
Idih
SciTegic.value.DoubleValue
0.001

@<SCITEGIC>MOL_PROPERTY
Tether
SciTegic.value.DoubleValue
0.000

@<TRIPOS>MOLECULE
guest-8_vm2.mol2 : vm2 ligand conformer 52
          25          24           1
SMALL
USER_CHARGES
 
@<TRIPOS>ATOM
       1    C1      19.965538   19.744969   27.143906 C.2        1 MOL1         0.6168
       2    O1      20.547005   19.405355   28.155539 O.co2      1 MOL1        -0.6703
       3    O2      18.846199   20.218003   27.137588 O.co2      1 MOL1        -0.6703
       4    C2      20.670555   19.544881   25.807236 C.3        1 MOL1        -0.1963
       5    H1      21.748874   19.659189   25.969682 H          1 MOL1         0.0750
       6    H2      20.353483   20.353794   25.139218 H          1 MOL1         0.0750
       7    C3      20.368401   18.163611   25.170665 C.3        1 MOL1        -0.1860
       8    H3      20.610468   17.378575   25.900308 H          1 MOL1         0.0752
       9    H4      19.290907   18.075284   24.978957 H          1 MOL1         0.0752
      10    C4      21.167689   17.891098   23.871216 C.3        1 MOL1        -0.1858
      11    H5      20.908526   16.889836   23.500998 H          1 MOL1         0.0752
      12    H6      22.238107   17.855350   24.115504 H          1 MOL1         0.0752
      13    C5      20.955057   18.917831   22.729815 C.3        1 MOL1        -0.1858
      14    H7      21.307714   19.908361   23.045011 H          1 MOL1         0.0752
      15    H8      21.594210   18.621530   21.888560 H          1 MOL1         0.0752
      16    C6      19.485869   19.014059   22.249867 C.3        1 MOL1        -0.1858
      17    H9      18.848686   19.321258   23.089118 H          1 MOL1         0.0752
      18    H10     19.132671   18.022699   21.935301 H          1 MOL1         0.0752
      19    C7      19.280252   20.026967   21.099221 C.3        1 MOL1        -0.1834
      20    H11     18.202427   20.135834   20.915800 H          1 MOL1         0.0752
      21    H12     19.643608   21.017114   21.407197 H          1 MOL1         0.0752
      22    C8      19.966435   19.607226   19.780947 C.3        1 MOL1        -0.2849
      23    H13     19.643924   18.604387   19.472090 H          1 MOL1         0.0764
      24    H14     19.709940   20.307412   18.975444 H          1 MOL1         0.0764
      25    H15     21.058906   19.602749   19.880262 H          1 MOL1         0.0764
@<TRIPOS>BOND
    1     1     2    1
    2     1     3    2
    3     1     4    1
    4     4     5    1
    5     4     6    1
    6     4     7    1
    7     7     8    1
    8     7     9    1
    9     7    10    1
   10    10    11    1
   11    10    12    1
   12    10    13    1
   13    13    14    1
   14    13    15    1
   15    13    16    1
   16    16    17    1
   17    16    18    1
   18    16    19    1
   19    19    20    1
   20    19    21    1
   21    19    22    1
   22    22    23    1
   23    22    24    1
   24    22    25    1
@<TRIPOS>SUBSTRUCTURE
       1 MOL1            1 RESIDUE      1      MOL     
@<SCITEGIC>MOL_PROPERTY
VM2 Rank
SciTegic.value.IntegerValue
52

@<SCITEGIC>MOL_PROPERTY
Conf_Id
SciTegic.value.IntegerValue
444

@<SCITEGIC>MOL_PROPERTY
Probability
SciTegic.value.DoubleValue
0.21

@<SCITEGIC>MOL_PROPERTY
Sum Probability
SciTegic.value.DoubleValue
96.49

@<SCITEGIC>MOL_PROPERTY
Delta G
SciTegic.value.DoubleValue
2.812

@<SCITEGIC>MOL_PROPERTY
G
SciTegic.value.DoubleValue
-5.150

@<SCITEGIC>MOL_PROPERTY
E
SciTegic.value.DoubleValue
-30.064

@<SCITEGIC>MOL_PROPERTY
-TS
SciTegic.value.DoubleValue
24.915

@<SCITEGIC>MOL_PROPERTY
U+W
SciTegic.value.DoubleValue
-50.632

@<SCITEGIC>MOL_PROPERTY
U
SciTegic.value.DoubleValue
8.774

@<SCITEGIC>MOL_PROPERTY
W
SciTegic.value.DoubleValue
-59.406

@<SCITEGIC>MOL_PROPERTY
W(PB)
SciTegic.value.DoubleValue
-61.836

@<SCITEGIC>MOL_PROPERTY
W(SA)
SciTegic.value.DoubleValue
2.430

@<SCITEGIC>MOL_PROPERTY
Valence
SciTegic.value.DoubleValue
9.062

@<SCITEGIC>MOL_PROPERTY
Coulomb
SciTegic.value.DoubleValue
-1.371

@<SCITEGIC>MOL_PROPERTY
VdW
SciTegic.value.DoubleValue
1.083

@<SCITEGIC>MOL_PROPERTY
VdW6
SciTegic.value.DoubleValue
-9.991

@<SCITEGIC>MOL_PROPERTY
VdW12
SciTegic.value.DoubleValue
11.073

@<SCITEGIC>MOL_PROPERTY
Bond
SciTegic.value.DoubleValue
0.239

@<SCITEGIC>MOL_PROPERTY
Angle
SciTegic.value.DoubleValue
3.221

@<SCITEGIC>MOL_PROPERTY
Pdih
SciTegic.value.DoubleValue
5.601

@<SCITEGIC>MOL_PROPERTY
Idih
SciTegic.value.DoubleValue
0.001

@<SCITEGIC>MOL_PROPERTY
Tether
SciTegic.value.DoubleValue
0.000

@<TRIPOS>MOLECULE
guest-8_vm2.mol2 : vm2 ligand conformer 53
          25          24           1
SMALL
USER_CHARGES
 
@<TRIPOS>ATOM
       1    C1      19.744739   19.547165   27.027894 C.2        1 MOL1         0.6168
       2    O1      20.450277   19.738518   27.998714 O.co2      1 MOL1        -0.6703
       3    O2      18.628187   20.010903   26.905475 O.co2      1 MOL1        -0.6703
       4    C2      20.299179   18.694384   25.892494 C.3        1 MOL1        -0.1963
       5    H1      19.457489   18.166509   25.430016 H          1 MOL1         0.0750
       6    H2      20.960605   17.935759   26.327428 H          1 MOL1         0.0750
       7    C3      21.065591   19.529465   24.834387 C.3        1 MOL1        -0.1860
       8    H3      20.386641   20.267148   24.386279 H          1 MOL1         0.0752
       9    H4      21.850193   20.107632   25.341575 H          1 MOL1         0.0752
      10    C4      21.723668   18.669053   23.726670 C.3        1 MOL1        -0.1858
      11    H5      22.470354   18.008376   24.187705 H          1 MOL1         0.0752
      12    H6      22.286987   19.327808   23.052787 H          1 MOL1         0.0752
      13    C5      20.742688   17.801690   22.894329 C.3        1 MOL1        -0.1858
      14    H7      21.315904   17.262580   22.127961 H          1 MOL1         0.0752
      15    H8      20.308058   17.026278   23.538617 H          1 MOL1         0.0752
      16    C6      19.594506   18.579797   22.203647 C.3        1 MOL1        -0.1858
      17    H9      18.953686   19.052066   22.959908 H          1 MOL1         0.0752
      18    H10     18.957939   17.858657   21.673263 H          1 MOL1         0.0752
      19    C7      20.089813   19.644876   21.199576 C.3        1 MOL1        -0.1834
      20    H11     20.671380   20.414704   21.723776 H          1 MOL1         0.0752
      21    H12     20.762045   19.178469   20.466362 H          1 MOL1         0.0752
      22    C8      18.914351   20.318149   20.462814 C.3        1 MOL1        -0.2849
      23    H13     19.282337   21.073716   19.756638 H          1 MOL1         0.0764
      24    H14     18.330967   19.580503   19.896410 H          1 MOL1         0.0764
      25    H15     18.240932   20.816580   21.172351 H          1 MOL1         0.0764
@<TRIPOS>BOND
    1     1     2    1
    2     1     3    2
    3     1     4    1
    4     4     5    1
    5     4     6    1
    6     4     7    1
    7     7     8    1
    8     7     9    1
    9     7    10    1
   10    10    11    1
   11    10    12    1
   12    10    13    1
   13    13    14    1
   14    13    15    1
   15    13    16    1
   16    16    17    1
   17    16    18    1
   18    16    19    1
   19    19    20    1
   20    19    21    1
   21    19    22    1
   22    22    23    1
   23    22    24    1
   24    22    25    1
@<TRIPOS>SUBSTRUCTURE
       1 MOL1            1 RESIDUE      1      MOL     
@<SCITEGIC>MOL_PROPERTY
VM2 Rank
SciTegic.value.IntegerValue
53

@<SCITEGIC>MOL_PROPERTY
Conf_Id
SciTegic.value.IntegerValue
1056

@<SCITEGIC>MOL_PROPERTY
Probability
SciTegic.value.DoubleValue
0.20

@<SCITEGIC>MOL_PROPERTY
Sum Probability
SciTegic.value.DoubleValue
96.69

@<SCITEGIC>MOL_PROPERTY
Delta G
SciTegic.value.DoubleValue
2.827

@<SCITEGIC>MOL_PROPERTY
G
SciTegic.value.DoubleValue
-5.136

@<SCITEGIC>MOL_PROPERTY
E
SciTegic.value.DoubleValue
-30.312

@<SCITEGIC>MOL_PROPERTY
-TS
SciTegic.value.DoubleValue
25.176

@<SCITEGIC>MOL_PROPERTY
U+W
SciTegic.value.DoubleValue
-50.880

@<SCITEGIC>MOL_PROPERTY
U
SciTegic.value.DoubleValue
8.897

@<SCITEGIC>MOL_PROPERTY
W
SciTegic.value.DoubleValue
-59.777

@<SCITEGIC>MOL_PROPERTY
W(PB)
SciTegic.value.DoubleValue
-62.190

@<SCITEGIC>MOL_PROPERTY
W(SA)
SciTegic.value.DoubleValue
2.414

@<SCITEGIC>MOL_PROPERTY
Valence
SciTegic.value.DoubleValue
8.932

@<SCITEGIC>MOL_PROPERTY
Coulomb
SciTegic.value.DoubleValue
-0.847

@<SCITEGIC>MOL_PROPERTY
VdW
SciTegic.value.DoubleValue
0.811

@<SCITEGIC>MOL_PROPERTY
VdW6
SciTegic.value.DoubleValue
-10.410

@<SCITEGIC>MOL_PROPERTY
VdW12
SciTegic.value.DoubleValue
11.221

@<SCITEGIC>MOL_PROPERTY
Bond
SciTegic.value.DoubleValue
0.240

@<SCITEGIC>MOL_PROPERTY
Angle
SciTegic.value.DoubleValue
3.240

@<SCITEGIC>MOL_PROPERTY
Pdih
SciTegic.value.DoubleValue
5.452

@<SCITEGIC>MOL_PROPERTY
Idih
SciTegic.value.DoubleValue
0.001

@<SCITEGIC>MOL_PROPERTY
Tether
SciTegic.value.DoubleValue
0.000

@<TRIPOS>MOLECULE
guest-8_vm2.mol2 : vm2 ligand conformer 54
          25          24           1
SMALL
USER_CHARGES
 
@<TRIPOS>ATOM
       1    C1      19.826765   19.407627   27.270493 C.2        1 MOL1         0.6168
       2    O1      20.739495   19.626310   28.042402 O.co2      1 MOL1        -0.6703
       3    O2      18.717272   19.889695   27.385910 O.co2      1 MOL1        -0.6703
       4    C2      20.093787   18.492116   26.081077 C.3        1 MOL1        -0.1963
       5    H1      19.163492   17.962475   25.843161 H          1 MOL1         0.0750
       6    H2      20.827065   17.737548   26.389965 H          1 MOL1         0.0750
       7    C3      20.605326   19.257616   24.835970 C.3        1 MOL1        -0.1860
       8    H3      19.864637   20.019268   24.558387 H          1 MOL1         0.0752
       9    H4      21.532121   19.789537   25.091415 H          1 MOL1         0.0752
      10    C4      20.860978   18.307387   23.643351 C.3        1 MOL1        -0.1858
      11    H5      19.926326   17.805090   23.361342 H          1 MOL1         0.0752
      12    H6      21.549876   17.512865   23.960801 H          1 MOL1         0.0752
      13    C5      21.471144   19.017513   22.408945 C.3        1 MOL1        -0.1858
      14    H7      22.449774   19.431799   22.686654 H          1 MOL1         0.0752
      15    H8      21.675838   18.267495   21.633733 H          1 MOL1         0.0752
      16    C6      20.606229   20.154859   21.803811 C.3        1 MOL1        -0.1858
      17    H9      21.129966   20.565187   20.929843 H          1 MOL1         0.0752
      18    H10     20.538122   20.981517   22.523022 H          1 MOL1         0.0752
      19    C7      19.175966   19.740623   21.378506 C.3        1 MOL1        -0.1834
      20    H11     18.602360   19.409505   22.254389 H          1 MOL1         0.0752
      21    H12     18.655028   20.627116   20.991650 H          1 MOL1         0.0752
      22    C8      19.156037   18.640254   20.295533 C.3        1 MOL1        -0.2849
      23    H13     18.127299   18.441164   19.968745 H          1 MOL1         0.0764
      24    H14     19.738150   18.944311   19.415972 H          1 MOL1         0.0764
      25    H15     19.572593   17.699159   20.676018 H          1 MOL1         0.0764
@<TRIPOS>BOND
    1     1     2    1
    2     1     3    2
    3     1     4    1
    4     4     5    1
    5     4     6    1
    6     4     7    1
    7     7     8    1
    8     7     9    1
    9     7    10    1
   10    10    11    1
   11    10    12    1
   12    10    13    1
   13    13    14    1
   14    13    15    1
   15    13    16    1
   16    16    17    1
   17    16    18    1
   18    16    19    1
   19    19    20    1
   20    19    21    1
   21    19    22    1
   22    22    23    1
   23    22    24    1
   24    22    25    1
@<TRIPOS>SUBSTRUCTURE
       1 MOL1            1 RESIDUE      1      MOL     
@<SCITEGIC>MOL_PROPERTY
VM2 Rank
SciTegic.value.IntegerValue
54

@<SCITEGIC>MOL_PROPERTY
Conf_Id
SciTegic.value.IntegerValue
1090

@<SCITEGIC>MOL_PROPERTY
Probability
SciTegic.value.DoubleValue
0.20

@<SCITEGIC>MOL_PROPERTY
Sum Probability
SciTegic.value.DoubleValue
96.89

@<SCITEGIC>MOL_PROPERTY
Delta G
SciTegic.value.DoubleValue
2.828

@<SCITEGIC>MOL_PROPERTY
G
SciTegic.value.DoubleValue
-5.135

@<SCITEGIC>MOL_PROPERTY
E
SciTegic.value.DoubleValue
-30.278

@<SCITEGIC>MOL_PROPERTY
-TS
SciTegic.value.DoubleValue
25.143

@<SCITEGIC>MOL_PROPERTY
U+W
SciTegic.value.DoubleValue
-50.846

@<SCITEGIC>MOL_PROPERTY
U
SciTegic.value.DoubleValue
8.647

@<SCITEGIC>MOL_PROPERTY
W
SciTegic.value.DoubleValue
-59.492

@<SCITEGIC>MOL_PROPERTY
W(PB)
SciTegic.value.DoubleValue
-61.923

@<SCITEGIC>MOL_PROPERTY
W(SA)
SciTegic.value.DoubleValue
2.431

@<SCITEGIC>MOL_PROPERTY
Valence
SciTegic.value.DoubleValue
8.924

@<SCITEGIC>MOL_PROPERTY
Coulomb
SciTegic.value.DoubleValue
-1.171

@<SCITEGIC>MOL_PROPERTY
VdW
SciTegic.value.DoubleValue
0.894

@<SCITEGIC>MOL_PROPERTY
VdW6
SciTegic.value.DoubleValue
-10.224

@<SCITEGIC>MOL_PROPERTY
VdW12
SciTegic.value.DoubleValue
11.118

@<SCITEGIC>MOL_PROPERTY
Bond
SciTegic.value.DoubleValue
0.231

@<SCITEGIC>MOL_PROPERTY
Angle
SciTegic.value.DoubleValue
3.232

@<SCITEGIC>MOL_PROPERTY
Pdih
SciTegic.value.DoubleValue
5.461

@<SCITEGIC>MOL_PROPERTY
Idih
SciTegic.value.DoubleValue
0.001

@<SCITEGIC>MOL_PROPERTY
Tether
SciTegic.value.DoubleValue
0.000

@<TRIPOS>MOLECULE
guest-8_vm2.mol2 : vm2 ligand conformer 55
          25          24           1
SMALL
USER_CHARGES
 
@<TRIPOS>ATOM
       1    C1      20.011740   19.352915   27.454745 C.2        1 MOL1         0.6168
       2    O1      20.972514   19.499946   28.184177 O.co2      1 MOL1        -0.6703
       3    O2      18.874845   19.640965   27.772918 O.co2      1 MOL1        -0.6703
       4    C2      20.249076   18.797430   26.055003 C.3        1 MOL1        -0.1963
       5    H1      19.367697   18.208876   25.777276 H          1 MOL1         0.0750
       6    H2      21.099987   18.107508   26.102916 H          1 MOL1         0.0750
       7    C3      20.519376   19.908662   25.007308 C.3        1 MOL1        -0.1860
       8    H3      19.641287   20.564886   24.932273 H          1 MOL1         0.0752
       9    H4      21.345668   20.537063   25.367557 H          1 MOL1         0.0752
      10    C4      20.887212   19.365025   23.605926 C.3        1 MOL1        -0.1858
      11    H5      21.759193   18.701707   23.684815 H          1 MOL1         0.0752
      12    H6      21.196290   20.214672   22.983783 H          1 MOL1         0.0752
      13    C5      19.722674   18.618234   22.910181 C.3        1 MOL1        -0.1858
      14    H7      19.406010   17.773281   23.534276 H          1 MOL1         0.0752
      15    H8      18.851506   19.281365   22.830570 H          1 MOL1         0.0752
      16    C6      20.092905   18.060696   21.512169 C.3        1 MOL1        -0.1858
      17    H9      19.235664   17.495161   21.122324 H          1 MOL1         0.0752
      18    H10     20.908851   17.333812   21.624199 H          1 MOL1         0.0752
      19    C7      20.509316   19.119364   20.460844 C.3        1 MOL1        -0.1834
      20    H11     21.434153   19.621792   20.773229 H          1 MOL1         0.0752
      21    H12     20.749011   18.602504   19.521459 H          1 MOL1         0.0752
      22    C8      19.413343   20.170762   20.182728 C.3        1 MOL1        -0.2849
      23    H13     18.471129   19.688689   19.891496 H          1 MOL1         0.0764
      24    H14     19.224136   20.792427   21.066929 H          1 MOL1         0.0764
      25    H15     19.719058   20.837902   19.366501 H          1 MOL1         0.0764
@<TRIPOS>BOND
    1     1     2    1
    2     1     3    2
    3     1     4    1
    4     4     5    1
    5     4     6    1
    6     4     7    1
    7     7     8    1
    8     7     9    1
    9     7    10    1
   10    10    11    1
   11    10    12    1
   12    10    13    1
   13    13    14    1
   14    13    15    1
   15    13    16    1
   16    16    17    1
   17    16    18    1
   18    16    19    1
   19    19    20    1
   20    19    21    1
   21    19    22    1
   22    22    23    1
   23    22    24    1
   24    22    25    1
@<TRIPOS>SUBSTRUCTURE
       1 MOL1            1 RESIDUE      1      MOL     
@<SCITEGIC>MOL_PROPERTY
VM2 Rank
SciTegic.value.IntegerValue
55

@<SCITEGIC>MOL_PROPERTY
Conf_Id
SciTegic.value.IntegerValue
522

@<SCITEGIC>MOL_PROPERTY
Probability
SciTegic.value.DoubleValue
0.19

@<SCITEGIC>MOL_PROPERTY
Sum Probability
SciTegic.value.DoubleValue
97.08

@<SCITEGIC>MOL_PROPERTY
Delta G
SciTegic.value.DoubleValue
2.868

@<SCITEGIC>MOL_PROPERTY
G
SciTegic.value.DoubleValue
-5.094

@<SCITEGIC>MOL_PROPERTY
E
SciTegic.value.DoubleValue
-29.960

@<SCITEGIC>MOL_PROPERTY
-TS
SciTegic.value.DoubleValue
24.865

@<SCITEGIC>MOL_PROPERTY
U+W
SciTegic.value.DoubleValue
-50.527

@<SCITEGIC>MOL_PROPERTY
U
SciTegic.value.DoubleValue
8.474

@<SCITEGIC>MOL_PROPERTY
W
SciTegic.value.DoubleValue
-59.001

@<SCITEGIC>MOL_PROPERTY
W(PB)
SciTegic.value.DoubleValue
-61.454

@<SCITEGIC>MOL_PROPERTY
W(SA)
SciTegic.value.DoubleValue
2.453

@<SCITEGIC>MOL_PROPERTY
Valence
SciTegic.value.DoubleValue
9.080

@<SCITEGIC>MOL_PROPERTY
Coulomb
SciTegic.value.DoubleValue
-1.772

@<SCITEGIC>MOL_PROPERTY
VdW
SciTegic.value.DoubleValue
1.165

@<SCITEGIC>MOL_PROPERTY
VdW6
SciTegic.value.DoubleValue
-9.830

@<SCITEGIC>MOL_PROPERTY
VdW12
SciTegic.value.DoubleValue
10.996

@<SCITEGIC>MOL_PROPERTY
Bond
SciTegic.value.DoubleValue
0.240

@<SCITEGIC>MOL_PROPERTY
Angle
SciTegic.value.DoubleValue
3.225

@<SCITEGIC>MOL_PROPERTY
Pdih
SciTegic.value.DoubleValue
5.614

@<SCITEGIC>MOL_PROPERTY
Idih
SciTegic.value.DoubleValue
0.001

@<SCITEGIC>MOL_PROPERTY
Tether
SciTegic.value.DoubleValue
0.000

@<TRIPOS>MOLECULE
guest-8_vm2.mol2 : vm2 ligand conformer 56
          25          24           1
SMALL
USER_CHARGES
 
@<TRIPOS>ATOM
       1    C1      20.469676   19.448580   27.263206 C.2        1 MOL1         0.6168
       2    O1      21.511208   20.068002   27.353826 O.co2      1 MOL1        -0.6703
       3    O2      19.554542   19.550483   28.056229 O.co2      1 MOL1        -0.6703
       4    C2      20.293966   18.504901   26.078820 C.3        1 MOL1        -0.1963
       5    H1      19.669824   17.663680   26.403284 H          1 MOL1         0.0750
       6    H2      21.278328   18.097468   25.818816 H          1 MOL1         0.0750
       7    C3      19.660849   19.197448   24.846954 C.3        1 MOL1        -0.1860
       8    H3      18.680112   19.607693   25.124438 H          1 MOL1         0.0752
       9    H4      20.292209   20.046622   24.553571 H          1 MOL1         0.0752
      10    C4      19.500615   18.220745   23.659096 C.3        1 MOL1        -0.1858
      11    H5      18.925706   17.345604   23.991105 H          1 MOL1         0.0752
      12    H6      20.484765   17.840842   23.354909 H          1 MOL1         0.0752
      13    C5      18.776944   18.845859   22.440134 C.3        1 MOL1        -0.1858
      14    H7      18.651252   18.074779   21.668761 H          1 MOL1         0.0752
      15    H8      17.760323   19.133015   22.740956 H          1 MOL1         0.0752
      16    C6      19.476342   20.082874   21.816868 C.3        1 MOL1        -0.1858
      17    H9      19.455718   20.912509   22.535578 H          1 MOL1         0.0752
      18    H10     18.884658   20.422227   20.955915 H          1 MOL1         0.0752
      19    C7      20.937336   19.852791   21.357860 C.3        1 MOL1        -0.1834
      20    H11     21.332509   20.797653   20.960393 H          1 MOL1         0.0752
      21    H12     21.568481   19.598336   22.219683 H          1 MOL1         0.0752
      22    C8      21.071521   18.762318   20.273009 C.3        1 MOL1        -0.2849
      23    H13     20.435242   18.988824   19.407688 H          1 MOL1         0.0764
      24    H14     22.109325   18.694889   19.922089 H          1 MOL1         0.0764
      25    H15     20.786686   17.776518   20.661612 H          1 MOL1         0.0764
@<TRIPOS>BOND
    1     1     2    1
    2     1     3    2
    3     1     4    1
    4     4     5    1
    5     4     6    1
    6     4     7    1
    7     7     8    1
    8     7     9    1
    9     7    10    1
   10    10    11    1
   11    10    12    1
   12    10    13    1
   13    13    14    1
   14    13    15    1
   15    13    16    1
   16    16    17    1
   17    16    18    1
   18    16    19    1
   19    19    20    1
   20    19    21    1
   21    19    22    1
   22    22    23    1
   23    22    24    1
   24    22    25    1
@<TRIPOS>SUBSTRUCTURE
       1 MOL1            1 RESIDUE      1      MOL     
@<SCITEGIC>MOL_PROPERTY
VM2 Rank
SciTegic.value.IntegerValue
56

@<SCITEGIC>MOL_PROPERTY
Conf_Id
SciTegic.value.IntegerValue
1142

@<SCITEGIC>MOL_PROPERTY
Probability
SciTegic.value.DoubleValue
0.18

@<SCITEGIC>MOL_PROPERTY
Sum Probability
SciTegic.value.DoubleValue
97.25

@<SCITEGIC>MOL_PROPERTY
Delta G
SciTegic.value.DoubleValue
2.893

@<SCITEGIC>MOL_PROPERTY
G
SciTegic.value.DoubleValue
-5.069

@<SCITEGIC>MOL_PROPERTY
E
SciTegic.value.DoubleValue
-30.212

@<SCITEGIC>MOL_PROPERTY
-TS
SciTegic.value.DoubleValue
25.143

@<SCITEGIC>MOL_PROPERTY
U+W
SciTegic.value.DoubleValue
-50.780

@<SCITEGIC>MOL_PROPERTY
U
SciTegic.value.DoubleValue
8.646

@<SCITEGIC>MOL_PROPERTY
W
SciTegic.value.DoubleValue
-59.426

@<SCITEGIC>MOL_PROPERTY
W(PB)
SciTegic.value.DoubleValue
-61.868

@<SCITEGIC>MOL_PROPERTY
W(SA)
SciTegic.value.DoubleValue
2.442

@<SCITEGIC>MOL_PROPERTY
Valence
SciTegic.value.DoubleValue
8.924

@<SCITEGIC>MOL_PROPERTY
Coulomb
SciTegic.value.DoubleValue
-1.171

@<SCITEGIC>MOL_PROPERTY
VdW
SciTegic.value.DoubleValue
0.894

@<SCITEGIC>MOL_PROPERTY
VdW6
SciTegic.value.DoubleValue
-10.223

@<SCITEGIC>MOL_PROPERTY
VdW12
SciTegic.value.DoubleValue
11.117

@<SCITEGIC>MOL_PROPERTY
Bond
SciTegic.value.DoubleValue
0.231

@<SCITEGIC>MOL_PROPERTY
Angle
SciTegic.value.DoubleValue
3.232

@<SCITEGIC>MOL_PROPERTY
Pdih
SciTegic.value.DoubleValue
5.461

@<SCITEGIC>MOL_PROPERTY
Idih
SciTegic.value.DoubleValue
0.001

@<SCITEGIC>MOL_PROPERTY
Tether
SciTegic.value.DoubleValue
0.000

@<TRIPOS>MOLECULE
guest-8_vm2.mol2 : vm2 ligand conformer 57
          25          24           1
SMALL
USER_CHARGES
 
@<TRIPOS>ATOM
       1    C1      19.972687   19.162974   27.202401 C.2        1 MOL1         0.6168
       2    O1      20.870221   18.459844   27.623251 O.co2      1 MOL1        -0.6703
       3    O2      18.793947   18.932160   27.387873 O.co2      1 MOL1        -0.6703
       4    C2      20.344464   20.415904   26.414434 C.3        1 MOL1        -0.1963
       5    H1      21.387385   20.672402   26.636452 H          1 MOL1         0.0750
       6    H2      19.727487   21.238333   26.795114 H          1 MOL1         0.0750
       7    C3      20.139493   20.280094   24.883286 C.3        1 MOL1        -0.1860
       8    H3      19.094910   20.004136   24.687109 H          1 MOL1         0.0752
       9    H4      20.303298   21.258980   24.412938 H          1 MOL1         0.0752
      10    C4      21.094879   19.241886   24.247703 C.3        1 MOL1        -0.1858
      11    H5      20.892316   18.245016   24.663011 H          1 MOL1         0.0752
      12    H6      22.128249   19.488787   24.526961 H          1 MOL1         0.0752
      13    C5      21.002282   19.185970   22.704299 C.3        1 MOL1        -0.1858
      14    H7      21.225323   20.179103   22.292961 H          1 MOL1         0.0752
      15    H8      21.784728   18.510743   22.332292 H          1 MOL1         0.0752
      16    C6      19.626773   18.695382   22.189776 C.3        1 MOL1        -0.1858
      17    H9      18.847069   19.424628   22.445541 H          1 MOL1         0.0752
      18    H10     19.363614   17.762065   22.705906 H          1 MOL1         0.0752
      19    C7      19.600166   18.439413   20.664888 C.3        1 MOL1        -0.1834
      20    H11     20.365075   17.696551   20.399679 H          1 MOL1         0.0752
      21    H12     18.631112   17.995410   20.398436 H          1 MOL1         0.0752
      22    C8      19.808089   19.720373   19.828089 C.3        1 MOL1        -0.2849
      23    H13     20.810830   20.139066   19.979821 H          1 MOL1         0.0764
      24    H14     19.697211   19.502344   18.758021 H          1 MOL1         0.0764
      25    H15     19.070129   20.488007   20.095056 H          1 MOL1         0.0764
@<TRIPOS>BOND
    1     1     2    1
    2     1     3    2
    3     1     4    1
    4     4     5    1
    5     4     6    1
    6     4     7    1
    7     7     8    1
    8     7     9    1
    9     7    10    1
   10    10    11    1
   11    10    12    1
   12    10    13    1
   13    13    14    1
   14    13    15    1
   15    13    16    1
   16    16    17    1
   17    16    18    1
   18    16    19    1
   19    19    20    1
   20    19    21    1
   21    19    22    1
   22    22    23    1
   23    22    24    1
   24    22    25    1
@<TRIPOS>SUBSTRUCTURE
       1 MOL1            1 RESIDUE      1      MOL     
@<SCITEGIC>MOL_PROPERTY
VM2 Rank
SciTegic.value.IntegerValue
57

@<SCITEGIC>MOL_PROPERTY
Conf_Id
SciTegic.value.IntegerValue
1105

@<SCITEGIC>MOL_PROPERTY
Probability
SciTegic.value.DoubleValue
0.11

@<SCITEGIC>MOL_PROPERTY
Sum Probability
SciTegic.value.DoubleValue
97.37

@<SCITEGIC>MOL_PROPERTY
Delta G
SciTegic.value.DoubleValue
3.172

@<SCITEGIC>MOL_PROPERTY
G
SciTegic.value.DoubleValue
-4.790

@<SCITEGIC>MOL_PROPERTY
E
SciTegic.value.DoubleValue
-29.738

@<SCITEGIC>MOL_PROPERTY
-TS
SciTegic.value.DoubleValue
24.948

@<SCITEGIC>MOL_PROPERTY
U+W
SciTegic.value.DoubleValue
-50.306

@<SCITEGIC>MOL_PROPERTY
U
SciTegic.value.DoubleValue
9.531

@<SCITEGIC>MOL_PROPERTY
W
SciTegic.value.DoubleValue
-59.837

@<SCITEGIC>MOL_PROPERTY
W(PB)
SciTegic.value.DoubleValue
-62.313

@<SCITEGIC>MOL_PROPERTY
W(SA)
SciTegic.value.DoubleValue
2.476

@<SCITEGIC>MOL_PROPERTY
Valence
SciTegic.value.DoubleValue
8.779

@<SCITEGIC>MOL_PROPERTY
Coulomb
SciTegic.value.DoubleValue
-0.177

@<SCITEGIC>MOL_PROPERTY
VdW
SciTegic.value.DoubleValue
0.930

@<SCITEGIC>MOL_PROPERTY
VdW6
SciTegic.value.DoubleValue
-9.874

@<SCITEGIC>MOL_PROPERTY
VdW12
SciTegic.value.DoubleValue
10.804

@<SCITEGIC>MOL_PROPERTY
Bond
SciTegic.value.DoubleValue
0.204

@<SCITEGIC>MOL_PROPERTY
Angle
SciTegic.value.DoubleValue
2.848

@<SCITEGIC>MOL_PROPERTY
Pdih
SciTegic.value.DoubleValue
5.726

@<SCITEGIC>MOL_PROPERTY
Idih
SciTegic.value.DoubleValue
0.001

@<SCITEGIC>MOL_PROPERTY
Tether
SciTegic.value.DoubleValue
0.000

@<TRIPOS>MOLECULE
guest-8_vm2.mol2 : vm2 ligand conformer 58
          25          24           1
SMALL
USER_CHARGES
 
@<TRIPOS>ATOM
       1    C1      20.008034   19.468308   27.197433 C.2        1 MOL1         0.6168
       2    O1      21.044096   19.960619   27.599027 O.co2      1 MOL1        -0.6703
       3    O2      18.913936   19.968048   27.371529 O.co2      1 MOL1        -0.6703
       4    C2      20.080586   18.139126   26.451139 C.3        1 MOL1        -0.1963
       5    H1      19.293315   17.492103   26.855534 H          1 MOL1         0.0750
       6    H2      21.038046   17.658169   26.685060 H          1 MOL1         0.0750
       7    C3      19.906434   18.269391   24.915700 C.3        1 MOL1        -0.1860
       8    H3      19.840147   17.264522   24.477385 H          1 MOL1         0.0752
       9    H4      18.951987   18.770657   24.707002 H          1 MOL1         0.0752
      10    C4      21.071666   19.040650   24.250866 C.3        1 MOL1        -0.1858
      11    H5      22.022156   18.572865   24.541630 H          1 MOL1         0.0752
      12    H6      21.104131   20.070129   24.633463 H          1 MOL1         0.0752
      13    C5      20.988574   19.067082   22.706134 C.3        1 MOL1        -0.1858
      14    H7      21.903373   19.533161   22.315676 H          1 MOL1         0.0752
      15    H8      20.976921   18.036680   22.327456 H          1 MOL1         0.0752
      16    C6      19.759903   19.842754   22.171217 C.3        1 MOL1        -0.1858
      17    H9      19.719233   20.827488   22.656365 H          1 MOL1         0.0752
      18    H10     18.834982   19.319805   22.447260 H          1 MOL1         0.0752
      19    C7      19.786854   20.049285   20.638857 C.3        1 MOL1        -0.1834
      20    H11     18.944148   20.694574   20.354865 H          1 MOL1         0.0752
      21    H12     20.700479   20.588514   20.352872 H          1 MOL1         0.0752
      22    C8      19.692918   18.728736   19.844097 C.3        1 MOL1        -0.2849
      23    H13     18.799892   18.159271   20.132774 H          1 MOL1         0.0764
      24    H14     19.630795   18.932139   18.767229 H          1 MOL1         0.0764
      25    H15     20.573804   18.096730   20.012698 H          1 MOL1         0.0764
@<TRIPOS>BOND
    1     1     2    1
    2     1     3    2
    3     1     4    1
    4     4     5    1
    5     4     6    1
    6     4     7    1
    7     7     8    1
    8     7     9    1
    9     7    10    1
   10    10    11    1
   11    10    12    1
   12    10    13    1
   13    13    14    1
   14    13    15    1
   15    13    16    1
   16    16    17    1
   17    16    18    1
   18    16    19    1
   19    19    20    1
   20    19    21    1
   21    19    22    1
   22    22    23    1
   23    22    24    1
   24    22    25    1
@<TRIPOS>SUBSTRUCTURE
       1 MOL1            1 RESIDUE      1      MOL     
@<SCITEGIC>MOL_PROPERTY
VM2 Rank
SciTegic.value.IntegerValue
58

@<SCITEGIC>MOL_PROPERTY
Conf_Id
SciTegic.value.IntegerValue
964

@<SCITEGIC>MOL_PROPERTY
Probability
SciTegic.value.DoubleValue
0.11

@<SCITEGIC>MOL_PROPERTY
Sum Probability
SciTegic.value.DoubleValue
97.47

@<SCITEGIC>MOL_PROPERTY
Delta G
SciTegic.value.DoubleValue
3.203

@<SCITEGIC>MOL_PROPERTY
G
SciTegic.value.DoubleValue
-4.760

@<SCITEGIC>MOL_PROPERTY
E
SciTegic.value.DoubleValue
-29.708

@<SCITEGIC>MOL_PROPERTY
-TS
SciTegic.value.DoubleValue
24.948

@<SCITEGIC>MOL_PROPERTY
U+W
SciTegic.value.DoubleValue
-50.275

@<SCITEGIC>MOL_PROPERTY
U
SciTegic.value.DoubleValue
9.530

@<SCITEGIC>MOL_PROPERTY
W
SciTegic.value.DoubleValue
-59.806

@<SCITEGIC>MOL_PROPERTY
W(PB)
SciTegic.value.DoubleValue
-62.269

@<SCITEGIC>MOL_PROPERTY
W(SA)
SciTegic.value.DoubleValue
2.464

@<SCITEGIC>MOL_PROPERTY
Valence
SciTegic.value.DoubleValue
8.779

@<SCITEGIC>MOL_PROPERTY
Coulomb
SciTegic.value.DoubleValue
-0.179

@<SCITEGIC>MOL_PROPERTY
VdW
SciTegic.value.DoubleValue
0.930

@<SCITEGIC>MOL_PROPERTY
VdW6
SciTegic.value.DoubleValue
-9.873

@<SCITEGIC>MOL_PROPERTY
VdW12
SciTegic.value.DoubleValue
10.803

@<SCITEGIC>MOL_PROPERTY
Bond
SciTegic.value.DoubleValue
0.204

@<SCITEGIC>MOL_PROPERTY
Angle
SciTegic.value.DoubleValue
2.848

@<SCITEGIC>MOL_PROPERTY
Pdih
SciTegic.value.DoubleValue
5.727

@<SCITEGIC>MOL_PROPERTY
Idih
SciTegic.value.DoubleValue
0.001

@<SCITEGIC>MOL_PROPERTY
Tether
SciTegic.value.DoubleValue
0.000

@<TRIPOS>MOLECULE
guest-8_vm2.mol2 : vm2 ligand conformer 59
          25          24           1
SMALL
USER_CHARGES
 
@<TRIPOS>ATOM
       1    C1      20.129890   19.613232   27.178483 C.2        1 MOL1         0.6168
       2    O1      21.243623   20.017185   27.449565 O.co2      1 MOL1        -0.6703
       3    O2      19.116017   20.255122   27.371190 O.co2      1 MOL1        -0.6703
       4    C2      19.992963   18.215099   26.582303 C.3        1 MOL1        -0.1963
       5    H1      19.174565   17.711672   27.110284 H          1 MOL1         0.0750
       6    H2      20.907028   17.650108   26.801495 H          1 MOL1         0.0750
       7    C3      19.709057   18.206291   25.057738 C.3        1 MOL1        -0.1860
       8    H3      19.497470   17.176374   24.740322 H          1 MOL1         0.0752
       9    H4      18.801220   18.792062   24.862723 H          1 MOL1         0.0752
      10    C4      20.894146   18.762299   24.232102 C.3        1 MOL1        -0.1858
      11    H5      21.808259   18.222300   24.514307 H          1 MOL1         0.0752
      12    H6      21.066740   19.816583   24.489001 H          1 MOL1         0.0752
      13    C5      20.699553   18.629615   22.702656 C.3        1 MOL1        -0.1858
      14    H7      21.641912   18.910928   22.215822 H          1 MOL1         0.0752
      15    H8      20.517480   17.577615   22.444460 H          1 MOL1         0.0752
      16    C6      19.552427   19.510350   22.148629 C.3        1 MOL1        -0.1858
      17    H9      19.733145   20.561782   22.410382 H          1 MOL1         0.0752
      18    H10     18.608553   19.227055   22.631235 H          1 MOL1         0.0752
      19    C7      19.363949   19.383013   20.618696 C.3        1 MOL1        -0.1834
      20    H11     19.194468   18.330693   20.351889 H          1 MOL1         0.0752
      21    H12     18.453298   19.926149   20.330675 H          1 MOL1         0.0752
      22    C8      20.551376   19.941794   19.804639 C.3        1 MOL1        -0.2849
      23    H13     21.462204   19.352107   19.966094 H          1 MOL1         0.0764
      24    H14     20.325948   19.915685   18.730673 H          1 MOL1         0.0764
      25    H15     20.761309   20.983439   20.080350 H          1 MOL1         0.0764
@<TRIPOS>BOND
    1     1     2    1
    2     1     3    2
    3     1     4    1
    4     4     5    1
    5     4     6    1
    6     4     7    1
    7     7     8    1
    8     7     9    1
    9     7    10    1
   10    10    11    1
   11    10    12    1
   12    10    13    1
   13    13    14    1
   14    13    15    1
   15    13    16    1
   16    16    17    1
   17    16    18    1
   18    16    19    1
   19    19    20    1
   20    19    21    1
   21    19    22    1
   22    22    23    1
   23    22    24    1
   24    22    25    1
@<TRIPOS>SUBSTRUCTURE
       1 MOL1            1 RESIDUE      1      MOL     
@<SCITEGIC>MOL_PROPERTY
VM2 Rank
SciTegic.value.IntegerValue
59

@<SCITEGIC>MOL_PROPERTY
Conf_Id
SciTegic.value.IntegerValue
229

@<SCITEGIC>MOL_PROPERTY
Probability
SciTegic.value.DoubleValue
0.10

@<SCITEGIC>MOL_PROPERTY
Sum Probability
SciTegic.value.DoubleValue
97.58

@<SCITEGIC>MOL_PROPERTY
Delta G
SciTegic.value.DoubleValue
3.220

@<SCITEGIC>MOL_PROPERTY
G
SciTegic.value.DoubleValue
-4.743

@<SCITEGIC>MOL_PROPERTY
E
SciTegic.value.DoubleValue
-29.611

@<SCITEGIC>MOL_PROPERTY
-TS
SciTegic.value.DoubleValue
24.868

@<SCITEGIC>MOL_PROPERTY
U+W
SciTegic.value.DoubleValue
-50.178

@<SCITEGIC>MOL_PROPERTY
U
SciTegic.value.DoubleValue
9.764

@<SCITEGIC>MOL_PROPERTY
W
SciTegic.value.DoubleValue
-59.942

@<SCITEGIC>MOL_PROPERTY
W(PB)
SciTegic.value.DoubleValue
-62.392

@<SCITEGIC>MOL_PROPERTY
W(SA)
SciTegic.value.DoubleValue
2.450

@<SCITEGIC>MOL_PROPERTY
Valence
SciTegic.value.DoubleValue
8.883

@<SCITEGIC>MOL_PROPERTY
Coulomb
SciTegic.value.DoubleValue
-0.122

@<SCITEGIC>MOL_PROPERTY
VdW
SciTegic.value.DoubleValue
1.003

@<SCITEGIC>MOL_PROPERTY
VdW6
SciTegic.value.DoubleValue
-9.782

@<SCITEGIC>MOL_PROPERTY
VdW12
SciTegic.value.DoubleValue
10.785

@<SCITEGIC>MOL_PROPERTY
Bond
SciTegic.value.DoubleValue
0.212

@<SCITEGIC>MOL_PROPERTY
Angle
SciTegic.value.DoubleValue
2.940

@<SCITEGIC>MOL_PROPERTY
Pdih
SciTegic.value.DoubleValue
5.730

@<SCITEGIC>MOL_PROPERTY
Idih
SciTegic.value.DoubleValue
0.001

@<SCITEGIC>MOL_PROPERTY
Tether
SciTegic.value.DoubleValue
0.000

@<TRIPOS>MOLECULE
guest-8_vm2.mol2 : vm2 ligand conformer 60
          25          24           1
SMALL
USER_CHARGES
 
@<TRIPOS>ATOM
       1    C1      20.200343   19.178139   27.362628 C.2        1 MOL1         0.6168
       2    O1      21.317920   19.403763   27.783610 O.co2      1 MOL1        -0.6703
       3    O2      19.555209   18.192568   27.661800 O.co2      1 MOL1        -0.6703
       4    C2      19.567212   20.198656   26.420884 C.3        1 MOL1        -0.1963
       5    H1      19.737101   21.191706   26.853270 H          1 MOL1         0.0750
       6    H2      18.482233   20.038938   26.409096 H          1 MOL1         0.0750
       7    C3      20.129854   20.160195   24.976024 C.3        1 MOL1        -0.1860
       8    H3      19.731825   21.022214   24.426204 H          1 MOL1         0.0752
       9    H4      21.221651   20.280109   25.007645 H          1 MOL1         0.0752
      10    C4      19.766782   18.852245   24.232121 C.3        1 MOL1        -0.1858
      11    H5      18.674768   18.756253   24.160934 H          1 MOL1         0.0752
      12    H6      20.113946   17.994333   24.824102 H          1 MOL1         0.0752
      13    C5      20.389833   18.749364   22.819259 C.3        1 MOL1        -0.1858
      14    H7      21.480014   18.864381   22.888926 H          1 MOL1         0.0752
      15    H8      20.207673   17.734888   22.442660 H          1 MOL1         0.0752
      16    C6      19.817883   19.779757   21.814274 C.3        1 MOL1        -0.1858
      17    H9      20.005158   20.795286   22.185088 H          1 MOL1         0.0752
      18    H10     18.727140   19.667510   21.748723 H          1 MOL1         0.0752
      19    C7      20.435164   19.666744   20.400527 C.3        1 MOL1        -0.1834
      20    H11     20.081670   20.512270   19.794414 H          1 MOL1         0.0752
      21    H12     21.527624   19.766079   20.463458 H          1 MOL1         0.0752
      22    C8      20.072801   18.352570   19.674872 C.3        1 MOL1        -0.2849
      23    H13     18.984560   18.215051   19.630939 H          1 MOL1         0.0764
      24    H14     20.453255   18.365714   18.645316 H          1 MOL1         0.0764
      25    H15     20.510369   17.481645   20.178286 H          1 MOL1         0.0764
@<TRIPOS>BOND
    1     1     2    1
    2     1     3    2
    3     1     4    1
    4     4     5    1
    5     4     6    1
    6     4     7    1
    7     7     8    1
    8     7     9    1
    9     7    10    1
   10    10    11    1
   11    10    12    1
   12    10    13    1
   13    13    14    1
   14    13    15    1
   15    13    16    1
   16    16    17    1
   17    16    18    1
   18    16    19    1
   19    19    20    1
   20    19    21    1
   21    19    22    1
   22    22    23    1
   23    22    24    1
   24    22    25    1
@<TRIPOS>SUBSTRUCTURE
       1 MOL1            1 RESIDUE      1      MOL     
@<SCITEGIC>MOL_PROPERTY
VM2 Rank
SciTegic.value.IntegerValue
60

@<SCITEGIC>MOL_PROPERTY
Conf_Id
SciTegic.value.IntegerValue
1179

@<SCITEGIC>MOL_PROPERTY
Probability
SciTegic.value.DoubleValue
0.10

@<SCITEGIC>MOL_PROPERTY
Sum Probability
SciTegic.value.DoubleValue
97.68

@<SCITEGIC>MOL_PROPERTY
Delta G
SciTegic.value.DoubleValue
3.249

@<SCITEGIC>MOL_PROPERTY
G
SciTegic.value.DoubleValue
-4.713

@<SCITEGIC>MOL_PROPERTY
E
SciTegic.value.DoubleValue
-29.584

@<SCITEGIC>MOL_PROPERTY
-TS
SciTegic.value.DoubleValue
24.871

@<SCITEGIC>MOL_PROPERTY
U+W
SciTegic.value.DoubleValue
-50.152

@<SCITEGIC>MOL_PROPERTY
U
SciTegic.value.DoubleValue
9.417

@<SCITEGIC>MOL_PROPERTY
W
SciTegic.value.DoubleValue
-59.568

@<SCITEGIC>MOL_PROPERTY
W(PB)
SciTegic.value.DoubleValue
-62.044

@<SCITEGIC>MOL_PROPERTY
W(SA)
SciTegic.value.DoubleValue
2.476

@<SCITEGIC>MOL_PROPERTY
Valence
SciTegic.value.DoubleValue
8.939

@<SCITEGIC>MOL_PROPERTY
Coulomb
SciTegic.value.DoubleValue
-0.614

@<SCITEGIC>MOL_PROPERTY
VdW
SciTegic.value.DoubleValue
1.091

@<SCITEGIC>MOL_PROPERTY
VdW6
SciTegic.value.DoubleValue
-9.711

@<SCITEGIC>MOL_PROPERTY
VdW12
SciTegic.value.DoubleValue
10.802

@<SCITEGIC>MOL_PROPERTY
Bond
SciTegic.value.DoubleValue
0.216

@<SCITEGIC>MOL_PROPERTY
Angle
SciTegic.value.DoubleValue
2.979

@<SCITEGIC>MOL_PROPERTY
Pdih
SciTegic.value.DoubleValue
5.743

@<SCITEGIC>MOL_PROPERTY
Idih
SciTegic.value.DoubleValue
0.000

@<SCITEGIC>MOL_PROPERTY
Tether
SciTegic.value.DoubleValue
0.000

@<TRIPOS>MOLECULE
guest-8_vm2.mol2 : vm2 ligand conformer 61
          25          24           1
SMALL
USER_CHARGES
 
@<TRIPOS>ATOM
       1    C1      20.088838   19.418211   27.359772 C.2        1 MOL1         0.6168
       2    O1      20.978308   20.134712   27.775197 O.co2      1 MOL1        -0.6703
       3    O2      18.916958   19.566325   27.645798 O.co2      1 MOL1        -0.6703
       4    C2      20.468767   18.258235   26.443639 C.3        1 MOL1        -0.1963
       5    H1      19.647056   17.531879   26.438532 H          1 MOL1         0.0750
       6    H2      21.333326   17.756163   26.893563 H          1 MOL1         0.0750
       7    C3      20.815187   18.685074   24.993305 C.3        1 MOL1        -0.1860
       8    H3      21.610667   19.442721   25.017415 H          1 MOL1         0.0752
       9    H4      21.222165   17.814528   24.463850 H          1 MOL1         0.0752
      10    C4      19.588178   19.236464   24.227557 C.3        1 MOL1        -0.1858
      11    H5      19.151121   20.066278   24.799717 H          1 MOL1         0.0752
      12    H6      18.811215   18.462444   24.164309 H          1 MOL1         0.0752
      13    C5      19.924064   19.751654   22.807444 C.3        1 MOL1        -0.1858
      14    H7      19.034666   20.259090   22.412918 H          1 MOL1         0.0752
      15    H8      20.714324   20.512054   22.869561 H          1 MOL1         0.0752
      16    C6      20.351830   18.630909   21.827765 C.3        1 MOL1        -0.1858
      17    H9      19.563315   17.868344   21.769861 H          1 MOL1         0.0752
      18    H10     21.245413   18.126632   22.216464 H          1 MOL1         0.0752
      19    C7      20.676208   19.148187   20.406607 C.3        1 MOL1        -0.1834
      20    H11     21.455960   19.920364   20.461631 H          1 MOL1         0.0752
      21    H12     21.099998   18.321287   19.820192 H          1 MOL1         0.0752
      22    C8      19.444661   19.704229   19.658915 C.3        1 MOL1        -0.2849
      23    H13     19.056614   20.609790   20.141389 H          1 MOL1         0.0764
      24    H14     19.709288   19.966578   18.626418 H          1 MOL1         0.0764
      25    H15     18.638264   18.960267   19.622137 H          1 MOL1         0.0764
@<TRIPOS>BOND
    1     1     2    1
    2     1     3    2
    3     1     4    1
    4     4     5    1
    5     4     6    1
    6     4     7    1
    7     7     8    1
    8     7     9    1
    9     7    10    1
   10    10    11    1
   11    10    12    1
   12    10    13    1
   13    13    14    1
   14    13    15    1
   15    13    16    1
   16    16    17    1
   17    16    18    1
   18    16    19    1
   19    19    20    1
   20    19    21    1
   21    19    22    1
   22    22    23    1
   23    22    24    1
   24    22    25    1
@<TRIPOS>SUBSTRUCTURE
       1 MOL1            1 RESIDUE      1      MOL     
@<SCITEGIC>MOL_PROPERTY
VM2 Rank
SciTegic.value.IntegerValue
61

@<SCITEGIC>MOL_PROPERTY
Conf_Id
SciTegic.value.IntegerValue
882

@<SCITEGIC>MOL_PROPERTY
Probability
SciTegic.value.DoubleValue
0.10

@<SCITEGIC>MOL_PROPERTY
Sum Probability
SciTegic.value.DoubleValue
97.77

@<SCITEGIC>MOL_PROPERTY
Delta G
SciTegic.value.DoubleValue
3.259

@<SCITEGIC>MOL_PROPERTY
G
SciTegic.value.DoubleValue
-4.703

@<SCITEGIC>MOL_PROPERTY
E
SciTegic.value.DoubleValue
-29.574

@<SCITEGIC>MOL_PROPERTY
-TS
SciTegic.value.DoubleValue
24.871

@<SCITEGIC>MOL_PROPERTY
U+W
SciTegic.value.DoubleValue
-50.142

@<SCITEGIC>MOL_PROPERTY
U
SciTegic.value.DoubleValue
9.416

@<SCITEGIC>MOL_PROPERTY
W
SciTegic.value.DoubleValue
-59.558

@<SCITEGIC>MOL_PROPERTY
W(PB)
SciTegic.value.DoubleValue
-62.022

@<SCITEGIC>MOL_PROPERTY
W(SA)
SciTegic.value.DoubleValue
2.464

@<SCITEGIC>MOL_PROPERTY
Valence
SciTegic.value.DoubleValue
8.939

@<SCITEGIC>MOL_PROPERTY
Coulomb
SciTegic.value.DoubleValue
-0.615

@<SCITEGIC>MOL_PROPERTY
VdW
SciTegic.value.DoubleValue
1.091

@<SCITEGIC>MOL_PROPERTY
VdW6
SciTegic.value.DoubleValue
-9.710

@<SCITEGIC>MOL_PROPERTY
VdW12
SciTegic.value.DoubleValue
10.802

@<SCITEGIC>MOL_PROPERTY
Bond
SciTegic.value.DoubleValue
0.216

@<SCITEGIC>MOL_PROPERTY
Angle
SciTegic.value.DoubleValue
2.979

@<SCITEGIC>MOL_PROPERTY
Pdih
SciTegic.value.DoubleValue
5.743

@<SCITEGIC>MOL_PROPERTY
Idih
SciTegic.value.DoubleValue
0.000

@<SCITEGIC>MOL_PROPERTY
Tether
SciTegic.value.DoubleValue
0.000

@<TRIPOS>MOLECULE
guest-8_vm2.mol2 : vm2 ligand conformer 62
          25          24           1
SMALL
USER_CHARGES
 
@<TRIPOS>ATOM
       1    C1      20.196079   19.540373   27.206746 C.2        1 MOL1         0.6168
       2    O1      21.373787   19.498092   27.503914 O.co2      1 MOL1        -0.6703
       3    O2      19.321397   18.987374   27.844145 O.co2      1 MOL1        -0.6703
       4    C2      19.788845   20.347494   25.977190 C.3        1 MOL1        -0.1963
       5    H1      20.601571   21.040333   25.727682 H          1 MOL1         0.0750
       6    H2      18.924835   20.960334   26.259739 H          1 MOL1         0.0750
       7    C3      19.426955   19.480593   24.743146 C.3        1 MOL1        -0.1860
       8    H3      18.639550   18.765275   25.018080 H          1 MOL1         0.0752
       9    H4      19.005506   20.135722   23.969982 H          1 MOL1         0.0752
      10    C4      20.648498   18.722305   24.170764 C.3        1 MOL1        -0.1858
      11    H5      21.100846   18.114742   24.966417 H          1 MOL1         0.0752
      12    H6      21.420438   19.440001   23.863947 H          1 MOL1         0.0752
      13    C5      20.295974   17.784459   22.988602 C.3        1 MOL1        -0.1858
      14    H7      21.207052   17.257204   22.674605 H          1 MOL1         0.0752
      15    H8      19.605491   17.008321   23.345697 H          1 MOL1         0.0752
      16    C6      19.668491   18.477154   21.752419 C.3        1 MOL1        -0.1858
      17    H9      18.697353   18.914187   22.018882 H          1 MOL1         0.0752
      18    H10     19.457294   17.708404   20.996692 H          1 MOL1         0.0752
      19    C7      20.574460   19.560615   21.125284 C.3        1 MOL1        -0.1834
      20    H11     20.732958   20.378770   21.840281 H          1 MOL1         0.0752
      21    H12     21.561752   19.133876   20.901169 H          1 MOL1         0.0752
      22    C8      19.958513   20.135539   19.833791 C.3        1 MOL1        -0.2849
      23    H13     18.981357   20.593596   20.035509 H          1 MOL1         0.0764
      24    H14     20.611617   20.905781   19.403459 H          1 MOL1         0.0764
      25    H15     19.819884   19.349247   19.080253 H          1 MOL1         0.0764
@<TRIPOS>BOND
    1     1     2    1
    2     1     3    2
    3     1     4    1
    4     4     5    1
    5     4     6    1
    6     4     7    1
    7     7     8    1
    8     7     9    1
    9     7    10    1
   10    10    11    1
   11    10    12    1
   12    10    13    1
   13    13    14    1
   14    13    15    1
   15    13    16    1
   16    16    17    1
   17    16    18    1
   18    16    19    1
   19    19    20    1
   20    19    21    1
   21    19    22    1
   22    22    23    1
   23    22    24    1
   24    22    25    1
@<TRIPOS>SUBSTRUCTURE
       1 MOL1            1 RESIDUE      1      MOL     
@<SCITEGIC>MOL_PROPERTY
VM2 Rank
SciTegic.value.IntegerValue
62

@<SCITEGIC>MOL_PROPERTY
Conf_Id
SciTegic.value.IntegerValue
94

@<SCITEGIC>MOL_PROPERTY
Probability
SciTegic.value.DoubleValue
0.09

@<SCITEGIC>MOL_PROPERTY
Sum Probability
SciTegic.value.DoubleValue
97.86

@<SCITEGIC>MOL_PROPERTY
Delta G
SciTegic.value.DoubleValue
3.328

@<SCITEGIC>MOL_PROPERTY
G
SciTegic.value.DoubleValue
-4.634

@<SCITEGIC>MOL_PROPERTY
E
SciTegic.value.DoubleValue
-29.786

@<SCITEGIC>MOL_PROPERTY
-TS
SciTegic.value.DoubleValue
25.152

@<SCITEGIC>MOL_PROPERTY
U+W
SciTegic.value.DoubleValue
-50.354

@<SCITEGIC>MOL_PROPERTY
U
SciTegic.value.DoubleValue
9.264

@<SCITEGIC>MOL_PROPERTY
W
SciTegic.value.DoubleValue
-59.618

@<SCITEGIC>MOL_PROPERTY
W(PB)
SciTegic.value.DoubleValue
-62.089

@<SCITEGIC>MOL_PROPERTY
W(SA)
SciTegic.value.DoubleValue
2.470

@<SCITEGIC>MOL_PROPERTY
Valence
SciTegic.value.DoubleValue
8.801

@<SCITEGIC>MOL_PROPERTY
Coulomb
SciTegic.value.DoubleValue
-0.374

@<SCITEGIC>MOL_PROPERTY
VdW
SciTegic.value.DoubleValue
0.837

@<SCITEGIC>MOL_PROPERTY
VdW6
SciTegic.value.DoubleValue
-10.172

@<SCITEGIC>MOL_PROPERTY
VdW12
SciTegic.value.DoubleValue
11.009

@<SCITEGIC>MOL_PROPERTY
Bond
SciTegic.value.DoubleValue
0.218

@<SCITEGIC>MOL_PROPERTY
Angle
SciTegic.value.DoubleValue
3.129

@<SCITEGIC>MOL_PROPERTY
Pdih
SciTegic.value.DoubleValue
5.454

@<SCITEGIC>MOL_PROPERTY
Idih
SciTegic.value.DoubleValue
0.001

@<SCITEGIC>MOL_PROPERTY
Tether
SciTegic.value.DoubleValue
0.000

@<TRIPOS>MOLECULE
guest-8_vm2.mol2 : vm2 ligand conformer 63
          25          24           1
SMALL
USER_CHARGES
 
@<TRIPOS>ATOM
       1    C1      20.186399   19.826420   26.866263 C.2        1 MOL1         0.6168
       2    O1      21.223830   20.450162   26.758243 O.co2      1 MOL1        -0.6703
       3    O2      19.132610   20.327025   27.206955 O.co2      1 MOL1        -0.6703
       4    C2      20.210978   18.327180   26.581790 C.3        1 MOL1        -0.1963
       5    H1      19.674545   17.829860   27.398397 H          1 MOL1         0.0750
       6    H2      21.250159   17.979384   26.626106 H          1 MOL1         0.0750
       7    C3      19.571430   17.931975   25.225397 C.3        1 MOL1        -0.1860
       8    H3      19.506913   16.837015   25.167612 H          1 MOL1         0.0752
       9    H4      18.541266   18.312355   25.184028 H          1 MOL1         0.0752
      10    C4      20.372531   18.460523   24.014272 C.3        1 MOL1        -0.1858
      11    H5      21.403951   18.085948   24.063892 H          1 MOL1         0.0752
      12    H6      20.426805   19.555933   24.066188 H          1 MOL1         0.0752
      13    C5      19.730349   18.032769   22.674510 C.3        1 MOL1        -0.1858
      14    H7      19.614871   16.940432   22.666703 H          1 MOL1         0.0752
      15    H8      18.715988   18.446229   22.600962 H          1 MOL1         0.0752
      16    C6      20.560254   18.443121   21.431839 C.3        1 MOL1        -0.1858
      17    H9      20.061995   18.056206   20.532574 H          1 MOL1         0.0752
      18    H10     21.537094   17.942595   21.475826 H          1 MOL1         0.0752
      19    C7      20.788038   19.965549   21.260588 C.3        1 MOL1        -0.1834
      20    H11     21.377959   20.357309   22.099821 H          1 MOL1         0.0752
      21    H12     21.396317   20.128793   20.360387 H          1 MOL1         0.0752
      22    C8      19.476581   20.769275   21.126142 C.3        1 MOL1        -0.2849
      23    H13     19.692523   21.824283   20.913821 H          1 MOL1         0.0764
      24    H14     18.858100   20.378507   20.307770 H          1 MOL1         0.0764
      25    H15     18.889003   20.730204   22.052112 H          1 MOL1         0.0764
@<TRIPOS>BOND
    1     1     2    1
    2     1     3    2
    3     1     4    1
    4     4     5    1
    5     4     6    1
    6     4     7    1
    7     7     8    1
    8     7     9    1
    9     7    10    1
   10    10    11    1
   11    10    12    1
   12    10    13    1
   13    13    14    1
   14    13    15    1
   15    13    16    1
   16    16    17    1
   17    16    18    1
   18    16    19    1
   19    19    20    1
   20    19    21    1
   21    19    22    1
   22    22    23    1
   23    22    24    1
   24    22    25    1
@<TRIPOS>SUBSTRUCTURE
       1 MOL1            1 RESIDUE      1      MOL     
@<SCITEGIC>MOL_PROPERTY
VM2 Rank
SciTegic.value.IntegerValue
63

@<SCITEGIC>MOL_PROPERTY
Conf_Id
SciTegic.value.IntegerValue
752

@<SCITEGIC>MOL_PROPERTY
Probability
SciTegic.value.DoubleValue
0.08

@<SCITEGIC>MOL_PROPERTY
Sum Probability
SciTegic.value.DoubleValue
97.94

@<SCITEGIC>MOL_PROPERTY
Delta G
SciTegic.value.DoubleValue
3.346

@<SCITEGIC>MOL_PROPERTY
G
SciTegic.value.DoubleValue
-4.616

@<SCITEGIC>MOL_PROPERTY
E
SciTegic.value.DoubleValue
-29.741

@<SCITEGIC>MOL_PROPERTY
-TS
SciTegic.value.DoubleValue
25.125

@<SCITEGIC>MOL_PROPERTY
U+W
SciTegic.value.DoubleValue
-50.308

@<SCITEGIC>MOL_PROPERTY
U
SciTegic.value.DoubleValue
10.400

@<SCITEGIC>MOL_PROPERTY
W
SciTegic.value.DoubleValue
-60.708

@<SCITEGIC>MOL_PROPERTY
W(PB)
SciTegic.value.DoubleValue
-63.149

@<SCITEGIC>MOL_PROPERTY
W(SA)
SciTegic.value.DoubleValue
2.441

@<SCITEGIC>MOL_PROPERTY
Valence
SciTegic.value.DoubleValue
8.736

@<SCITEGIC>MOL_PROPERTY
Coulomb
SciTegic.value.DoubleValue
0.892

@<SCITEGIC>MOL_PROPERTY
VdW
SciTegic.value.DoubleValue
0.772

@<SCITEGIC>MOL_PROPERTY
VdW6
SciTegic.value.DoubleValue
-10.163

@<SCITEGIC>MOL_PROPERTY
VdW12
SciTegic.value.DoubleValue
10.935

@<SCITEGIC>MOL_PROPERTY
Bond
SciTegic.value.DoubleValue
0.210

@<SCITEGIC>MOL_PROPERTY
Angle
SciTegic.value.DoubleValue
3.058

@<SCITEGIC>MOL_PROPERTY
Pdih
SciTegic.value.DoubleValue
5.467

@<SCITEGIC>MOL_PROPERTY
Idih
SciTegic.value.DoubleValue
0.001

@<SCITEGIC>MOL_PROPERTY
Tether
SciTegic.value.DoubleValue
0.000

@<TRIPOS>MOLECULE
guest-8_vm2.mol2 : vm2 ligand conformer 64
          25          24           1
SMALL
USER_CHARGES
 
@<TRIPOS>ATOM
       1    C1      20.439415   19.444621   27.095579 C.2        1 MOL1         0.6168
       2    O1      21.474023   20.070077   26.971558 O.co2      1 MOL1        -0.6703
       3    O2      19.521090   19.798066   27.808963 O.co2      1 MOL1        -0.6703
       4    C2      20.291307   18.132351   26.330694 C.3        1 MOL1        -0.1963
       5    H1      19.902014   17.385732   27.032792 H          1 MOL1         0.0750
       6    H2      21.287683   17.791306   26.024480 H          1 MOL1         0.0750
       7    C3      19.354214   18.223091   25.098367 C.3        1 MOL1        -0.1860
       8    H3      19.199545   17.214004   24.692989 H          1 MOL1         0.0752
       9    H4      18.368833   18.590709   25.416881 H          1 MOL1         0.0752
      10    C4      19.920186   19.136108   23.987520 C.3        1 MOL1        -0.1858
      11    H5      20.912520   18.770470   23.692996 H          1 MOL1         0.0752
      12    H6      20.056711   20.153946   24.377906 H          1 MOL1         0.0752
      13    C5      18.988810   19.178902   22.754239 C.3        1 MOL1        -0.1858
      14    H7      18.889452   18.171783   22.328702 H          1 MOL1         0.0752
      15    H8      17.981353   19.472801   23.078752 H          1 MOL1         0.0752
      16    C6      19.456633   20.171546   21.660126 C.3        1 MOL1        -0.1858
      17    H9      19.456157   21.187286   22.078446 H          1 MOL1         0.0752
      18    H10     18.714977   20.177395   20.849847 H          1 MOL1         0.0752
      19    C7      20.853477   19.882234   21.056764 C.3        1 MOL1        -0.1834
      20    H11     21.078531   20.655943   20.309937 H          1 MOL1         0.0752
      21    H12     21.626987   19.974410   21.830636 H          1 MOL1         0.0752
      22    C8      20.953843   18.497003   20.382190 C.3        1 MOL1        -0.2849
      23    H13     21.928590   18.378111   19.891787 H          1 MOL1         0.0764
      24    H14     20.850129   17.687988   21.116218 H          1 MOL1         0.0764
      25    H15     20.173699   18.373666   19.619870 H          1 MOL1         0.0764
@<TRIPOS>BOND
    1     1     2    1
    2     1     3    2
    3     1     4    1
    4     4     5    1
    5     4     6    1
    6     4     7    1
    7     7     8    1
    8     7     9    1
    9     7    10    1
   10    10    11    1
   11    10    12    1
   12    10    13    1
   13    13    14    1
   14    13    15    1
   15    13    16    1
   16    16    17    1
   17    16    18    1
   18    16    19    1
   19    19    20    1
   20    19    21    1
   21    19    22    1
   22    22    23    1
   23    22    24    1
   24    22    25    1
@<TRIPOS>SUBSTRUCTURE
       1 MOL1            1 RESIDUE      1      MOL     
@<SCITEGIC>MOL_PROPERTY
VM2 Rank
SciTegic.value.IntegerValue
64

@<SCITEGIC>MOL_PROPERTY
Conf_Id
SciTegic.value.IntegerValue
1059

@<SCITEGIC>MOL_PROPERTY
Probability
SciTegic.value.DoubleValue
0.08

@<SCITEGIC>MOL_PROPERTY
Sum Probability
SciTegic.value.DoubleValue
98.02

@<SCITEGIC>MOL_PROPERTY
Delta G
SciTegic.value.DoubleValue
3.364

@<SCITEGIC>MOL_PROPERTY
G
SciTegic.value.DoubleValue
-4.598

@<SCITEGIC>MOL_PROPERTY
E
SciTegic.value.DoubleValue
-29.709

@<SCITEGIC>MOL_PROPERTY
-TS
SciTegic.value.DoubleValue
25.111

@<SCITEGIC>MOL_PROPERTY
U+W
SciTegic.value.DoubleValue
-50.276

@<SCITEGIC>MOL_PROPERTY
U
SciTegic.value.DoubleValue
9.796

@<SCITEGIC>MOL_PROPERTY
W
SciTegic.value.DoubleValue
-60.072

@<SCITEGIC>MOL_PROPERTY
W(PB)
SciTegic.value.DoubleValue
-62.519

@<SCITEGIC>MOL_PROPERTY
W(SA)
SciTegic.value.DoubleValue
2.448

@<SCITEGIC>MOL_PROPERTY
Valence
SciTegic.value.DoubleValue
8.738

@<SCITEGIC>MOL_PROPERTY
Coulomb
SciTegic.value.DoubleValue
0.241

@<SCITEGIC>MOL_PROPERTY
VdW
SciTegic.value.DoubleValue
0.816

@<SCITEGIC>MOL_PROPERTY
VdW6
SciTegic.value.DoubleValue
-10.096

@<SCITEGIC>MOL_PROPERTY
VdW12
SciTegic.value.DoubleValue
10.912

@<SCITEGIC>MOL_PROPERTY
Bond
SciTegic.value.DoubleValue
0.210

@<SCITEGIC>MOL_PROPERTY
Angle
SciTegic.value.DoubleValue
3.062

@<SCITEGIC>MOL_PROPERTY
Pdih
SciTegic.value.DoubleValue
5.466

@<SCITEGIC>MOL_PROPERTY
Idih
SciTegic.value.DoubleValue
0.001

@<SCITEGIC>MOL_PROPERTY
Tether
SciTegic.value.DoubleValue
0.000

@<TRIPOS>MOLECULE
guest-8_vm2.mol2 : vm2 ligand conformer 65
          25          24           1
SMALL
USER_CHARGES
 
@<TRIPOS>ATOM
       1    C1      20.050288   19.817737   26.867657 C.2        1 MOL1         0.6168
       2    O1      21.039192   20.449211   27.184607 O.co2      1 MOL1        -0.6703
       3    O2      18.939551   20.303878   26.784494 O.co2      1 MOL1        -0.6703
       4    C2      20.210609   18.327165   26.581741 C.3        1 MOL1        -0.1963
       5    H1      19.225571   17.849734   26.649445 H          1 MOL1         0.0750
       6    H2      20.824708   17.903600   27.385113 H          1 MOL1         0.0750
       7    C3      20.864016   18.014661   25.210461 C.3        1 MOL1        -0.1860
       8    H3      21.836026   18.523267   25.145970 H          1 MOL1         0.0752
       9    H4      21.066318   16.936784   25.149669 H          1 MOL1         0.0752
      10    C4      19.974439   18.434860   24.018811 C.3        1 MOL1        -0.1858
      11    H5      19.781970   19.514453   24.073598 H          1 MOL1         0.0752
      12    H6      19.000690   17.931740   24.091494 H          1 MOL1         0.0752
      13    C5      20.635099   18.090678   22.664042 C.3        1 MOL1        -0.1858
      14    H7      21.586429   18.630139   22.567902 H          1 MOL1         0.0752
      15    H8      20.888860   17.022007   22.651927 H          1 MOL1         0.0752
      16    C6      19.731349   18.389987   21.441334 C.3        1 MOL1        -0.1858
      17    H9      18.827764   17.768761   21.506808 H          1 MOL1         0.0752
      18    H10     20.254278   18.068778   20.530285 H          1 MOL1         0.0752
      19    C7      19.306963   19.870586   21.277839 C.3        1 MOL1        -0.1834
      20    H11     18.662502   19.953600   20.391954 H          1 MOL1         0.0752
      21    H12     18.691020   20.184742   22.130901 H          1 MOL1         0.0752
      22    C8      20.501494   20.835237   21.115014 C.3        1 MOL1        -0.2849
      23    H13     21.110168   20.872718   22.027322 H          1 MOL1         0.0764
      24    H14     21.146073   20.525786   20.282123 H          1 MOL1         0.0764
      25    H15     20.147660   21.853722   20.909486 H          1 MOL1         0.0764
@<TRIPOS>BOND
    1     1     2    1
    2     1     3    2
    3     1     4    1
    4     4     5    1
    5     4     6    1
    6     4     7    1
    7     7     8    1
    8     7     9    1
    9     7    10    1
   10    10    11    1
   11    10    12    1
   12    10    13    1
   13    13    14    1
   14    13    15    1
   15    13    16    1
   16    16    17    1
   17    16    18    1
   18    16    19    1
   19    19    20    1
   20    19    21    1
   21    19    22    1
   22    22    23    1
   23    22    24    1
   24    22    25    1
@<TRIPOS>SUBSTRUCTURE
       1 MOL1            1 RESIDUE      1      MOL     
@<SCITEGIC>MOL_PROPERTY
VM2 Rank
SciTegic.value.IntegerValue
65

@<SCITEGIC>MOL_PROPERTY
Conf_Id
SciTegic.value.IntegerValue
575

@<SCITEGIC>MOL_PROPERTY
Probability
SciTegic.value.DoubleValue
0.08

@<SCITEGIC>MOL_PROPERTY
Sum Probability
SciTegic.value.DoubleValue
98.11

@<SCITEGIC>MOL_PROPERTY
Delta G
SciTegic.value.DoubleValue
3.370

@<SCITEGIC>MOL_PROPERTY
G
SciTegic.value.DoubleValue
-4.592

@<SCITEGIC>MOL_PROPERTY
E
SciTegic.value.DoubleValue
-29.717

@<SCITEGIC>MOL_PROPERTY
-TS
SciTegic.value.DoubleValue
25.125

@<SCITEGIC>MOL_PROPERTY
U+W
SciTegic.value.DoubleValue
-50.285

@<SCITEGIC>MOL_PROPERTY
U
SciTegic.value.DoubleValue
10.401

@<SCITEGIC>MOL_PROPERTY
W
SciTegic.value.DoubleValue
-60.686

@<SCITEGIC>MOL_PROPERTY
W(PB)
SciTegic.value.DoubleValue
-63.135

@<SCITEGIC>MOL_PROPERTY
W(SA)
SciTegic.value.DoubleValue
2.449

@<SCITEGIC>MOL_PROPERTY
Valence
SciTegic.value.DoubleValue
8.736

@<SCITEGIC>MOL_PROPERTY
Coulomb
SciTegic.value.DoubleValue
0.893

@<SCITEGIC>MOL_PROPERTY
VdW
SciTegic.value.DoubleValue
0.772

@<SCITEGIC>MOL_PROPERTY
VdW6
SciTegic.value.DoubleValue
-10.164

@<SCITEGIC>MOL_PROPERTY
VdW12
SciTegic.value.DoubleValue
10.936

@<SCITEGIC>MOL_PROPERTY
Bond
SciTegic.value.DoubleValue
0.210

@<SCITEGIC>MOL_PROPERTY
Angle
SciTegic.value.DoubleValue
3.058

@<SCITEGIC>MOL_PROPERTY
Pdih
SciTegic.value.DoubleValue
5.466

@<SCITEGIC>MOL_PROPERTY
Idih
SciTegic.value.DoubleValue
0.001

@<SCITEGIC>MOL_PROPERTY
Tether
SciTegic.value.DoubleValue
0.000

@<TRIPOS>MOLECULE
guest-8_vm2.mol2 : vm2 ligand conformer 66
          25          24           1
SMALL
USER_CHARGES
 
@<TRIPOS>ATOM
       1    C1      20.274575   19.149271   27.216043 C.2        1 MOL1         0.6168
       2    O1      21.342591   19.655003   27.500059 O.co2      1 MOL1        -0.6703
       3    O2      19.248741   19.351580   27.835632 O.co2      1 MOL1        -0.6703
       4    C2      20.220525   18.191888   26.028783 C.3        1 MOL1        -0.1963
       5    H1      19.656445   17.307424   26.347304 H          1 MOL1         0.0750
       6    H2      21.239533   17.854548   25.803777 H          1 MOL1         0.0750
       7    C3      19.564027   18.794886   24.759634 C.3        1 MOL1        -0.1860
       8    H3      19.434352   17.993188   24.021353 H          1 MOL1         0.0752
       9    H4      18.559452   19.163749   25.008726 H          1 MOL1         0.0752
      10    C4      20.404627   19.937818   24.141671 C.3        1 MOL1        -0.1858
      11    H5      21.396203   19.559401   23.861152 H          1 MOL1         0.0752
      12    H6      20.580768   20.708681   24.904271 H          1 MOL1         0.0752
      13    C5      19.729090   20.612033   22.920847 C.3        1 MOL1        -0.1858
      14    H7      18.789637   21.077869   23.248110 H          1 MOL1         0.0752
      15    H8      20.369669   21.434478   22.574587 H          1 MOL1         0.0752
      16    C6      19.428401   19.674995   21.723659 C.3        1 MOL1        -0.1858
      17    H9      18.944470   20.267423   20.935279 H          1 MOL1         0.0752
      18    H10     18.698081   18.910384   22.018806 H          1 MOL1         0.0752
      19    C7      20.687614   18.996479   21.138883 C.3        1 MOL1        -0.1834
      20    H11     21.436463   19.759767   20.886505 H          1 MOL1         0.0752
      21    H12     21.142239   18.336242   21.889297 H          1 MOL1         0.0752
      22    C8      20.352809   18.170046   19.880791 C.3        1 MOL1        -0.2849
      23    H13     19.625609   17.380745   20.112144 H          1 MOL1         0.0764
      24    H14     19.929141   18.806794   19.093168 H          1 MOL1         0.0764
      25    H15     21.256216   17.691912   19.480480 H          1 MOL1         0.0764
@<TRIPOS>BOND
    1     1     2    1
    2     1     3    2
    3     1     4    1
    4     4     5    1
    5     4     6    1
    6     4     7    1
    7     7     8    1
    8     7     9    1
    9     7    10    1
   10    10    11    1
   11    10    12    1
   12    10    13    1
   13    13    14    1
   14    13    15    1
   15    13    16    1
   16    16    17    1
   17    16    18    1
   18    16    19    1
   19    19    20    1
   20    19    21    1
   21    19    22    1
   22    22    23    1
   23    22    24    1
   24    22    25    1
@<TRIPOS>SUBSTRUCTURE
       1 MOL1            1 RESIDUE      1      MOL     
@<SCITEGIC>MOL_PROPERTY
VM2 Rank
SciTegic.value.IntegerValue
66

@<SCITEGIC>MOL_PROPERTY
Conf_Id
SciTegic.value.IntegerValue
1350

@<SCITEGIC>MOL_PROPERTY
Probability
SciTegic.value.DoubleValue
0.08

@<SCITEGIC>MOL_PROPERTY
Sum Probability
SciTegic.value.DoubleValue
98.19

@<SCITEGIC>MOL_PROPERTY
Delta G
SciTegic.value.DoubleValue
3.371

@<SCITEGIC>MOL_PROPERTY
G
SciTegic.value.DoubleValue
-4.592

@<SCITEGIC>MOL_PROPERTY
E
SciTegic.value.DoubleValue
-29.743

@<SCITEGIC>MOL_PROPERTY
-TS
SciTegic.value.DoubleValue
25.151

@<SCITEGIC>MOL_PROPERTY
U+W
SciTegic.value.DoubleValue
-50.310

@<SCITEGIC>MOL_PROPERTY
U
SciTegic.value.DoubleValue
9.263

@<SCITEGIC>MOL_PROPERTY
W
SciTegic.value.DoubleValue
-59.574

@<SCITEGIC>MOL_PROPERTY
W(PB)
SciTegic.value.DoubleValue
-62.031

@<SCITEGIC>MOL_PROPERTY
W(SA)
SciTegic.value.DoubleValue
2.457

@<SCITEGIC>MOL_PROPERTY
Valence
SciTegic.value.DoubleValue
8.801

@<SCITEGIC>MOL_PROPERTY
Coulomb
SciTegic.value.DoubleValue
-0.375

@<SCITEGIC>MOL_PROPERTY
VdW
SciTegic.value.DoubleValue
0.837

@<SCITEGIC>MOL_PROPERTY
VdW6
SciTegic.value.DoubleValue
-10.171

@<SCITEGIC>MOL_PROPERTY
VdW12
SciTegic.value.DoubleValue
11.009

@<SCITEGIC>MOL_PROPERTY
Bond
SciTegic.value.DoubleValue
0.218

@<SCITEGIC>MOL_PROPERTY
Angle
SciTegic.value.DoubleValue
3.129

@<SCITEGIC>MOL_PROPERTY
Pdih
SciTegic.value.DoubleValue
5.454

@<SCITEGIC>MOL_PROPERTY
Idih
SciTegic.value.DoubleValue
0.000

@<SCITEGIC>MOL_PROPERTY
Tether
SciTegic.value.DoubleValue
0.000

@<TRIPOS>MOLECULE
guest-8_vm2.mol2 : vm2 ligand conformer 67
          25          24           1
SMALL
USER_CHARGES
 
@<TRIPOS>ATOM
       1    C1      20.384955   19.656684   26.893726 C.2        1 MOL1         0.6168
       2    O1      21.330048   20.310847   26.499087 O.co2      1 MOL1        -0.6703
       3    O2      20.422722   18.948405   27.880850 O.co2      1 MOL1        -0.6703
       4    C2      19.069604   19.748953   26.125374 C.3        1 MOL1        -0.1963
       5    H1      19.116227   20.611948   25.451536 H          1 MOL1         0.0750
       6    H2      18.281206   19.967741   26.854893 H          1 MOL1         0.0750
       7    C3      18.700574   18.459778   25.341501 C.3        1 MOL1        -0.1860
       8    H3      18.592143   17.631906   26.055790 H          1 MOL1         0.0752
       9    H4      17.715982   18.592671   24.873229 H          1 MOL1         0.0752
      10    C4      19.729200   18.051864   24.258259 C.3        1 MOL1        -0.1858
      11    H5      19.411375   17.096383   23.819129 H          1 MOL1         0.0752
      12    H6      20.706339   17.867555   24.725649 H          1 MOL1         0.0752
      13    C5      19.882875   19.098047   23.130297 C.3        1 MOL1        -0.1858
      14    H7      18.893292   19.331032   22.716646 H          1 MOL1         0.0752
      15    H8      20.290694   20.030812   23.541648 H          1 MOL1         0.0752
      16    C6      20.817179   18.590877   22.007438 C.3        1 MOL1        -0.1858
      17    H9      20.391710   17.686680   21.551148 H          1 MOL1         0.0752
      18    H10     21.777677   18.293924   22.450421 H          1 MOL1         0.0752
      19    C7      21.087847   19.645715   20.909395 C.3        1 MOL1        -0.1834
      20    H11     21.520796   20.548755   21.361544 H          1 MOL1         0.0752
      21    H12     21.846123   19.250036   20.219723 H          1 MOL1         0.0752
      22    C8      19.827996   20.022830   20.100075 C.3        1 MOL1        -0.2849
      23    H13     19.084703   20.528831   20.728720 H          1 MOL1         0.0764
      24    H14     20.088395   20.704347   19.279947 H          1 MOL1         0.0764
      25    H15     19.360257   19.131063   19.662963 H          1 MOL1         0.0764
@<TRIPOS>BOND
    1     1     2    1
    2     1     3    2
    3     1     4    1
    4     4     5    1
    5     4     6    1
    6     4     7    1
    7     7     8    1
    8     7     9    1
    9     7    10    1
   10    10    11    1
   11    10    12    1
   12    10    13    1
   13    13    14    1
   14    13    15    1
   15    13    16    1
   16    16    17    1
   17    16    18    1
   18    16    19    1
   19    19    20    1
   20    19    21    1
   21    19    22    1
   22    22    23    1
   23    22    24    1
   24    22    25    1
@<TRIPOS>SUBSTRUCTURE
       1 MOL1            1 RESIDUE      1      MOL     
@<SCITEGIC>MOL_PROPERTY
VM2 Rank
SciTegic.value.IntegerValue
67

@<SCITEGIC>MOL_PROPERTY
Conf_Id
SciTegic.value.IntegerValue
568

@<SCITEGIC>MOL_PROPERTY
Probability
SciTegic.value.DoubleValue
0.07

@<SCITEGIC>MOL_PROPERTY
Sum Probability
SciTegic.value.DoubleValue
98.25

@<SCITEGIC>MOL_PROPERTY
Delta G
SciTegic.value.DoubleValue
3.461

@<SCITEGIC>MOL_PROPERTY
G
SciTegic.value.DoubleValue
-4.502

@<SCITEGIC>MOL_PROPERTY
E
SciTegic.value.DoubleValue
-29.473

@<SCITEGIC>MOL_PROPERTY
-TS
SciTegic.value.DoubleValue
24.972

@<SCITEGIC>MOL_PROPERTY
U+W
SciTegic.value.DoubleValue
-50.041

@<SCITEGIC>MOL_PROPERTY
U
SciTegic.value.DoubleValue
10.316

@<SCITEGIC>MOL_PROPERTY
W
SciTegic.value.DoubleValue
-60.357

@<SCITEGIC>MOL_PROPERTY
W(PB)
SciTegic.value.DoubleValue
-62.816

@<SCITEGIC>MOL_PROPERTY
W(SA)
SciTegic.value.DoubleValue
2.460

@<SCITEGIC>MOL_PROPERTY
Valence
SciTegic.value.DoubleValue
8.797

@<SCITEGIC>MOL_PROPERTY
Coulomb
SciTegic.value.DoubleValue
0.777

@<SCITEGIC>MOL_PROPERTY
VdW
SciTegic.value.DoubleValue
0.742

@<SCITEGIC>MOL_PROPERTY
VdW6
SciTegic.value.DoubleValue
-10.191

@<SCITEGIC>MOL_PROPERTY
VdW12
SciTegic.value.DoubleValue
10.933

@<SCITEGIC>MOL_PROPERTY
Bond
SciTegic.value.DoubleValue
0.216

@<SCITEGIC>MOL_PROPERTY
Angle
SciTegic.value.DoubleValue
2.999

@<SCITEGIC>MOL_PROPERTY
Pdih
SciTegic.value.DoubleValue
5.581

@<SCITEGIC>MOL_PROPERTY
Idih
SciTegic.value.DoubleValue
0.001

@<SCITEGIC>MOL_PROPERTY
Tether
SciTegic.value.DoubleValue
0.000

@<TRIPOS>MOLECULE
guest-8_vm2.mol2 : vm2 ligand conformer 68
          25          24           1
SMALL
USER_CHARGES
 
@<TRIPOS>ATOM
       1    C1      19.750863   19.249978   26.904630 C.2        1 MOL1         0.6168
       2    O1      20.414162   19.218759   27.922774 O.co2      1 MOL1        -0.6703
       3    O2      18.818052   20.009968   26.733358 O.co2      1 MOL1        -0.6703
       4    C2      20.092902   18.261089   25.793754 C.3        1 MOL1        -0.1963
       5    H1      19.256102   18.223376   25.086902 H          1 MOL1         0.0750
       6    H2      20.158457   17.266890   26.250688 H          1 MOL1         0.0750
       7    C3      21.420994   18.575017   25.052302 C.3        1 MOL1        -0.1860
       8    H3      22.245993   18.537070   25.776948 H          1 MOL1         0.0752
       9    H4      21.624813   17.780113   24.323307 H          1 MOL1         0.0752
      10    C4      21.448164   19.953511   24.342613 C.3        1 MOL1        -0.1858
      11    H5      22.425287   20.081012   23.857257 H          1 MOL1         0.0752
      12    H6      21.382105   20.746799   25.099856 H          1 MOL1         0.0752
      13    C5      20.332624   20.178969   23.291392 C.3        1 MOL1        -0.1858
      14    H7      19.349793   20.166357   23.781326 H          1 MOL1         0.0752
      15    H8      20.450127   21.188543   22.874880 H          1 MOL1         0.0752
      16    C6      20.355924   19.152503   22.135324 C.3        1 MOL1        -0.1858
      17    H9      20.166960   18.144652   22.527281 H          1 MOL1         0.0752
      18    H10     21.354344   19.137772   21.677489 H          1 MOL1         0.0752
      19    C7      19.299543   19.481144   21.059456 C.3        1 MOL1        -0.1834
      20    H11     18.300189   19.499131   21.516010 H          1 MOL1         0.0752
      21    H12     19.483444   20.485597   20.653714 H          1 MOL1         0.0752
      22    C8      19.319771   18.453062   19.910398 C.3        1 MOL1        -0.2849
      23    H13     19.106557   17.442788   20.283563 H          1 MOL1         0.0764
      24    H14     18.563148   18.702071   19.155048 H          1 MOL1         0.0764
      25    H15     20.299825   18.436143   19.415867 H          1 MOL1         0.0764
@<TRIPOS>BOND
    1     1     2    1
    2     1     3    2
    3     1     4    1
    4     4     5    1
    5     4     6    1
    6     4     7    1
    7     7     8    1
    8     7     9    1
    9     7    10    1
   10    10    11    1
   11    10    12    1
   12    10    13    1
   13    13    14    1
   14    13    15    1
   15    13    16    1
   16    16    17    1
   17    16    18    1
   18    16    19    1
   19    19    20    1
   20    19    21    1
   21    19    22    1
   22    22    23    1
   23    22    24    1
   24    22    25    1
@<TRIPOS>SUBSTRUCTURE
       1 MOL1            1 RESIDUE      1      MOL     
@<SCITEGIC>MOL_PROPERTY
VM2 Rank
SciTegic.value.IntegerValue
68

@<SCITEGIC>MOL_PROPERTY
Conf_Id
SciTegic.value.IntegerValue
400

@<SCITEGIC>MOL_PROPERTY
Probability
SciTegic.value.DoubleValue
0.07

@<SCITEGIC>MOL_PROPERTY
Sum Probability
SciTegic.value.DoubleValue
98.32

@<SCITEGIC>MOL_PROPERTY
Delta G
SciTegic.value.DoubleValue
3.466

@<SCITEGIC>MOL_PROPERTY
G
SciTegic.value.DoubleValue
-4.496

@<SCITEGIC>MOL_PROPERTY
E
SciTegic.value.DoubleValue
-29.748

@<SCITEGIC>MOL_PROPERTY
-TS
SciTegic.value.DoubleValue
25.252

@<SCITEGIC>MOL_PROPERTY
U+W
SciTegic.value.DoubleValue
-50.316

@<SCITEGIC>MOL_PROPERTY
U
SciTegic.value.DoubleValue
9.773

@<SCITEGIC>MOL_PROPERTY
W
SciTegic.value.DoubleValue
-60.088

@<SCITEGIC>MOL_PROPERTY
W(PB)
SciTegic.value.DoubleValue
-62.535

@<SCITEGIC>MOL_PROPERTY
W(SA)
SciTegic.value.DoubleValue
2.447

@<SCITEGIC>MOL_PROPERTY
Valence
SciTegic.value.DoubleValue
8.741

@<SCITEGIC>MOL_PROPERTY
Coulomb
SciTegic.value.DoubleValue
0.479

@<SCITEGIC>MOL_PROPERTY
VdW
SciTegic.value.DoubleValue
0.552

@<SCITEGIC>MOL_PROPERTY
VdW6
SciTegic.value.DoubleValue
-10.627

@<SCITEGIC>MOL_PROPERTY
VdW12
SciTegic.value.DoubleValue
11.179

@<SCITEGIC>MOL_PROPERTY
Bond
SciTegic.value.DoubleValue
0.227

@<SCITEGIC>MOL_PROPERTY
Angle
SciTegic.value.DoubleValue
3.155

@<SCITEGIC>MOL_PROPERTY
Pdih
SciTegic.value.DoubleValue
5.358

@<SCITEGIC>MOL_PROPERTY
Idih
SciTegic.value.DoubleValue
0.001

@<SCITEGIC>MOL_PROPERTY
Tether
SciTegic.value.DoubleValue
0.000

@<TRIPOS>MOLECULE
guest-8_vm2.mol2 : vm2 ligand conformer 69
          25          24           1
SMALL
USER_CHARGES
 
@<TRIPOS>ATOM
       1    C1      19.874332   19.785637   26.746432 C.2        1 MOL1         0.6168
       2    O1      20.859907   20.399375   27.105733 O.co2      1 MOL1        -0.6703
       3    O2      18.771753   20.285769   26.640448 O.co2      1 MOL1        -0.6703
       4    C2      20.022454   18.299220   26.433610 C.3        1 MOL1        -0.1963
       5    H1      19.184800   17.777918   26.911644 H          1 MOL1         0.0750
       6    H2      20.939183   17.930797   26.909631 H          1 MOL1         0.0750
       7    C3      20.037185   17.974850   24.917349 C.3        1 MOL1        -0.1860
       8    H3      20.011626   16.885074   24.783701 H          1 MOL1         0.0752
       9    H4      19.121725   18.373450   24.460080 H          1 MOL1         0.0752
      10    C4      21.283297   18.548376   24.201543 C.3        1 MOL1        -0.1858
      11    H5      22.185712   18.201343   24.722942 H          1 MOL1         0.0752
      12    H6      21.290422   19.643353   24.283120 H          1 MOL1         0.0752
      13    C5      21.387708   18.130827   22.713058 C.3        1 MOL1        -0.1858
      14    H7      22.312926   18.549640   22.294474 H          1 MOL1         0.0752
      15    H8      21.497204   17.039276   22.656966 H          1 MOL1         0.0752
      16    C6      20.196146   18.557440   21.818731 C.3        1 MOL1        -0.1858
      17    H9      19.278771   18.053754   22.150336 H          1 MOL1         0.0752
      18    H10     20.385944   18.200329   20.797395 H          1 MOL1         0.0752
      19    C7      19.967540   20.085371   21.781856 C.3        1 MOL1        -0.1834
      20    H11     19.694331   20.449144   22.781583 H          1 MOL1         0.0752
      21    H12     20.899880   20.592993   21.498858 H          1 MOL1         0.0752
      22    C8      18.852677   20.467137   20.787240 C.3        1 MOL1        -0.2849
      23    H13     18.700099   21.554145   20.776118 H          1 MOL1         0.0764
      24    H14     19.109467   20.150495   19.767895 H          1 MOL1         0.0764
      25    H15     17.901426   19.994142   21.064255 H          1 MOL1         0.0764
@<TRIPOS>BOND
    1     1     2    1
    2     1     3    2
    3     1     4    1
    4     4     5    1
    5     4     6    1
    6     4     7    1
    7     7     8    1
    8     7     9    1
    9     7    10    1
   10    10    11    1
   11    10    12    1
   12    10    13    1
   13    13    14    1
   14    13    15    1
   15    13    16    1
   16    16    17    1
   17    16    18    1
   18    16    19    1
   19    19    20    1
   20    19    21    1
   21    19    22    1
   22    22    23    1
   23    22    24    1
   24    22    25    1
@<TRIPOS>SUBSTRUCTURE
       1 MOL1            1 RESIDUE      1      MOL     
@<SCITEGIC>MOL_PROPERTY
VM2 Rank
SciTegic.value.IntegerValue
69

@<SCITEGIC>MOL_PROPERTY
Conf_Id
SciTegic.value.IntegerValue
242

@<SCITEGIC>MOL_PROPERTY
Probability
SciTegic.value.DoubleValue
0.07

@<SCITEGIC>MOL_PROPERTY
Sum Probability
SciTegic.value.DoubleValue
98.39

@<SCITEGIC>MOL_PROPERTY
Delta G
SciTegic.value.DoubleValue
3.472

@<SCITEGIC>MOL_PROPERTY
G
SciTegic.value.DoubleValue
-4.490

@<SCITEGIC>MOL_PROPERTY
E
SciTegic.value.DoubleValue
-29.650

@<SCITEGIC>MOL_PROPERTY
-TS
SciTegic.value.DoubleValue
25.160

@<SCITEGIC>MOL_PROPERTY
U+W
SciTegic.value.DoubleValue
-50.217

@<SCITEGIC>MOL_PROPERTY
U
SciTegic.value.DoubleValue
10.374

@<SCITEGIC>MOL_PROPERTY
W
SciTegic.value.DoubleValue
-60.592

@<SCITEGIC>MOL_PROPERTY
W(PB)
SciTegic.value.DoubleValue
-62.999

@<SCITEGIC>MOL_PROPERTY
W(SA)
SciTegic.value.DoubleValue
2.407

@<SCITEGIC>MOL_PROPERTY
Valence
SciTegic.value.DoubleValue
8.732

@<SCITEGIC>MOL_PROPERTY
Coulomb
SciTegic.value.DoubleValue
0.992

@<SCITEGIC>MOL_PROPERTY
VdW
SciTegic.value.DoubleValue
0.650

@<SCITEGIC>MOL_PROPERTY
VdW6
SciTegic.value.DoubleValue
-10.415

@<SCITEGIC>MOL_PROPERTY
VdW12
SciTegic.value.DoubleValue
11.064

@<SCITEGIC>MOL_PROPERTY
Bond
SciTegic.value.DoubleValue
0.214

@<SCITEGIC>MOL_PROPERTY
Angle
SciTegic.value.DoubleValue
3.066

@<SCITEGIC>MOL_PROPERTY
Pdih
SciTegic.value.DoubleValue
5.452

@<SCITEGIC>MOL_PROPERTY
Idih
SciTegic.value.DoubleValue
0.001

@<SCITEGIC>MOL_PROPERTY
Tether
SciTegic.value.DoubleValue
0.000

@<TRIPOS>MOLECULE
guest-8_vm2.mol2 : vm2 ligand conformer 70
          25          24           1
SMALL
USER_CHARGES
 
@<TRIPOS>ATOM
       1    C1      19.875786   19.623850   26.899958 C.2        1 MOL1         0.6168
       2    O1      19.951987   18.918014   27.886614 O.co2      1 MOL1        -0.6703
       3    O2      18.845793   20.151038   26.528397 O.co2      1 MOL1        -0.6703
       4    C2      21.150270   19.882619   26.101362 C.3        1 MOL1        -0.1963
       5    H1      21.920942   20.201563   26.812684 H          1 MOL1         0.0750
       6    H2      20.977908   20.731577   25.430132 H          1 MOL1         0.0750
       7    C3      21.662911   18.650144   25.307124 C.3        1 MOL1        -0.1860
       8    H3      22.611338   18.907194   24.816438 H          1 MOL1         0.0752
       9    H4      21.892795   17.843924   26.017408 H          1 MOL1         0.0752
      10    C4      20.670106   18.112563   24.247303 C.3        1 MOL1        -0.1858
      11    H5      19.735513   17.805750   24.736823 H          1 MOL1         0.0752
      12    H6      21.097111   17.204789   23.799639 H          1 MOL1         0.0752
      13    C5      20.358214   19.128796   23.124624 C.3        1 MOL1        -0.1858
      14    H7      19.844355   20.002584   23.546551 H          1 MOL1         0.0752
      15    H8      21.300172   19.485443   22.688525 H          1 MOL1         0.0752
      16    C6      19.470544   18.504780   22.022985 C.3        1 MOL1        -0.1858
      17    H9      18.566179   18.088622   22.487648 H          1 MOL1         0.0752
      18    H10     19.997136   17.661383   21.555889 H          1 MOL1         0.0752
      19    C7      19.042440   19.514640   20.932779 C.3        1 MOL1        -0.1834
      20    H11     18.324898   19.024453   20.260439 H          1 MOL1         0.0752
      21    H12     18.508691   20.356049   21.395930 H          1 MOL1         0.0752
      22    C8      20.224948   20.047556   20.094853 C.3        1 MOL1        -0.2849
      23    H13     20.912267   20.645030   20.706680 H          1 MOL1         0.0764
      24    H14     20.792012   19.221777   19.645825 H          1 MOL1         0.0764
      25    H15     19.860997   20.689040   19.281882 H          1 MOL1         0.0764
@<TRIPOS>BOND
    1     1     2    1
    2     1     3    2
    3     1     4    1
    4     4     5    1
    5     4     6    1
    6     4     7    1
    7     7     8    1
    8     7     9    1
    9     7    10    1
   10    10    11    1
   11    10    12    1
   12    10    13    1
   13    13    14    1
   14    13    15    1
   15    13    16    1
   16    16    17    1
   17    16    18    1
   18    16    19    1
   19    19    20    1
   20    19    21    1
   21    19    22    1
   22    22    23    1
   23    22    24    1
   24    22    25    1
@<TRIPOS>SUBSTRUCTURE
       1 MOL1            1 RESIDUE      1      MOL     
@<SCITEGIC>MOL_PROPERTY
VM2 Rank
SciTegic.value.IntegerValue
70

@<SCITEGIC>MOL_PROPERTY
Conf_Id
SciTegic.value.IntegerValue
728

@<SCITEGIC>MOL_PROPERTY
Probability
SciTegic.value.DoubleValue
0.07

@<SCITEGIC>MOL_PROPERTY
Sum Probability
SciTegic.value.DoubleValue
98.46

@<SCITEGIC>MOL_PROPERTY
Delta G
SciTegic.value.DoubleValue
3.474

@<SCITEGIC>MOL_PROPERTY
G
SciTegic.value.DoubleValue
-4.488

@<SCITEGIC>MOL_PROPERTY
E
SciTegic.value.DoubleValue
-29.460

@<SCITEGIC>MOL_PROPERTY
-TS
SciTegic.value.DoubleValue
24.972

@<SCITEGIC>MOL_PROPERTY
U+W
SciTegic.value.DoubleValue
-50.027

@<SCITEGIC>MOL_PROPERTY
U
SciTegic.value.DoubleValue
10.315

@<SCITEGIC>MOL_PROPERTY
W
SciTegic.value.DoubleValue
-60.342

@<SCITEGIC>MOL_PROPERTY
W(PB)
SciTegic.value.DoubleValue
-62.774

@<SCITEGIC>MOL_PROPERTY
W(SA)
SciTegic.value.DoubleValue
2.432

@<SCITEGIC>MOL_PROPERTY
Valence
SciTegic.value.DoubleValue
8.797

@<SCITEGIC>MOL_PROPERTY
Coulomb
SciTegic.value.DoubleValue
0.776

@<SCITEGIC>MOL_PROPERTY
VdW
SciTegic.value.DoubleValue
0.742

@<SCITEGIC>MOL_PROPERTY
VdW6
SciTegic.value.DoubleValue
-10.190

@<SCITEGIC>MOL_PROPERTY
VdW12
SciTegic.value.DoubleValue
10.932

@<SCITEGIC>MOL_PROPERTY
Bond
SciTegic.value.DoubleValue
0.216

@<SCITEGIC>MOL_PROPERTY
Angle
SciTegic.value.DoubleValue
2.999

@<SCITEGIC>MOL_PROPERTY
Pdih
SciTegic.value.DoubleValue
5.581

@<SCITEGIC>MOL_PROPERTY
Idih
SciTegic.value.DoubleValue
0.001

@<SCITEGIC>MOL_PROPERTY
Tether
SciTegic.value.DoubleValue
0.000

@<TRIPOS>MOLECULE
guest-8_vm2.mol2 : vm2 ligand conformer 71
          25          24           1
SMALL
USER_CHARGES
 
@<TRIPOS>ATOM
       1    C1      20.318790   19.631625   26.995413 C.2        1 MOL1         0.6168
       2    O1      21.325802   20.259130   26.732581 O.co2      1 MOL1        -0.6703
       3    O2      19.427283   20.056610   27.703982 O.co2      1 MOL1        -0.6703
       4    C2      20.176223   18.221851   26.428677 C.3        1 MOL1        -0.1963
       5    H1      19.917851   17.560251   27.263661 H          1 MOL1         0.0750
       6    H2      21.154228   17.889678   26.062876 H          1 MOL1         0.0750
       7    C3      19.098742   18.089892   25.317495 C.3        1 MOL1        -0.1860
       8    H3      19.025744   17.038239   25.009203 H          1 MOL1         0.0752
       9    H4      18.121102   18.353341   25.744314 H          1 MOL1         0.0752
      10    C4      19.348697   18.971105   24.068548 C.3        1 MOL1        -0.1858
      11    H5      19.387399   20.028931   24.362636 H          1 MOL1         0.0752
      12    H6      18.482669   18.866593   23.403104 H          1 MOL1         0.0752
      13    C5      20.640253   18.598430   23.299859 C.3        1 MOL1        -0.1858
      14    H7      21.505262   18.725215   23.963598 H          1 MOL1         0.0752
      15    H8      20.613550   17.536955   23.018736 H          1 MOL1         0.0752
      16    C6      20.878858   19.463428   22.039013 C.3        1 MOL1        -0.1858
      17    H9      21.881247   19.238873   21.649608 H          1 MOL1         0.0752
      18    H10     20.885738   20.525951   22.318252 H          1 MOL1         0.0752
      19    C7      19.842663   19.224136   20.917310 C.3        1 MOL1        -0.1834
      20    H11     19.796021   18.152740   20.678343 H          1 MOL1         0.0752
      21    H12     18.841537   19.521089   21.255660 H          1 MOL1         0.0752
      22    C8      20.195690   20.017794   19.643123 C.3        1 MOL1        -0.2849
      23    H13     21.176823   19.718056   19.252133 H          1 MOL1         0.0764
      24    H14     19.449591   19.840263   18.857714 H          1 MOL1         0.0764
      25    H15     20.222756   21.096157   19.847505 H          1 MOL1         0.0764
@<TRIPOS>BOND
    1     1     2    1
    2     1     3    2
    3     1     4    1
    4     4     5    1
    5     4     6    1
    6     4     7    1
    7     7     8    1
    8     7     9    1
    9     7    10    1
   10    10    11    1
   11    10    12    1
   12    10    13    1
   13    13    14    1
   14    13    15    1
   15    13    16    1
   16    16    17    1
   17    16    18    1
   18    16    19    1
   19    19    20    1
   20    19    21    1
   21    19    22    1
   22    22    23    1
   23    22    24    1
   24    22    25    1
@<TRIPOS>SUBSTRUCTURE
       1 MOL1            1 RESIDUE      1      MOL     
@<SCITEGIC>MOL_PROPERTY
VM2 Rank
SciTegic.value.IntegerValue
71

@<SCITEGIC>MOL_PROPERTY
Conf_Id
SciTegic.value.IntegerValue
700

@<SCITEGIC>MOL_PROPERTY
Probability
SciTegic.value.DoubleValue
0.07

@<SCITEGIC>MOL_PROPERTY
Sum Probability
SciTegic.value.DoubleValue
98.52

@<SCITEGIC>MOL_PROPERTY
Delta G
SciTegic.value.DoubleValue
3.494

@<SCITEGIC>MOL_PROPERTY
G
SciTegic.value.DoubleValue
-4.469

@<SCITEGIC>MOL_PROPERTY
E
SciTegic.value.DoubleValue
-29.366

@<SCITEGIC>MOL_PROPERTY
-TS
SciTegic.value.DoubleValue
24.897

@<SCITEGIC>MOL_PROPERTY
U+W
SciTegic.value.DoubleValue
-49.934

@<SCITEGIC>MOL_PROPERTY
U
SciTegic.value.DoubleValue
10.274

@<SCITEGIC>MOL_PROPERTY
W
SciTegic.value.DoubleValue
-60.207

@<SCITEGIC>MOL_PROPERTY
W(PB)
SciTegic.value.DoubleValue
-62.631

@<SCITEGIC>MOL_PROPERTY
W(SA)
SciTegic.value.DoubleValue
2.423

@<SCITEGIC>MOL_PROPERTY
Valence
SciTegic.value.DoubleValue
8.912

@<SCITEGIC>MOL_PROPERTY
Coulomb
SciTegic.value.DoubleValue
0.553

@<SCITEGIC>MOL_PROPERTY
VdW
SciTegic.value.DoubleValue
0.809

@<SCITEGIC>MOL_PROPERTY
VdW6
SciTegic.value.DoubleValue
-10.135

@<SCITEGIC>MOL_PROPERTY
VdW12
SciTegic.value.DoubleValue
10.945

@<SCITEGIC>MOL_PROPERTY
Bond
SciTegic.value.DoubleValue
0.229

@<SCITEGIC>MOL_PROPERTY
Angle
SciTegic.value.DoubleValue
3.100

@<SCITEGIC>MOL_PROPERTY
Pdih
SciTegic.value.DoubleValue
5.582

@<SCITEGIC>MOL_PROPERTY
Idih
SciTegic.value.DoubleValue
0.001

@<SCITEGIC>MOL_PROPERTY
Tether
SciTegic.value.DoubleValue
0.000

@<TRIPOS>MOLECULE
guest-8_vm2.mol2 : vm2 ligand conformer 72
          25          24           1
SMALL
USER_CHARGES
 
@<TRIPOS>ATOM
       1    C1      20.556541   19.301250   26.895595 C.2        1 MOL1         0.6168
       2    O1      21.381145   20.173290   26.704204 O.co2      1 MOL1        -0.6703
       3    O2      19.926057   19.187458   27.928601 O.co2      1 MOL1        -0.6703
       4    C2      20.317447   18.275460   25.791274 C.3        1 MOL1        -0.1963
       5    H1      20.389037   17.281597   26.248033 H          1 MOL1         0.0750
       6    H2      21.135889   18.343281   25.065430 H          1 MOL1         0.0750
       7    C3      18.943651   18.417331   25.080863 C.3        1 MOL1        -0.1860
       8    H3      18.825664   17.601941   24.355559 H          1 MOL1         0.0752
       9    H4      18.146927   18.276100   25.824140 H          1 MOL1         0.0752
      10    C4      18.725641   19.780225   24.374017 C.3        1 MOL1        -0.1858
      11    H5      18.708084   20.576600   25.130697 H          1 MOL1         0.0752
      12    H6      17.729306   19.782154   23.911514 H          1 MOL1         0.0752
      13    C5      19.779066   20.143682   23.297671 C.3        1 MOL1        -0.1858
      14    H7      19.525008   21.129630   22.885487 H          1 MOL1         0.0752
      15    H8      20.766624   20.256403   23.764764 H          1 MOL1         0.0752
      16    C6      19.859306   19.120865   22.140918 C.3        1 MOL1        -0.1858
      17    H9      18.860477   18.979050   21.706289 H          1 MOL1         0.0752
      18    H10     20.183506   18.145658   22.526887 H          1 MOL1         0.0752
      19    C7      20.840325   19.579186   21.041382 C.3        1 MOL1        -0.1834
      20    H11     20.521325   20.551700   20.641596 H          1 MOL1         0.0752
      21    H12     21.839669   19.724230   21.474684 H          1 MOL1         0.0752
      22    C8      20.923821   18.555252   19.891476 C.3        1 MOL1        -0.2849
      23    H13     19.942588   18.413650   19.419792 H          1 MOL1         0.0764
      24    H14     21.625065   18.897067   19.119170 H          1 MOL1         0.0764
      25    H15     21.271891   17.580634   20.257992 H          1 MOL1         0.0764
@<TRIPOS>BOND
    1     1     2    1
    2     1     3    2
    3     1     4    1
    4     4     5    1
    5     4     6    1
    6     4     7    1
    7     7     8    1
    8     7     9    1
    9     7    10    1
   10    10    11    1
   11    10    12    1
   12    10    13    1
   13    13    14    1
   14    13    15    1
   15    13    16    1
   16    16    17    1
   17    16    18    1
   18    16    19    1
   19    19    20    1
   20    19    21    1
   21    19    22    1
   22    22    23    1
   23    22    24    1
   24    22    25    1
@<TRIPOS>SUBSTRUCTURE
       1 MOL1            1 RESIDUE      1      MOL     
@<SCITEGIC>MOL_PROPERTY
VM2 Rank
SciTegic.value.IntegerValue
72

@<SCITEGIC>MOL_PROPERTY
Conf_Id
SciTegic.value.IntegerValue
1021

@<SCITEGIC>MOL_PROPERTY
Probability
SciTegic.value.DoubleValue
0.06

@<SCITEGIC>MOL_PROPERTY
Sum Probability
SciTegic.value.DoubleValue
98.59

@<SCITEGIC>MOL_PROPERTY
Delta G
SciTegic.value.DoubleValue
3.530

@<SCITEGIC>MOL_PROPERTY
G
SciTegic.value.DoubleValue
-4.432

@<SCITEGIC>MOL_PROPERTY
E
SciTegic.value.DoubleValue
-29.684

@<SCITEGIC>MOL_PROPERTY
-TS
SciTegic.value.DoubleValue
25.252

@<SCITEGIC>MOL_PROPERTY
U+W
SciTegic.value.DoubleValue
-50.252

@<SCITEGIC>MOL_PROPERTY
U
SciTegic.value.DoubleValue
9.772

@<SCITEGIC>MOL_PROPERTY
W
SciTegic.value.DoubleValue
-60.024

@<SCITEGIC>MOL_PROPERTY
W(PB)
SciTegic.value.DoubleValue
-62.442

@<SCITEGIC>MOL_PROPERTY
W(SA)
SciTegic.value.DoubleValue
2.418

@<SCITEGIC>MOL_PROPERTY
Valence
SciTegic.value.DoubleValue
8.741

@<SCITEGIC>MOL_PROPERTY
Coulomb
SciTegic.value.DoubleValue
0.479

@<SCITEGIC>MOL_PROPERTY
VdW
SciTegic.value.DoubleValue
0.552

@<SCITEGIC>MOL_PROPERTY
VdW6
SciTegic.value.DoubleValue
-10.626

@<SCITEGIC>MOL_PROPERTY
VdW12
SciTegic.value.DoubleValue
11.179

@<SCITEGIC>MOL_PROPERTY
Bond
SciTegic.value.DoubleValue
0.227

@<SCITEGIC>MOL_PROPERTY
Angle
SciTegic.value.DoubleValue
3.155

@<SCITEGIC>MOL_PROPERTY
Pdih
SciTegic.value.DoubleValue
5.358

@<SCITEGIC>MOL_PROPERTY
Idih
SciTegic.value.DoubleValue
0.001

@<SCITEGIC>MOL_PROPERTY
Tether
SciTegic.value.DoubleValue
0.000

@<TRIPOS>MOLECULE
guest-8_vm2.mol2 : vm2 ligand conformer 73
          25          24           1
SMALL
USER_CHARGES
 
@<TRIPOS>ATOM
       1    C1      19.947043   19.607888   26.999712 C.2        1 MOL1         0.6168
       2    O1      20.793567   20.144029   27.687767 O.co2      1 MOL1        -0.6703
       3    O2      18.862445   20.101664   26.761490 O.co2      1 MOL1        -0.6703
       4    C2      20.254590   18.226837   26.427790 C.3        1 MOL1        -0.1963
       5    H1      19.318586   17.772476   26.084140 H          1 MOL1         0.0750
       6    H2      20.614155   17.604702   27.255637 H          1 MOL1         0.0750
       7    C3      21.314208   18.231277   25.291879 C.3        1 MOL1        -0.1860
       8    H3      22.260014   18.617454   25.696450 H          1 MOL1         0.0752
       9    H4      21.513144   17.196985   24.980415 H          1 MOL1         0.0752
      10    C4      20.925572   19.071771   24.050344 C.3        1 MOL1        -0.1858
      11    H5      21.782326   19.077280   23.365006 H          1 MOL1         0.0752
      12    H6      20.759446   20.116506   24.346839 H          1 MOL1         0.0752
      13    C5      19.674557   18.536785   23.310993 C.3        1 MOL1        -0.1858
      14    H7      19.829554   17.486922   23.027735 H          1 MOL1         0.0752
      15    H8      18.815939   18.553491   23.994630 H          1 MOL1         0.0752
      16    C6      19.298983   19.362600   22.057252 C.3        1 MOL1        -0.1858
      17    H9      19.163478   20.416029   22.338151 H          1 MOL1         0.0752
      18    H10     18.324602   19.011849   21.690648 H          1 MOL1         0.0752
      19    C7      20.331149   19.255371   20.911688 C.3        1 MOL1        -0.1834
      20    H11     21.293883   19.677741   21.227378 H          1 MOL1         0.0752
      21    H12     20.508175   18.198253   20.670166 H          1 MOL1         0.0752
      22    C8      19.850886   19.995778   19.647086 C.3        1 MOL1        -0.2849
      23    H13     19.691497   21.062229   19.853601 H          1 MOL1         0.0764
      24    H14     20.595318   19.913482   18.844530 H          1 MOL1         0.0764
      25    H15     18.907178   19.573042   19.278243 H          1 MOL1         0.0764
@<TRIPOS>BOND
    1     1     2    1
    2     1     3    2
    3     1     4    1
    4     4     5    1
    5     4     6    1
    6     4     7    1
    7     7     8    1
    8     7     9    1
    9     7    10    1
   10    10    11    1
   11    10    12    1
   12    10    13    1
   13    13    14    1
   14    13    15    1
   15    13    16    1
   16    16    17    1
   17    16    18    1
   18    16    19    1
   19    19    20    1
   20    19    21    1
   21    19    22    1
   22    22    23    1
   23    22    24    1
   24    22    25    1
@<TRIPOS>SUBSTRUCTURE
       1 MOL1            1 RESIDUE      1      MOL     
@<SCITEGIC>MOL_PROPERTY
VM2 Rank
SciTegic.value.IntegerValue
73

@<SCITEGIC>MOL_PROPERTY
Conf_Id
SciTegic.value.IntegerValue
969

@<SCITEGIC>MOL_PROPERTY
Probability
SciTegic.value.DoubleValue
0.06

@<SCITEGIC>MOL_PROPERTY
Sum Probability
SciTegic.value.DoubleValue
98.65

@<SCITEGIC>MOL_PROPERTY
Delta G
SciTegic.value.DoubleValue
3.531

@<SCITEGIC>MOL_PROPERTY
G
SciTegic.value.DoubleValue
-4.431

@<SCITEGIC>MOL_PROPERTY
E
SciTegic.value.DoubleValue
-29.328

@<SCITEGIC>MOL_PROPERTY
-TS
SciTegic.value.DoubleValue
24.897

@<SCITEGIC>MOL_PROPERTY
U+W
SciTegic.value.DoubleValue
-49.895

@<SCITEGIC>MOL_PROPERTY
U
SciTegic.value.DoubleValue
10.274

@<SCITEGIC>MOL_PROPERTY
W
SciTegic.value.DoubleValue
-60.169

@<SCITEGIC>MOL_PROPERTY
W(PB)
SciTegic.value.DoubleValue
-62.622

@<SCITEGIC>MOL_PROPERTY
W(SA)
SciTegic.value.DoubleValue
2.453

@<SCITEGIC>MOL_PROPERTY
Valence
SciTegic.value.DoubleValue
8.912

@<SCITEGIC>MOL_PROPERTY
Coulomb
SciTegic.value.DoubleValue
0.552

@<SCITEGIC>MOL_PROPERTY
VdW
SciTegic.value.DoubleValue
0.809

@<SCITEGIC>MOL_PROPERTY
VdW6
SciTegic.value.DoubleValue
-10.135

@<SCITEGIC>MOL_PROPERTY
VdW12
SciTegic.value.DoubleValue
10.944

@<SCITEGIC>MOL_PROPERTY
Bond
SciTegic.value.DoubleValue
0.229

@<SCITEGIC>MOL_PROPERTY
Angle
SciTegic.value.DoubleValue
3.100

@<SCITEGIC>MOL_PROPERTY
Pdih
SciTegic.value.DoubleValue
5.582

@<SCITEGIC>MOL_PROPERTY
Idih
SciTegic.value.DoubleValue
0.001

@<SCITEGIC>MOL_PROPERTY
Tether
SciTegic.value.DoubleValue
0.000

@<TRIPOS>MOLECULE
guest-8_vm2.mol2 : vm2 ligand conformer 74
          25          24           1
SMALL
USER_CHARGES
 
@<TRIPOS>ATOM
       1    C1      19.894368   18.794852   26.763469 C.2        1 MOL1         0.6168
       2    O1      20.903787   18.234343   27.142990 O.co2      1 MOL1        -0.6703
       3    O2      18.813207   18.246864   26.674895 O.co2      1 MOL1        -0.6703
       4    C2      19.982218   20.274466   26.399794 C.3        1 MOL1        -0.1963
       5    H1      20.882830   20.695930   26.862383 H          1 MOL1         0.0750
       6    H2      19.123686   20.777373   26.860167 H          1 MOL1         0.0750
       7    C3      19.985013   20.547035   24.873301 C.3        1 MOL1        -0.1860
       8    H3      19.086813   20.096254   24.430493 H          1 MOL1         0.0752
       9    H4      19.915448   21.629662   24.702408 H          1 MOL1         0.0752
      10    C4      21.253893   20.000249   24.176828 C.3        1 MOL1        -0.1858
      11    H5      21.305190   18.909879   24.295752 H          1 MOL1         0.0752
      12    H6      22.141108   20.401072   24.685585 H          1 MOL1         0.0752
      13    C5      21.342608   20.370583   22.674891 C.3        1 MOL1        -0.1858
      14    H7      21.408126   21.463104   22.581483 H          1 MOL1         0.0752
      15    H8      22.284269   19.975298   22.270330 H          1 MOL1         0.0752
      16    C6      20.169900   19.866059   21.796341 C.3        1 MOL1        -0.1858
      17    H9      20.346039   20.195346   20.763276 H          1 MOL1         0.0752
      18    H10     19.232749   20.343520   22.111014 H          1 MOL1         0.0752
      19    C7      20.002908   18.329808   21.811919 C.3        1 MOL1        -0.1834
      20    H11     20.955125   17.850672   21.545950 H          1 MOL1         0.0752
      21    H12     19.743712   17.989780   22.823664 H          1 MOL1         0.0752
      22    C8      18.905098   17.869742   20.831573 C.3        1 MOL1        -0.2849
      23    H13     17.935409   18.313426   21.092703 H          1 MOL1         0.0764
      24    H14     19.149851   18.161287   19.801833 H          1 MOL1         0.0764
      25    H15     18.796244   16.777748   20.857824 H          1 MOL1         0.0764
@<TRIPOS>BOND
    1     1     2    1
    2     1     3    2
    3     1     4    1
    4     4     5    1
    5     4     6    1
    6     4     7    1
    7     7     8    1
    8     7     9    1
    9     7    10    1
   10    10    11    1
   11    10    12    1
   12    10    13    1
   13    13    14    1
   14    13    15    1
   15    13    16    1
   16    16    17    1
   17    16    18    1
   18    16    19    1
   19    19    20    1
   20    19    21    1
   21    19    22    1
   22    22    23    1
   23    22    24    1
   24    22    25    1
@<TRIPOS>SUBSTRUCTURE
       1 MOL1            1 RESIDUE      1      MOL     
@<SCITEGIC>MOL_PROPERTY
VM2 Rank
SciTegic.value.IntegerValue
74

@<SCITEGIC>MOL_PROPERTY
Conf_Id
SciTegic.value.IntegerValue
576

@<SCITEGIC>MOL_PROPERTY
Probability
SciTegic.value.DoubleValue
0.06

@<SCITEGIC>MOL_PROPERTY
Sum Probability
SciTegic.value.DoubleValue
98.71

@<SCITEGIC>MOL_PROPERTY
Delta G
SciTegic.value.DoubleValue
3.535

@<SCITEGIC>MOL_PROPERTY
G
SciTegic.value.DoubleValue
-4.427

@<SCITEGIC>MOL_PROPERTY
E
SciTegic.value.DoubleValue
-29.587

@<SCITEGIC>MOL_PROPERTY
-TS
SciTegic.value.DoubleValue
25.160

@<SCITEGIC>MOL_PROPERTY
U+W
SciTegic.value.DoubleValue
-50.155

@<SCITEGIC>MOL_PROPERTY
U
SciTegic.value.DoubleValue
10.375

@<SCITEGIC>MOL_PROPERTY
W
SciTegic.value.DoubleValue
-60.530

@<SCITEGIC>MOL_PROPERTY
W(PB)
SciTegic.value.DoubleValue
-62.937

@<SCITEGIC>MOL_PROPERTY
W(SA)
SciTegic.value.DoubleValue
2.407

@<SCITEGIC>MOL_PROPERTY
Valence
SciTegic.value.DoubleValue
8.732

@<SCITEGIC>MOL_PROPERTY
Coulomb
SciTegic.value.DoubleValue
0.993

@<SCITEGIC>MOL_PROPERTY
VdW
SciTegic.value.DoubleValue
0.649

@<SCITEGIC>MOL_PROPERTY
VdW6
SciTegic.value.DoubleValue
-10.415

@<SCITEGIC>MOL_PROPERTY
VdW12
SciTegic.value.DoubleValue
11.065

@<SCITEGIC>MOL_PROPERTY
Bond
SciTegic.value.DoubleValue
0.214

@<SCITEGIC>MOL_PROPERTY
Angle
SciTegic.value.DoubleValue
3.066

@<SCITEGIC>MOL_PROPERTY
Pdih
SciTegic.value.DoubleValue
5.452

@<SCITEGIC>MOL_PROPERTY
Idih
SciTegic.value.DoubleValue
0.001

@<SCITEGIC>MOL_PROPERTY
Tether
SciTegic.value.DoubleValue
0.000

@<TRIPOS>MOLECULE
guest-8_vm2.mol2 : vm2 ligand conformer 75
          25          24           1
SMALL
USER_CHARGES
 
@<TRIPOS>ATOM
       1    C1      19.702285   19.586526   26.763083 C.2        1 MOL1         0.6168
       2    O1      20.352992   19.916141   27.735438 O.co2      1 MOL1        -0.6703
       3    O2      18.854047   20.290567   26.251609 O.co2      1 MOL1        -0.6703
       4    C2      19.945540   18.200781   26.171790 C.3        1 MOL1        -0.1963
       5    H1      19.118665   17.957508   25.494984 H          1 MOL1         0.0750
       6    H2      19.892307   17.481142   26.996961 H          1 MOL1         0.0750
       7    C3      21.311055   18.050565   25.446837 C.3        1 MOL1        -0.1860
       8    H3      22.116496   18.230881   26.172165 H          1 MOL1         0.0752
       9    H4      21.427556   17.011590   25.110223 H          1 MOL1         0.0752
      10    C4      21.504996   19.001878   24.240436 C.3        1 MOL1        -0.1858
      11    H5      22.524241   18.867694   23.853332 H          1 MOL1         0.0752
      12    H6      21.436757   20.045862   24.576135 H          1 MOL1         0.0752
      13    C5      20.494049   18.758992   23.096044 C.3        1 MOL1        -0.1858
      14    H7      20.515846   17.700408   22.804039 H          1 MOL1         0.0752
      15    H8      19.479918   18.976159   23.453889 H          1 MOL1         0.0752
      16    C6      20.804647   19.641318   21.864672 C.3        1 MOL1        -0.1858
      17    H9      21.844431   19.470027   21.554388 H          1 MOL1         0.0752
      18    H10     20.733375   20.701661   22.143165 H          1 MOL1         0.0752
      19    C7      19.880136   19.360028   20.657168 C.3        1 MOL1        -0.1834
      20    H11     20.240689   19.938120   19.795190 H          1 MOL1         0.0752
      21    H12     19.952973   18.301174   20.372926 H          1 MOL1         0.0752
      22    C8      18.403254   19.727203   20.918923 C.3        1 MOL1        -0.2849
      23    H13     17.964366   19.091643   21.698162 H          1 MOL1         0.0764
      24    H14     18.308894   20.774243   21.235074 H          1 MOL1         0.0764
      25    H15     17.807007   19.594236   20.006967 H          1 MOL1         0.0764
@<TRIPOS>BOND
    1     1     2    1
    2     1     3    2
    3     1     4    1
    4     4     5    1
    5     4     6    1
    6     4     7    1
    7     7     8    1
    8     7     9    1
    9     7    10    1
   10    10    11    1
   11    10    12    1
   12    10    13    1
   13    13    14    1
   14    13    15    1
   15    13    16    1
   16    16    17    1
   17    16    18    1
   18    16    19    1
   19    19    20    1
   20    19    21    1
   21    19    22    1
   22    22    23    1
   23    22    24    1
   24    22    25    1
@<TRIPOS>SUBSTRUCTURE
       1 MOL1            1 RESIDUE      1      MOL     
@<SCITEGIC>MOL_PROPERTY
VM2 Rank
SciTegic.value.IntegerValue
75

@<SCITEGIC>MOL_PROPERTY
Conf_Id
SciTegic.value.IntegerValue
379

@<SCITEGIC>MOL_PROPERTY
Probability
SciTegic.value.DoubleValue
0.06

@<SCITEGIC>MOL_PROPERTY
Sum Probability
SciTegic.value.DoubleValue
98.77

@<SCITEGIC>MOL_PROPERTY
Delta G
SciTegic.value.DoubleValue
3.536

@<SCITEGIC>MOL_PROPERTY
G
SciTegic.value.DoubleValue
-4.426

@<SCITEGIC>MOL_PROPERTY
E
SciTegic.value.DoubleValue
-29.380

@<SCITEGIC>MOL_PROPERTY
-TS
SciTegic.value.DoubleValue
24.954

@<SCITEGIC>MOL_PROPERTY
U+W
SciTegic.value.DoubleValue
-49.948

@<SCITEGIC>MOL_PROPERTY
U
SciTegic.value.DoubleValue
10.718

@<SCITEGIC>MOL_PROPERTY
W
SciTegic.value.DoubleValue
-60.666

@<SCITEGIC>MOL_PROPERTY
W(PB)
SciTegic.value.DoubleValue
-63.099

@<SCITEGIC>MOL_PROPERTY
W(SA)
SciTegic.value.DoubleValue
2.433

@<SCITEGIC>MOL_PROPERTY
Valence
SciTegic.value.DoubleValue
8.799

@<SCITEGIC>MOL_PROPERTY
Coulomb
SciTegic.value.DoubleValue
1.201

@<SCITEGIC>MOL_PROPERTY
VdW
SciTegic.value.DoubleValue
0.718

@<SCITEGIC>MOL_PROPERTY
VdW6
SciTegic.value.DoubleValue
-10.234

@<SCITEGIC>MOL_PROPERTY
VdW12
SciTegic.value.DoubleValue
10.952

@<SCITEGIC>MOL_PROPERTY
Bond
SciTegic.value.DoubleValue
0.218

@<SCITEGIC>MOL_PROPERTY
Angle
SciTegic.value.DoubleValue
3.002

@<SCITEGIC>MOL_PROPERTY
Pdih
SciTegic.value.DoubleValue
5.578

@<SCITEGIC>MOL_PROPERTY
Idih
SciTegic.value.DoubleValue
0.001

@<SCITEGIC>MOL_PROPERTY
Tether
SciTegic.value.DoubleValue
0.000

@<TRIPOS>MOLECULE
guest-8_vm2.mol2 : vm2 ligand conformer 76
          25          24           1
SMALL
USER_CHARGES
 
@<TRIPOS>ATOM
       1    C1      20.558803   19.641041   26.753446 C.2        1 MOL1         0.6168
       2    O1      21.298489   20.446619   26.223638 O.co2      1 MOL1        -0.6703
       3    O2      19.894239   19.886420   27.741212 O.co2      1 MOL1        -0.6703
       4    C2      20.480071   18.234894   26.165536 C.3        1 MOL1        -0.1963
       5    H1      20.643302   17.528870   26.988039 H          1 MOL1         0.0750
       6    H2      21.315360   18.097847   25.469491 H          1 MOL1         0.0750
       7    C3      19.128387   17.911482   25.471915 C.3        1 MOL1        -0.1860
       8    H3      19.137072   16.865677   25.136410 H          1 MOL1         0.0752
       9    H4      18.323464   17.989007   26.215849 H          1 MOL1         0.0752
      10    C4      18.787504   18.828851   24.271812 C.3        1 MOL1        -0.1858
      11    H5      18.730535   19.873524   24.607473 H          1 MOL1         0.0752
      12    H6      17.784828   18.565944   23.908168 H          1 MOL1         0.0752
      13    C5      19.794340   18.714536   23.103971 C.3        1 MOL1        -0.1858
      14    H7      20.780779   19.058946   23.438628 H          1 MOL1         0.0752
      15    H8      19.900118   17.661340   22.810833 H          1 MOL1         0.0752
      16    C6      19.346043   19.548756   21.881532 C.3        1 MOL1        -0.1858
      17    H9      19.288998   20.609974   22.159971 H          1 MOL1         0.0752
      18    H10     18.329371   19.246826   21.595202 H          1 MOL1         0.0752
      19    C7      20.270411   19.385080   20.652440 C.3        1 MOL1        -0.1834
      20    H11     20.325423   18.325157   20.368174 H          1 MOL1         0.0752
      21    H12     19.819761   19.911872   19.800032 H          1 MOL1         0.0752
      22    C8      21.694713   19.936320   20.880497 C.3        1 MOL1        -0.2849
      23    H13     22.228403   19.362267   21.648228 H          1 MOL1         0.0764
      24    H14     22.281631   19.878701   19.954721 H          1 MOL1         0.0764
      25    H15     21.663286   20.987265   21.196208 H          1 MOL1         0.0764
@<TRIPOS>BOND
    1     1     2    1
    2     1     3    2
    3     1     4    1
    4     4     5    1
    5     4     6    1
    6     4     7    1
    7     7     8    1
    8     7     9    1
    9     7    10    1
   10    10    11    1
   11    10    12    1
   12    10    13    1
   13    13    14    1
   14    13    15    1
   15    13    16    1
   16    16    17    1
   17    16    18    1
   18    16    19    1
   19    19    20    1
   20    19    21    1
   21    19    22    1
   22    22    23    1
   23    22    24    1
   24    22    25    1
@<TRIPOS>SUBSTRUCTURE
       1 MOL1            1 RESIDUE      1      MOL     
@<SCITEGIC>MOL_PROPERTY
VM2 Rank
SciTegic.value.IntegerValue
76

@<SCITEGIC>MOL_PROPERTY
Conf_Id
SciTegic.value.IntegerValue
1124

@<SCITEGIC>MOL_PROPERTY
Probability
SciTegic.value.DoubleValue
0.06

@<SCITEGIC>MOL_PROPERTY
Sum Probability
SciTegic.value.DoubleValue
98.83

@<SCITEGIC>MOL_PROPERTY
Delta G
SciTegic.value.DoubleValue
3.543

@<SCITEGIC>MOL_PROPERTY
G
SciTegic.value.DoubleValue
-4.420

@<SCITEGIC>MOL_PROPERTY
E
SciTegic.value.DoubleValue
-29.374

@<SCITEGIC>MOL_PROPERTY
-TS
SciTegic.value.DoubleValue
24.955

@<SCITEGIC>MOL_PROPERTY
U+W
SciTegic.value.DoubleValue
-49.942

@<SCITEGIC>MOL_PROPERTY
U
SciTegic.value.DoubleValue
10.717

@<SCITEGIC>MOL_PROPERTY
W
SciTegic.value.DoubleValue
-60.659

@<SCITEGIC>MOL_PROPERTY
W(PB)
SciTegic.value.DoubleValue
-63.085

@<SCITEGIC>MOL_PROPERTY
W(SA)
SciTegic.value.DoubleValue
2.426

@<SCITEGIC>MOL_PROPERTY
Valence
SciTegic.value.DoubleValue
8.799

@<SCITEGIC>MOL_PROPERTY
Coulomb
SciTegic.value.DoubleValue
1.200

@<SCITEGIC>MOL_PROPERTY
VdW
SciTegic.value.DoubleValue
0.718

@<SCITEGIC>MOL_PROPERTY
VdW6
SciTegic.value.DoubleValue
-10.234

@<SCITEGIC>MOL_PROPERTY
VdW12
SciTegic.value.DoubleValue
10.951

@<SCITEGIC>MOL_PROPERTY
Bond
SciTegic.value.DoubleValue
0.218

@<SCITEGIC>MOL_PROPERTY
Angle
SciTegic.value.DoubleValue
3.002

@<SCITEGIC>MOL_PROPERTY
Pdih
SciTegic.value.DoubleValue
5.578

@<SCITEGIC>MOL_PROPERTY
Idih
SciTegic.value.DoubleValue
0.001

@<SCITEGIC>MOL_PROPERTY
Tether
SciTegic.value.DoubleValue
0.000

@<TRIPOS>MOLECULE
guest-8_vm2.mol2 : vm2 ligand conformer 77
          25          24           1
SMALL
USER_CHARGES
 
@<TRIPOS>ATOM
       1    C1      19.935033   19.828576   26.699676 C.2        1 MOL1         0.6168
       2    O1      20.808098   20.307502   27.396768 O.co2      1 MOL1        -0.6703
       3    O2      19.023968   20.476367   26.222999 O.co2      1 MOL1        -0.6703
       4    C2      19.970631   18.325997   26.434458 C.3        1 MOL1        -0.1963
       5    H1      18.999013   18.017643   26.031992 H          1 MOL1         0.0750
       6    H2      20.077394   17.826473   27.404349 H          1 MOL1         0.0750
       7    C3      21.121482   17.874332   25.494140 C.3        1 MOL1        -0.1860
       8    H3      22.081516   18.134000   25.961298 H          1 MOL1         0.0752
       9    H4      21.107606   16.779472   25.408044 H          1 MOL1         0.0752
      10    C4      21.070974   18.498511   24.078031 C.3        1 MOL1        -0.1858
      11    H5      21.956940   18.168146   23.519055 H          1 MOL1         0.0752
      12    H6      21.144888   19.590887   24.160625 H          1 MOL1         0.0752
      13    C5      19.798986   18.113718   23.283963 C.3        1 MOL1        -0.1858
      14    H7      19.667273   17.023969   23.323413 H          1 MOL1         0.0752
      15    H8      18.913064   18.554782   23.760124 H          1 MOL1         0.0752
      16    C6      19.846218   18.550586   21.800422 C.3        1 MOL1        -0.1858
      17    H9      18.963183   18.143515   21.289209 H          1 MOL1         0.0752
      18    H10     20.722183   18.102485   21.311876 H          1 MOL1         0.0752
      19    C7      19.872605   20.084404   21.613040 C.3        1 MOL1        -0.1834
      20    H11     19.026525   20.537310   22.148358 H          1 MOL1         0.0752
      21    H12     20.788427   20.502698   22.050997 H          1 MOL1         0.0752
      22    C8      19.805006   20.474007   20.122503 C.3        1 MOL1        -0.2849
      23    H13     18.880264   20.103838   19.660835 H          1 MOL1         0.0764
      24    H14     19.828004   21.565377   20.006693 H          1 MOL1         0.0764
      25    H15     20.656009   20.056248   19.568782 H          1 MOL1         0.0764
@<TRIPOS>BOND
    1     1     2    1
    2     1     3    2
    3     1     4    1
    4     4     5    1
    5     4     6    1
    6     4     7    1
    7     7     8    1
    8     7     9    1
    9     7    10    1
   10    10    11    1
   11    10    12    1
   12    10    13    1
   13    13    14    1
   14    13    15    1
   15    13    16    1
   16    16    17    1
   17    16    18    1
   18    16    19    1
   19    19    20    1
   20    19    21    1
   21    19    22    1
   22    22    23    1
   23    22    24    1
   24    22    25    1
@<TRIPOS>SUBSTRUCTURE
       1 MOL1            1 RESIDUE      1      MOL     
@<SCITEGIC>MOL_PROPERTY
VM2 Rank
SciTegic.value.IntegerValue
77

@<SCITEGIC>MOL_PROPERTY
Conf_Id
SciTegic.value.IntegerValue
250

@<SCITEGIC>MOL_PROPERTY
Probability
SciTegic.value.DoubleValue
0.05

@<SCITEGIC>MOL_PROPERTY
Sum Probability
SciTegic.value.DoubleValue
98.88

@<SCITEGIC>MOL_PROPERTY
Delta G
SciTegic.value.DoubleValue
3.663

@<SCITEGIC>MOL_PROPERTY
G
SciTegic.value.DoubleValue
-4.299

@<SCITEGIC>MOL_PROPERTY
E
SciTegic.value.DoubleValue
-29.297

@<SCITEGIC>MOL_PROPERTY
-TS
SciTegic.value.DoubleValue
24.998

@<SCITEGIC>MOL_PROPERTY
U+W
SciTegic.value.DoubleValue
-49.865

@<SCITEGIC>MOL_PROPERTY
U
SciTegic.value.DoubleValue
10.632

@<SCITEGIC>MOL_PROPERTY
W
SciTegic.value.DoubleValue
-60.496

@<SCITEGIC>MOL_PROPERTY
W(PB)
SciTegic.value.DoubleValue
-62.929

@<SCITEGIC>MOL_PROPERTY
W(SA)
SciTegic.value.DoubleValue
2.433

@<SCITEGIC>MOL_PROPERTY
Valence
SciTegic.value.DoubleValue
8.788

@<SCITEGIC>MOL_PROPERTY
Coulomb
SciTegic.value.DoubleValue
1.197

@<SCITEGIC>MOL_PROPERTY
VdW
SciTegic.value.DoubleValue
0.647

@<SCITEGIC>MOL_PROPERTY
VdW6
SciTegic.value.DoubleValue
-10.379

@<SCITEGIC>MOL_PROPERTY
VdW12
SciTegic.value.DoubleValue
11.026

@<SCITEGIC>MOL_PROPERTY
Bond
SciTegic.value.DoubleValue
0.219

@<SCITEGIC>MOL_PROPERTY
Angle
SciTegic.value.DoubleValue
2.957

@<SCITEGIC>MOL_PROPERTY
Pdih
SciTegic.value.DoubleValue
5.611

@<SCITEGIC>MOL_PROPERTY
Idih
SciTegic.value.DoubleValue
0.001

@<SCITEGIC>MOL_PROPERTY
Tether
SciTegic.value.DoubleValue
0.000

@<TRIPOS>MOLECULE
guest-8_vm2.mol2 : vm2 ligand conformer 78
          25          24           1
SMALL
USER_CHARGES
 
@<TRIPOS>ATOM
       1    C1      20.295468   19.851751   26.695473 C.2        1 MOL1         0.6168
       2    O1      21.104891   20.609903   26.198550 O.co2      1 MOL1        -0.6703
       3    O2      19.384942   20.216273   27.413538 O.co2      1 MOL1        -0.6703
       4    C2      20.445928   18.356537   26.428928 C.3        1 MOL1        -0.1963
       5    H1      20.426267   17.848914   27.400291 H          1 MOL1         0.0750
       6    H2      21.439407   18.174190   26.003663 H          1 MOL1         0.0750
       7    C3      19.340757   17.760202   25.514796 C.3        1 MOL1        -0.1860
       8    H3      19.492303   16.675941   25.426842 H          1 MOL1         0.0752
       9    H4      18.366473   17.895900   26.004375 H          1 MOL1         0.0752
      10    C4      19.278457   18.383552   24.098791 C.3        1 MOL1        -0.1858
      11    H5      19.067761   19.457705   24.184640 H          1 MOL1         0.0752
      12    H6      18.429158   17.942037   23.560007 H          1 MOL1         0.0752
      13    C5      20.570399   18.162891   23.274919 C.3        1 MOL1        -0.1858
      14    H7      21.403687   18.713881   23.731170 H          1 MOL1         0.0752
      15    H8      20.840756   17.098859   23.309579 H          1 MOL1         0.0752
      16    C6      20.433579   18.588151   21.793561 C.3        1 MOL1        -0.1858
      17    H9      19.610690   18.031522   21.324728 H          1 MOL1         0.0752
      18    H10     21.349160   18.296084   21.261390 H          1 MOL1         0.0752
      19    C7      20.207846   20.105877   21.609265 C.3        1 MOL1        -0.1834
      20    H11     19.256636   20.404806   22.068990 H          1 MOL1         0.0752
      21    H12     21.001582   20.663530   22.125549 H          1 MOL1         0.0752
      22    C8      20.190730   20.498864   20.118178 C.3        1 MOL1        -0.2849
      23    H13     20.026374   21.578278   20.004667 H          1 MOL1         0.0764
      24    H14     21.144099   20.248737   19.634612 H          1 MOL1         0.0764
      25    H15     19.387188   19.975454   19.583669 H          1 MOL1         0.0764
@<TRIPOS>BOND
    1     1     2    1
    2     1     3    2
    3     1     4    1
    4     4     5    1
    5     4     6    1
    6     4     7    1
    7     7     8    1
    8     7     9    1
    9     7    10    1
   10    10    11    1
   11    10    12    1
   12    10    13    1
   13    13    14    1
   14    13    15    1
   15    13    16    1
   16    16    17    1
   17    16    18    1
   18    16    19    1
   19    19    20    1
   20    19    21    1
   21    19    22    1
   22    22    23    1
   23    22    24    1
   24    22    25    1
@<TRIPOS>SUBSTRUCTURE
       1 MOL1            1 RESIDUE      1      MOL     
@<SCITEGIC>MOL_PROPERTY
VM2 Rank
SciTegic.value.IntegerValue
78

@<SCITEGIC>MOL_PROPERTY
Conf_Id
SciTegic.value.IntegerValue
831

@<SCITEGIC>MOL_PROPERTY
Probability
SciTegic.value.DoubleValue
0.05

@<SCITEGIC>MOL_PROPERTY
Sum Probability
SciTegic.value.DoubleValue
98.93

@<SCITEGIC>MOL_PROPERTY
Delta G
SciTegic.value.DoubleValue
3.679

@<SCITEGIC>MOL_PROPERTY
G
SciTegic.value.DoubleValue
-4.283

@<SCITEGIC>MOL_PROPERTY
E
SciTegic.value.DoubleValue
-29.283

@<SCITEGIC>MOL_PROPERTY
-TS
SciTegic.value.DoubleValue
25.000

@<SCITEGIC>MOL_PROPERTY
U+W
SciTegic.value.DoubleValue
-49.851

@<SCITEGIC>MOL_PROPERTY
U
SciTegic.value.DoubleValue
10.632

@<SCITEGIC>MOL_PROPERTY
W
SciTegic.value.DoubleValue
-60.482

@<SCITEGIC>MOL_PROPERTY
W(PB)
SciTegic.value.DoubleValue
-62.908

@<SCITEGIC>MOL_PROPERTY
W(SA)
SciTegic.value.DoubleValue
2.426

@<SCITEGIC>MOL_PROPERTY
Valence
SciTegic.value.DoubleValue
8.788

@<SCITEGIC>MOL_PROPERTY
Coulomb
SciTegic.value.DoubleValue
1.197

@<SCITEGIC>MOL_PROPERTY
VdW
SciTegic.value.DoubleValue
0.646

@<SCITEGIC>MOL_PROPERTY
VdW6
SciTegic.value.DoubleValue
-10.379

@<SCITEGIC>MOL_PROPERTY
VdW12
SciTegic.value.DoubleValue
11.025

@<SCITEGIC>MOL_PROPERTY
Bond
SciTegic.value.DoubleValue
0.219

@<SCITEGIC>MOL_PROPERTY
Angle
SciTegic.value.DoubleValue
2.957

@<SCITEGIC>MOL_PROPERTY
Pdih
SciTegic.value.DoubleValue
5.611

@<SCITEGIC>MOL_PROPERTY
Idih
SciTegic.value.DoubleValue
0.001

@<SCITEGIC>MOL_PROPERTY
Tether
SciTegic.value.DoubleValue
0.000

@<TRIPOS>MOLECULE
guest-8_vm2.mol2 : vm2 ligand conformer 79
          25          24           1
SMALL
USER_CHARGES
 
@<TRIPOS>ATOM
       1    C1      19.900635   19.836940   26.651986 C.2        1 MOL1         0.6168
       2    O1      20.883136   20.504743   26.909620 O.co2      1 MOL1        -0.6703
       3    O2      18.800622   20.312636   26.449741 O.co2      1 MOL1        -0.6703
       4    C2      20.038894   18.315674   26.647212 C.3        1 MOL1        -0.1963
       5    H1      19.056996   17.869081   26.449175 H          1 MOL1         0.0750
       6    H2      20.313962   18.028218   27.668571 H          1 MOL1         0.0750
       7    C3      21.097486   17.748875   25.659677 C.3        1 MOL1        -0.1860
       8    H3      22.020658   18.342007   25.719197 H          1 MOL1         0.0752
       9    H4      21.366316   16.737861   25.994353 H          1 MOL1         0.0752
      10    C4      20.624935   17.648370   24.188053 C.3        1 MOL1        -0.1858
      11    H5      19.708733   17.044611   24.134338 H          1 MOL1         0.0752
      12    H6      21.389266   17.100322   23.620228 H          1 MOL1         0.0752
      13    C5      20.386433   19.015559   23.507953 C.3        1 MOL1        -0.1858
      14    H7      19.535912   19.523310   23.979978 H          1 MOL1         0.0752
      15    H8      21.265812   19.658032   23.652757 H          1 MOL1         0.0752
      16    C6      20.101560   18.860570   21.998189 C.3        1 MOL1        -0.1858
      17    H9      19.224892   18.213994   21.855267 H          1 MOL1         0.0752
      18    H10     20.950829   18.360374   21.512893 H          1 MOL1         0.0752
      19    C7      19.852033   20.224275   21.320383 C.3        1 MOL1        -0.1834
      20    H11     19.001923   20.727010   21.802230 H          1 MOL1         0.0752
      21    H12     20.727605   20.873199   21.460846 H          1 MOL1         0.0752
      22    C8      19.567266   20.066358   19.813187 C.3        1 MOL1        -0.2849
      23    H13     18.676682   19.446837   19.644580 H          1 MOL1         0.0764
      24    H14     19.392298   21.045108   19.347892 H          1 MOL1         0.0764
      25    H15     20.415538   19.594115   19.300552 H          1 MOL1         0.0764
@<TRIPOS>BOND
    1     1     2    1
    2     1     3    2
    3     1     4    1
    4     4     5    1
    5     4     6    1
    6     4     7    1
    7     7     8    1
    8     7     9    1
    9     7    10    1
   10    10    11    1
   11    10    12    1
   12    10    13    1
   13    13    14    1
   14    13    15    1
   15    13    16    1
   16    16    17    1
   17    16    18    1
   18    16    19    1
   19    19    20    1
   20    19    21    1
   21    19    22    1
   22    22    23    1
   23    22    24    1
   24    22    25    1
@<TRIPOS>SUBSTRUCTURE
       1 MOL1            1 RESIDUE      1      MOL     
@<SCITEGIC>MOL_PROPERTY
VM2 Rank
SciTegic.value.IntegerValue
79

@<SCITEGIC>MOL_PROPERTY
Conf_Id
SciTegic.value.IntegerValue
991

@<SCITEGIC>MOL_PROPERTY
Probability
SciTegic.value.DoubleValue
0.05

@<SCITEGIC>MOL_PROPERTY
Sum Probability
SciTegic.value.DoubleValue
98.97

@<SCITEGIC>MOL_PROPERTY
Delta G
SciTegic.value.DoubleValue
3.691

@<SCITEGIC>MOL_PROPERTY
G
SciTegic.value.DoubleValue
-4.272

@<SCITEGIC>MOL_PROPERTY
E
SciTegic.value.DoubleValue
-29.298

@<SCITEGIC>MOL_PROPERTY
-TS
SciTegic.value.DoubleValue
25.026

@<SCITEGIC>MOL_PROPERTY
U+W
SciTegic.value.DoubleValue
-49.866

@<SCITEGIC>MOL_PROPERTY
U
SciTegic.value.DoubleValue
10.903

@<SCITEGIC>MOL_PROPERTY
W
SciTegic.value.DoubleValue
-60.768

@<SCITEGIC>MOL_PROPERTY
W(PB)
SciTegic.value.DoubleValue
-63.222

@<SCITEGIC>MOL_PROPERTY
W(SA)
SciTegic.value.DoubleValue
2.454

@<SCITEGIC>MOL_PROPERTY
Valence
SciTegic.value.DoubleValue
9.445

@<SCITEGIC>MOL_PROPERTY
Coulomb
SciTegic.value.DoubleValue
0.779

@<SCITEGIC>MOL_PROPERTY
VdW
SciTegic.value.DoubleValue
0.679

@<SCITEGIC>MOL_PROPERTY
VdW6
SciTegic.value.DoubleValue
-10.008

@<SCITEGIC>MOL_PROPERTY
VdW12
SciTegic.value.DoubleValue
10.687

@<SCITEGIC>MOL_PROPERTY
Bond
SciTegic.value.DoubleValue
0.201

@<SCITEGIC>MOL_PROPERTY
Angle
SciTegic.value.DoubleValue
3.198

@<SCITEGIC>MOL_PROPERTY
Pdih
SciTegic.value.DoubleValue
6.039

@<SCITEGIC>MOL_PROPERTY
Idih
SciTegic.value.DoubleValue
0.006

@<SCITEGIC>MOL_PROPERTY
Tether
SciTegic.value.DoubleValue
0.000

@<TRIPOS>MOLECULE
guest-8_vm2.mol2 : vm2 ligand conformer 80
          25          24           1
SMALL
USER_CHARGES
 
@<TRIPOS>ATOM
       1    C1      20.637355   19.669508   26.642560 C.2        1 MOL1         0.6168
       2    O1      20.046419   20.694785   26.920492 O.co2      1 MOL1        -0.6703
       3    O2      21.829548   19.624464   26.410468 O.co2      1 MOL1        -0.6703
       4    C2      19.855353   18.357324   26.649459 C.3        1 MOL1        -0.1963
       5    H1      19.508390   18.210986   27.678861 H          1 MOL1         0.0750
       6    H2      20.542726   17.531512   26.429594 H          1 MOL1         0.0750
       7    C3      18.631768   18.309233   25.691526 C.3        1 MOL1        -0.1860
       8    H3      17.960764   17.511807   26.038358 H          1 MOL1         0.0752
       9    H4      18.057352   19.242723   25.770498 H          1 MOL1         0.0752
      10    C4      18.978038   18.022682   24.209276 C.3        1 MOL1        -0.1858
      11    H5      18.038173   17.862196   23.663494 H          1 MOL1         0.0752
      12    H6      19.541523   17.082470   24.136327 H          1 MOL1         0.0752
      13    C5      19.767403   19.156202   23.515983 C.3        1 MOL1        -0.1858
      14    H7      19.256153   20.114909   23.678928 H          1 MOL1         0.0752
      15    H8      20.765201   19.243561   23.964061 H          1 MOL1         0.0752
      16    C6      19.919929   18.901915   22.000518 C.3        1 MOL1        -0.1858
      17    H9      18.926191   18.821119   21.539083 H          1 MOL1         0.0752
      18    H10     20.426812   17.940569   21.839530 H          1 MOL1         0.0752
      19    C7      20.718053   20.027350   21.309312 C.3        1 MOL1        -0.1834
      20    H11     20.213190   20.990378   21.467896 H          1 MOL1         0.0752
      21    H12     21.713602   20.109997   21.767196 H          1 MOL1         0.0752
      22    C8      20.869133   19.770537   19.796406 C.3        1 MOL1        -0.2849
      23    H13     21.438849   20.579888   19.321601 H          1 MOL1         0.0764
      24    H14     21.399472   18.827641   19.609156 H          1 MOL1         0.0764
      25    H15     19.887671   19.714852   19.307525 H          1 MOL1         0.0764
@<TRIPOS>BOND
    1     1     2    1
    2     1     3    2
    3     1     4    1
    4     4     5    1
    5     4     6    1
    6     4     7    1
    7     7     8    1
    8     7     9    1
    9     7    10    1
   10    10    11    1
   11    10    12    1
   12    10    13    1
   13    13    14    1
   14    13    15    1
   15    13    16    1
   16    16    17    1
   17    16    18    1
   18    16    19    1
   19    19    20    1
   20    19    21    1
   21    19    22    1
   22    22    23    1
   23    22    24    1
   24    22    25    1
@<TRIPOS>SUBSTRUCTURE
       1 MOL1            1 RESIDUE      1      MOL     
@<SCITEGIC>MOL_PROPERTY
VM2 Rank
SciTegic.value.IntegerValue
80

@<SCITEGIC>MOL_PROPERTY
Conf_Id
SciTegic.value.IntegerValue
1307

@<SCITEGIC>MOL_PROPERTY
Probability
SciTegic.value.DoubleValue
0.05

@<SCITEGIC>MOL_PROPERTY
Sum Probability
SciTegic.value.DoubleValue
99.02

@<SCITEGIC>MOL_PROPERTY
Delta G
SciTegic.value.DoubleValue
3.707

@<SCITEGIC>MOL_PROPERTY
G
SciTegic.value.DoubleValue
-4.255

@<SCITEGIC>MOL_PROPERTY
E
SciTegic.value.DoubleValue
-29.282

@<SCITEGIC>MOL_PROPERTY
-TS
SciTegic.value.DoubleValue
25.026

@<SCITEGIC>MOL_PROPERTY
U+W
SciTegic.value.DoubleValue
-49.849

@<SCITEGIC>MOL_PROPERTY
U
SciTegic.value.DoubleValue
10.903

@<SCITEGIC>MOL_PROPERTY
W
SciTegic.value.DoubleValue
-60.752

@<SCITEGIC>MOL_PROPERTY
W(PB)
SciTegic.value.DoubleValue
-63.220

@<SCITEGIC>MOL_PROPERTY
W(SA)
SciTegic.value.DoubleValue
2.468

@<SCITEGIC>MOL_PROPERTY
Valence
SciTegic.value.DoubleValue
9.445

@<SCITEGIC>MOL_PROPERTY
Coulomb
SciTegic.value.DoubleValue
0.779

@<SCITEGIC>MOL_PROPERTY
VdW
SciTegic.value.DoubleValue
0.680

@<SCITEGIC>MOL_PROPERTY
VdW6
SciTegic.value.DoubleValue
-10.008

@<SCITEGIC>MOL_PROPERTY
VdW12
SciTegic.value.DoubleValue
10.688

@<SCITEGIC>MOL_PROPERTY
Bond
SciTegic.value.DoubleValue
0.201

@<SCITEGIC>MOL_PROPERTY
Angle
SciTegic.value.DoubleValue
3.198

@<SCITEGIC>MOL_PROPERTY
Pdih
SciTegic.value.DoubleValue
6.039

@<SCITEGIC>MOL_PROPERTY
Idih
SciTegic.value.DoubleValue
0.006

@<SCITEGIC>MOL_PROPERTY
Tether
SciTegic.value.DoubleValue
0.000

@<TRIPOS>MOLECULE
guest-8_vm2.mol2 : vm2 ligand conformer 81
          25          24           1
SMALL
USER_CHARGES
 
@<TRIPOS>ATOM
       1    C1      20.271816   19.968297   26.978168 C.2        1 MOL1         0.6168
       2    O1      21.202292   19.812817   27.744201 O.co2      1 MOL1        -0.6703
       3    O2      19.231651   20.516472   27.285264 O.co2      1 MOL1        -0.6703
       4    C2      20.408003   19.424038   25.560762 C.3        1 MOL1        -0.1963
       5    H1      21.465352   19.477017   25.275386 H          1 MOL1         0.0750
       6    H2      19.851569   20.092863   24.894606 H          1 MOL1         0.0750
       7    C3      19.887247   17.971057   25.423405 C.3        1 MOL1        -0.1860
       8    H3      20.363621   17.351866   26.196131 H          1 MOL1         0.0752
       9    H4      18.809411   17.952113   25.635961 H          1 MOL1         0.0752
      10    C4      20.155383   17.324198   24.041184 C.3        1 MOL1        -0.1858
      11    H5      19.786032   16.290368   24.082712 H          1 MOL1         0.0752
      12    H6      21.236866   17.247496   23.863753 H          1 MOL1         0.0752
      13    C5      19.464558   18.036092   22.850487 C.3        1 MOL1        -0.1858
      14    H7      19.140714   17.273233   22.129278 H          1 MOL1         0.0752
      15    H8      18.550652   18.541191   23.191940 H          1 MOL1         0.0752
      16    C6      20.388781   19.033622   22.112724 C.3        1 MOL1        -0.1858
      17    H9      21.267341   18.498721   21.726935 H          1 MOL1         0.0752
      18    H10     20.764469   19.793585   22.807834 H          1 MOL1         0.0752
      19    C7      19.659505   19.729229   20.944163 C.3        1 MOL1        -0.1834
      20    H11     19.290964   18.974833   20.235308 H          1 MOL1         0.0752
      21    H12     18.779835   20.266654   21.324687 H          1 MOL1         0.0752
      22    C8      20.583764   20.718176   20.205642 C.3        1 MOL1        -0.2849
      23    H13     21.457754   20.201647   19.787676 H          1 MOL1         0.0764
      24    H14     20.049262   21.203374   19.378637 H          1 MOL1         0.0764
      25    H15     20.941698   21.503125   20.884698 H          1 MOL1         0.0764
@<TRIPOS>BOND
    1     1     2    1
    2     1     3    2
    3     1     4    1
    4     4     5    1
    5     4     6    1
    6     4     7    1
    7     7     8    1
    8     7     9    1
    9     7    10    1
   10    10    11    1
   11    10    12    1
   12    10    13    1
   13    13    14    1
   14    13    15    1
   15    13    16    1
   16    16    17    1
   17    16    18    1
   18    16    19    1
   19    19    20    1
   20    19    21    1
   21    19    22    1
   22    22    23    1
   23    22    24    1
   24    22    25    1
@<TRIPOS>SUBSTRUCTURE
       1 MOL1            1 RESIDUE      1      MOL     
@<SCITEGIC>MOL_PROPERTY
VM2 Rank
SciTegic.value.IntegerValue
81

@<SCITEGIC>MOL_PROPERTY
Conf_Id
SciTegic.value.IntegerValue
935

@<SCITEGIC>MOL_PROPERTY
Probability
SciTegic.value.DoubleValue
0.04

@<SCITEGIC>MOL_PROPERTY
Sum Probability
SciTegic.value.DoubleValue
99.06

@<SCITEGIC>MOL_PROPERTY
Delta G
SciTegic.value.DoubleValue
3.723

@<SCITEGIC>MOL_PROPERTY
G
SciTegic.value.DoubleValue
-4.240

@<SCITEGIC>MOL_PROPERTY
E
SciTegic.value.DoubleValue
-29.021

@<SCITEGIC>MOL_PROPERTY
-TS
SciTegic.value.DoubleValue
24.782

@<SCITEGIC>MOL_PROPERTY
U+W
SciTegic.value.DoubleValue
-49.589

@<SCITEGIC>MOL_PROPERTY
U
SciTegic.value.DoubleValue
10.016

@<SCITEGIC>MOL_PROPERTY
W
SciTegic.value.DoubleValue
-59.605

@<SCITEGIC>MOL_PROPERTY
W(PB)
SciTegic.value.DoubleValue
-62.068

@<SCITEGIC>MOL_PROPERTY
W(SA)
SciTegic.value.DoubleValue
2.462

@<SCITEGIC>MOL_PROPERTY
Valence
SciTegic.value.DoubleValue
10.523

@<SCITEGIC>MOL_PROPERTY
Coulomb
SciTegic.value.DoubleValue
-1.441

@<SCITEGIC>MOL_PROPERTY
VdW
SciTegic.value.DoubleValue
0.934

@<SCITEGIC>MOL_PROPERTY
VdW6
SciTegic.value.DoubleValue
-9.399

@<SCITEGIC>MOL_PROPERTY
VdW12
SciTegic.value.DoubleValue
10.333

@<SCITEGIC>MOL_PROPERTY
Bond
SciTegic.value.DoubleValue
0.199

@<SCITEGIC>MOL_PROPERTY
Angle
SciTegic.value.DoubleValue
2.988

@<SCITEGIC>MOL_PROPERTY
Pdih
SciTegic.value.DoubleValue
7.335

@<SCITEGIC>MOL_PROPERTY
Idih
SciTegic.value.DoubleValue
0.001

@<SCITEGIC>MOL_PROPERTY
Tether
SciTegic.value.DoubleValue
0.000

@<TRIPOS>MOLECULE
guest-8_vm2.mol2 : vm2 ligand conformer 82
          25          24           1
SMALL
USER_CHARGES
 
@<TRIPOS>ATOM
       1    C1      20.392998   19.481289   27.136472 C.2        1 MOL1         0.6168
       2    O1      21.428972   20.116011   27.162221 O.co2      1 MOL1        -0.6703
       3    O2      20.001821   18.793886   28.059164 O.co2      1 MOL1        -0.6703
       4    C2      19.547275   19.533711   25.869270 C.3        1 MOL1        -0.1963
       5    H1      19.671619   20.528292   25.426256 H          1 MOL1         0.0750
       6    H2      18.494130   19.434455   26.157704 H          1 MOL1         0.0750
       7    C3      19.928592   18.431227   24.847771 C.3        1 MOL1        -0.1860
       8    H3      20.976289   18.558317   24.544584 H          1 MOL1         0.0752
       9    H4      19.872780   17.453687   25.346148 H          1 MOL1         0.0752
      10    C4      19.012037   18.402002   23.598883 C.3        1 MOL1        -0.1858
      11    H5      17.984366   18.181633   23.917898 H          1 MOL1         0.0752
      12    H6      19.310811   17.561888   22.958234 H          1 MOL1         0.0752
      13    C5      19.001085   19.706085   22.758639 C.3        1 MOL1        -0.1858
      14    H7      18.328369   19.567859   21.902232 H          1 MOL1         0.0752
      15    H8      18.553477   20.514732   23.350813 H          1 MOL1         0.0752
      16    C6      20.389455   20.172796   22.247092 C.3        1 MOL1        -0.1858
      17    H9      21.017181   20.449804   23.104319 H          1 MOL1         0.0752
      18    H10     20.256922   21.095164   21.665686 H          1 MOL1         0.0752
      19    C7      21.151565   19.141110   21.379307 C.3        1 MOL1        -0.1834
      20    H11     22.127550   19.565590   21.107014 H          1 MOL1         0.0752
      21    H12     21.365713   18.238241   21.966319 H          1 MOL1         0.0752
      22    C8      20.399199   18.755882   20.087182 C.3        1 MOL1        -0.2849
      23    H13     20.158157   19.646586   19.492644 H          1 MOL1         0.0764
      24    H14     21.014957   18.091352   19.467536 H          1 MOL1         0.0764
      25    H15     19.463864   18.228533   20.312875 H          1 MOL1         0.0764
@<TRIPOS>BOND
    1     1     2    1
    2     1     3    2
    3     1     4    1
    4     4     5    1
    5     4     6    1
    6     4     7    1
    7     7     8    1
    8     7     9    1
    9     7    10    1
   10    10    11    1
   11    10    12    1
   12    10    13    1
   13    13    14    1
   14    13    15    1
   15    13    16    1
   16    16    17    1
   17    16    18    1
   18    16    19    1
   19    19    20    1
   20    19    21    1
   21    19    22    1
   22    22    23    1
   23    22    24    1
   24    22    25    1
@<TRIPOS>SUBSTRUCTURE
       1 MOL1            1 RESIDUE      1      MOL     
@<SCITEGIC>MOL_PROPERTY
VM2 Rank
SciTegic.value.IntegerValue
82

@<SCITEGIC>MOL_PROPERTY
Conf_Id
SciTegic.value.IntegerValue
788

@<SCITEGIC>MOL_PROPERTY
Probability
SciTegic.value.DoubleValue
0.04

@<SCITEGIC>MOL_PROPERTY
Sum Probability
SciTegic.value.DoubleValue
99.11

@<SCITEGIC>MOL_PROPERTY
Delta G
SciTegic.value.DoubleValue
3.736

@<SCITEGIC>MOL_PROPERTY
G
SciTegic.value.DoubleValue
-4.226

@<SCITEGIC>MOL_PROPERTY
E
SciTegic.value.DoubleValue
-29.676

@<SCITEGIC>MOL_PROPERTY
-TS
SciTegic.value.DoubleValue
25.450

@<SCITEGIC>MOL_PROPERTY
U+W
SciTegic.value.DoubleValue
-50.244

@<SCITEGIC>MOL_PROPERTY
U
SciTegic.value.DoubleValue
9.324

@<SCITEGIC>MOL_PROPERTY
W
SciTegic.value.DoubleValue
-59.568

@<SCITEGIC>MOL_PROPERTY
W(PB)
SciTegic.value.DoubleValue
-61.965

@<SCITEGIC>MOL_PROPERTY
W(SA)
SciTegic.value.DoubleValue
2.397

@<SCITEGIC>MOL_PROPERTY
Valence
SciTegic.value.DoubleValue
9.360

@<SCITEGIC>MOL_PROPERTY
Coulomb
SciTegic.value.DoubleValue
-0.854

@<SCITEGIC>MOL_PROPERTY
VdW
SciTegic.value.DoubleValue
0.818

@<SCITEGIC>MOL_PROPERTY
VdW6
SciTegic.value.DoubleValue
-11.207

@<SCITEGIC>MOL_PROPERTY
VdW12
SciTegic.value.DoubleValue
12.025

@<SCITEGIC>MOL_PROPERTY
Bond
SciTegic.value.DoubleValue
0.279

@<SCITEGIC>MOL_PROPERTY
Angle
SciTegic.value.DoubleValue
3.545

@<SCITEGIC>MOL_PROPERTY
Pdih
SciTegic.value.DoubleValue
5.535

@<SCITEGIC>MOL_PROPERTY
Idih
SciTegic.value.DoubleValue
0.001

@<SCITEGIC>MOL_PROPERTY
Tether
SciTegic.value.DoubleValue
0.000

@<TRIPOS>MOLECULE
guest-8_vm2.mol2 : vm2 ligand conformer 83
          25          24           1
SMALL
USER_CHARGES
 
@<TRIPOS>ATOM
       1    C1      19.754297   18.823735   27.017392 C.2        1 MOL1         0.6168
       2    O1      20.505505   18.271785   27.797007 O.co2      1 MOL1        -0.6703
       3    O2      18.663401   19.259734   27.328193 O.co2      1 MOL1        -0.6703
       4    C2      20.216127   18.999686   25.575323 C.3        1 MOL1        -0.1963
       5    H1      19.329630   18.938517   24.934160 H          1 MOL1         0.0750
       6    H2      20.867820   18.155481   25.320672 H          1 MOL1         0.0750
       7    C3      20.958288   20.339879   25.342333 C.3        1 MOL1        -0.1860
       8    H3      20.265641   21.172886   25.525658 H          1 MOL1         0.0752
       9    H4      21.757345   20.434476   26.090661 H          1 MOL1         0.0752
      10    C4      21.585262   20.486439   23.932979 C.3        1 MOL1        -0.1858
      11    H5      22.352903   19.715665   23.779343 H          1 MOL1         0.0752
      12    H6      22.117750   21.447008   23.906264 H          1 MOL1         0.0752
      13    C5      20.564238   20.467993   22.767234 C.3        1 MOL1        -0.1858
      14    H7      19.590217   20.840216   23.113169 H          1 MOL1         0.0752
      15    H8      20.904051   21.172518   21.995778 H          1 MOL1         0.0752
      16    C6      20.407697   19.075572   22.111330 C.3        1 MOL1        -0.1858
      17    H9      20.103563   18.332589   22.857882 H          1 MOL1         0.0752
      18    H10     21.379603   18.746947   21.718619 H          1 MOL1         0.0752
      19    C7      19.374153   19.098007   20.965672 C.3        1 MOL1        -0.1834
      20    H11     18.399488   19.425534   21.353225 H          1 MOL1         0.0752
      21    H12     19.678505   19.831158   20.205888 H          1 MOL1         0.0752
      22    C8      19.224032   17.711170   20.308539 C.3        1 MOL1        -0.2849
      23    H13     18.888943   16.964160   21.040024 H          1 MOL1         0.0764
      24    H14     18.485796   17.745527   19.496828 H          1 MOL1         0.0764
      25    H15     20.178323   17.371993   19.884695 H          1 MOL1         0.0764
@<TRIPOS>BOND
    1     1     2    1
    2     1     3    2
    3     1     4    1
    4     4     5    1
    5     4     6    1
    6     4     7    1
    7     7     8    1
    8     7     9    1
    9     7    10    1
   10    10    11    1
   11    10    12    1
   12    10    13    1
   13    13    14    1
   14    13    15    1
   15    13    16    1
   16    16    17    1
   17    16    18    1
   18    16    19    1
   19    19    20    1
   20    19    21    1
   21    19    22    1
   22    22    23    1
   23    22    24    1
   24    22    25    1
@<TRIPOS>SUBSTRUCTURE
       1 MOL1            1 RESIDUE      1      MOL     
@<SCITEGIC>MOL_PROPERTY
VM2 Rank
SciTegic.value.IntegerValue
83

@<SCITEGIC>MOL_PROPERTY
Conf_Id
SciTegic.value.IntegerValue
614

@<SCITEGIC>MOL_PROPERTY
Probability
SciTegic.value.DoubleValue
0.04

@<SCITEGIC>MOL_PROPERTY
Sum Probability
SciTegic.value.DoubleValue
99.15

@<SCITEGIC>MOL_PROPERTY
Delta G
SciTegic.value.DoubleValue
3.762

@<SCITEGIC>MOL_PROPERTY
G
SciTegic.value.DoubleValue
-4.200

@<SCITEGIC>MOL_PROPERTY
E
SciTegic.value.DoubleValue
-28.981

@<SCITEGIC>MOL_PROPERTY
-TS
SciTegic.value.DoubleValue
24.781

@<SCITEGIC>MOL_PROPERTY
U+W
SciTegic.value.DoubleValue
-49.549

@<SCITEGIC>MOL_PROPERTY
U
SciTegic.value.DoubleValue
10.016

@<SCITEGIC>MOL_PROPERTY
W
SciTegic.value.DoubleValue
-59.565

@<SCITEGIC>MOL_PROPERTY
W(PB)
SciTegic.value.DoubleValue
-62.019

@<SCITEGIC>MOL_PROPERTY
W(SA)
SciTegic.value.DoubleValue
2.454

@<SCITEGIC>MOL_PROPERTY
Valence
SciTegic.value.DoubleValue
10.523

@<SCITEGIC>MOL_PROPERTY
Coulomb
SciTegic.value.DoubleValue
-1.441

@<SCITEGIC>MOL_PROPERTY
VdW
SciTegic.value.DoubleValue
0.934

@<SCITEGIC>MOL_PROPERTY
VdW6
SciTegic.value.DoubleValue
-9.398

@<SCITEGIC>MOL_PROPERTY
VdW12
SciTegic.value.DoubleValue
10.333

@<SCITEGIC>MOL_PROPERTY
Bond
SciTegic.value.DoubleValue
0.199

@<SCITEGIC>MOL_PROPERTY
Angle
SciTegic.value.DoubleValue
2.988

@<SCITEGIC>MOL_PROPERTY
Pdih
SciTegic.value.DoubleValue
7.334

@<SCITEGIC>MOL_PROPERTY
Idih
SciTegic.value.DoubleValue
0.001

@<SCITEGIC>MOL_PROPERTY
Tether
SciTegic.value.DoubleValue
0.000

@<TRIPOS>MOLECULE
guest-8_vm2.mol2 : vm2 ligand conformer 84
          25          24           1
SMALL
USER_CHARGES
 
@<TRIPOS>ATOM
       1    C1      20.369870   19.516957   27.135433 C.2        1 MOL1         0.6168
       2    O1      21.372147   20.203707   27.159691 O.co2      1 MOL1        -0.6703
       3    O2      19.559304   19.477155   28.040034 O.co2      1 MOL1        -0.6703
       4    C2      20.104145   18.673786   25.893559 C.3        1 MOL1        -0.1963
       5    H1      19.574989   17.765353   26.204856 H          1 MOL1         0.0750
       6    H2      21.073533   18.363461   25.487483 H          1 MOL1         0.0750
       7    C3      19.281207   19.430993   24.819436 C.3        1 MOL1        -0.1860
       8    H3      18.353999   19.799094   25.279726 H          1 MOL1         0.0752
       9    H4      19.833905   20.322490   24.494626 H          1 MOL1         0.0752
      10    C4      18.911524   18.557292   23.594435 C.3        1 MOL1        -0.1858
      11    H5      18.284243   19.147271   22.913309 H          1 MOL1         0.0752
      12    H6      18.281540   17.722779   23.930816 H          1 MOL1         0.0752
      13    C5      20.118024   17.981339   22.807414 C.3        1 MOL1        -0.1858
      14    H7      20.656937   17.266566   23.442713 H          1 MOL1         0.0752
      15    H8      19.738641   17.390131   21.963833 H          1 MOL1         0.0752
      16    C6      21.125302   19.036543   22.279201 C.3        1 MOL1        -0.1858
      17    H9      21.927188   18.515892   21.738589 H          1 MOL1         0.0752
      18    H10     21.612856   19.530045   23.130293 H          1 MOL1         0.0752
      19    C7      20.518848   20.118265   21.351660 C.3        1 MOL1        -0.1834
      20    H11     19.768099   20.705676   21.896581 H          1 MOL1         0.0752
      21    H12     21.312621   20.824098   21.071305 H          1 MOL1         0.0752
      22    C8      19.892631   19.537962   20.065136 C.3        1 MOL1        -0.2849
      23    H13     20.621475   18.930725   19.512888 H          1 MOL1         0.0764
      24    H14     19.022911   18.909324   20.293808 H          1 MOL1         0.0764
      25    H15     19.554658   20.346178   19.403864 H          1 MOL1         0.0764
@<TRIPOS>BOND
    1     1     2    1
    2     1     3    2
    3     1     4    1
    4     4     5    1
    5     4     6    1
    6     4     7    1
    7     7     8    1
    8     7     9    1
    9     7    10    1
   10    10    11    1
   11    10    12    1
   12    10    13    1
   13    13    14    1
   14    13    15    1
   15    13    16    1
   16    16    17    1
   17    16    18    1
   18    16    19    1
   19    19    20    1
   20    19    21    1
   21    19    22    1
   22    22    23    1
   23    22    24    1
   24    22    25    1
@<TRIPOS>SUBSTRUCTURE
       1 MOL1            1 RESIDUE      1      MOL     
@<SCITEGIC>MOL_PROPERTY
VM2 Rank
SciTegic.value.IntegerValue
84

@<SCITEGIC>MOL_PROPERTY
Conf_Id
SciTegic.value.IntegerValue
156

@<SCITEGIC>MOL_PROPERTY
Probability
SciTegic.value.DoubleValue
0.04

@<SCITEGIC>MOL_PROPERTY
Sum Probability
SciTegic.value.DoubleValue
99.19

@<SCITEGIC>MOL_PROPERTY
Delta G
SciTegic.value.DoubleValue
3.780

@<SCITEGIC>MOL_PROPERTY
G
SciTegic.value.DoubleValue
-4.183

@<SCITEGIC>MOL_PROPERTY
E
SciTegic.value.DoubleValue
-29.633

@<SCITEGIC>MOL_PROPERTY
-TS
SciTegic.value.DoubleValue
25.450

@<SCITEGIC>MOL_PROPERTY
U+W
SciTegic.value.DoubleValue
-50.201

@<SCITEGIC>MOL_PROPERTY
U
SciTegic.value.DoubleValue
9.324

@<SCITEGIC>MOL_PROPERTY
W
SciTegic.value.DoubleValue
-59.524

@<SCITEGIC>MOL_PROPERTY
W(PB)
SciTegic.value.DoubleValue
-61.905

@<SCITEGIC>MOL_PROPERTY
W(SA)
SciTegic.value.DoubleValue
2.381

@<SCITEGIC>MOL_PROPERTY
Valence
SciTegic.value.DoubleValue
9.360

@<SCITEGIC>MOL_PROPERTY
Coulomb
SciTegic.value.DoubleValue
-0.855

@<SCITEGIC>MOL_PROPERTY
VdW
SciTegic.value.DoubleValue
0.818

@<SCITEGIC>MOL_PROPERTY
VdW6
SciTegic.value.DoubleValue
-11.207

@<SCITEGIC>MOL_PROPERTY
VdW12
SciTegic.value.DoubleValue
12.025

@<SCITEGIC>MOL_PROPERTY
Bond
SciTegic.value.DoubleValue
0.279

@<SCITEGIC>MOL_PROPERTY
Angle
SciTegic.value.DoubleValue
3.545

@<SCITEGIC>MOL_PROPERTY
Pdih
SciTegic.value.DoubleValue
5.535

@<SCITEGIC>MOL_PROPERTY
Idih
SciTegic.value.DoubleValue
0.001

@<SCITEGIC>MOL_PROPERTY
Tether
SciTegic.value.DoubleValue
0.000

@<TRIPOS>MOLECULE
guest-8_vm2.mol2 : vm2 ligand conformer 85
          25          24           1
SMALL
USER_CHARGES
 
@<TRIPOS>ATOM
       1    C1      19.551417   19.158697   26.967048 C.2        1 MOL1         0.6168
       2    O1      20.043531   19.019510   28.069447 O.co2      1 MOL1        -0.6703
       3    O2      18.465435   19.668538   26.773965 O.co2      1 MOL1        -0.6703
       4    C2      20.350588   18.686825   25.757801 C.3        1 MOL1        -0.1963
       5    H1      19.639672   18.347559   24.998035 H          1 MOL1         0.0750
       6    H2      20.936099   17.810595   26.060593 H          1 MOL1         0.0750
       7    C3      21.290701   19.785319   25.194499 C.3        1 MOL1        -0.1860
       8    H3      20.714746   20.689323   24.952728 H          1 MOL1         0.0752
       9    H4      21.989800   20.073072   25.991933 H          1 MOL1         0.0752
      10    C4      22.107766   19.323594   23.961102 C.3        1 MOL1        -0.1858
      11    H5      22.282937   18.239912   24.004236 H          1 MOL1         0.0752
      12    H6      23.101600   19.788627   24.015772 H          1 MOL1         0.0752
      13    C5      21.488551   19.708120   22.593849 C.3        1 MOL1        -0.1858
      14    H7      21.411201   20.801685   22.523199 H          1 MOL1         0.0752
      15    H8      22.183616   19.397008   21.802051 H          1 MOL1         0.0752
      16    C6      20.104167   19.078254   22.322090 C.3        1 MOL1        -0.1858
      17    H9      19.370055   19.481005   23.032024 H          1 MOL1         0.0752
      18    H10     20.154613   17.992998   22.484235 H          1 MOL1         0.0752
      19    C7      19.618763   19.362863   20.885082 C.3        1 MOL1        -0.1834
      20    H11     19.571051   20.447986   20.718735 H          1 MOL1         0.0752
      21    H12     20.341955   18.960267   20.162384 H          1 MOL1         0.0752
      22    C8      18.232080   18.742281   20.621118 C.3        1 MOL1        -0.2849
      23    H13     17.481378   19.150990   21.310193 H          1 MOL1         0.0764
      24    H14     17.902079   18.954129   19.595813 H          1 MOL1         0.0764
      25    H15     18.258623   17.652362   20.750434 H          1 MOL1         0.0764
@<TRIPOS>BOND
    1     1     2    1
    2     1     3    2
    3     1     4    1
    4     4     5    1
    5     4     6    1
    6     4     7    1
    7     7     8    1
    8     7     9    1
    9     7    10    1
   10    10    11    1
   11    10    12    1
   12    10    13    1
   13    13    14    1
   14    13    15    1
   15    13    16    1
   16    16    17    1
   17    16    18    1
   18    16    19    1
   19    19    20    1
   20    19    21    1
   21    19    22    1
   22    22    23    1
   23    22    24    1
   24    22    25    1
@<TRIPOS>SUBSTRUCTURE
       1 MOL1            1 RESIDUE      1      MOL     
@<SCITEGIC>MOL_PROPERTY
VM2 Rank
SciTegic.value.IntegerValue
85

@<SCITEGIC>MOL_PROPERTY
Conf_Id
SciTegic.value.IntegerValue
1241

@<SCITEGIC>MOL_PROPERTY
Probability
SciTegic.value.DoubleValue
0.04

@<SCITEGIC>MOL_PROPERTY
Sum Probability
SciTegic.value.DoubleValue
99.23

@<SCITEGIC>MOL_PROPERTY
Delta G
SciTegic.value.DoubleValue
3.841

@<SCITEGIC>MOL_PROPERTY
G
SciTegic.value.DoubleValue
-4.121

@<SCITEGIC>MOL_PROPERTY
E
SciTegic.value.DoubleValue
-28.910

@<SCITEGIC>MOL_PROPERTY
-TS
SciTegic.value.DoubleValue
24.789

@<SCITEGIC>MOL_PROPERTY
U+W
SciTegic.value.DoubleValue
-49.478

@<SCITEGIC>MOL_PROPERTY
U
SciTegic.value.DoubleValue
10.344

@<SCITEGIC>MOL_PROPERTY
W
SciTegic.value.DoubleValue
-59.822

@<SCITEGIC>MOL_PROPERTY
W(PB)
SciTegic.value.DoubleValue
-62.262

@<SCITEGIC>MOL_PROPERTY
W(SA)
SciTegic.value.DoubleValue
2.440

@<SCITEGIC>MOL_PROPERTY
Valence
SciTegic.value.DoubleValue
10.527

@<SCITEGIC>MOL_PROPERTY
Coulomb
SciTegic.value.DoubleValue
-1.067

@<SCITEGIC>MOL_PROPERTY
VdW
SciTegic.value.DoubleValue
0.884

@<SCITEGIC>MOL_PROPERTY
VdW6
SciTegic.value.DoubleValue
-9.456

@<SCITEGIC>MOL_PROPERTY
VdW12
SciTegic.value.DoubleValue
10.339

@<SCITEGIC>MOL_PROPERTY
Bond
SciTegic.value.DoubleValue
0.207

@<SCITEGIC>MOL_PROPERTY
Angle
SciTegic.value.DoubleValue
3.009

@<SCITEGIC>MOL_PROPERTY
Pdih
SciTegic.value.DoubleValue
7.310

@<SCITEGIC>MOL_PROPERTY
Idih
SciTegic.value.DoubleValue
0.001

@<SCITEGIC>MOL_PROPERTY
Tether
SciTegic.value.DoubleValue
0.000

@<TRIPOS>MOLECULE
guest-8_vm2.mol2 : vm2 ligand conformer 86
          25          24           1
SMALL
USER_CHARGES
 
@<TRIPOS>ATOM
       1    C1      20.767490   19.236549   26.952933 C.2        1 MOL1         0.6168
       2    O1      21.775169   19.879889   26.735505 O.co2      1 MOL1        -0.6703
       3    O2      20.322485   19.037946   28.066197 O.co2      1 MOL1        -0.6703
       4    C2      20.007211   18.664794   25.761845 C.3        1 MOL1        -0.1963
       5    H1      19.545184   17.721638   26.076918 H          1 MOL1         0.0750
       6    H2      20.737807   18.417572   24.985405 H          1 MOL1         0.0750
       7    C3      18.922125   19.633727   25.221873 C.3        1 MOL1        -0.1860
       8    H3      18.210583   19.831296   26.035579 H          1 MOL1         0.0752
       9    H4      19.372519   20.603366   24.968207 H          1 MOL1         0.0752
      10    C4      18.142399   19.069810   24.006934 C.3        1 MOL1        -0.1858
      11    H5      17.098934   19.404501   24.085124 H          1 MOL1         0.0752
      12    H6      18.107777   17.972707   24.052513 H          1 MOL1         0.0752
      13    C5      18.675955   19.528063   22.626359 C.3        1 MOL1        -0.1858
      14    H7      18.008188   19.129724   21.850303 H          1 MOL1         0.0752
      15    H8      18.611664   20.622462   22.555532 H          1 MOL1         0.0752
      16    C6      20.122705   19.079368   22.321920 C.3        1 MOL1        -0.1858
      17    H9      20.214718   17.996763   22.483534 H          1 MOL1         0.0752
      18    H10     20.815625   19.573402   23.015410 H          1 MOL1         0.0752
      19    C7      20.534709   19.421482   20.874571 C.3        1 MOL1        -0.1834
      20    H11     19.852322   18.928947   20.168074 H          1 MOL1         0.0752
      21    H12     20.439858   20.503595   20.708813 H          1 MOL1         0.0752
      22    C8      21.982753   18.982373   20.577864 C.3        1 MOL1        -0.2849
      23    H13     22.690869   19.484456   21.250102 H          1 MOL1         0.0764
      24    H14     22.098367   17.898154   20.706132 H          1 MOL1         0.0764
      25    H15     22.259378   19.233079   19.545558 H          1 MOL1         0.0764
@<TRIPOS>BOND
    1     1     2    1
    2     1     3    2
    3     1     4    1
    4     4     5    1
    5     4     6    1
    6     4     7    1
    7     7     8    1
    8     7     9    1
    9     7    10    1
   10    10    11    1
   11    10    12    1
   12    10    13    1
   13    13    14    1
   14    13    15    1
   15    13    16    1
   16    16    17    1
   17    16    18    1
   18    16    19    1
   19    19    20    1
   20    19    21    1
   21    19    22    1
   22    22    23    1
   23    22    24    1
   24    22    25    1
@<TRIPOS>SUBSTRUCTURE
       1 MOL1            1 RESIDUE      1      MOL     
@<SCITEGIC>MOL_PROPERTY
VM2 Rank
SciTegic.value.IntegerValue
86

@<SCITEGIC>MOL_PROPERTY
Conf_Id
SciTegic.value.IntegerValue
834

@<SCITEGIC>MOL_PROPERTY
Probability
SciTegic.value.DoubleValue
0.04

@<SCITEGIC>MOL_PROPERTY
Sum Probability
SciTegic.value.DoubleValue
99.26

@<SCITEGIC>MOL_PROPERTY
Delta G
SciTegic.value.DoubleValue
3.863

@<SCITEGIC>MOL_PROPERTY
G
SciTegic.value.DoubleValue
-4.099

@<SCITEGIC>MOL_PROPERTY
E
SciTegic.value.DoubleValue
-28.888

@<SCITEGIC>MOL_PROPERTY
-TS
SciTegic.value.DoubleValue
24.789

@<SCITEGIC>MOL_PROPERTY
U+W
SciTegic.value.DoubleValue
-49.455

@<SCITEGIC>MOL_PROPERTY
U
SciTegic.value.DoubleValue
10.344

@<SCITEGIC>MOL_PROPERTY
W
SciTegic.value.DoubleValue
-59.800

@<SCITEGIC>MOL_PROPERTY
W(PB)
SciTegic.value.DoubleValue
-62.239

@<SCITEGIC>MOL_PROPERTY
W(SA)
SciTegic.value.DoubleValue
2.440

@<SCITEGIC>MOL_PROPERTY
Valence
SciTegic.value.DoubleValue
10.527

@<SCITEGIC>MOL_PROPERTY
Coulomb
SciTegic.value.DoubleValue
-1.066

@<SCITEGIC>MOL_PROPERTY
VdW
SciTegic.value.DoubleValue
0.884

@<SCITEGIC>MOL_PROPERTY
VdW6
SciTegic.value.DoubleValue
-9.456

@<SCITEGIC>MOL_PROPERTY
VdW12
SciTegic.value.DoubleValue
10.339

@<SCITEGIC>MOL_PROPERTY
Bond
SciTegic.value.DoubleValue
0.207

@<SCITEGIC>MOL_PROPERTY
Angle
SciTegic.value.DoubleValue
3.009

@<SCITEGIC>MOL_PROPERTY
Pdih
SciTegic.value.DoubleValue
7.310

@<SCITEGIC>MOL_PROPERTY
Idih
SciTegic.value.DoubleValue
0.001

@<SCITEGIC>MOL_PROPERTY
Tether
SciTegic.value.DoubleValue
0.000

@<TRIPOS>MOLECULE
guest-8_vm2.mol2 : vm2 ligand conformer 87
          25          24           1
SMALL
USER_CHARGES
 
@<TRIPOS>ATOM
       1    C1      20.348093   19.822041   27.087713 C.2        1 MOL1         0.6168
       2    O1      21.474247   20.266006   27.194089 O.co2      1 MOL1        -0.6703
       3    O2      19.369524   20.341350   27.587131 O.co2      1 MOL1        -0.6703
       4    C2      20.149242   18.552795   26.266925 C.3        1 MOL1        -0.1963
       5    H1      19.319905   17.988032   26.709345 H          1 MOL1         0.0750
       6    H2      21.051232   17.937181   26.366994 H          1 MOL1         0.0750
       7    C3      19.863307   18.842429   24.772808 C.3        1 MOL1        -0.1860
       8    H3      18.961630   19.464665   24.689331 H          1 MOL1         0.0752
       9    H4      20.698754   19.423208   24.360245 H          1 MOL1         0.0752
      10    C4      19.678096   17.541233   23.960581 C.3        1 MOL1        -0.1858
      11    H5      18.924274   16.914855   24.456872 H          1 MOL1         0.0752
      12    H6      20.614076   16.966185   23.974356 H          1 MOL1         0.0752
      13    C5      19.233580   17.764763   22.493289 C.3        1 MOL1        -0.1858
      14    H7      19.085763   16.775575   22.038850 H          1 MOL1         0.0752
      15    H8      18.250403   18.254223   22.467600 H          1 MOL1         0.0752
      16    C6      20.247500   18.548825   21.621734 C.3        1 MOL1        -0.1858
      17    H9      20.235783   18.125423   20.608062 H          1 MOL1         0.0752
      18    H10     21.267043   18.400284   22.002978 H          1 MOL1         0.0752
      19    C7      19.926497   20.057739   21.515966 C.3        1 MOL1        -0.1834
      20    H11     18.926600   20.190999   21.080527 H          1 MOL1         0.0752
      21    H12     19.898695   20.517191   22.511363 H          1 MOL1         0.0752
      22    C8      20.962914   20.796820   20.645764 C.3        1 MOL1        -0.2849
      23    H13     21.969571   20.708363   21.074909 H          1 MOL1         0.0764
      24    H14     20.986486   20.385923   19.627968 H          1 MOL1         0.0764
      25    H15     20.717494   21.864406   20.574757 H          1 MOL1         0.0764
@<TRIPOS>BOND
    1     1     2    1
    2     1     3    2
    3     1     4    1
    4     4     5    1
    5     4     6    1
    6     4     7    1
    7     7     8    1
    8     7     9    1
    9     7    10    1
   10    10    11    1
   11    10    12    1
   12    10    13    1
   13    13    14    1
   14    13    15    1
   15    13    16    1
   16    16    17    1
   17    16    18    1
   18    16    19    1
   19    19    20    1
   20    19    21    1
   21    19    22    1
   22    22    23    1
   23    22    24    1
   24    22    25    1
@<TRIPOS>SUBSTRUCTURE
       1 MOL1            1 RESIDUE      1      MOL     
@<SCITEGIC>MOL_PROPERTY
VM2 Rank
SciTegic.value.IntegerValue
87

@<SCITEGIC>MOL_PROPERTY
Conf_Id
SciTegic.value.IntegerValue
112

@<SCITEGIC>MOL_PROPERTY
Probability
SciTegic.value.DoubleValue
0.04

@<SCITEGIC>MOL_PROPERTY
Sum Probability
SciTegic.value.DoubleValue
99.30

@<SCITEGIC>MOL_PROPERTY
Delta G
SciTegic.value.DoubleValue
3.864

@<SCITEGIC>MOL_PROPERTY
G
SciTegic.value.DoubleValue
-4.098

@<SCITEGIC>MOL_PROPERTY
E
SciTegic.value.DoubleValue
-28.880

@<SCITEGIC>MOL_PROPERTY
-TS
SciTegic.value.DoubleValue
24.782

@<SCITEGIC>MOL_PROPERTY
U+W
SciTegic.value.DoubleValue
-49.447

@<SCITEGIC>MOL_PROPERTY
U
SciTegic.value.DoubleValue
10.480

@<SCITEGIC>MOL_PROPERTY
W
SciTegic.value.DoubleValue
-59.927

@<SCITEGIC>MOL_PROPERTY
W(PB)
SciTegic.value.DoubleValue
-62.373

@<SCITEGIC>MOL_PROPERTY
W(SA)
SciTegic.value.DoubleValue
2.445

@<SCITEGIC>MOL_PROPERTY
Valence
SciTegic.value.DoubleValue
10.552

@<SCITEGIC>MOL_PROPERTY
Coulomb
SciTegic.value.DoubleValue
-0.995

@<SCITEGIC>MOL_PROPERTY
VdW
SciTegic.value.DoubleValue
0.923

@<SCITEGIC>MOL_PROPERTY
VdW6
SciTegic.value.DoubleValue
-9.371

@<SCITEGIC>MOL_PROPERTY
VdW12
SciTegic.value.DoubleValue
10.294

@<SCITEGIC>MOL_PROPERTY
Bond
SciTegic.value.DoubleValue
0.194

@<SCITEGIC>MOL_PROPERTY
Angle
SciTegic.value.DoubleValue
2.991

@<SCITEGIC>MOL_PROPERTY
Pdih
SciTegic.value.DoubleValue
7.366

@<SCITEGIC>MOL_PROPERTY
Idih
SciTegic.value.DoubleValue
0.001

@<SCITEGIC>MOL_PROPERTY
Tether
SciTegic.value.DoubleValue
0.000

@<TRIPOS>MOLECULE
guest-8_vm2.mol2 : vm2 ligand conformer 88
          25          24           1
SMALL
USER_CHARGES
 
@<TRIPOS>ATOM
       1    C1      19.742517   19.604664   27.188318 C.2        1 MOL1         0.6168
       2    O1      20.588423   19.958996   27.985562 O.co2      1 MOL1        -0.6703
       3    O2      18.615353   20.057551   27.156525 O.co2      1 MOL1        -0.6703
       4    C2      20.122950   18.547696   26.157670 C.3        1 MOL1        -0.1963
       5    H1      19.227275   17.958089   25.928098 H          1 MOL1         0.0750
       6    H2      20.849635   17.868089   26.618729 H          1 MOL1         0.0750
       7    C3      20.708019   19.156825   24.859810 C.3        1 MOL1        -0.1860
       8    H3      19.976424   19.851035   24.429037 H          1 MOL1         0.0752
       9    H4      21.596479   19.752953   25.109922 H          1 MOL1         0.0752
      10    C4      21.090423   18.063239   23.834445 C.3        1 MOL1        -0.1858
      11    H5      20.225906   17.420305   23.619487 H          1 MOL1         0.0752
      12    H6      21.848109   17.413623   24.293720 H          1 MOL1         0.0752
      13    C5      21.668257   18.635405   22.515163 C.3        1 MOL1        -0.1858
      14    H7      22.160433   19.599824   22.700997 H          1 MOL1         0.0752
      15    H8      22.460750   17.958685   22.167512 H          1 MOL1         0.0752
      16    C6      20.639248   18.776448   21.365250 C.3        1 MOL1        -0.1858
      17    H9      20.223624   17.788496   21.124339 H          1 MOL1         0.0752
      18    H10     21.172417   19.113463   20.465807 H          1 MOL1         0.0752
      19    C7      19.485461   19.759292   21.660980 C.3        1 MOL1        -0.1834
      20    H11     18.867191   19.372020   22.481428 H          1 MOL1         0.0752
      21    H12     19.894308   20.724913   21.988810 H          1 MOL1         0.0752
      22    C8      18.592348   19.973885   20.422276 C.3        1 MOL1        -0.2849
      23    H13     18.150292   19.026052   20.088312 H          1 MOL1         0.0764
      24    H14     17.773222   20.667657   20.651910 H          1 MOL1         0.0764
      25    H15     19.169755   20.395633   19.589195 H          1 MOL1         0.0764
@<TRIPOS>BOND
    1     1     2    1
    2     1     3    2
    3     1     4    1
    4     4     5    1
    5     4     6    1
    6     4     7    1
    7     7     8    1
    8     7     9    1
    9     7    10    1
   10    10    11    1
   11    10    12    1
   12    10    13    1
   13    13    14    1
   14    13    15    1
   15    13    16    1
   16    16    17    1
   17    16    18    1
   18    16    19    1
   19    19    20    1
   20    19    21    1
   21    19    22    1
   22    22    23    1
   23    22    24    1
   24    22    25    1
@<TRIPOS>SUBSTRUCTURE
       1 MOL1            1 RESIDUE      1      MOL     
@<SCITEGIC>MOL_PROPERTY
VM2 Rank
SciTegic.value.IntegerValue
88

@<SCITEGIC>MOL_PROPERTY
Conf_Id
SciTegic.value.IntegerValue
716

@<SCITEGIC>MOL_PROPERTY
Probability
SciTegic.value.DoubleValue
0.03

@<SCITEGIC>MOL_PROPERTY
Sum Probability
SciTegic.value.DoubleValue
99.33

@<SCITEGIC>MOL_PROPERTY
Delta G
SciTegic.value.DoubleValue
3.906

@<SCITEGIC>MOL_PROPERTY
G
SciTegic.value.DoubleValue
-4.056

@<SCITEGIC>MOL_PROPERTY
E
SciTegic.value.DoubleValue
-28.831

@<SCITEGIC>MOL_PROPERTY
-TS
SciTegic.value.DoubleValue
24.775

@<SCITEGIC>MOL_PROPERTY
U+W
SciTegic.value.DoubleValue
-49.398

@<SCITEGIC>MOL_PROPERTY
U
SciTegic.value.DoubleValue
10.175

@<SCITEGIC>MOL_PROPERTY
W
SciTegic.value.DoubleValue
-59.573

@<SCITEGIC>MOL_PROPERTY
W(PB)
SciTegic.value.DoubleValue
-62.030

@<SCITEGIC>MOL_PROPERTY
W(SA)
SciTegic.value.DoubleValue
2.457

@<SCITEGIC>MOL_PROPERTY
Valence
SciTegic.value.DoubleValue
10.554

@<SCITEGIC>MOL_PROPERTY
Coulomb
SciTegic.value.DoubleValue
-1.316

@<SCITEGIC>MOL_PROPERTY
VdW
SciTegic.value.DoubleValue
0.936

@<SCITEGIC>MOL_PROPERTY
VdW6
SciTegic.value.DoubleValue
-9.356

@<SCITEGIC>MOL_PROPERTY
VdW12
SciTegic.value.DoubleValue
10.292

@<SCITEGIC>MOL_PROPERTY
Bond
SciTegic.value.DoubleValue
0.194

@<SCITEGIC>MOL_PROPERTY
Angle
SciTegic.value.DoubleValue
2.996

@<SCITEGIC>MOL_PROPERTY
Pdih
SciTegic.value.DoubleValue
7.363

@<SCITEGIC>MOL_PROPERTY
Idih
SciTegic.value.DoubleValue
0.001

@<SCITEGIC>MOL_PROPERTY
Tether
SciTegic.value.DoubleValue
0.000

@<TRIPOS>MOLECULE
guest-8_vm2.mol2 : vm2 ligand conformer 89
          25          24           1
SMALL
USER_CHARGES
 
@<TRIPOS>ATOM
       1    C1      19.896405   19.194368   27.509694 C.2        1 MOL1         0.6168
       2    O1      20.861314   19.384401   28.223492 O.co2      1 MOL1        -0.6703
       3    O2      18.759561   19.489174   27.821666 O.co2      1 MOL1        -0.6703
       4    C2      20.127653   18.570949   26.137851 C.3        1 MOL1        -0.1963
       5    H1      19.246078   17.970242   25.883725 H          1 MOL1         0.0750
       6    H2      20.977820   17.882636   26.215319 H          1 MOL1         0.0750
       7    C3      20.392066   19.625235   25.034832 C.3        1 MOL1        -0.1860
       8    H3      19.537556   20.313881   24.979039 H          1 MOL1         0.0752
       9    H4      21.269369   20.226836   25.310354 H          1 MOL1         0.0752
      10    C4      20.621761   18.969480   23.655926 C.3        1 MOL1        -0.1858
      11    H5      19.747600   18.361939   23.393354 H          1 MOL1         0.0752
      12    H6      21.476452   18.281992   23.716560 H          1 MOL1         0.0752
      13    C5      20.891023   20.026237   22.558884 C.3        1 MOL1        -0.1858
      14    H7      20.070144   20.755264   22.520204 H          1 MOL1         0.0752
      15    H8      21.789422   20.591609   22.841991 H          1 MOL1         0.0752
      16    C6      21.120700   19.409986   21.155347 C.3        1 MOL1        -0.1858
      17    H9      21.549833   18.402853   21.246793 H          1 MOL1         0.0752
      18    H10     21.880503   20.012019   20.638505 H          1 MOL1         0.0752
      19    C7      19.863206   19.372368   20.251907 C.3        1 MOL1        -0.1834
      20    H11     19.492612   20.394623   20.094134 H          1 MOL1         0.0752
      21    H12     20.156344   18.995914   19.262197 H          1 MOL1         0.0752
      22    C8      18.719311   18.491802   20.796401 C.3        1 MOL1        -0.2849
      23    H13     18.285596   18.925022   21.706255 H          1 MOL1         0.0764
      24    H14     17.914366   18.406574   20.055080 H          1 MOL1         0.0764
      25    H15     19.076405   17.479711   21.026877 H          1 MOL1         0.0764
@<TRIPOS>BOND
    1     1     2    1
    2     1     3    2
    3     1     4    1
    4     4     5    1
    5     4     6    1
    6     4     7    1
    7     7     8    1
    8     7     9    1
    9     7    10    1
   10    10    11    1
   11    10    12    1
   12    10    13    1
   13    13    14    1
   14    13    15    1
   15    13    16    1
   16    16    17    1
   17    16    18    1
   18    16    19    1
   19    19    20    1
   20    19    21    1
   21    19    22    1
   22    22    23    1
   23    22    24    1
   24    22    25    1
@<TRIPOS>SUBSTRUCTURE
       1 MOL1            1 RESIDUE      1      MOL     
@<SCITEGIC>MOL_PROPERTY
VM2 Rank
SciTegic.value.IntegerValue
89

@<SCITEGIC>MOL_PROPERTY
Conf_Id
SciTegic.value.IntegerValue
1003

@<SCITEGIC>MOL_PROPERTY
Probability
SciTegic.value.DoubleValue
0.03

@<SCITEGIC>MOL_PROPERTY
Sum Probability
SciTegic.value.DoubleValue
99.36

@<SCITEGIC>MOL_PROPERTY
Delta G
SciTegic.value.DoubleValue
3.933

@<SCITEGIC>MOL_PROPERTY
G
SciTegic.value.DoubleValue
-4.029

@<SCITEGIC>MOL_PROPERTY
E
SciTegic.value.DoubleValue
-28.765

@<SCITEGIC>MOL_PROPERTY
-TS
SciTegic.value.DoubleValue
24.736

@<SCITEGIC>MOL_PROPERTY
U+W
SciTegic.value.DoubleValue
-49.332

@<SCITEGIC>MOL_PROPERTY
U
SciTegic.value.DoubleValue
9.739

@<SCITEGIC>MOL_PROPERTY
W
SciTegic.value.DoubleValue
-59.072

@<SCITEGIC>MOL_PROPERTY
W(PB)
SciTegic.value.DoubleValue
-61.524

@<SCITEGIC>MOL_PROPERTY
W(SA)
SciTegic.value.DoubleValue
2.453

@<SCITEGIC>MOL_PROPERTY
Valence
SciTegic.value.DoubleValue
10.506

@<SCITEGIC>MOL_PROPERTY
Coulomb
SciTegic.value.DoubleValue
-1.761

@<SCITEGIC>MOL_PROPERTY
VdW
SciTegic.value.DoubleValue
0.994

@<SCITEGIC>MOL_PROPERTY
VdW6
SciTegic.value.DoubleValue
-9.209

@<SCITEGIC>MOL_PROPERTY
VdW12
SciTegic.value.DoubleValue
10.203

@<SCITEGIC>MOL_PROPERTY
Bond
SciTegic.value.DoubleValue
0.193

@<SCITEGIC>MOL_PROPERTY
Angle
SciTegic.value.DoubleValue
2.980

@<SCITEGIC>MOL_PROPERTY
Pdih
SciTegic.value.DoubleValue
7.333

@<SCITEGIC>MOL_PROPERTY
Idih
SciTegic.value.DoubleValue
0.001

@<SCITEGIC>MOL_PROPERTY
Tether
SciTegic.value.DoubleValue
0.000

@<TRIPOS>MOLECULE
guest-8_vm2.mol2 : vm2 ligand conformer 90
          25          24           1
SMALL
USER_CHARGES
 
@<TRIPOS>ATOM
       1    C1      20.035985   19.048114   27.508429 C.2        1 MOL1         0.6168
       2    O1      21.080392   19.118380   28.125634 O.co2      1 MOL1        -0.6703
       3    O2      18.954325   19.338463   27.979989 O.co2      1 MOL1        -0.6703
       4    C2      20.088212   18.590781   26.055097 C.3        1 MOL1        -0.1963
       5    H1      19.158293   18.053462   25.833443 H          1 MOL1         0.0750
       6    H2      20.910158   17.872011   25.953366 H          1 MOL1         0.0750
       7    C3      20.277771   19.763565   25.061757 C.3        1 MOL1        -0.1860
       8    H3      19.453973   20.480359   25.184651 H          1 MOL1         0.0752
       9    H4      21.205871   20.298885   25.305786 H          1 MOL1         0.0752
      10    C4      20.327304   19.274027   23.598091 C.3        1 MOL1        -0.1858
      11    H5      19.397658   18.737131   23.369640 H          1 MOL1         0.0752
      12    H6      21.154437   18.561496   23.475970 H          1 MOL1         0.0752
      13    C5      20.504204   20.447016   22.608580 C.3        1 MOL1        -0.1858
      14    H7      19.628478   21.107811   22.665805 H          1 MOL1         0.0752
      15    H8      21.366671   21.050945   22.922027 H          1 MOL1         0.0752
      16    C6      20.725812   20.012272   21.137898 C.3        1 MOL1        -0.1858
      17    H9      21.652026   19.427595   21.053207 H          1 MOL1         0.0752
      18    H10     20.893165   20.922856   20.546544 H          1 MOL1         0.0752
      19    C7      19.542799   19.237757   20.504846 C.3        1 MOL1        -0.1834
      20    H11     18.596612   19.533472   20.978688 H          1 MOL1         0.0752
      21    H12     19.458748   19.527777   19.448377 H          1 MOL1         0.0752
      22    C8      19.716198   17.703625   20.565679 C.3        1 MOL1        -0.2849
      23    H13     19.788720   17.341132   21.597270 H          1 MOL1         0.0764
      24    H14     18.861644   17.201823   20.093732 H          1 MOL1         0.0764
      25    H15     20.624102   17.392199   20.032972 H          1 MOL1         0.0764
@<TRIPOS>BOND
    1     1     2    1
    2     1     3    2
    3     1     4    1
    4     4     5    1
    5     4     6    1
    6     4     7    1
    7     7     8    1
    8     7     9    1
    9     7    10    1
   10    10    11    1
   11    10    12    1
   12    10    13    1
   13    13    14    1
   14    13    15    1
   15    13    16    1
   16    16    17    1
   17    16    18    1
   18    16    19    1
   19    19    20    1
   20    19    21    1
   21    19    22    1
   22    22    23    1
   23    22    24    1
   24    22    25    1
@<TRIPOS>SUBSTRUCTURE
       1 MOL1            1 RESIDUE      1      MOL     
@<SCITEGIC>MOL_PROPERTY
VM2 Rank
SciTegic.value.IntegerValue
90

@<SCITEGIC>MOL_PROPERTY
Conf_Id
SciTegic.value.IntegerValue
1259

@<SCITEGIC>MOL_PROPERTY
Probability
SciTegic.value.DoubleValue
0.03

@<SCITEGIC>MOL_PROPERTY
Sum Probability
SciTegic.value.DoubleValue
99.39

@<SCITEGIC>MOL_PROPERTY
Delta G
SciTegic.value.DoubleValue
3.934

@<SCITEGIC>MOL_PROPERTY
G
SciTegic.value.DoubleValue
-4.029

@<SCITEGIC>MOL_PROPERTY
E
SciTegic.value.DoubleValue
-28.762

@<SCITEGIC>MOL_PROPERTY
-TS
SciTegic.value.DoubleValue
24.733

@<SCITEGIC>MOL_PROPERTY
U+W
SciTegic.value.DoubleValue
-49.329

@<SCITEGIC>MOL_PROPERTY
U
SciTegic.value.DoubleValue
9.707

@<SCITEGIC>MOL_PROPERTY
W
SciTegic.value.DoubleValue
-59.037

@<SCITEGIC>MOL_PROPERTY
W(PB)
SciTegic.value.DoubleValue
-61.493

@<SCITEGIC>MOL_PROPERTY
W(SA)
SciTegic.value.DoubleValue
2.456

@<SCITEGIC>MOL_PROPERTY
Valence
SciTegic.value.DoubleValue
10.529

@<SCITEGIC>MOL_PROPERTY
Coulomb
SciTegic.value.DoubleValue
-1.841

@<SCITEGIC>MOL_PROPERTY
VdW
SciTegic.value.DoubleValue
1.019

@<SCITEGIC>MOL_PROPERTY
VdW6
SciTegic.value.DoubleValue
-9.201

@<SCITEGIC>MOL_PROPERTY
VdW12
SciTegic.value.DoubleValue
10.221

@<SCITEGIC>MOL_PROPERTY
Bond
SciTegic.value.DoubleValue
0.191

@<SCITEGIC>MOL_PROPERTY
Angle
SciTegic.value.DoubleValue
3.009

@<SCITEGIC>MOL_PROPERTY
Pdih
SciTegic.value.DoubleValue
7.328

@<SCITEGIC>MOL_PROPERTY
Idih
SciTegic.value.DoubleValue
0.001

@<SCITEGIC>MOL_PROPERTY
Tether
SciTegic.value.DoubleValue
0.000

@<TRIPOS>MOLECULE
guest-8_vm2.mol2 : vm2 ligand conformer 91
          25          24           1
SMALL
USER_CHARGES
 
@<TRIPOS>ATOM
       1    C1      19.895627   19.793065   27.092838 C.2        1 MOL1         0.6168
       2    O1      20.811158   20.433781   27.570315 O.co2      1 MOL1        -0.6703
       3    O2      18.724771   20.089833   27.225765 O.co2      1 MOL1        -0.6703
       4    C2      20.235888   18.558331   26.265871 C.3        1 MOL1        -0.1963
       5    H1      19.422311   17.832853   26.385683 H          1 MOL1         0.0750
       6    H2      21.140398   18.104611   26.688351 H          1 MOL1         0.0750
       7    C3      20.448237   18.879854   24.766017 C.3        1 MOL1        -0.1860
       8    H3      19.536329   19.348793   24.373582 H          1 MOL1         0.0752
       9    H4      21.261081   19.611835   24.662789 H          1 MOL1         0.0752
      10    C4      20.779128   17.611688   23.947848 C.3        1 MOL1        -0.1858
      11    H5      19.924737   16.921942   23.982443 H          1 MOL1         0.0752
      12    H6      21.617989   17.087367   24.425659 H          1 MOL1         0.0752
      13    C5      21.157394   17.887873   22.470979 C.3        1 MOL1        -0.1858
      14    H7      22.069303   18.498619   22.423232 H          1 MOL1         0.0752
      15    H8      21.419507   16.924926   22.011754 H          1 MOL1         0.0752
      16    C6      20.031864   18.535039   21.624365 C.3        1 MOL1        -0.1858
      17    H9      19.048697   18.258499   22.029071 H          1 MOL1         0.0752
      18    H10     20.073773   18.114964   20.610107 H          1 MOL1         0.0752
      19    C7      20.155582   20.072375   21.513262 C.3        1 MOL1        -0.1834
      20    H11     20.148056   20.533173   22.508398 H          1 MOL1         0.0752
      21    H12     21.119871   20.331156   21.054636 H          1 MOL1         0.0752
      22    C8      19.013352   20.672161   20.668741 C.3        1 MOL1        -0.2849
      23    H13     18.036516   20.457029   21.121354 H          1 MOL1         0.0764
      24    H14     19.119191   21.762181   20.593464 H          1 MOL1         0.0764
      25    H15     19.018303   20.259964   19.651210 H          1 MOL1         0.0764
@<TRIPOS>BOND
    1     1     2    1
    2     1     3    2
    3     1     4    1
    4     4     5    1
    5     4     6    1
    6     4     7    1
    7     7     8    1
    8     7     9    1
    9     7    10    1
   10    10    11    1
   11    10    12    1
   12    10    13    1
   13    13    14    1
   14    13    15    1
   15    13    16    1
   16    16    17    1
   17    16    18    1
   18    16    19    1
   19    19    20    1
   20    19    21    1
   21    19    22    1
   22    22    23    1
   23    22    24    1
   24    22    25    1
@<TRIPOS>SUBSTRUCTURE
       1 MOL1            1 RESIDUE      1      MOL     
@<SCITEGIC>MOL_PROPERTY
VM2 Rank
SciTegic.value.IntegerValue
91

@<SCITEGIC>MOL_PROPERTY
Conf_Id
SciTegic.value.IntegerValue
989

@<SCITEGIC>MOL_PROPERTY
Probability
SciTegic.value.DoubleValue
0.03

@<SCITEGIC>MOL_PROPERTY
Sum Probability
SciTegic.value.DoubleValue
99.42

@<SCITEGIC>MOL_PROPERTY
Delta G
SciTegic.value.DoubleValue
3.940

@<SCITEGIC>MOL_PROPERTY
G
SciTegic.value.DoubleValue
-4.022

@<SCITEGIC>MOL_PROPERTY
E
SciTegic.value.DoubleValue
-28.804

@<SCITEGIC>MOL_PROPERTY
-TS
SciTegic.value.DoubleValue
24.782

@<SCITEGIC>MOL_PROPERTY
U+W
SciTegic.value.DoubleValue
-49.372

@<SCITEGIC>MOL_PROPERTY
U
SciTegic.value.DoubleValue
10.480

@<SCITEGIC>MOL_PROPERTY
W
SciTegic.value.DoubleValue
-59.852

@<SCITEGIC>MOL_PROPERTY
W(PB)
SciTegic.value.DoubleValue
-62.311

@<SCITEGIC>MOL_PROPERTY
W(SA)
SciTegic.value.DoubleValue
2.459

@<SCITEGIC>MOL_PROPERTY
Valence
SciTegic.value.DoubleValue
10.552

@<SCITEGIC>MOL_PROPERTY
Coulomb
SciTegic.value.DoubleValue
-0.995

@<SCITEGIC>MOL_PROPERTY
VdW
SciTegic.value.DoubleValue
0.923

@<SCITEGIC>MOL_PROPERTY
VdW6
SciTegic.value.DoubleValue
-9.371

@<SCITEGIC>MOL_PROPERTY
VdW12
SciTegic.value.DoubleValue
10.295

@<SCITEGIC>MOL_PROPERTY
Bond
SciTegic.value.DoubleValue
0.194

@<SCITEGIC>MOL_PROPERTY
Angle
SciTegic.value.DoubleValue
2.991

@<SCITEGIC>MOL_PROPERTY
Pdih
SciTegic.value.DoubleValue
7.367

@<SCITEGIC>MOL_PROPERTY
Idih
SciTegic.value.DoubleValue
0.001

@<SCITEGIC>MOL_PROPERTY
Tether
SciTegic.value.DoubleValue
0.000

@<TRIPOS>MOLECULE
guest-8_vm2.mol2 : vm2 ligand conformer 92
          25          24           1
SMALL
USER_CHARGES
 
@<TRIPOS>ATOM
       1    C1      20.526238   19.654805   27.179265 C.2        1 MOL1         0.6168
       2    O1      21.585453   20.247609   27.122143 O.co2      1 MOL1        -0.6703
       3    O2      19.660717   19.899571   27.996374 O.co2      1 MOL1        -0.6703
       4    C2      20.259932   18.556483   26.156076 C.3        1 MOL1        -0.1963
       5    H1      19.636581   17.790493   26.632733 H          1 MOL1         0.0750
       6    H2      21.217904   18.085471   25.905052 H          1 MOL1         0.0750
       7    C3      19.572279   19.084206   24.872943 C.3        1 MOL1        -0.1860
       8    H3      18.621090   19.562616   25.144328 H          1 MOL1         0.0752
       9    H4      20.199327   19.865361   24.426478 H          1 MOL1         0.0752
      10    C4      19.308871   17.949307   23.855026 C.3        1 MOL1        -0.1858
      11    H5      18.650917   17.209106   24.330651 H          1 MOL1         0.0752
      12    H6      20.243096   17.421469   23.619292 H          1 MOL1         0.0752
      13    C5      18.632639   18.441229   22.550229 C.3        1 MOL1        -0.1858
      14    H7      17.925053   17.668524   22.219915 H          1 MOL1         0.0752
      15    H8      18.025987   19.335342   22.748750 H          1 MOL1         0.0752
      16    C6      19.608554   18.710533   21.377148 C.3        1 MOL1        -0.1858
      17    H9      19.016238   18.975582   20.490719 H          1 MOL1         0.0752
      18    H10     20.140980   17.783221   21.125262 H          1 MOL1         0.0752
      19    C7      20.634258   19.832763   21.647698 C.3        1 MOL1        -0.1834
      20    H11     20.113406   20.738941   21.986234 H          1 MOL1         0.0752
      21    H12     21.315509   19.528615   22.453156 H          1 MOL1         0.0752
      22    C8      21.464058   20.157495   20.389098 C.3        1 MOL1        -0.2849
      23    H13     20.818651   20.501065   19.570134 H          1 MOL1         0.0764
      24    H14     22.193255   20.950245   20.600846 H          1 MOL1         0.0764
      25    H15     22.015392   19.273165   20.043665 H          1 MOL1         0.0764
@<TRIPOS>BOND
    1     1     2    1
    2     1     3    2
    3     1     4    1
    4     4     5    1
    5     4     6    1
    6     4     7    1
    7     7     8    1
    8     7     9    1
    9     7    10    1
   10    10    11    1
   11    10    12    1
   12    10    13    1
   13    13    14    1
   14    13    15    1
   15    13    16    1
   16    16    17    1
   17    16    18    1
   18    16    19    1
   19    19    20    1
   20    19    21    1
   21    19    22    1
   22    22    23    1
   23    22    24    1
   24    22    25    1
@<TRIPOS>SUBSTRUCTURE
       1 MOL1            1 RESIDUE      1      MOL     
@<SCITEGIC>MOL_PROPERTY
VM2 Rank
SciTegic.value.IntegerValue
92

@<SCITEGIC>MOL_PROPERTY
Conf_Id
SciTegic.value.IntegerValue
718

@<SCITEGIC>MOL_PROPERTY
Probability
SciTegic.value.DoubleValue
0.03

@<SCITEGIC>MOL_PROPERTY
Sum Probability
SciTegic.value.DoubleValue
99.45

@<SCITEGIC>MOL_PROPERTY
Delta G
SciTegic.value.DoubleValue
3.946

@<SCITEGIC>MOL_PROPERTY
G
SciTegic.value.DoubleValue
-4.017

@<SCITEGIC>MOL_PROPERTY
E
SciTegic.value.DoubleValue
-28.791

@<SCITEGIC>MOL_PROPERTY
-TS
SciTegic.value.DoubleValue
24.775

@<SCITEGIC>MOL_PROPERTY
U+W
SciTegic.value.DoubleValue
-49.359

@<SCITEGIC>MOL_PROPERTY
U
SciTegic.value.DoubleValue
10.175

@<SCITEGIC>MOL_PROPERTY
W
SciTegic.value.DoubleValue
-59.533

@<SCITEGIC>MOL_PROPERTY
W(PB)
SciTegic.value.DoubleValue
-62.003

@<SCITEGIC>MOL_PROPERTY
W(SA)
SciTegic.value.DoubleValue
2.470

@<SCITEGIC>MOL_PROPERTY
Valence
SciTegic.value.DoubleValue
10.554

@<SCITEGIC>MOL_PROPERTY
Coulomb
SciTegic.value.DoubleValue
-1.316

@<SCITEGIC>MOL_PROPERTY
VdW
SciTegic.value.DoubleValue
0.936

@<SCITEGIC>MOL_PROPERTY
VdW6
SciTegic.value.DoubleValue
-9.356

@<SCITEGIC>MOL_PROPERTY
VdW12
SciTegic.value.DoubleValue
10.292

@<SCITEGIC>MOL_PROPERTY
Bond
SciTegic.value.DoubleValue
0.194

@<SCITEGIC>MOL_PROPERTY
Angle
SciTegic.value.DoubleValue
2.996

@<SCITEGIC>MOL_PROPERTY
Pdih
SciTegic.value.DoubleValue
7.363

@<SCITEGIC>MOL_PROPERTY
Idih
SciTegic.value.DoubleValue
0.001

@<SCITEGIC>MOL_PROPERTY
Tether
SciTegic.value.DoubleValue
0.000

@<TRIPOS>MOLECULE
guest-8_vm2.mol2 : vm2 ligand conformer 93
          25          24           1
SMALL
USER_CHARGES
 
@<TRIPOS>ATOM
       1    C1      20.433318   19.228679   27.503455 C.2        1 MOL1         0.6168
       2    O1      21.530415   19.665895   27.789586 O.co2      1 MOL1        -0.6703
       3    O2      19.468761   19.295813   28.239521 O.co2      1 MOL1        -0.6703
       4    C2      20.251592   18.578833   26.136431 C.3        1 MOL1        -0.1963
       5    H1      19.497763   17.788217   26.232502 H          1 MOL1         0.0750
       6    H2      21.196243   18.094594   25.861200 H          1 MOL1         0.0750
       7    C3      19.830048   19.589309   25.041299 C.3        1 MOL1        -0.1860
       8    H3      18.890008   20.075002   25.337815 H          1 MOL1         0.0752
       9    H4      20.588635   20.380846   24.966808 H          1 MOL1         0.0752
      10    C4      19.653827   18.907596   23.667121 C.3        1 MOL1        -0.1858
      11    H5      18.895063   18.117156   23.746453 H          1 MOL1         0.0752
      12    H6      20.591823   18.415677   23.383593 H          1 MOL1         0.0752
      13    C5      19.227233   19.919913   22.578101 C.3        1 MOL1        -0.1858
      14    H7      18.270958   20.366845   22.882579 H          1 MOL1         0.0752
      15    H8      19.947615   20.747369   22.521652 H          1 MOL1         0.0752
      16    C6      19.045665   19.277383   21.179311 C.3        1 MOL1        -0.1858
      17    H9      18.203743   19.777050   20.680945 H          1 MOL1         0.0752
      18    H10     18.750433   18.223953   21.279112 H          1 MOL1         0.0752
      19    C7      20.276639   19.398797   20.247183 C.3        1 MOL1        -0.1834
      20    H11     20.011152   18.986640   19.263916 H          1 MOL1         0.0752
      21    H12     20.510391   20.459674   20.082445 H          1 MOL1         0.0752
      22    C8      21.535500   18.671782   20.763991 C.3        1 MOL1        -0.2849
      23    H13     22.327527   18.688625   20.004277 H          1 MOL1         0.0764
      24    H14     21.931300   19.158002   21.664301 H          1 MOL1         0.0764
      25    H15     21.315514   17.622807   21.001100 H          1 MOL1         0.0764
@<TRIPOS>BOND
    1     1     2    1
    2     1     3    2
    3     1     4    1
    4     4     5    1
    5     4     6    1
    6     4     7    1
    7     7     8    1
    8     7     9    1
    9     7    10    1
   10    10    11    1
   11    10    12    1
   12    10    13    1
   13    13    14    1
   14    13    15    1
   15    13    16    1
   16    16    17    1
   17    16    18    1
   18    16    19    1
   19    19    20    1
   20    19    21    1
   21    19    22    1
   22    22    23    1
   23    22    24    1
   24    22    25    1
@<TRIPOS>SUBSTRUCTURE
       1 MOL1            1 RESIDUE      1      MOL     
@<SCITEGIC>MOL_PROPERTY
VM2 Rank
SciTegic.value.IntegerValue
93

@<SCITEGIC>MOL_PROPERTY
Conf_Id
SciTegic.value.IntegerValue
723

@<SCITEGIC>MOL_PROPERTY
Probability
SciTegic.value.DoubleValue
0.03

@<SCITEGIC>MOL_PROPERTY
Sum Probability
SciTegic.value.DoubleValue
99.48

@<SCITEGIC>MOL_PROPERTY
Delta G
SciTegic.value.DoubleValue
3.949

@<SCITEGIC>MOL_PROPERTY
G
SciTegic.value.DoubleValue
-4.013

@<SCITEGIC>MOL_PROPERTY
E
SciTegic.value.DoubleValue
-28.749

@<SCITEGIC>MOL_PROPERTY
-TS
SciTegic.value.DoubleValue
24.736

@<SCITEGIC>MOL_PROPERTY
U+W
SciTegic.value.DoubleValue
-49.317

@<SCITEGIC>MOL_PROPERTY
U
SciTegic.value.DoubleValue
9.739

@<SCITEGIC>MOL_PROPERTY
W
SciTegic.value.DoubleValue
-59.056

@<SCITEGIC>MOL_PROPERTY
W(PB)
SciTegic.value.DoubleValue
-61.488

@<SCITEGIC>MOL_PROPERTY
W(SA)
SciTegic.value.DoubleValue
2.432

@<SCITEGIC>MOL_PROPERTY
Valence
SciTegic.value.DoubleValue
10.506

@<SCITEGIC>MOL_PROPERTY
Coulomb
SciTegic.value.DoubleValue
-1.761

@<SCITEGIC>MOL_PROPERTY
VdW
SciTegic.value.DoubleValue
0.994

@<SCITEGIC>MOL_PROPERTY
VdW6
SciTegic.value.DoubleValue
-9.209

@<SCITEGIC>MOL_PROPERTY
VdW12
SciTegic.value.DoubleValue
10.203

@<SCITEGIC>MOL_PROPERTY
Bond
SciTegic.value.DoubleValue
0.193

@<SCITEGIC>MOL_PROPERTY
Angle
SciTegic.value.DoubleValue
2.979

@<SCITEGIC>MOL_PROPERTY
Pdih
SciTegic.value.DoubleValue
7.333

@<SCITEGIC>MOL_PROPERTY
Idih
SciTegic.value.DoubleValue
0.001

@<SCITEGIC>MOL_PROPERTY
Tether
SciTegic.value.DoubleValue
0.000

@<TRIPOS>MOLECULE
guest-8_vm2.mol2 : vm2 ligand conformer 94
          25          24           1
SMALL
USER_CHARGES
 
@<TRIPOS>ATOM
       1    C1      20.174843   19.657146   27.490341 C.2        1 MOL1         0.6168
       2    O1      21.093393   19.175934   28.123875 O.co2      1 MOL1        -0.6703
       3    O2      19.080282   19.891101   27.963482 O.co2      1 MOL1        -0.6703
       4    C2      20.401401   19.963833   26.014310 C.3        1 MOL1        -0.1963
       5    H1      21.452219   20.248550   25.882812 H          1 MOL1         0.0750
       6    H2      19.793301   20.837505   25.750679 H          1 MOL1         0.0750
       7    C3      20.051418   18.770680   25.091287 C.3        1 MOL1        -0.1860
       8    H3      20.659103   17.900889   25.377066 H          1 MOL1         0.0752
       9    H4      19.000085   18.489674   25.243852 H          1 MOL1         0.0752
      10    C4      20.289238   19.106959   23.603075 C.3        1 MOL1        -0.1858
      11    H5      21.341712   19.382837   23.451577 H          1 MOL1         0.0752
      12    H6      19.680959   19.979652   23.332713 H          1 MOL1         0.0752
      13    C5      19.927949   17.919257   22.683749 C.3        1 MOL1        -0.1858
      14    H7      20.447778   17.020169   23.041867 H          1 MOL1         0.0752
      15    H8      18.853257   17.707269   22.766935 H          1 MOL1         0.0752
      16    C6      20.296994   18.131345   21.193837 C.3        1 MOL1        -0.1858
      17    H9      20.045876   17.206322   20.657050 H          1 MOL1         0.0752
      18    H10     21.383874   18.251437   21.088182 H          1 MOL1         0.0752
      19    C7      19.558011   19.304662   20.502908 C.3        1 MOL1        -0.1834
      20    H11     19.342963   19.020477   19.463535 H          1 MOL1         0.0752
      21    H12     18.583321   19.475194   20.980550 H          1 MOL1         0.0752
      22    C8      20.379473   20.613082   20.479135 C.3        1 MOL1        -0.2849
      23    H13     20.615216   20.966025   21.489432 H          1 MOL1         0.0764
      24    H14     21.325689   20.469960   19.941320 H          1 MOL1         0.0764
      25    H15     19.820476   21.407928   19.968698 H          1 MOL1         0.0764
@<TRIPOS>BOND
    1     1     2    1
    2     1     3    2
    3     1     4    1
    4     4     5    1
    5     4     6    1
    6     4     7    1
    7     7     8    1
    8     7     9    1
    9     7    10    1
   10    10    11    1
   11    10    12    1
   12    10    13    1
   13    13    14    1
   14    13    15    1
   15    13    16    1
   16    16    17    1
   17    16    18    1
   18    16    19    1
   19    19    20    1
   20    19    21    1
   21    19    22    1
   22    22    23    1
   23    22    24    1
   24    22    25    1
@<TRIPOS>SUBSTRUCTURE
       1 MOL1            1 RESIDUE      1      MOL     
@<SCITEGIC>MOL_PROPERTY
VM2 Rank
SciTegic.value.IntegerValue
94

@<SCITEGIC>MOL_PROPERTY
Conf_Id
SciTegic.value.IntegerValue
1048

@<SCITEGIC>MOL_PROPERTY
Probability
SciTegic.value.DoubleValue
0.03

@<SCITEGIC>MOL_PROPERTY
Sum Probability
SciTegic.value.DoubleValue
99.52

@<SCITEGIC>MOL_PROPERTY
Delta G
SciTegic.value.DoubleValue
3.952

@<SCITEGIC>MOL_PROPERTY
G
SciTegic.value.DoubleValue
-4.010

@<SCITEGIC>MOL_PROPERTY
E
SciTegic.value.DoubleValue
-28.744

@<SCITEGIC>MOL_PROPERTY
-TS
SciTegic.value.DoubleValue
24.733

@<SCITEGIC>MOL_PROPERTY
U+W
SciTegic.value.DoubleValue
-49.311

@<SCITEGIC>MOL_PROPERTY
U
SciTegic.value.DoubleValue
9.708

@<SCITEGIC>MOL_PROPERTY
W
SciTegic.value.DoubleValue
-59.019

@<SCITEGIC>MOL_PROPERTY
W(PB)
SciTegic.value.DoubleValue
-61.482

@<SCITEGIC>MOL_PROPERTY
W(SA)
SciTegic.value.DoubleValue
2.463

@<SCITEGIC>MOL_PROPERTY
Valence
SciTegic.value.DoubleValue
10.529

@<SCITEGIC>MOL_PROPERTY
Coulomb
SciTegic.value.DoubleValue
-1.840

@<SCITEGIC>MOL_PROPERTY
VdW
SciTegic.value.DoubleValue
1.019

@<SCITEGIC>MOL_PROPERTY
VdW6
SciTegic.value.DoubleValue
-9.202

@<SCITEGIC>MOL_PROPERTY
VdW12
SciTegic.value.DoubleValue
10.221

@<SCITEGIC>MOL_PROPERTY
Bond
SciTegic.value.DoubleValue
0.191

@<SCITEGIC>MOL_PROPERTY
Angle
SciTegic.value.DoubleValue
3.009

@<SCITEGIC>MOL_PROPERTY
Pdih
SciTegic.value.DoubleValue
7.328

@<SCITEGIC>MOL_PROPERTY
Idih
SciTegic.value.DoubleValue
0.001

@<SCITEGIC>MOL_PROPERTY
Tether
SciTegic.value.DoubleValue
0.000

@<TRIPOS>MOLECULE
guest-8_vm2.mol2 : vm2 ligand conformer 95
          25          24           1
SMALL
USER_CHARGES
 
@<TRIPOS>ATOM
       1    C1      19.922725   19.368595   27.142426 C.2        1 MOL1         0.6168
       2    O1      20.892279   19.094868   27.822305 O.co2      1 MOL1        -0.6703
       3    O2      18.819759   18.890287   27.320722 O.co2      1 MOL1        -0.6703
       4    C2      20.097378   20.384653   26.017148 C.3        1 MOL1        -0.1963
       5    H1      20.665383   21.229308   26.424365 H          1 MOL1         0.0750
       6    H2      19.109876   20.771284   25.737578 H          1 MOL1         0.0750
       7    C3      20.826159   19.825314   24.767621 C.3        1 MOL1        -0.1860
       8    H3      21.037212   20.658985   24.085772 H          1 MOL1         0.0752
       9    H4      21.796612   19.406799   25.068123 H          1 MOL1         0.0752
      10    C4      19.996506   18.748189   24.028564 C.3        1 MOL1        -0.1858
      11    H5      19.038855   19.175163   23.703296 H          1 MOL1         0.0752
      12    H6      19.745120   17.941733   24.730790 H          1 MOL1         0.0752
      13    C5      20.734862   18.123315   22.818178 C.3        1 MOL1        -0.1858
      14    H7      21.643408   17.622082   23.178416 H          1 MOL1         0.0752
      15    H8      20.107394   17.329407   22.392320 H          1 MOL1         0.0752
      16    C6      21.130634   19.118542   21.695305 C.3        1 MOL1        -0.1858
      17    H9      21.623330   18.558092   20.889305 H          1 MOL1         0.0752
      18    H10     21.888476   19.814997   22.077105 H          1 MOL1         0.0752
      19    C7      19.959172   19.932246   21.092247 C.3        1 MOL1        -0.1834
      20    H11     19.505584   20.569450   21.862953 H          1 MOL1         0.0752
      21    H12     20.361914   20.615113   20.331726 H          1 MOL1         0.0752
      22    C8      18.873525   19.047993   20.441484 C.3        1 MOL1        -0.2849
      23    H13     18.109963   19.670436   19.957482 H          1 MOL1         0.0764
      24    H14     19.308462   18.390178   19.677912 H          1 MOL1         0.0764
      25    H15     18.368803   18.422402   21.188388 H          1 MOL1         0.0764
@<TRIPOS>BOND
    1     1     2    1
    2     1     3    2
    3     1     4    1
    4     4     5    1
    5     4     6    1
    6     4     7    1
    7     7     8    1
    8     7     9    1
    9     7    10    1
   10    10    11    1
   11    10    12    1
   12    10    13    1
   13    13    14    1
   14    13    15    1
   15    13    16    1
   16    16    17    1
   17    16    18    1
   18    16    19    1
   19    19    20    1
   20    19    21    1
   21    19    22    1
   22    22    23    1
   23    22    24    1
   24    22    25    1
@<TRIPOS>SUBSTRUCTURE
       1 MOL1            1 RESIDUE      1      MOL     
@<SCITEGIC>MOL_PROPERTY
VM2 Rank
SciTegic.value.IntegerValue
95

@<SCITEGIC>MOL_PROPERTY
Conf_Id
SciTegic.value.IntegerValue
864

@<SCITEGIC>MOL_PROPERTY
Probability
SciTegic.value.DoubleValue
0.02

@<SCITEGIC>MOL_PROPERTY
Sum Probability
SciTegic.value.DoubleValue
99.53

@<SCITEGIC>MOL_PROPERTY
Delta G
SciTegic.value.DoubleValue
4.272

@<SCITEGIC>MOL_PROPERTY
G
SciTegic.value.DoubleValue
-3.691

@<SCITEGIC>MOL_PROPERTY
E
SciTegic.value.DoubleValue
-29.152

@<SCITEGIC>MOL_PROPERTY
-TS
SciTegic.value.DoubleValue
25.462

@<SCITEGIC>MOL_PROPERTY
U+W
SciTegic.value.DoubleValue
-49.720

@<SCITEGIC>MOL_PROPERTY
U
SciTegic.value.DoubleValue
10.166

@<SCITEGIC>MOL_PROPERTY
W
SciTegic.value.DoubleValue
-59.886

@<SCITEGIC>MOL_PROPERTY
W(PB)
SciTegic.value.DoubleValue
-62.280

@<SCITEGIC>MOL_PROPERTY
W(SA)
SciTegic.value.DoubleValue
2.394

@<SCITEGIC>MOL_PROPERTY
Valence
SciTegic.value.DoubleValue
9.218

@<SCITEGIC>MOL_PROPERTY
Coulomb
SciTegic.value.DoubleValue
0.150

@<SCITEGIC>MOL_PROPERTY
VdW
SciTegic.value.DoubleValue
0.798

@<SCITEGIC>MOL_PROPERTY
VdW6
SciTegic.value.DoubleValue
-11.033

@<SCITEGIC>MOL_PROPERTY
VdW12
SciTegic.value.DoubleValue
11.831

@<SCITEGIC>MOL_PROPERTY
Bond
SciTegic.value.DoubleValue
0.256

@<SCITEGIC>MOL_PROPERTY
Angle
SciTegic.value.DoubleValue
3.425

@<SCITEGIC>MOL_PROPERTY
Pdih
SciTegic.value.DoubleValue
5.536

@<SCITEGIC>MOL_PROPERTY
Idih
SciTegic.value.DoubleValue
0.001

@<SCITEGIC>MOL_PROPERTY
Tether
SciTegic.value.DoubleValue
0.000

@<TRIPOS>MOLECULE
guest-8_vm2.mol2 : vm2 ligand conformer 96
          25          24           1
SMALL
USER_CHARGES
 
@<TRIPOS>ATOM
       1    C1      19.951495   19.791645   26.708254 C.2        1 MOL1         0.6168
       2    O1      20.208396   19.332404   27.804030 O.co2      1 MOL1        -0.6703
       3    O2      18.871137   20.264338   26.414299 O.co2      1 MOL1        -0.6703
       4    C2      21.056473   19.799306   25.655654 C.3        1 MOL1        -0.1963
       5    H1      21.947310   20.236712   26.121017 H          1 MOL1         0.0750
       6    H2      20.764984   20.477133   24.845092 H          1 MOL1         0.0750
       7    C3      21.406818   18.394245   25.094008 C.3        1 MOL1        -0.1860
       8    H3      22.254422   18.482776   24.402190 H          1 MOL1         0.0752
       9    H4      21.758033   17.761965   25.921061 H          1 MOL1         0.0752
      10    C4      20.229041   17.675613   24.386133 C.3        1 MOL1        -0.1858
      11    H5      19.439560   17.471606   25.122440 H          1 MOL1         0.0752
      12    H6      20.574503   16.693872   24.034869 H          1 MOL1         0.0752
      13    C5      19.607444   18.445498   23.194034 C.3        1 MOL1        -0.1858
      14    H7      18.783468   17.845042   22.785719 H          1 MOL1         0.0752
      15    H8      19.154163   19.376908   23.556564 H          1 MOL1         0.0752
      16    C6      20.619493   18.748084   22.062044 C.3        1 MOL1        -0.1858
      17    H9      21.134556   17.818301   21.785084 H          1 MOL1         0.0752
      18    H10     21.392495   19.438558   22.423882 H          1 MOL1         0.0752
      19    C7      19.961144   19.344077   20.796111 C.3        1 MOL1        -0.1834
      20    H11     20.721353   19.422810   20.006794 H          1 MOL1         0.0752
      21    H12     19.191832   18.656426   20.418619 H          1 MOL1         0.0752
      22    C8      19.341558   20.738790   21.031432 C.3        1 MOL1        -0.2849
      23    H13     20.086945   21.436605   21.434601 H          1 MOL1         0.0764
      24    H14     18.963196   21.155168   20.088941 H          1 MOL1         0.0764
      25    H15     18.500713   20.689733   21.734598 H          1 MOL1         0.0764
@<TRIPOS>BOND
    1     1     2    1
    2     1     3    2
    3     1     4    1
    4     4     5    1
    5     4     6    1
    6     4     7    1
    7     7     8    1
    8     7     9    1
    9     7    10    1
   10    10    11    1
   11    10    12    1
   12    10    13    1
   13    13    14    1
   14    13    15    1
   15    13    16    1
   16    16    17    1
   17    16    18    1
   18    16    19    1
   19    19    20    1
   20    19    21    1
   21    19    22    1
   22    22    23    1
   23    22    24    1
   24    22    25    1
@<TRIPOS>SUBSTRUCTURE
       1 MOL1            1 RESIDUE      1      MOL     
@<SCITEGIC>MOL_PROPERTY
VM2 Rank
SciTegic.value.IntegerValue
96

@<SCITEGIC>MOL_PROPERTY
Conf_Id
SciTegic.value.IntegerValue
517

@<SCITEGIC>MOL_PROPERTY
Probability
SciTegic.value.DoubleValue
0.02

@<SCITEGIC>MOL_PROPERTY
Sum Probability
SciTegic.value.DoubleValue
99.55

@<SCITEGIC>MOL_PROPERTY
Delta G
SciTegic.value.DoubleValue
4.299

@<SCITEGIC>MOL_PROPERTY
G
SciTegic.value.DoubleValue
-3.663

@<SCITEGIC>MOL_PROPERTY
E
SciTegic.value.DoubleValue
-29.036

@<SCITEGIC>MOL_PROPERTY
-TS
SciTegic.value.DoubleValue
25.373

@<SCITEGIC>MOL_PROPERTY
U+W
SciTegic.value.DoubleValue
-49.603

@<SCITEGIC>MOL_PROPERTY
U
SciTegic.value.DoubleValue
10.961

@<SCITEGIC>MOL_PROPERTY
W
SciTegic.value.DoubleValue
-60.565

@<SCITEGIC>MOL_PROPERTY
W(PB)
SciTegic.value.DoubleValue
-62.940

@<SCITEGIC>MOL_PROPERTY
W(SA)
SciTegic.value.DoubleValue
2.375

@<SCITEGIC>MOL_PROPERTY
Valence
SciTegic.value.DoubleValue
9.203

@<SCITEGIC>MOL_PROPERTY
Coulomb
SciTegic.value.DoubleValue
1.166

@<SCITEGIC>MOL_PROPERTY
VdW
SciTegic.value.DoubleValue
0.592

@<SCITEGIC>MOL_PROPERTY
VdW6
SciTegic.value.DoubleValue
-11.371

@<SCITEGIC>MOL_PROPERTY
VdW12
SciTegic.value.DoubleValue
11.963

@<SCITEGIC>MOL_PROPERTY
Bond
SciTegic.value.DoubleValue
0.260

@<SCITEGIC>MOL_PROPERTY
Angle
SciTegic.value.DoubleValue
3.321

@<SCITEGIC>MOL_PROPERTY
Pdih
SciTegic.value.DoubleValue
5.621

@<SCITEGIC>MOL_PROPERTY
Idih
SciTegic.value.DoubleValue
0.001

@<SCITEGIC>MOL_PROPERTY
Tether
SciTegic.value.DoubleValue
0.000

@<TRIPOS>MOLECULE
guest-8_vm2.mol2 : vm2 ligand conformer 97
          25          24           1
SMALL
USER_CHARGES
 
@<TRIPOS>ATOM
       1    C1      19.934938   19.230423   27.145522 C.2        1 MOL1         0.6168
       2    O1      20.839640   19.697964   27.808932 O.co2      1 MOL1        -0.6703
       3    O2      18.765001   19.517307   27.306919 O.co2      1 MOL1        -0.6703
       4    C2      20.287588   18.211192   26.065738 C.3        1 MOL1        -0.1963
       5    H1      19.383279   17.646955   25.807545 H          1 MOL1         0.0750
       6    H2      20.992093   17.496907   26.507743 H          1 MOL1         0.0750
       7    C3      20.912886   18.832576   24.789736 C.3        1 MOL1        -0.1860
       8    H3      21.794747   19.426203   25.067520 H          1 MOL1         0.0752
       9    H4      21.268127   18.018797   24.144725 H          1 MOL1         0.0752
      10    C4      19.911575   19.715337   24.006895 C.3        1 MOL1        -0.1858
      11    H5      19.521147   20.496156   24.673660 H          1 MOL1         0.0752
      12    H6      19.043962   19.114464   23.704568 H          1 MOL1         0.0752
      13    C5      20.534820   20.404754   22.767158 C.3        1 MOL1        -0.1858
      14    H7      19.780556   21.057769   22.308881 H          1 MOL1         0.0752
      15    H8      21.340931   21.071818   23.101332 H          1 MOL1         0.0752
      16    C6      21.102077   19.444687   21.688066 C.3        1 MOL1        -0.1858
      17    H9      21.967944   18.908249   22.097522 H          1 MOL1         0.0752
      18    H10     21.493029   20.045953   20.856126 H          1 MOL1         0.0752
      19    C7      20.092351   18.413749   21.126162 C.3        1 MOL1        -0.1834
      20    H11     20.610732   17.778232   20.395203 H          1 MOL1         0.0752
      21    H12     19.753363   17.742234   21.926110 H          1 MOL1         0.0752
      22    C8      18.872124   19.066012   20.440871 C.3        1 MOL1        -0.2849
      23    H13     18.230381   18.299436   19.987826 H          1 MOL1         0.0764
      24    H14     18.263309   19.626813   21.161164 H          1 MOL1         0.0764
      25    H15     19.189133   19.754910   19.647236 H          1 MOL1         0.0764
@<TRIPOS>BOND
    1     1     2    1
    2     1     3    2
    3     1     4    1
    4     4     5    1
    5     4     6    1
    6     4     7    1
    7     7     8    1
    8     7     9    1
    9     7    10    1
   10    10    11    1
   11    10    12    1
   12    10    13    1
   13    13    14    1
   14    13    15    1
   15    13    16    1
   16    16    17    1
   17    16    18    1
   18    16    19    1
   19    19    20    1
   20    19    21    1
   21    19    22    1
   22    22    23    1
   23    22    24    1
   24    22    25    1
@<TRIPOS>SUBSTRUCTURE
       1 MOL1            1 RESIDUE      1      MOL     
@<SCITEGIC>MOL_PROPERTY
VM2 Rank
SciTegic.value.IntegerValue
97

@<SCITEGIC>MOL_PROPERTY
Conf_Id
SciTegic.value.IntegerValue
1118

@<SCITEGIC>MOL_PROPERTY
Probability
SciTegic.value.DoubleValue
0.02

@<SCITEGIC>MOL_PROPERTY
Sum Probability
SciTegic.value.DoubleValue
99.57

@<SCITEGIC>MOL_PROPERTY
Delta G
SciTegic.value.DoubleValue
4.302

@<SCITEGIC>MOL_PROPERTY
G
SciTegic.value.DoubleValue
-3.661

@<SCITEGIC>MOL_PROPERTY
E
SciTegic.value.DoubleValue
-29.123

@<SCITEGIC>MOL_PROPERTY
-TS
SciTegic.value.DoubleValue
25.462

@<SCITEGIC>MOL_PROPERTY
U+W
SciTegic.value.DoubleValue
-49.690

@<SCITEGIC>MOL_PROPERTY
U
SciTegic.value.DoubleValue
10.165

@<SCITEGIC>MOL_PROPERTY
W
SciTegic.value.DoubleValue
-59.855

@<SCITEGIC>MOL_PROPERTY
W(PB)
SciTegic.value.DoubleValue
-62.264

@<SCITEGIC>MOL_PROPERTY
W(SA)
SciTegic.value.DoubleValue
2.409

@<SCITEGIC>MOL_PROPERTY
Valence
SciTegic.value.DoubleValue
9.218

@<SCITEGIC>MOL_PROPERTY
Coulomb
SciTegic.value.DoubleValue
0.149

@<SCITEGIC>MOL_PROPERTY
VdW
SciTegic.value.DoubleValue
0.798

@<SCITEGIC>MOL_PROPERTY
VdW6
SciTegic.value.DoubleValue
-11.032

@<SCITEGIC>MOL_PROPERTY
VdW12
SciTegic.value.DoubleValue
11.830

@<SCITEGIC>MOL_PROPERTY
Bond
SciTegic.value.DoubleValue
0.256

@<SCITEGIC>MOL_PROPERTY
Angle
SciTegic.value.DoubleValue
3.425

@<SCITEGIC>MOL_PROPERTY
Pdih
SciTegic.value.DoubleValue
5.536

@<SCITEGIC>MOL_PROPERTY
Idih
SciTegic.value.DoubleValue
0.001

@<SCITEGIC>MOL_PROPERTY
Tether
SciTegic.value.DoubleValue
0.000

@<TRIPOS>MOLECULE
guest-8_vm2.mol2 : vm2 ligand conformer 98
          25          24           1
SMALL
USER_CHARGES
 
@<TRIPOS>ATOM
       1    C1      20.029723   19.141874   26.983983 C.2        1 MOL1         0.6168
       2    O1      20.898980   19.388716   27.797029 O.co2      1 MOL1        -0.6703
       3    O2      18.876094   19.505554   27.102390 O.co2      1 MOL1        -0.6703
       4    C2      20.403848   18.305373   25.763661 C.3        1 MOL1        -0.1963
       5    H1      19.484000   17.936842   25.295476 H          1 MOL1         0.0750
       6    H2      20.943668   17.422831   26.125889 H          1 MOL1         0.0750
       7    C3      21.282552   19.055919   24.726050 C.3        1 MOL1        -0.1860
       8    H3      22.220225   19.358883   25.211877 H          1 MOL1         0.0752
       9    H4      21.568690   18.362232   23.924857 H          1 MOL1         0.0752
      10    C4      20.613073   20.312278   24.111860 C.3        1 MOL1        -0.1858
      11    H5      21.319048   20.788008   23.418703 H          1 MOL1         0.0752
      12    H6      20.439564   21.049331   24.907812 H          1 MOL1         0.0752
      13    C5      19.270248   20.052916   23.379587 C.3        1 MOL1        -0.1858
      14    H7      18.514789   19.738916   24.112308 H          1 MOL1         0.0752
      15    H8      18.905996   21.004258   22.968965 H          1 MOL1         0.0752
      16    C6      19.329702   19.006145   22.238719 C.3        1 MOL1        -0.1858
      17    H9      18.319826   18.890790   21.822314 H          1 MOL1         0.0752
      18    H10     19.604961   18.024148   22.644980 H          1 MOL1         0.0752
      19    C7      20.300788   19.391354   21.100108 C.3        1 MOL1        -0.1834
      20    H11     20.048213   20.390845   20.720294 H          1 MOL1         0.0752
      21    H12     21.328355   19.444168   21.483421 H          1 MOL1         0.0752
      22    C8      20.247991   18.373872   19.942613 C.3        1 MOL1        -0.2849
      23    H13     20.945051   18.659771   19.144271 H          1 MOL1         0.0764
      24    H14     20.524050   17.369781   20.290348 H          1 MOL1         0.0764
      25    H15     19.240226   18.322194   19.510159 H          1 MOL1         0.0764
@<TRIPOS>BOND
    1     1     2    1
    2     1     3    2
    3     1     4    1
    4     4     5    1
    5     4     6    1
    6     4     7    1
    7     7     8    1
    8     7     9    1
    9     7    10    1
   10    10    11    1
   11    10    12    1
   12    10    13    1
   13    13    14    1
   14    13    15    1
   15    13    16    1
   16    16    17    1
   17    16    18    1
   18    16    19    1
   19    19    20    1
   20    19    21    1
   21    19    22    1
   22    22    23    1
   23    22    24    1
   24    22    25    1
@<TRIPOS>SUBSTRUCTURE
       1 MOL1            1 RESIDUE      1      MOL     
@<SCITEGIC>MOL_PROPERTY
VM2 Rank
SciTegic.value.IntegerValue
98

@<SCITEGIC>MOL_PROPERTY
Conf_Id
SciTegic.value.IntegerValue
244

@<SCITEGIC>MOL_PROPERTY
Probability
SciTegic.value.DoubleValue
0.02

@<SCITEGIC>MOL_PROPERTY
Sum Probability
SciTegic.value.DoubleValue
99.58

@<SCITEGIC>MOL_PROPERTY
Delta G
SciTegic.value.DoubleValue
4.313

@<SCITEGIC>MOL_PROPERTY
G
SciTegic.value.DoubleValue
-3.650

@<SCITEGIC>MOL_PROPERTY
E
SciTegic.value.DoubleValue
-29.213

@<SCITEGIC>MOL_PROPERTY
-TS
SciTegic.value.DoubleValue
25.563

@<SCITEGIC>MOL_PROPERTY
U+W
SciTegic.value.DoubleValue
-49.780

@<SCITEGIC>MOL_PROPERTY
U
SciTegic.value.DoubleValue
10.242

@<SCITEGIC>MOL_PROPERTY
W
SciTegic.value.DoubleValue
-60.022

@<SCITEGIC>MOL_PROPERTY
W(PB)
SciTegic.value.DoubleValue
-62.387

@<SCITEGIC>MOL_PROPERTY
W(SA)
SciTegic.value.DoubleValue
2.365

@<SCITEGIC>MOL_PROPERTY
Valence
SciTegic.value.DoubleValue
9.192

@<SCITEGIC>MOL_PROPERTY
Coulomb
SciTegic.value.DoubleValue
0.540

@<SCITEGIC>MOL_PROPERTY
VdW
SciTegic.value.DoubleValue
0.510

@<SCITEGIC>MOL_PROPERTY
VdW6
SciTegic.value.DoubleValue
-11.540

@<SCITEGIC>MOL_PROPERTY
VdW12
SciTegic.value.DoubleValue
12.049

@<SCITEGIC>MOL_PROPERTY
Bond
SciTegic.value.DoubleValue
0.268

@<SCITEGIC>MOL_PROPERTY
Angle
SciTegic.value.DoubleValue
3.481

@<SCITEGIC>MOL_PROPERTY
Pdih
SciTegic.value.DoubleValue
5.442

@<SCITEGIC>MOL_PROPERTY
Idih
SciTegic.value.DoubleValue
0.001

@<SCITEGIC>MOL_PROPERTY
Tether
SciTegic.value.DoubleValue
0.000

@<TRIPOS>MOLECULE
guest-8_vm2.mol2 : vm2 ligand conformer 99
          25          24           1
SMALL
USER_CHARGES
 
@<TRIPOS>ATOM
       1    C1      19.650290   19.251907   26.727927 C.2        1 MOL1         0.6168
       2    O1      20.209475   19.334288   27.804102 O.co2      1 MOL1        -0.6703
       3    O2      18.671514   19.906689   26.427459 O.co2      1 MOL1        -0.6703
       4    C2      20.191822   18.250119   25.711971 C.3        1 MOL1        -0.1963
       5    H1      19.437266   18.098321   24.931569 H          1 MOL1         0.0750
       6    H2      20.302390   17.289463   26.228101 H          1 MOL1         0.0750
       7    C3      21.553214   18.656615   25.084478 C.3        1 MOL1        -0.1860
       8    H3      22.300932   18.734727   25.885703 H          1 MOL1         0.0752
       9    H4      21.901930   17.851301   24.425124 H          1 MOL1         0.0752
      10    C4      21.523488   19.995022   24.301880 C.3        1 MOL1        -0.1858
      11    H5      22.528904   20.195759   23.907689 H          1 MOL1         0.0752
      12    H6      21.304819   20.813817   25.001027 H          1 MOL1         0.0752
      13    C5      20.505474   20.054559   23.135557 C.3        1 MOL1        -0.1858
      14    H7      19.486537   19.972481   23.534868 H          1 MOL1         0.0752
      15    H8      20.570449   21.046855   22.669369 H          1 MOL1         0.0752
      16    C6      20.745055   18.973009   22.053869 C.3        1 MOL1        -0.1858
      17    H9      20.575174   17.974371   22.477043 H          1 MOL1         0.0752
      18    H10     21.797743   19.006333   21.742052 H          1 MOL1         0.0752
      19    C7      19.853455   19.150843   20.803015 C.3        1 MOL1        -0.1834
      20    H11     20.022489   20.143954   20.364422 H          1 MOL1         0.0752
      21    H12     20.161539   18.419464   20.043208 H          1 MOL1         0.0752
      22    C8      18.349214   18.960948   21.095741 C.3        1 MOL1        -0.2849
      23    H13     17.970900   19.740605   21.768707 H          1 MOL1         0.0764
      24    H14     17.767384   19.012604   20.166429 H          1 MOL1         0.0764
      25    H15     18.159749   17.984294   21.559786 H          1 MOL1         0.0764
@<TRIPOS>BOND
    1     1     2    1
    2     1     3    2
    3     1     4    1
    4     4     5    1
    5     4     6    1
    6     4     7    1
    7     7     8    1
    8     7     9    1
    9     7    10    1
   10    10    11    1
   11    10    12    1
   12    10    13    1
   13    13    14    1
   14    13    15    1
   15    13    16    1
   16    16    17    1
   17    16    18    1
   18    16    19    1
   19    19    20    1
   20    19    21    1
   21    19    22    1
   22    22    23    1
   23    22    24    1
   24    22    25    1
@<TRIPOS>SUBSTRUCTURE
       1 MOL1            1 RESIDUE      1      MOL     
@<SCITEGIC>MOL_PROPERTY
VM2 Rank
SciTegic.value.IntegerValue
99

@<SCITEGIC>MOL_PROPERTY
Conf_Id
SciTegic.value.IntegerValue
216

@<SCITEGIC>MOL_PROPERTY
Probability
SciTegic.value.DoubleValue
0.02

@<SCITEGIC>MOL_PROPERTY
Sum Probability
SciTegic.value.DoubleValue
99.60

@<SCITEGIC>MOL_PROPERTY
Delta G
SciTegic.value.DoubleValue
4.340

@<SCITEGIC>MOL_PROPERTY
G
SciTegic.value.DoubleValue
-3.623

@<SCITEGIC>MOL_PROPERTY
E
SciTegic.value.DoubleValue
-28.995

@<SCITEGIC>MOL_PROPERTY
-TS
SciTegic.value.DoubleValue
25.372

@<SCITEGIC>MOL_PROPERTY
U+W
SciTegic.value.DoubleValue
-49.562

@<SCITEGIC>MOL_PROPERTY
U
SciTegic.value.DoubleValue
10.961

@<SCITEGIC>MOL_PROPERTY
W
SciTegic.value.DoubleValue
-60.523

@<SCITEGIC>MOL_PROPERTY
W(PB)
SciTegic.value.DoubleValue
-62.908

@<SCITEGIC>MOL_PROPERTY
W(SA)
SciTegic.value.DoubleValue
2.385

@<SCITEGIC>MOL_PROPERTY
Valence
SciTegic.value.DoubleValue
9.203

@<SCITEGIC>MOL_PROPERTY
Coulomb
SciTegic.value.DoubleValue
1.165

@<SCITEGIC>MOL_PROPERTY
VdW
SciTegic.value.DoubleValue
0.592

@<SCITEGIC>MOL_PROPERTY
VdW6
SciTegic.value.DoubleValue
-11.370

@<SCITEGIC>MOL_PROPERTY
VdW12
SciTegic.value.DoubleValue
11.962

@<SCITEGIC>MOL_PROPERTY
Bond
SciTegic.value.DoubleValue
0.260

@<SCITEGIC>MOL_PROPERTY
Angle
SciTegic.value.DoubleValue
3.321

@<SCITEGIC>MOL_PROPERTY
Pdih
SciTegic.value.DoubleValue
5.622

@<SCITEGIC>MOL_PROPERTY
Idih
SciTegic.value.DoubleValue
0.001

@<SCITEGIC>MOL_PROPERTY
Tether
SciTegic.value.DoubleValue
0.000

@<TRIPOS>MOLECULE
guest-8_vm2.mol2 : vm2 ligand conformer 100
          25          24           1
SMALL
USER_CHARGES
 
@<TRIPOS>ATOM
       1    C1      20.125426   19.833980   26.712533 C.2        1 MOL1         0.6168
       2    O1      21.231188   20.302866   26.898463 O.co2      1 MOL1        -0.6703
       3    O2      19.101845   20.488121   26.751540 O.co2      1 MOL1        -0.6703
       4    C2      20.011485   18.336372   26.441357 C.3        1 MOL1        -0.1963
       5    H1      19.199764   17.949994   27.068826 H          1 MOL1         0.0750
       6    H2      20.933773   17.848037   26.778466 H          1 MOL1         0.0750
       7    C3      19.730576   17.986375   24.957121 C.3        1 MOL1        -0.1860
       8    H3      19.531156   16.909601   24.874213 H          1 MOL1         0.0752
       9    H4      18.817132   18.504804   24.636597 H          1 MOL1         0.0752
      10    C4      20.909548   18.360497   24.027521 C.3        1 MOL1        -0.1858
      11    H5      21.826481   17.888771   24.405928 H          1 MOL1         0.0752
      12    H6      21.088153   19.443238   24.066897 H          1 MOL1         0.0752
      13    C5      20.700645   17.916619   22.557951 C.3        1 MOL1        -0.1858
      14    H7      21.600165   18.167857   21.980791 H          1 MOL1         0.0752
      15    H8      20.623474   16.821439   22.525853 H          1 MOL1         0.0752
      16    C6      19.456778   18.521542   21.854546 C.3        1 MOL1        -0.1858
      17    H9      18.546356   18.134893   22.330843 H          1 MOL1         0.0752
      18    H10     19.427709   18.155792   20.819249 H          1 MOL1         0.0752
      19    C7      19.395946   20.068917   21.838924 C.3        1 MOL1        -0.1834
      20    H11     18.465596   20.378032   21.343201 H          1 MOL1         0.0752
      21    H12     19.335913   20.455161   22.865428 H          1 MOL1         0.0752
      22    C8      20.589563   20.718710   21.106044 C.3        1 MOL1        -0.2849
      23    H13     20.678344   20.333981   20.081833 H          1 MOL1         0.0764
      24    H14     20.459327   21.807069   21.049287 H          1 MOL1         0.0764
      25    H15     21.533158   20.523237   21.630838 H          1 MOL1         0.0764
@<TRIPOS>BOND
    1     1     2    1
    2     1     3    2
    3     1     4    1
    4     4     5    1
    5     4     6    1
    6     4     7    1
    7     7     8    1
    8     7     9    1
    9     7    10    1
   10    10    11    1
   11    10    12    1
   12    10    13    1
   13    13    14    1
   14    13    15    1
   15    13    16    1
   16    16    17    1
   17    16    18    1
   18    16    19    1
   19    19    20    1
   20    19    21    1
   21    19    22    1
   22    22    23    1
   23    22    24    1
   24    22    25    1
@<TRIPOS>SUBSTRUCTURE
       1 MOL1            1 RESIDUE      1      MOL     
@<SCITEGIC>MOL_PROPERTY
VM2 Rank
SciTegic.value.IntegerValue
100

@<SCITEGIC>MOL_PROPERTY
Conf_Id
SciTegic.value.IntegerValue
1064

@<SCITEGIC>MOL_PROPERTY
Probability
SciTegic.value.DoubleValue
0.01

@<SCITEGIC>MOL_PROPERTY
Sum Probability
SciTegic.value.DoubleValue
99.61

@<SCITEGIC>MOL_PROPERTY
Delta G
SciTegic.value.DoubleValue
4.434

@<SCITEGIC>MOL_PROPERTY
G
SciTegic.value.DoubleValue
-3.528

@<SCITEGIC>MOL_PROPERTY
E
SciTegic.value.DoubleValue
-29.003

@<SCITEGIC>MOL_PROPERTY
-TS
SciTegic.value.DoubleValue
25.475

@<SCITEGIC>MOL_PROPERTY
U+W
SciTegic.value.DoubleValue
-49.571

@<SCITEGIC>MOL_PROPERTY
U
SciTegic.value.DoubleValue
11.216

@<SCITEGIC>MOL_PROPERTY
W
SciTegic.value.DoubleValue
-60.787

@<SCITEGIC>MOL_PROPERTY
W(PB)
SciTegic.value.DoubleValue
-63.158

@<SCITEGIC>MOL_PROPERTY
W(SA)
SciTegic.value.DoubleValue
2.372

@<SCITEGIC>MOL_PROPERTY
Valence
SciTegic.value.DoubleValue
9.147

@<SCITEGIC>MOL_PROPERTY
Coulomb
SciTegic.value.DoubleValue
1.469

@<SCITEGIC>MOL_PROPERTY
VdW
SciTegic.value.DoubleValue
0.600

@<SCITEGIC>MOL_PROPERTY
VdW6
SciTegic.value.DoubleValue
-11.294

@<SCITEGIC>MOL_PROPERTY
VdW12
SciTegic.value.DoubleValue
11.894

@<SCITEGIC>MOL_PROPERTY
Bond
SciTegic.value.DoubleValue
0.253

@<SCITEGIC>MOL_PROPERTY
Angle
SciTegic.value.DoubleValue
3.362

@<SCITEGIC>MOL_PROPERTY
Pdih
SciTegic.value.DoubleValue
5.532

@<SCITEGIC>MOL_PROPERTY
Idih
SciTegic.value.DoubleValue
0.001

@<SCITEGIC>MOL_PROPERTY
Tether
SciTegic.value.DoubleValue
0.000

@<TRIPOS>MOLECULE
guest-8_vm2.mol2 : vm2 ligand conformer 101
          25          24           1
SMALL
USER_CHARGES
 
@<TRIPOS>ATOM
       1    C1      19.814477   18.873124   26.732612 C.2        1 MOL1         0.6168
       2    O1      20.438375   17.852904   26.949486 O.co2      1 MOL1        -0.6703
       3    O2      18.602236   18.944212   26.783204 O.co2      1 MOL1        -0.6703
       4    C2      20.595847   20.142313   26.404025 C.3        1 MOL1        -0.1963
       5    H1      21.633421   20.010293   26.733781 H          1 MOL1         0.0750
       6    H2      20.171816   20.954088   27.006614 H          1 MOL1         0.0750
       7    C3      20.555159   20.534473   24.904383 C.3        1 MOL1        -0.1860
       8    H3      19.507337   20.637686   24.592452 H          1 MOL1         0.0752
       9    H4      21.023199   21.519981   24.778689 H          1 MOL1         0.0752
      10    C4      21.280231   19.506126   24.003898 C.3        1 MOL1        -0.1858
      11    H5      20.791172   18.526396   24.085930 H          1 MOL1         0.0752
      12    H6      22.304173   19.365078   24.375563 H          1 MOL1         0.0752
      13    C5      21.353291   19.932794   22.516310 C.3        1 MOL1        -0.1858
      14    H7      21.931944   20.863435   22.442321 H          1 MOL1         0.0752
      15    H8      21.928097   19.180824   21.959976 H          1 MOL1         0.0752
      16    C6      19.982478   20.145382   21.820905 C.3        1 MOL1        -0.1858
      17    H9      20.160723   20.419796   20.772390 H          1 MOL1         0.0752
      18    H10     19.476923   21.009545   22.271306 H          1 MOL1         0.0752
      19    C7      19.026552   18.927679   21.862354 C.3        1 MOL1        -0.1834
      20    H11     18.763993   18.688526   22.901761 H          1 MOL1         0.0752
      21    H12     18.085583   19.203875   21.367241 H          1 MOL1         0.0752
      22    C8      19.604354   17.674993   21.168822 C.3        1 MOL1        -0.2849
      23    H13     20.489839   17.300114   21.697377 H          1 MOL1         0.0764
      24    H14     18.860573   16.868031   21.151175 H          1 MOL1         0.0764
      25    H15     19.889338   17.896166   20.132110 H          1 MOL1         0.0764
@<TRIPOS>BOND
    1     1     2    1
    2     1     3    2
    3     1     4    1
    4     4     5    1
    5     4     6    1
    6     4     7    1
    7     7     8    1
    8     7     9    1
    9     7    10    1
   10    10    11    1
   11    10    12    1
   12    10    13    1
   13    13    14    1
   14    13    15    1
   15    13    16    1
   16    16    17    1
   17    16    18    1
   18    16    19    1
   19    19    20    1
   20    19    21    1
   21    19    22    1
   22    22    23    1
   23    22    24    1
   24    22    25    1
@<TRIPOS>SUBSTRUCTURE
       1 MOL1            1 RESIDUE      1      MOL     
@<SCITEGIC>MOL_PROPERTY
VM2 Rank
SciTegic.value.IntegerValue
101

@<SCITEGIC>MOL_PROPERTY
Conf_Id
SciTegic.value.IntegerValue
221

@<SCITEGIC>MOL_PROPERTY
Probability
SciTegic.value.DoubleValue
0.01

@<SCITEGIC>MOL_PROPERTY
Sum Probability
SciTegic.value.DoubleValue
99.63

@<SCITEGIC>MOL_PROPERTY
Delta G
SciTegic.value.DoubleValue
4.434

@<SCITEGIC>MOL_PROPERTY
G
SciTegic.value.DoubleValue
-3.528

@<SCITEGIC>MOL_PROPERTY
E
SciTegic.value.DoubleValue
-29.003

@<SCITEGIC>MOL_PROPERTY
-TS
SciTegic.value.DoubleValue
25.475

@<SCITEGIC>MOL_PROPERTY
U+W
SciTegic.value.DoubleValue
-49.571

@<SCITEGIC>MOL_PROPERTY
U
SciTegic.value.DoubleValue
11.216

@<SCITEGIC>MOL_PROPERTY
W
SciTegic.value.DoubleValue
-60.787

@<SCITEGIC>MOL_PROPERTY
W(PB)
SciTegic.value.DoubleValue
-63.159

@<SCITEGIC>MOL_PROPERTY
W(SA)
SciTegic.value.DoubleValue
2.372

@<SCITEGIC>MOL_PROPERTY
Valence
SciTegic.value.DoubleValue
9.147

@<SCITEGIC>MOL_PROPERTY
Coulomb
SciTegic.value.DoubleValue
1.469

@<SCITEGIC>MOL_PROPERTY
VdW
SciTegic.value.DoubleValue
0.600

@<SCITEGIC>MOL_PROPERTY
VdW6
SciTegic.value.DoubleValue
-11.294

@<SCITEGIC>MOL_PROPERTY
VdW12
SciTegic.value.DoubleValue
11.894

@<SCITEGIC>MOL_PROPERTY
Bond
SciTegic.value.DoubleValue
0.253

@<SCITEGIC>MOL_PROPERTY
Angle
SciTegic.value.DoubleValue
3.362

@<SCITEGIC>MOL_PROPERTY
Pdih
SciTegic.value.DoubleValue
5.531

@<SCITEGIC>MOL_PROPERTY
Idih
SciTegic.value.DoubleValue
0.001

@<SCITEGIC>MOL_PROPERTY
Tether
SciTegic.value.DoubleValue
0.000

@<TRIPOS>MOLECULE
guest-8_vm2.mol2 : vm2 ligand conformer 102
          25          24           1
SMALL
USER_CHARGES
 
@<TRIPOS>ATOM
       1    C1      20.389440   19.652229   26.857453 C.2        1 MOL1         0.6168
       2    O1      21.460502   20.150053   26.571030 O.co2      1 MOL1        -0.6703
       3    O2      20.182796   19.052965   27.894652 O.co2      1 MOL1        -0.6703
       4    C2      19.231190   19.811144   25.876495 C.3        1 MOL1        -0.1963
       5    H1      19.492429   20.585830   25.146486 H          1 MOL1         0.0750
       6    H2      18.374461   20.194333   26.442783 H          1 MOL1         0.0750
       7    C3      18.825178   18.496307   25.156450 C.3        1 MOL1        -0.1860
       8    H3      18.504934   17.766001   25.912279 H          1 MOL1         0.0752
       9    H4      17.944136   18.684133   24.529495 H          1 MOL1         0.0752
      10    C4      19.950812   17.860362   24.299948 C.3        1 MOL1        -0.1858
      11    H5      19.565642   16.941740   23.836974 H          1 MOL1         0.0752
      12    H6      20.767038   17.543484   24.963606 H          1 MOL1         0.0752
      13    C5      20.540719   18.770441   23.193026 C.3        1 MOL1        -0.1858
      14    H7      21.023008   19.646282   23.646989 H          1 MOL1         0.0752
      15    H8      21.339650   18.211727   22.689655 H          1 MOL1         0.0752
      16    C6      19.495722   19.229353   22.146313 C.3        1 MOL1        -0.1858
      17    H9      18.701875   19.795842   22.649515 H          1 MOL1         0.0752
      18    H10     19.014916   18.351976   21.692983 H          1 MOL1         0.0752
      19    C7      20.091352   20.126037   21.035745 C.3        1 MOL1        -0.1834
      20    H11     19.268680   20.518536   20.422282 H          1 MOL1         0.0752
      21    H12     20.584292   20.997870   21.487659 H          1 MOL1         0.0752
      22    C8      21.085289   19.385109   20.114888 C.3        1 MOL1        -0.2849
      23    H13     21.986129   19.078229   20.660520 H          1 MOL1         0.0764
      24    H14     20.624119   18.489431   19.678811 H          1 MOL1         0.0764
      25    H15     21.403062   20.036697   19.290677 H          1 MOL1         0.0764
@<TRIPOS>BOND
    1     1     2    1
    2     1     3    2
    3     1     4    1
    4     4     5    1
    5     4     6    1
    6     4     7    1
    7     7     8    1
    8     7     9    1
    9     7    10    1
   10    10    11    1
   11    10    12    1
   12    10    13    1
   13    13    14    1
   14    13    15    1
   15    13    16    1
   16    16    17    1
   17    16    18    1
   18    16    19    1
   19    19    20    1
   20    19    21    1
   21    19    22    1
   22    22    23    1
   23    22    24    1
   24    22    25    1
@<TRIPOS>SUBSTRUCTURE
       1 MOL1            1 RESIDUE      1      MOL     
@<SCITEGIC>MOL_PROPERTY
VM2 Rank
SciTegic.value.IntegerValue
102

@<SCITEGIC>MOL_PROPERTY
Conf_Id
SciTegic.value.IntegerValue
525

@<SCITEGIC>MOL_PROPERTY
Probability
SciTegic.value.DoubleValue
0.01

@<SCITEGIC>MOL_PROPERTY
Sum Probability
SciTegic.value.DoubleValue
99.64

@<SCITEGIC>MOL_PROPERTY
Delta G
SciTegic.value.DoubleValue
4.445

@<SCITEGIC>MOL_PROPERTY
G
SciTegic.value.DoubleValue
-3.518

@<SCITEGIC>MOL_PROPERTY
E
SciTegic.value.DoubleValue
-28.841

@<SCITEGIC>MOL_PROPERTY
-TS
SciTegic.value.DoubleValue
25.323

@<SCITEGIC>MOL_PROPERTY
U+W
SciTegic.value.DoubleValue
-49.409

@<SCITEGIC>MOL_PROPERTY
U
SciTegic.value.DoubleValue
10.879

@<SCITEGIC>MOL_PROPERTY
W
SciTegic.value.DoubleValue
-60.287

@<SCITEGIC>MOL_PROPERTY
W(PB)
SciTegic.value.DoubleValue
-62.677

@<SCITEGIC>MOL_PROPERTY
W(SA)
SciTegic.value.DoubleValue
2.390

@<SCITEGIC>MOL_PROPERTY
Valence
SciTegic.value.DoubleValue
9.320

@<SCITEGIC>MOL_PROPERTY
Coulomb
SciTegic.value.DoubleValue
0.828

@<SCITEGIC>MOL_PROPERTY
VdW
SciTegic.value.DoubleValue
0.731

@<SCITEGIC>MOL_PROPERTY
VdW6
SciTegic.value.DoubleValue
-11.182

@<SCITEGIC>MOL_PROPERTY
VdW12
SciTegic.value.DoubleValue
11.913

@<SCITEGIC>MOL_PROPERTY
Bond
SciTegic.value.DoubleValue
0.267

@<SCITEGIC>MOL_PROPERTY
Angle
SciTegic.value.DoubleValue
3.459

@<SCITEGIC>MOL_PROPERTY
Pdih
SciTegic.value.DoubleValue
5.593

@<SCITEGIC>MOL_PROPERTY
Idih
SciTegic.value.DoubleValue
0.001

@<SCITEGIC>MOL_PROPERTY
Tether
SciTegic.value.DoubleValue
0.000

@<TRIPOS>MOLECULE
guest-8_vm2.mol2 : vm2 ligand conformer 103
          25          24           1
SMALL
USER_CHARGES
 
@<TRIPOS>ATOM
       1    C1      20.506027   19.507144   26.860987 C.2        1 MOL1         0.6168
       2    O1      21.231520   20.435573   26.563122 O.co2      1 MOL1        -0.6703
       3    O2      19.849737   19.468319   27.883421 O.co2      1 MOL1        -0.6703
       4    C2      20.435605   18.310708   25.916179 C.3        1 MOL1        -0.1963
       5    H1      20.609482   17.410310   26.516639 H          1 MOL1         0.0750
       6    H2      21.267022   18.374931   25.204899 H          1 MOL1         0.0750
       7    C3      19.083051   18.174696   25.165037 C.3        1 MOL1        -0.1860
       8    H3      19.091834   17.254136   24.567474 H          1 MOL1         0.0752
       9    H4      18.281524   18.043955   25.905062 H          1 MOL1         0.0752
      10    C4      18.728070   19.382754   24.259683 C.3        1 MOL1        -0.1858
      11    H5      18.578186   20.269001   24.891488 H          1 MOL1         0.0752
      12    H6      17.760186   19.189881   23.777429 H          1 MOL1         0.0752
      13    C5      19.772581   19.726788   23.167827 C.3        1 MOL1        -0.1858
      14    H7      19.413201   20.610763   22.626286 H          1 MOL1         0.0752
      15    H8      20.719967   20.023317   23.637203 H          1 MOL1         0.0752
      16    C6      20.021478   18.574377   22.163724 C.3        1 MOL1        -0.1858
      17    H9      19.072929   18.279773   21.694748 H          1 MOL1         0.0752
      18    H10     20.389385   17.693622   22.705232 H          1 MOL1         0.0752
      19    C7      21.054447   18.926707   21.067815 C.3        1 MOL1        -0.1834
      20    H11     22.000236   19.234326   21.534895 H          1 MOL1         0.0752
      21    H12     21.275409   18.019503   20.488734 H          1 MOL1         0.0752
      22    C8      20.570484   20.026934   20.098205 C.3        1 MOL1        -0.2849
      23    H13     20.451671   20.989771   20.610291 H          1 MOL1         0.0764
      24    H14     21.296707   20.170185   19.287679 H          1 MOL1         0.0764
      25    H15     19.607938   19.755920   19.645286 H          1 MOL1         0.0764
@<TRIPOS>BOND
    1     1     2    1
    2     1     3    2
    3     1     4    1
    4     4     5    1
    5     4     6    1
    6     4     7    1
    7     7     8    1
    8     7     9    1
    9     7    10    1
   10    10    11    1
   11    10    12    1
   12    10    13    1
   13    13    14    1
   14    13    15    1
   15    13    16    1
   16    16    17    1
   17    16    18    1
   18    16    19    1
   19    19    20    1
   20    19    21    1
   21    19    22    1
   22    22    23    1
   23    22    24    1
   24    22    25    1
@<TRIPOS>SUBSTRUCTURE
       1 MOL1            1 RESIDUE      1      MOL     
@<SCITEGIC>MOL_PROPERTY
VM2 Rank
SciTegic.value.IntegerValue
103

@<SCITEGIC>MOL_PROPERTY
Conf_Id
SciTegic.value.IntegerValue
1079

@<SCITEGIC>MOL_PROPERTY
Probability
SciTegic.value.DoubleValue
0.01

@<SCITEGIC>MOL_PROPERTY
Sum Probability
SciTegic.value.DoubleValue
99.65

@<SCITEGIC>MOL_PROPERTY
Delta G
SciTegic.value.DoubleValue
4.505

@<SCITEGIC>MOL_PROPERTY
G
SciTegic.value.DoubleValue
-3.458

@<SCITEGIC>MOL_PROPERTY
E
SciTegic.value.DoubleValue
-28.782

@<SCITEGIC>MOL_PROPERTY
-TS
SciTegic.value.DoubleValue
25.324

@<SCITEGIC>MOL_PROPERTY
U+W
SciTegic.value.DoubleValue
-49.349

@<SCITEGIC>MOL_PROPERTY
U
SciTegic.value.DoubleValue
10.879

@<SCITEGIC>MOL_PROPERTY
W
SciTegic.value.DoubleValue
-60.228

@<SCITEGIC>MOL_PROPERTY
W(PB)
SciTegic.value.DoubleValue
-62.635

@<SCITEGIC>MOL_PROPERTY
W(SA)
SciTegic.value.DoubleValue
2.407

@<SCITEGIC>MOL_PROPERTY
Valence
SciTegic.value.DoubleValue
9.320

@<SCITEGIC>MOL_PROPERTY
Coulomb
SciTegic.value.DoubleValue
0.828

@<SCITEGIC>MOL_PROPERTY
VdW
SciTegic.value.DoubleValue
0.731

@<SCITEGIC>MOL_PROPERTY
VdW6
SciTegic.value.DoubleValue
-11.182

@<SCITEGIC>MOL_PROPERTY
VdW12
SciTegic.value.DoubleValue
11.913

@<SCITEGIC>MOL_PROPERTY
Bond
SciTegic.value.DoubleValue
0.267

@<SCITEGIC>MOL_PROPERTY
Angle
SciTegic.value.DoubleValue
3.459

@<SCITEGIC>MOL_PROPERTY
Pdih
SciTegic.value.DoubleValue
5.593

@<SCITEGIC>MOL_PROPERTY
Idih
SciTegic.value.DoubleValue
0.001

@<SCITEGIC>MOL_PROPERTY
Tether
SciTegic.value.DoubleValue
0.000

@<TRIPOS>MOLECULE
guest-8_vm2.mol2 : vm2 ligand conformer 104
          25          24           1
SMALL
USER_CHARGES
 
@<TRIPOS>ATOM
       1    C1      19.705553   18.888864   26.941249 C.2        1 MOL1         0.6168
       2    O1      20.438197   18.490695   27.825272 O.co2      1 MOL1        -0.6703
       3    O2      18.555132   19.234421   27.125279 O.co2      1 MOL1        -0.6703
       4    C2      20.268371   18.981823   25.527611 C.3        1 MOL1        -0.1963
       5    H1      19.449709   18.769067   24.830928 H          1 MOL1         0.0750
       6    H2      21.019555   18.192295   25.406971 H          1 MOL1         0.0750
       7    C3      20.891290   20.366854   25.219583 C.3        1 MOL1        -0.1860
       8    H3      20.105772   21.133748   25.265290 H          1 MOL1         0.0752
       9    H4      21.609406   20.614850   26.013439 H          1 MOL1         0.0752
      10    C4      21.619397   20.450555   23.854339 C.3        1 MOL1        -0.1858
      11    H5      22.475428   19.762193   23.840848 H          1 MOL1         0.0752
      12    H6      22.046623   21.459038   23.768682 H          1 MOL1         0.0752
      13    C5      20.711045   20.204673   22.622706 C.3        1 MOL1        -0.1858
      14    H7      19.681014   20.501304   22.858523 H          1 MOL1         0.0752
      15    H8      21.041260   20.864797   21.809179 H          1 MOL1         0.0752
      16    C6      20.761072   18.744213   22.107396 C.3        1 MOL1        -0.1858
      17    H9      20.438516   18.046741   22.889210 H          1 MOL1         0.0752
      18    H10     21.803709   18.485828   21.877762 H          1 MOL1         0.0752
      19    C7      19.910079   18.513519   20.837078 C.3        1 MOL1        -0.1834
      20    H11     20.224563   19.209012   20.046744 H          1 MOL1         0.0752
      21    H12     20.110463   17.501939   20.457939 H          1 MOL1         0.0752
      22    C8      18.392864   18.658383   21.085487 C.3        1 MOL1        -0.2849
      23    H13     17.829114   18.396788   20.180721 H          1 MOL1         0.0764
      24    H14     18.062004   17.993543   21.893976 H          1 MOL1         0.0764
      25    H15     18.126977   19.687729   21.356012 H          1 MOL1         0.0764
@<TRIPOS>BOND
    1     1     2    1
    2     1     3    2
    3     1     4    1
    4     4     5    1
    5     4     6    1
    6     4     7    1
    7     7     8    1
    8     7     9    1
    9     7    10    1
   10    10    11    1
   11    10    12    1
   12    10    13    1
   13    13    14    1
   14    13    15    1
   15    13    16    1
   16    16    17    1
   17    16    18    1
   18    16    19    1
   19    19    20    1
   20    19    21    1
   21    19    22    1
   22    22    23    1
   23    22    24    1
   24    22    25    1
@<TRIPOS>SUBSTRUCTURE
       1 MOL1            1 RESIDUE      1      MOL     
@<SCITEGIC>MOL_PROPERTY
VM2 Rank
SciTegic.value.IntegerValue
104

@<SCITEGIC>MOL_PROPERTY
Conf_Id
SciTegic.value.IntegerValue
282

@<SCITEGIC>MOL_PROPERTY
Probability
SciTegic.value.DoubleValue
0.01

@<SCITEGIC>MOL_PROPERTY
Sum Probability
SciTegic.value.DoubleValue
99.66

@<SCITEGIC>MOL_PROPERTY
Delta G
SciTegic.value.DoubleValue
4.542

@<SCITEGIC>MOL_PROPERTY
G
SciTegic.value.DoubleValue
-3.420

@<SCITEGIC>MOL_PROPERTY
E
SciTegic.value.DoubleValue
-28.278

@<SCITEGIC>MOL_PROPERTY
-TS
SciTegic.value.DoubleValue
24.858

@<SCITEGIC>MOL_PROPERTY
U+W
SciTegic.value.DoubleValue
-48.845

@<SCITEGIC>MOL_PROPERTY
U
SciTegic.value.DoubleValue
11.037

@<SCITEGIC>MOL_PROPERTY
W
SciTegic.value.DoubleValue
-59.882

@<SCITEGIC>MOL_PROPERTY
W(PB)
SciTegic.value.DoubleValue
-62.300

@<SCITEGIC>MOL_PROPERTY
W(SA)
SciTegic.value.DoubleValue
2.418

@<SCITEGIC>MOL_PROPERTY
Valence
SciTegic.value.DoubleValue
11.015

@<SCITEGIC>MOL_PROPERTY
Coulomb
SciTegic.value.DoubleValue
-0.980

@<SCITEGIC>MOL_PROPERTY
VdW
SciTegic.value.DoubleValue
1.002

@<SCITEGIC>MOL_PROPERTY
VdW6
SciTegic.value.DoubleValue
-10.121

@<SCITEGIC>MOL_PROPERTY
VdW12
SciTegic.value.DoubleValue
11.123

@<SCITEGIC>MOL_PROPERTY
Bond
SciTegic.value.DoubleValue
0.236

@<SCITEGIC>MOL_PROPERTY
Angle
SciTegic.value.DoubleValue
3.219

@<SCITEGIC>MOL_PROPERTY
Pdih
SciTegic.value.DoubleValue
7.559

@<SCITEGIC>MOL_PROPERTY
Idih
SciTegic.value.DoubleValue
0.001

@<SCITEGIC>MOL_PROPERTY
Tether
SciTegic.value.DoubleValue
0.000

@<TRIPOS>MOLECULE
guest-8_vm2.mol2 : vm2 ligand conformer 105
          25          24           1
SMALL
USER_CHARGES
 
@<TRIPOS>ATOM
       1    C1      20.032852   19.935509   26.909540 C.2        1 MOL1         0.6168
       2    O1      20.876806   19.893547   27.782913 O.co2      1 MOL1        -0.6703
       3    O2      18.893548   20.316651   27.092466 O.co2      1 MOL1        -0.6703
       4    C2      20.418411   19.461209   25.513058 C.3        1 MOL1        -0.1963
       5    H1      21.483267   19.674589   25.362276 H          1 MOL1         0.0750
       6    H2      19.854751   20.063547   24.791729 H          1 MOL1         0.0750
       7    C3      20.136656   17.953533   25.292254 C.3        1 MOL1        -0.1860
       8    H3      20.599373   17.384847   26.110720 H          1 MOL1         0.0752
       9    H4      19.055193   17.774148   25.366509 H          1 MOL1         0.0752
      10    C4      20.664003   17.395463   23.946333 C.3        1 MOL1        -0.1858
      11    H5      20.439574   16.320285   23.923473 H          1 MOL1         0.0752
      12    H6      21.759269   17.472065   23.909743 H          1 MOL1         0.0752
      13    C5      20.036156   18.046742   22.687713 C.3        1 MOL1        -0.1858
      14    H7      19.917588   17.272612   21.917456 H          1 MOL1         0.0752
      15    H8      19.024780   18.402910   22.921863 H          1 MOL1         0.0752
      16    C6      20.899971   19.187851   22.093846 C.3        1 MOL1        -0.1858
      17    H9      21.899936   18.793381   21.867900 H          1 MOL1         0.0752
      18    H10     21.045819   19.986360   22.830635 H          1 MOL1         0.0752
      19    C7      20.309741   19.792219   20.798670 C.3        1 MOL1        -0.1834
      20    H11     21.043927   20.486895   20.367870 H          1 MOL1         0.0752
      21    H12     20.158115   18.999446   20.053177 H          1 MOL1         0.0752
      22    C8      18.984856   20.551276   21.029207 C.3        1 MOL1        -0.2849
      23    H13     19.105924   21.329278   21.794186 H          1 MOL1         0.0764
      24    H14     18.654663   21.037339   20.102082 H          1 MOL1         0.0764
      25    H15     18.184816   19.873427   21.351526 H          1 MOL1         0.0764
@<TRIPOS>BOND
    1     1     2    1
    2     1     3    2
    3     1     4    1
    4     4     5    1
    5     4     6    1
    6     4     7    1
    7     7     8    1
    8     7     9    1
    9     7    10    1
   10    10    11    1
   11    10    12    1
   12    10    13    1
   13    13    14    1
   14    13    15    1
   15    13    16    1
   16    16    17    1
   17    16    18    1
   18    16    19    1
   19    19    20    1
   20    19    21    1
   21    19    22    1
   22    22    23    1
   23    22    24    1
   24    22    25    1
@<TRIPOS>SUBSTRUCTURE
       1 MOL1            1 RESIDUE      1      MOL     
@<SCITEGIC>MOL_PROPERTY
VM2 Rank
SciTegic.value.IntegerValue
105

@<SCITEGIC>MOL_PROPERTY
Conf_Id
SciTegic.value.IntegerValue
1374

@<SCITEGIC>MOL_PROPERTY
Probability
SciTegic.value.DoubleValue
0.01

@<SCITEGIC>MOL_PROPERTY
Sum Probability
SciTegic.value.DoubleValue
99.67

@<SCITEGIC>MOL_PROPERTY
Delta G
SciTegic.value.DoubleValue
4.545

@<SCITEGIC>MOL_PROPERTY
G
SciTegic.value.DoubleValue
-3.418

@<SCITEGIC>MOL_PROPERTY
E
SciTegic.value.DoubleValue
-28.275

@<SCITEGIC>MOL_PROPERTY
-TS
SciTegic.value.DoubleValue
24.858

@<SCITEGIC>MOL_PROPERTY
U+W
SciTegic.value.DoubleValue
-48.843

@<SCITEGIC>MOL_PROPERTY
U
SciTegic.value.DoubleValue
11.037

@<SCITEGIC>MOL_PROPERTY
W
SciTegic.value.DoubleValue
-59.880

@<SCITEGIC>MOL_PROPERTY
W(PB)
SciTegic.value.DoubleValue
-62.286

@<SCITEGIC>MOL_PROPERTY
W(SA)
SciTegic.value.DoubleValue
2.406

@<SCITEGIC>MOL_PROPERTY
Valence
SciTegic.value.DoubleValue
11.015

@<SCITEGIC>MOL_PROPERTY
Coulomb
SciTegic.value.DoubleValue
-0.980

@<SCITEGIC>MOL_PROPERTY
VdW
SciTegic.value.DoubleValue
1.002

@<SCITEGIC>MOL_PROPERTY
VdW6
SciTegic.value.DoubleValue
-10.121

@<SCITEGIC>MOL_PROPERTY
VdW12
SciTegic.value.DoubleValue
11.123

@<SCITEGIC>MOL_PROPERTY
Bond
SciTegic.value.DoubleValue
0.236

@<SCITEGIC>MOL_PROPERTY
Angle
SciTegic.value.DoubleValue
3.219

@<SCITEGIC>MOL_PROPERTY
Pdih
SciTegic.value.DoubleValue
7.560

@<SCITEGIC>MOL_PROPERTY
Idih
SciTegic.value.DoubleValue
0.001

@<SCITEGIC>MOL_PROPERTY
Tether
SciTegic.value.DoubleValue
0.000

@<TRIPOS>MOLECULE
guest-8_vm2.mol2 : vm2 ligand conformer 106
          25          24           1
SMALL
USER_CHARGES
 
@<TRIPOS>ATOM
       1    C1      19.950779   19.660707   26.882909 C.2        1 MOL1         0.6168
       2    O1      20.869914   20.413464   27.140119 O.co2      1 MOL1        -0.6703
       3    O2      18.781492   19.988459   26.933949 O.co2      1 MOL1        -0.6703
       4    C2      20.277018   18.208406   26.539913 C.3        1 MOL1        -0.1963
       5    H1      19.340416   17.658304   26.388479 H          1 MOL1         0.0750
       6    H2      20.750678   17.781215   27.431334 H          1 MOL1         0.0750
       7    C3      21.222126   18.010051   25.321304 C.3        1 MOL1        -0.1860
       8    H3      22.051753   18.729109   25.368712 H          1 MOL1         0.0752
       9    H4      21.680239   17.015518   25.407796 H          1 MOL1         0.0752
      10    C4      20.528897   18.089243   23.938158 C.3        1 MOL1        -0.1858
      11    H5      19.701698   17.367672   23.897754 H          1 MOL1         0.0752
      12    H6      21.256611   17.766997   23.183104 H          1 MOL1         0.0752
      13    C5      20.006096   19.500426   23.575364 C.3        1 MOL1        -0.1858
      14    H7      19.229762   19.793400   24.292523 H          1 MOL1         0.0752
      15    H8      20.816095   20.235910   23.674047 H          1 MOL1         0.0752
      16    C6      19.393938   19.586950   22.156512 C.3        1 MOL1        -0.1858
      17    H9      18.900742   20.563041   22.052080 H          1 MOL1         0.0752
      18    H10     18.606402   18.828746   22.048153 H          1 MOL1         0.0752
      19    C7      20.431818   19.429917   21.021795 C.3        1 MOL1        -0.1834
      20    H11     21.247298   20.152553   21.163141 H          1 MOL1         0.0752
      21    H12     20.881454   18.429136   21.053333 H          1 MOL1         0.0752
      22    C8      19.790923   19.646377   19.635978 C.3        1 MOL1        -0.2849
      23    H13     19.364385   20.654600   19.552945 H          1 MOL1         0.0764
      24    H14     20.538994   19.528742   18.841245 H          1 MOL1         0.0764
      25    H15     18.988613   18.918675   19.456770 H          1 MOL1         0.0764
@<TRIPOS>BOND
    1     1     2    1
    2     1     3    2
    3     1     4    1
    4     4     5    1
    5     4     6    1
    6     4     7    1
    7     7     8    1
    8     7     9    1
    9     7    10    1
   10    10    11    1
   11    10    12    1
   12    10    13    1
   13    13    14    1
   14    13    15    1
   15    13    16    1
   16    16    17    1
   17    16    18    1
   18    16    19    1
   19    19    20    1
   20    19    21    1
   21    19    22    1
   22    22    23    1
   23    22    24    1
   24    22    25    1
@<TRIPOS>SUBSTRUCTURE
       1 MOL1            1 RESIDUE      1      MOL     
@<SCITEGIC>MOL_PROPERTY
VM2 Rank
SciTegic.value.IntegerValue
106

@<SCITEGIC>MOL_PROPERTY
Conf_Id
SciTegic.value.IntegerValue
1348

@<SCITEGIC>MOL_PROPERTY
Probability
SciTegic.value.DoubleValue
0.01

@<SCITEGIC>MOL_PROPERTY
Sum Probability
SciTegic.value.DoubleValue
99.68

@<SCITEGIC>MOL_PROPERTY
Delta G
SciTegic.value.DoubleValue
4.582

@<SCITEGIC>MOL_PROPERTY
G
SciTegic.value.DoubleValue
-3.380

@<SCITEGIC>MOL_PROPERTY
E
SciTegic.value.DoubleValue
-28.384

@<SCITEGIC>MOL_PROPERTY
-TS
SciTegic.value.DoubleValue
25.004

@<SCITEGIC>MOL_PROPERTY
U+W
SciTegic.value.DoubleValue
-48.951

@<SCITEGIC>MOL_PROPERTY
U
SciTegic.value.DoubleValue
11.422

@<SCITEGIC>MOL_PROPERTY
W
SciTegic.value.DoubleValue
-60.373

@<SCITEGIC>MOL_PROPERTY
W(PB)
SciTegic.value.DoubleValue
-62.795

@<SCITEGIC>MOL_PROPERTY
W(SA)
SciTegic.value.DoubleValue
2.422

@<SCITEGIC>MOL_PROPERTY
Valence
SciTegic.value.DoubleValue
10.135

@<SCITEGIC>MOL_PROPERTY
Coulomb
SciTegic.value.DoubleValue
0.369

@<SCITEGIC>MOL_PROPERTY
VdW
SciTegic.value.DoubleValue
0.918

@<SCITEGIC>MOL_PROPERTY
VdW6
SciTegic.value.DoubleValue
-10.483

@<SCITEGIC>MOL_PROPERTY
VdW12
SciTegic.value.DoubleValue
11.401

@<SCITEGIC>MOL_PROPERTY
Bond
SciTegic.value.DoubleValue
0.245

@<SCITEGIC>MOL_PROPERTY
Angle
SciTegic.value.DoubleValue
3.538

@<SCITEGIC>MOL_PROPERTY
Pdih
SciTegic.value.DoubleValue
6.347

@<SCITEGIC>MOL_PROPERTY
Idih
SciTegic.value.DoubleValue
0.006

@<SCITEGIC>MOL_PROPERTY
Tether
SciTegic.value.DoubleValue
0.000

@<TRIPOS>MOLECULE
guest-8_vm2.mol2 : vm2 ligand conformer 107
          25          24           1
SMALL
USER_CHARGES
 
@<TRIPOS>ATOM
       1    C1      20.273430   19.482495   26.977709 C.2        1 MOL1         0.6168
       2    O1      21.289745   20.135006   26.842467 O.co2      1 MOL1        -0.6703
       3    O2      19.351067   19.815618   27.695897 O.co2      1 MOL1        -0.6703
       4    C2      20.159335   18.157359   26.229360 C.3        1 MOL1        -0.1963
       5    H1      19.868004   17.394795   26.960979 H          1 MOL1         0.0750
       6    H2      21.152915   17.872564   25.865650 H          1 MOL1         0.0750
       7    C3      19.130073   18.171351   25.065947 C.3        1 MOL1        -0.1860
       8    H3      19.072558   17.167880   24.623158 H          1 MOL1         0.0752
       9    H4      18.134680   18.381366   25.481149 H          1 MOL1         0.0752
      10    C4      19.430525   19.203591   23.951061 C.3        1 MOL1        -0.1858
      11    H5      19.457051   20.215333   24.378267 H          1 MOL1         0.0752
      12    H6      18.592963   19.187746   23.242271 H          1 MOL1         0.0752
      13    C5      20.751036   18.924861   23.192173 C.3        1 MOL1        -0.1858
      14    H7      21.588552   18.952963   23.900922 H          1 MOL1         0.0752
      15    H8      20.734845   17.909007   22.776763 H          1 MOL1         0.0752
      16    C6      21.048801   19.952009   22.070304 C.3        1 MOL1        -0.1858
      17    H9      22.030348   19.720237   21.635055 H          1 MOL1         0.0752
      18    H10     21.145410   20.949764   22.519685 H          1 MOL1         0.0752
      19    C7      20.002397   20.017323   20.929976 C.3        1 MOL1        -0.1834
      20    H11     19.036027   20.362350   21.320310 H          1 MOL1         0.0752
      21    H12     20.323851   20.777570   20.204915 H          1 MOL1         0.0752
      22    C8      19.816590   18.674388   20.191105 C.3        1 MOL1        -0.2849
      23    H13     19.383223   17.912983   20.851810 H          1 MOL1         0.0764
      24    H14     19.139614   18.796738   19.335835 H          1 MOL1         0.0764
      25    H15     20.775870   18.297931   19.812912 H          1 MOL1         0.0764
@<TRIPOS>BOND
    1     1     2    1
    2     1     3    2
    3     1     4    1
    4     4     5    1
    5     4     6    1
    6     4     7    1
    7     7     8    1
    8     7     9    1
    9     7    10    1
   10    10    11    1
   11    10    12    1
   12    10    13    1
   13    13    14    1
   14    13    15    1
   15    13    16    1
   16    16    17    1
   17    16    18    1
   18    16    19    1
   19    19    20    1
   20    19    21    1
   21    19    22    1
   22    22    23    1
   23    22    24    1
   24    22    25    1
@<TRIPOS>SUBSTRUCTURE
       1 MOL1            1 RESIDUE      1      MOL     
@<SCITEGIC>MOL_PROPERTY
VM2 Rank
SciTegic.value.IntegerValue
107

@<SCITEGIC>MOL_PROPERTY
Conf_Id
SciTegic.value.IntegerValue
531

@<SCITEGIC>MOL_PROPERTY
Probability
SciTegic.value.DoubleValue
0.01

@<SCITEGIC>MOL_PROPERTY
Sum Probability
SciTegic.value.DoubleValue
99.70

@<SCITEGIC>MOL_PROPERTY
Delta G
SciTegic.value.DoubleValue
4.599

@<SCITEGIC>MOL_PROPERTY
G
SciTegic.value.DoubleValue
-3.363

@<SCITEGIC>MOL_PROPERTY
E
SciTegic.value.DoubleValue
-28.566

@<SCITEGIC>MOL_PROPERTY
-TS
SciTegic.value.DoubleValue
25.203

@<SCITEGIC>MOL_PROPERTY
U+W
SciTegic.value.DoubleValue
-49.134

@<SCITEGIC>MOL_PROPERTY
U
SciTegic.value.DoubleValue
11.036

@<SCITEGIC>MOL_PROPERTY
W
SciTegic.value.DoubleValue
-60.169

@<SCITEGIC>MOL_PROPERTY
W(PB)
SciTegic.value.DoubleValue
-62.563

@<SCITEGIC>MOL_PROPERTY
W(SA)
SciTegic.value.DoubleValue
2.394

@<SCITEGIC>MOL_PROPERTY
Valence
SciTegic.value.DoubleValue
9.325

@<SCITEGIC>MOL_PROPERTY
Coulomb
SciTegic.value.DoubleValue
0.928

@<SCITEGIC>MOL_PROPERTY
VdW
SciTegic.value.DoubleValue
0.783

@<SCITEGIC>MOL_PROPERTY
VdW6
SciTegic.value.DoubleValue
-11.027

@<SCITEGIC>MOL_PROPERTY
VdW12
SciTegic.value.DoubleValue
11.810

@<SCITEGIC>MOL_PROPERTY
Bond
SciTegic.value.DoubleValue
0.268

@<SCITEGIC>MOL_PROPERTY
Angle
SciTegic.value.DoubleValue
3.516

@<SCITEGIC>MOL_PROPERTY
Pdih
SciTegic.value.DoubleValue
5.540

@<SCITEGIC>MOL_PROPERTY
Idih
SciTegic.value.DoubleValue
0.001

@<SCITEGIC>MOL_PROPERTY
Tether
SciTegic.value.DoubleValue
0.000

@<TRIPOS>MOLECULE
guest-8_vm2.mol2 : vm2 ligand conformer 108
          25          24           1
SMALL
USER_CHARGES
 
@<TRIPOS>ATOM
       1    C1      19.688274   19.196712   26.758643 C.2        1 MOL1         0.6168
       2    O1      20.178130   18.226340   27.302800 O.co2      1 MOL1        -0.6703
       3    O2      18.494729   19.328987   26.571072 O.co2      1 MOL1        -0.6703
       4    C2      20.612896   20.340762   26.346997 C.3        1 MOL1        -0.1963
       5    H1      21.053762   20.729416   27.272212 H          1 MOL1         0.0750
       6    H2      20.008761   21.151568   25.922248 H          1 MOL1         0.0750
       7    C3      21.754905   19.950509   25.366958 C.3        1 MOL1        -0.1860
       8    H3      22.532140   20.724342   25.425908 H          1 MOL1         0.0752
       9    H4      22.231439   19.017861   25.699574 H          1 MOL1         0.0752
      10    C4      21.322620   19.827267   23.884739 C.3        1 MOL1        -0.1858
      11    H5      22.226119   19.698537   23.273308 H          1 MOL1         0.0752
      12    H6      20.861299   20.769941   23.562337 H          1 MOL1         0.0752
      13    C5      20.361294   18.646604   23.607076 C.3        1 MOL1        -0.1858
      14    H7      20.755183   17.740892   24.088175 H          1 MOL1         0.0752
      15    H8      19.383222   18.843554   24.064267 H          1 MOL1         0.0752
      16    C6      20.163090   18.359056   22.099697 C.3        1 MOL1        -0.1858
      17    H9      19.555079   17.450052   21.995519 H          1 MOL1         0.0752
      18    H10     21.134148   18.137995   21.636047 H          1 MOL1         0.0752
      19    C7      19.473938   19.514933   21.339902 C.3        1 MOL1        -0.1834
      20    H11     18.525349   19.768300   21.833159 H          1 MOL1         0.0752
      21    H12     20.101983   20.415016   21.371714 H          1 MOL1         0.0752
      22    C8      19.203125   19.142833   19.868114 C.3        1 MOL1        -0.2849
      23    H13     20.139229   18.911234   19.343311 H          1 MOL1         0.0764
      24    H14     18.545122   18.266738   19.798684 H          1 MOL1         0.0764
      25    H15     18.716431   19.974442   19.342197 H          1 MOL1         0.0764
@<TRIPOS>BOND
    1     1     2    1
    2     1     3    2
    3     1     4    1
    4     4     5    1
    5     4     6    1
    6     4     7    1
    7     7     8    1
    8     7     9    1
    9     7    10    1
   10    10    11    1
   11    10    12    1
   12    10    13    1
   13    13    14    1
   14    13    15    1
   15    13    16    1
   16    16    17    1
   17    16    18    1
   18    16    19    1
   19    19    20    1
   20    19    21    1
   21    19    22    1
   22    22    23    1
   23    22    24    1
   24    22    25    1
@<TRIPOS>SUBSTRUCTURE
       1 MOL1            1 RESIDUE      1      MOL     
@<SCITEGIC>MOL_PROPERTY
VM2 Rank
SciTegic.value.IntegerValue
108

@<SCITEGIC>MOL_PROPERTY
Conf_Id
SciTegic.value.IntegerValue
537

@<SCITEGIC>MOL_PROPERTY
Probability
SciTegic.value.DoubleValue
0.01

@<SCITEGIC>MOL_PROPERTY
Sum Probability
SciTegic.value.DoubleValue
99.71

@<SCITEGIC>MOL_PROPERTY
Delta G
SciTegic.value.DoubleValue
4.606

@<SCITEGIC>MOL_PROPERTY
G
SciTegic.value.DoubleValue
-3.356

@<SCITEGIC>MOL_PROPERTY
E
SciTegic.value.DoubleValue
-28.543

@<SCITEGIC>MOL_PROPERTY
-TS
SciTegic.value.DoubleValue
25.187

@<SCITEGIC>MOL_PROPERTY
U+W
SciTegic.value.DoubleValue
-49.111

@<SCITEGIC>MOL_PROPERTY
U
SciTegic.value.DoubleValue
11.401

@<SCITEGIC>MOL_PROPERTY
W
SciTegic.value.DoubleValue
-60.512

@<SCITEGIC>MOL_PROPERTY
W(PB)
SciTegic.value.DoubleValue
-62.942

@<SCITEGIC>MOL_PROPERTY
W(SA)
SciTegic.value.DoubleValue
2.430

@<SCITEGIC>MOL_PROPERTY
Valence
SciTegic.value.DoubleValue
9.920

@<SCITEGIC>MOL_PROPERTY
Coulomb
SciTegic.value.DoubleValue
0.705

@<SCITEGIC>MOL_PROPERTY
VdW
SciTegic.value.DoubleValue
0.777

@<SCITEGIC>MOL_PROPERTY
VdW6
SciTegic.value.DoubleValue
-10.717

@<SCITEGIC>MOL_PROPERTY
VdW12
SciTegic.value.DoubleValue
11.493

@<SCITEGIC>MOL_PROPERTY
Bond
SciTegic.value.DoubleValue
0.235

@<SCITEGIC>MOL_PROPERTY
Angle
SciTegic.value.DoubleValue
3.375

@<SCITEGIC>MOL_PROPERTY
Pdih
SciTegic.value.DoubleValue
6.304

@<SCITEGIC>MOL_PROPERTY
Idih
SciTegic.value.DoubleValue
0.006

@<SCITEGIC>MOL_PROPERTY
Tether
SciTegic.value.DoubleValue
0.000

@<TRIPOS>MOLECULE
guest-8_vm2.mol2 : vm2 ligand conformer 109
          25          24           1
SMALL
USER_CHARGES
 
@<TRIPOS>ATOM
       1    C1      20.622014   19.255383   26.747858 C.2        1 MOL1         0.6168
       2    O1      21.784928   19.535941   26.533041 O.co2      1 MOL1        -0.6703
       3    O2      20.270313   18.232083   27.301802 O.co2      1 MOL1        -0.6703
       4    C2      19.552101   20.273964   26.359262 C.3        1 MOL1        -0.1963
       5    H1      20.039939   21.153496   25.921956 H          1 MOL1         0.0750
       6    H2      19.087376   20.605594   27.294937 H          1 MOL1         0.0750
       7    C3      18.445788   19.742291   25.405138 C.3        1 MOL1        -0.1860
       8    H3      18.097641   18.757758   25.747247 H          1 MOL1         0.0752
       9    H4      17.579276   20.412719   25.483056 H          1 MOL1         0.0752
      10    C4      18.855943   19.672072   23.913202 C.3        1 MOL1        -0.1858
      11    H5      19.187925   20.664673   23.581651 H          1 MOL1         0.0752
      12    H6      17.961898   19.430218   23.322507 H          1 MOL1         0.0752
      13    C5      19.951051   18.620831   23.611805 C.3        1 MOL1        -0.1858
      14    H7      20.906971   18.939501   24.046668 H          1 MOL1         0.0752
      15    H8      19.684977   17.673586   24.100526 H          1 MOL1         0.0752
      16    C6      20.149021   18.358220   22.099853 C.3        1 MOL1        -0.1858
      17    H9      19.202922   18.016530   21.658334 H          1 MOL1         0.0752
      18    H10     20.863609   17.532440   21.980400 H          1 MOL1         0.0752
      19    C7      20.670210   19.590268   21.326102 C.3        1 MOL1        -0.1834
      20    H11     19.935198   20.404578   21.373653 H          1 MOL1         0.0752
      21    H12     21.590644   19.961244   21.797798 H          1 MOL1         0.0752
      22    C8      20.951631   19.252946   19.847937 C.3        1 MOL1        -0.2849
      23    H13     20.040138   18.905048   19.344454 H          1 MOL1         0.0764
      24    H14     21.317995   20.138259   19.312186 H          1 MOL1         0.0764
      25    H15     21.712518   18.466170   19.762123 H          1 MOL1         0.0764
@<TRIPOS>BOND
    1     1     2    1
    2     1     3    2
    3     1     4    1
    4     4     5    1
    5     4     6    1
    6     4     7    1
    7     7     8    1
    8     7     9    1
    9     7    10    1
   10    10    11    1
   11    10    12    1
   12    10    13    1
   13    13    14    1
   14    13    15    1
   15    13    16    1
   16    16    17    1
   17    16    18    1
   18    16    19    1
   19    19    20    1
   20    19    21    1
   21    19    22    1
   22    22    23    1
   23    22    24    1
   24    22    25    1
@<TRIPOS>SUBSTRUCTURE
       1 MOL1            1 RESIDUE      1      MOL     
@<SCITEGIC>MOL_PROPERTY
VM2 Rank
SciTegic.value.IntegerValue
109

@<SCITEGIC>MOL_PROPERTY
Conf_Id
SciTegic.value.IntegerValue
533

@<SCITEGIC>MOL_PROPERTY
Probability
SciTegic.value.DoubleValue
0.01

@<SCITEGIC>MOL_PROPERTY
Sum Probability
SciTegic.value.DoubleValue
99.72

@<SCITEGIC>MOL_PROPERTY
Delta G
SciTegic.value.DoubleValue
4.620

@<SCITEGIC>MOL_PROPERTY
G
SciTegic.value.DoubleValue
-3.343

@<SCITEGIC>MOL_PROPERTY
E
SciTegic.value.DoubleValue
-28.530

@<SCITEGIC>MOL_PROPERTY
-TS
SciTegic.value.DoubleValue
25.187

@<SCITEGIC>MOL_PROPERTY
U+W
SciTegic.value.DoubleValue
-49.097

@<SCITEGIC>MOL_PROPERTY
U
SciTegic.value.DoubleValue
11.401

@<SCITEGIC>MOL_PROPERTY
W
SciTegic.value.DoubleValue
-60.498

@<SCITEGIC>MOL_PROPERTY
W(PB)
SciTegic.value.DoubleValue
-62.925

@<SCITEGIC>MOL_PROPERTY
W(SA)
SciTegic.value.DoubleValue
2.427

@<SCITEGIC>MOL_PROPERTY
Valence
SciTegic.value.DoubleValue
9.920

@<SCITEGIC>MOL_PROPERTY
Coulomb
SciTegic.value.DoubleValue
0.704

@<SCITEGIC>MOL_PROPERTY
VdW
SciTegic.value.DoubleValue
0.777

@<SCITEGIC>MOL_PROPERTY
VdW6
SciTegic.value.DoubleValue
-10.717

@<SCITEGIC>MOL_PROPERTY
VdW12
SciTegic.value.DoubleValue
11.493

@<SCITEGIC>MOL_PROPERTY
Bond
SciTegic.value.DoubleValue
0.235

@<SCITEGIC>MOL_PROPERTY
Angle
SciTegic.value.DoubleValue
3.375

@<SCITEGIC>MOL_PROPERTY
Pdih
SciTegic.value.DoubleValue
6.304

@<SCITEGIC>MOL_PROPERTY
Idih
SciTegic.value.DoubleValue
0.006

@<SCITEGIC>MOL_PROPERTY
Tether
SciTegic.value.DoubleValue
0.000

@<TRIPOS>MOLECULE
guest-8_vm2.mol2 : vm2 ligand conformer 110
          25          24           1
SMALL
USER_CHARGES
 
@<TRIPOS>ATOM
       1    C1      20.307617   19.566875   27.373999 C.2        1 MOL1         0.6168
       2    O1      21.389445   19.454922   27.916105 O.co2      1 MOL1        -0.6703
       3    O2      19.249317   19.533744   27.970356 O.co2      1 MOL1        -0.6703
       4    C2      20.275631   19.734976   25.859176 C.3        1 MOL1        -0.1963
       5    H1      21.176201   20.283601   25.558597 H          1 MOL1         0.0750
       6    H2      19.413263   20.364123   25.611348 H          1 MOL1         0.0750
       7    C3      20.197944   18.381141   25.106832 C.3        1 MOL1        -0.1860
       8    H3      21.026431   17.742070   25.442347 H          1 MOL1         0.0752
       9    H4      19.271773   17.859527   25.385027 H          1 MOL1         0.0752
      10    C4      20.274712   18.526590   23.568375 C.3        1 MOL1        -0.1858
      11    H5      20.313760   17.523381   23.122725 H          1 MOL1         0.0752
      12    H6      21.213676   19.029087   23.302506 H          1 MOL1         0.0752
      13    C5      19.078796   19.301322   22.966525 C.3        1 MOL1        -0.1858
      14    H7      18.146019   18.891030   23.376685 H          1 MOL1         0.0752
      15    H8      19.119995   20.352070   23.281925 H          1 MOL1         0.0752
      16    C6      18.997302   19.241612   21.420325 C.3        1 MOL1        -0.1858
      17    H9      18.079629   19.764771   21.118612 H          1 MOL1         0.0752
      18    H10     18.870488   18.202122   21.088339 H          1 MOL1         0.0752
      19    C7      20.190121   19.899525   20.682311 C.3        1 MOL1        -0.1834
      20    H11     19.815474   20.374013   19.764822 H          1 MOL1         0.0752
      21    H12     20.616086   20.708157   21.292152 H          1 MOL1         0.0752
      22    C8      21.292115   18.893292   20.281995 C.3        1 MOL1        -0.2849
      23    H13     20.888716   18.114732   19.621581 H          1 MOL1         0.0764
      24    H14     22.100546   19.404218   19.743301 H          1 MOL1         0.0764
      25    H15     21.732853   18.400687   21.155877 H          1 MOL1         0.0764
@<TRIPOS>BOND
    1     1     2    1
    2     1     3    2
    3     1     4    1
    4     4     5    1
    5     4     6    1
    6     4     7    1
    7     7     8    1
    8     7     9    1
    9     7    10    1
   10    10    11    1
   11    10    12    1
   12    10    13    1
   13    13    14    1
   14    13    15    1
   15    13    16    1
   16    16    17    1
   17    16    18    1
   18    16    19    1
   19    19    20    1
   20    19    21    1
   21    19    22    1
   22    22    23    1
   23    22    24    1
   24    22    25    1
@<TRIPOS>SUBSTRUCTURE
       1 MOL1            1 RESIDUE      1      MOL     
@<SCITEGIC>MOL_PROPERTY
VM2 Rank
SciTegic.value.IntegerValue
110

@<SCITEGIC>MOL_PROPERTY
Conf_Id
SciTegic.value.IntegerValue
463

@<SCITEGIC>MOL_PROPERTY
Probability
SciTegic.value.DoubleValue
0.01

@<SCITEGIC>MOL_PROPERTY
Sum Probability
SciTegic.value.DoubleValue
99.72

@<SCITEGIC>MOL_PROPERTY
Delta G
SciTegic.value.DoubleValue
4.650

@<SCITEGIC>MOL_PROPERTY
G
SciTegic.value.DoubleValue
-3.313

@<SCITEGIC>MOL_PROPERTY
E
SciTegic.value.DoubleValue
-28.169

@<SCITEGIC>MOL_PROPERTY
-TS
SciTegic.value.DoubleValue
24.857

@<SCITEGIC>MOL_PROPERTY
U+W
SciTegic.value.DoubleValue
-48.737

@<SCITEGIC>MOL_PROPERTY
U
SciTegic.value.DoubleValue
10.438

@<SCITEGIC>MOL_PROPERTY
W
SciTegic.value.DoubleValue
-59.175

@<SCITEGIC>MOL_PROPERTY
W(PB)
SciTegic.value.DoubleValue
-61.614

@<SCITEGIC>MOL_PROPERTY
W(SA)
SciTegic.value.DoubleValue
2.439

@<SCITEGIC>MOL_PROPERTY
Valence
SciTegic.value.DoubleValue
10.999

@<SCITEGIC>MOL_PROPERTY
Coulomb
SciTegic.value.DoubleValue
-1.665

@<SCITEGIC>MOL_PROPERTY
VdW
SciTegic.value.DoubleValue
1.104

@<SCITEGIC>MOL_PROPERTY
VdW6
SciTegic.value.DoubleValue
-9.904

@<SCITEGIC>MOL_PROPERTY
VdW12
SciTegic.value.DoubleValue
11.008

@<SCITEGIC>MOL_PROPERTY
Bond
SciTegic.value.DoubleValue
0.232

@<SCITEGIC>MOL_PROPERTY
Angle
SciTegic.value.DoubleValue
3.215

@<SCITEGIC>MOL_PROPERTY
Pdih
SciTegic.value.DoubleValue
7.552

@<SCITEGIC>MOL_PROPERTY
Idih
SciTegic.value.DoubleValue
0.001

@<SCITEGIC>MOL_PROPERTY
Tether
SciTegic.value.DoubleValue
0.000

@<TRIPOS>MOLECULE
guest-8_vm2.mol2 : vm2 ligand conformer 111
          25          24           1
SMALL
USER_CHARGES
 
@<TRIPOS>ATOM
       1    C1      20.324712   19.746365   27.229671 C.2        1 MOL1         0.6168
       2    O1      21.380445   19.607229   27.815194 O.co2      1 MOL1        -0.6703
       3    O2      19.262409   19.927590   27.791291 O.co2      1 MOL1        -0.6703
       4    C2      20.329989   19.665964   25.707351 C.3        1 MOL1        -0.1963
       5    H1      21.290738   20.054991   25.349569 H          1 MOL1         0.0750
       6    H2      19.548436   20.337897   25.335714 H          1 MOL1         0.0750
       7    C3      20.108032   18.223713   25.182089 C.3        1 MOL1        -0.1860
       8    H3      20.851426   17.561595   25.647240 H          1 MOL1         0.0752
       9    H4      19.123130   17.861003   25.507130 H          1 MOL1         0.0752
      10    C4      20.230708   18.102903   23.644539 C.3        1 MOL1        -0.1858
      11    H5      20.195396   17.038222   23.376608 H          1 MOL1         0.0752
      12    H6      21.217096   18.464337   23.330705 H          1 MOL1         0.0752
      13    C5      19.108544   18.847728   22.878783 C.3        1 MOL1        -0.1858
      14    H7      18.141788   18.460431   23.228139 H          1 MOL1         0.0752
      15    H8      19.114716   19.918604   23.118452 H          1 MOL1         0.0752
      16    C6      19.186771   18.659074   21.342166 C.3        1 MOL1        -0.1858
      17    H9      18.161128   18.609372   20.951756 H          1 MOL1         0.0752
      18    H10     19.645359   17.690959   21.098952 H          1 MOL1         0.0752
      19    C7      19.917214   19.797549   20.587563 C.3        1 MOL1        -0.1834
      20    H11     19.848349   19.600855   19.508807 H          1 MOL1         0.0752
      21    H12     19.394191   20.748244   20.760321 H          1 MOL1         0.0752
      22    C8      21.404177   19.955885   20.967354 C.3        1 MOL1        -0.2849
      23    H13     21.939385   19.002370   20.870926 H          1 MOL1         0.0764
      24    H14     21.892510   20.686785   20.310054 H          1 MOL1         0.0764
      25    H15     21.512650   20.314950   21.998335 H          1 MOL1         0.0764
@<TRIPOS>BOND
    1     1     2    1
    2     1     3    2
    3     1     4    1
    4     4     5    1
    5     4     6    1
    6     4     7    1
    7     7     8    1
    8     7     9    1
    9     7    10    1
   10    10    11    1
   11    10    12    1
   12    10    13    1
   13    13    14    1
   14    13    15    1
   15    13    16    1
   16    16    17    1
   17    16    18    1
   18    16    19    1
   19    19    20    1
   20    19    21    1
   21    19    22    1
   22    22    23    1
   23    22    24    1
   24    22    25    1
@<TRIPOS>SUBSTRUCTURE
       1 MOL1            1 RESIDUE      1      MOL     
@<SCITEGIC>MOL_PROPERTY
VM2 Rank
SciTegic.value.IntegerValue
111

@<SCITEGIC>MOL_PROPERTY
Conf_Id
SciTegic.value.IntegerValue
825

@<SCITEGIC>MOL_PROPERTY
Probability
SciTegic.value.DoubleValue
0.01

@<SCITEGIC>MOL_PROPERTY
Sum Probability
SciTegic.value.DoubleValue
99.73

@<SCITEGIC>MOL_PROPERTY
Delta G
SciTegic.value.DoubleValue
4.654

@<SCITEGIC>MOL_PROPERTY
G
SciTegic.value.DoubleValue
-3.308

@<SCITEGIC>MOL_PROPERTY
E
SciTegic.value.DoubleValue
-28.118

@<SCITEGIC>MOL_PROPERTY
-TS
SciTegic.value.DoubleValue
24.810

@<SCITEGIC>MOL_PROPERTY
U+W
SciTegic.value.DoubleValue
-48.686

@<SCITEGIC>MOL_PROPERTY
U
SciTegic.value.DoubleValue
10.664

@<SCITEGIC>MOL_PROPERTY
W
SciTegic.value.DoubleValue
-59.350

@<SCITEGIC>MOL_PROPERTY
W(PB)
SciTegic.value.DoubleValue
-61.759

@<SCITEGIC>MOL_PROPERTY
W(SA)
SciTegic.value.DoubleValue
2.410

@<SCITEGIC>MOL_PROPERTY
Valence
SciTegic.value.DoubleValue
11.013

@<SCITEGIC>MOL_PROPERTY
Coulomb
SciTegic.value.DoubleValue
-1.402

@<SCITEGIC>MOL_PROPERTY
VdW
SciTegic.value.DoubleValue
1.052

@<SCITEGIC>MOL_PROPERTY
VdW6
SciTegic.value.DoubleValue
-9.993

@<SCITEGIC>MOL_PROPERTY
VdW12
SciTegic.value.DoubleValue
11.045

@<SCITEGIC>MOL_PROPERTY
Bond
SciTegic.value.DoubleValue
0.241

@<SCITEGIC>MOL_PROPERTY
Angle
SciTegic.value.DoubleValue
3.228

@<SCITEGIC>MOL_PROPERTY
Pdih
SciTegic.value.DoubleValue
7.544

@<SCITEGIC>MOL_PROPERTY
Idih
SciTegic.value.DoubleValue
0.001

@<SCITEGIC>MOL_PROPERTY
Tether
SciTegic.value.DoubleValue
0.000

@<TRIPOS>MOLECULE
guest-8_vm2.mol2 : vm2 ligand conformer 112
          25          24           1
SMALL
USER_CHARGES
 
@<TRIPOS>ATOM
       1    C1      20.323184   18.930536   26.893375 C.2        1 MOL1         0.6168
       2    O1      21.469096   19.238965   27.156749 O.co2      1 MOL1        -0.6703
       3    O2      19.901901   17.792694   26.964773 O.co2      1 MOL1        -0.6703
       4    C2      19.342699   20.038737   26.514174 C.3        1 MOL1        -0.1963
       5    H1      19.264454   20.692687   27.390362 H          1 MOL1         0.0750
       6    H2      18.349474   19.599613   26.361051 H          1 MOL1         0.0750
       7    C3      19.750680   20.893087   25.280792 C.3        1 MOL1        -0.1860
       8    H3      19.213059   21.849089   25.339676 H          1 MOL1         0.0752
       9    H4      20.819084   21.144378   25.335002 H          1 MOL1         0.0752
      10    C4      19.424180   20.254350   23.907711 C.3        1 MOL1        -0.1858
      11    H5      19.598372   21.015851   23.137454 H          1 MOL1         0.0752
      12    H6      18.355192   20.006154   23.860631 H          1 MOL1         0.0752
      13    C5      20.265016   18.995967   23.582374 C.3        1 MOL1        -0.1858
      14    H7      21.334534   19.223602   23.687656 H          1 MOL1         0.0752
      15    H8      20.039553   18.211549   24.314964 H          1 MOL1         0.0752
      16    C6      19.991849   18.417330   22.173145 C.3        1 MOL1        -0.1858
      17    H9      18.917258   18.220511   22.057636 H          1 MOL1         0.0752
      18    H10     20.495160   17.443869   22.095993 H          1 MOL1         0.0752
      19    C7      20.484641   19.324864   21.022939 C.3        1 MOL1        -0.1834
      20    H11     19.936441   20.275754   21.027115 H          1 MOL1         0.0752
      21    H12     21.546375   19.566050   21.170372 H          1 MOL1         0.0752
      22    C8      20.299754   18.647471   19.649967 C.3        1 MOL1        -0.2849
      23    H13     20.868049   17.709776   19.594206 H          1 MOL1         0.0764
      24    H14     19.242034   18.419076   19.464411 H          1 MOL1         0.0764
      25    H15     20.651082   19.304713   18.843958 H          1 MOL1         0.0764
@<TRIPOS>BOND
    1     1     2    1
    2     1     3    2
    3     1     4    1
    4     4     5    1
    5     4     6    1
    6     4     7    1
    7     7     8    1
    8     7     9    1
    9     7    10    1
   10    10    11    1
   11    10    12    1
   12    10    13    1
   13    13    14    1
   14    13    15    1
   15    13    16    1
   16    16    17    1
   17    16    18    1
   18    16    19    1
   19    19    20    1
   20    19    21    1
   21    19    22    1
   22    22    23    1
   23    22    24    1
   24    22    25    1
@<TRIPOS>SUBSTRUCTURE
       1 MOL1            1 RESIDUE      1      MOL     
@<SCITEGIC>MOL_PROPERTY
VM2 Rank
SciTegic.value.IntegerValue
112

@<SCITEGIC>MOL_PROPERTY
Conf_Id
SciTegic.value.IntegerValue
764

@<SCITEGIC>MOL_PROPERTY
Probability
SciTegic.value.DoubleValue
0.01

@<SCITEGIC>MOL_PROPERTY
Sum Probability
SciTegic.value.DoubleValue
99.74

@<SCITEGIC>MOL_PROPERTY
Delta G
SciTegic.value.DoubleValue
4.657

@<SCITEGIC>MOL_PROPERTY
G
SciTegic.value.DoubleValue
-3.305

@<SCITEGIC>MOL_PROPERTY
E
SciTegic.value.DoubleValue
-28.308

@<SCITEGIC>MOL_PROPERTY
-TS
SciTegic.value.DoubleValue
25.003

@<SCITEGIC>MOL_PROPERTY
U+W
SciTegic.value.DoubleValue
-48.876

@<SCITEGIC>MOL_PROPERTY
U
SciTegic.value.DoubleValue
11.423

@<SCITEGIC>MOL_PROPERTY
W
SciTegic.value.DoubleValue
-60.299

@<SCITEGIC>MOL_PROPERTY
W(PB)
SciTegic.value.DoubleValue
-62.735

@<SCITEGIC>MOL_PROPERTY
W(SA)
SciTegic.value.DoubleValue
2.436

@<SCITEGIC>MOL_PROPERTY
Valence
SciTegic.value.DoubleValue
10.135

@<SCITEGIC>MOL_PROPERTY
Coulomb
SciTegic.value.DoubleValue
0.370

@<SCITEGIC>MOL_PROPERTY
VdW
SciTegic.value.DoubleValue
0.918

@<SCITEGIC>MOL_PROPERTY
VdW6
SciTegic.value.DoubleValue
-10.483

@<SCITEGIC>MOL_PROPERTY
VdW12
SciTegic.value.DoubleValue
11.401

@<SCITEGIC>MOL_PROPERTY
Bond
SciTegic.value.DoubleValue
0.245

@<SCITEGIC>MOL_PROPERTY
Angle
SciTegic.value.DoubleValue
3.539

@<SCITEGIC>MOL_PROPERTY
Pdih
SciTegic.value.DoubleValue
6.346

@<SCITEGIC>MOL_PROPERTY
Idih
SciTegic.value.DoubleValue
0.006

@<SCITEGIC>MOL_PROPERTY
Tether
SciTegic.value.DoubleValue
0.000

@<TRIPOS>MOLECULE
guest-8_vm2.mol2 : vm2 ligand conformer 113
          25          24           1
SMALL
USER_CHARGES
 
@<TRIPOS>ATOM
       1    C1      20.010658   19.465819   26.980787 C.2        1 MOL1         0.6168
       2    O1      20.899462   19.914601   27.678025 O.co2      1 MOL1        -0.6703
       3    O2      18.916782   19.983601   26.869920 O.co2      1 MOL1        -0.6703
       4    C2      20.275082   18.164821   26.228114 C.3        1 MOL1        -0.1963
       5    H1      19.317668   17.755391   25.887060 H          1 MOL1         0.0750
       6    H2      20.677883   17.446635   26.951719 H          1 MOL1         0.0750
       7    C3      21.267046   18.307871   25.041250 C.3        1 MOL1        -0.1860
       8    H3      22.236918   18.643573   25.433628 H          1 MOL1         0.0752
       9    H4      21.441616   17.319183   24.595887 H          1 MOL1         0.0752
      10    C4      20.811939   19.291681   23.935017 C.3        1 MOL1        -0.1858
      11    H5      21.628217   19.381692   23.207189 H          1 MOL1         0.0752
      12    H6      20.666408   20.292427   24.364152 H          1 MOL1         0.0752
      13    C5      19.520721   18.845671   23.206186 C.3        1 MOL1        -0.1858
      14    H7      19.656916   17.839648   22.788861 H          1 MOL1         0.0752
      15    H8      18.702960   18.767559   23.933999 H          1 MOL1         0.0752
      16    C6      19.068594   19.824915   22.093102 C.3        1 MOL1        -0.1858
      17    H9      18.855489   20.802694   22.546232 H          1 MOL1         0.0752
      18    H10     18.115071   19.469011   21.679914 H          1 MOL1         0.0752
      19    C7      20.071816   20.022052   20.929376 C.3        1 MOL1        -0.1834
      20    H11     19.639390   20.734071   20.213093 H          1 MOL1         0.0752
      21    H12     20.994786   20.488272   21.298216 H          1 MOL1         0.0752
      22    C8      20.410899   18.712969   20.184223 C.3        1 MOL1        -0.2849
      23    H13     19.499256   18.216524   19.827267 H          1 MOL1         0.0764
      24    H14     21.047072   18.919791   19.314014 H          1 MOL1         0.0764
      25    H15     20.952928   18.014014   20.833644 H          1 MOL1         0.0764
@<TRIPOS>BOND
    1     1     2    1
    2     1     3    2
    3     1     4    1
    4     4     5    1
    5     4     6    1
    6     4     7    1
    7     7     8    1
    8     7     9    1
    9     7    10    1
   10    10    11    1
   11    10    12    1
   12    10    13    1
   13    13    14    1
   14    13    15    1
   15    13    16    1
   16    16    17    1
   17    16    18    1
   18    16    19    1
   19    19    20    1
   20    19    21    1
   21    19    22    1
   22    22    23    1
   23    22    24    1
   24    22    25    1
@<TRIPOS>SUBSTRUCTURE
       1 MOL1            1 RESIDUE      1      MOL     
@<SCITEGIC>MOL_PROPERTY
VM2 Rank
SciTegic.value.IntegerValue
113

@<SCITEGIC>MOL_PROPERTY
Conf_Id
SciTegic.value.IntegerValue
1019

@<SCITEGIC>MOL_PROPERTY
Probability
SciTegic.value.DoubleValue
0.01

@<SCITEGIC>MOL_PROPERTY
Sum Probability
SciTegic.value.DoubleValue
99.75

@<SCITEGIC>MOL_PROPERTY
Delta G
SciTegic.value.DoubleValue
4.660

@<SCITEGIC>MOL_PROPERTY
G
SciTegic.value.DoubleValue
-3.303

@<SCITEGIC>MOL_PROPERTY
E
SciTegic.value.DoubleValue
-28.506

@<SCITEGIC>MOL_PROPERTY
-TS
SciTegic.value.DoubleValue
25.203

@<SCITEGIC>MOL_PROPERTY
U+W
SciTegic.value.DoubleValue
-49.073

@<SCITEGIC>MOL_PROPERTY
U
SciTegic.value.DoubleValue
11.036

@<SCITEGIC>MOL_PROPERTY
W
SciTegic.value.DoubleValue
-60.109

@<SCITEGIC>MOL_PROPERTY
W(PB)
SciTegic.value.DoubleValue
-62.508

@<SCITEGIC>MOL_PROPERTY
W(SA)
SciTegic.value.DoubleValue
2.399

@<SCITEGIC>MOL_PROPERTY
Valence
SciTegic.value.DoubleValue
9.325

@<SCITEGIC>MOL_PROPERTY
Coulomb
SciTegic.value.DoubleValue
0.928

@<SCITEGIC>MOL_PROPERTY
VdW
SciTegic.value.DoubleValue
0.783

@<SCITEGIC>MOL_PROPERTY
VdW6
SciTegic.value.DoubleValue
-11.027

@<SCITEGIC>MOL_PROPERTY
VdW12
SciTegic.value.DoubleValue
11.810

@<SCITEGIC>MOL_PROPERTY
Bond
SciTegic.value.DoubleValue
0.268

@<SCITEGIC>MOL_PROPERTY
Angle
SciTegic.value.DoubleValue
3.515

@<SCITEGIC>MOL_PROPERTY
Pdih
SciTegic.value.DoubleValue
5.540

@<SCITEGIC>MOL_PROPERTY
Idih
SciTegic.value.DoubleValue
0.001

@<SCITEGIC>MOL_PROPERTY
Tether
SciTegic.value.DoubleValue
0.000

@<TRIPOS>MOLECULE
guest-8_vm2.mol2 : vm2 ligand conformer 114
          25          24           1
SMALL
USER_CHARGES
 
@<TRIPOS>ATOM
       1    C1      20.120042   19.848483   27.097846 C.2        1 MOL1         0.6168
       2    O1      21.171820   20.410066   27.332661 O.co2      1 MOL1        -0.6703
       3    O2      19.296409   19.578651   27.949669 O.co2      1 MOL1        -0.6703
       4    C2      19.827859   19.438604   25.658939 C.3        1 MOL1        -0.1963
       5    H1      20.278384   20.191046   25.001842 H          1 MOL1         0.0750
       6    H2      18.742453   19.475005   25.508111 H          1 MOL1         0.0750
       7    C3      20.369962   18.028209   25.315022 C.3        1 MOL1        -0.1860
       8    H3      21.464926   18.030014   25.406297 H          1 MOL1         0.0752
       9    H4      20.000249   17.316133   26.065796 H          1 MOL1         0.0752
      10    C4      19.967596   17.514821   23.909493 C.3        1 MOL1        -0.1858
      11    H5      18.875429   17.417573   23.840814 H          1 MOL1         0.0752
      12    H6      20.365022   16.496170   23.802997 H          1 MOL1         0.0752
      13    C5      20.505987   18.368951   22.733668 C.3        1 MOL1        -0.1858
      14    H7      21.431484   18.880080   23.031769 H          1 MOL1         0.0752
      15    H8      20.780099   17.690322   21.915468 H          1 MOL1         0.0752
      16    C6      19.472623   19.391643   22.198728 C.3        1 MOL1        -0.1858
      17    H9      19.088370   20.000625   23.025350 H          1 MOL1         0.0752
      18    H10     18.606789   18.855862   21.786499 H          1 MOL1         0.0752
      19    C7      20.050027   20.340697   21.122907 C.3        1 MOL1        -0.1834
      20    H11     19.291161   21.095525   20.874836 H          1 MOL1         0.0752
      21    H12     20.908932   20.888280   21.534878 H          1 MOL1         0.0752
      22    C8      20.470676   19.613874   19.827067 C.3        1 MOL1        -0.2849
      23    H13     21.309893   18.930117   20.005875 H          1 MOL1         0.0764
      24    H14     19.635519   19.034162   19.412898 H          1 MOL1         0.0764
      25    H15     20.789078   20.338572   19.066601 H          1 MOL1         0.0764
@<TRIPOS>BOND
    1     1     2    1
    2     1     3    2
    3     1     4    1
    4     4     5    1
    5     4     6    1
    6     4     7    1
    7     7     8    1
    8     7     9    1
    9     7    10    1
   10    10    11    1
   11    10    12    1
   12    10    13    1
   13    13    14    1
   14    13    15    1
   15    13    16    1
   16    16    17    1
   17    16    18    1
   18    16    19    1
   19    19    20    1
   20    19    21    1
   21    19    22    1
   22    22    23    1
   23    22    24    1
   24    22    25    1
@<TRIPOS>SUBSTRUCTURE
       1 MOL1            1 RESIDUE      1      MOL     
@<SCITEGIC>MOL_PROPERTY
VM2 Rank
SciTegic.value.IntegerValue
114

@<SCITEGIC>MOL_PROPERTY
Conf_Id
SciTegic.value.IntegerValue
744

@<SCITEGIC>MOL_PROPERTY
Probability
SciTegic.value.DoubleValue
0.01

@<SCITEGIC>MOL_PROPERTY
Sum Probability
SciTegic.value.DoubleValue
99.76

@<SCITEGIC>MOL_PROPERTY
Delta G
SciTegic.value.DoubleValue
4.661

@<SCITEGIC>MOL_PROPERTY
G
SciTegic.value.DoubleValue
-3.302

@<SCITEGIC>MOL_PROPERTY
E
SciTegic.value.DoubleValue
-28.222

@<SCITEGIC>MOL_PROPERTY
-TS
SciTegic.value.DoubleValue
24.920

@<SCITEGIC>MOL_PROPERTY
U+W
SciTegic.value.DoubleValue
-48.789

@<SCITEGIC>MOL_PROPERTY
U
SciTegic.value.DoubleValue
10.710

@<SCITEGIC>MOL_PROPERTY
W
SciTegic.value.DoubleValue
-59.499

@<SCITEGIC>MOL_PROPERTY
W(PB)
SciTegic.value.DoubleValue
-61.940

@<SCITEGIC>MOL_PROPERTY
W(SA)
SciTegic.value.DoubleValue
2.441

@<SCITEGIC>MOL_PROPERTY
Valence
SciTegic.value.DoubleValue
11.065

@<SCITEGIC>MOL_PROPERTY
Coulomb
SciTegic.value.DoubleValue
-1.442

@<SCITEGIC>MOL_PROPERTY
VdW
SciTegic.value.DoubleValue
1.086

@<SCITEGIC>MOL_PROPERTY
VdW6
SciTegic.value.DoubleValue
-9.992

@<SCITEGIC>MOL_PROPERTY
VdW12
SciTegic.value.DoubleValue
11.079

@<SCITEGIC>MOL_PROPERTY
Bond
SciTegic.value.DoubleValue
0.233

@<SCITEGIC>MOL_PROPERTY
Angle
SciTegic.value.DoubleValue
3.173

@<SCITEGIC>MOL_PROPERTY
Pdih
SciTegic.value.DoubleValue
7.658

@<SCITEGIC>MOL_PROPERTY
Idih
SciTegic.value.DoubleValue
0.001

@<SCITEGIC>MOL_PROPERTY
Tether
SciTegic.value.DoubleValue
0.000

@<TRIPOS>MOLECULE
guest-8_vm2.mol2 : vm2 ligand conformer 115
          25          24           1
SMALL
USER_CHARGES
 
@<TRIPOS>ATOM
       1    C1      20.596115   19.104050   27.117512 C.2        1 MOL1         0.6168
       2    O1      21.541734   19.831740   27.347778 O.co2      1 MOL1        -0.6703
       3    O2      19.985269   18.501659   27.978195 O.co2      1 MOL1        -0.6703
       4    C2      20.136036   18.956474   25.671700 C.3        1 MOL1        -0.1963
       5    H1      19.717001   17.950778   25.548548 H          1 MOL1         0.0750
       6    H2      21.023598   19.025368   25.032634 H          1 MOL1         0.0750
       7    C3      19.092219   20.026085   25.262132 C.3        1 MOL1        -0.1860
       8    H3      18.272885   20.017034   25.994261 H          1 MOL1         0.0752
       9    H4      19.551317   21.022220   25.327129 H          1 MOL1         0.0752
      10    C4      18.491340   19.823280   23.848347 C.3        1 MOL1        -0.1858
      11    H5      17.736568   20.606523   23.694106 H          1 MOL1         0.0752
      12    H6      17.946221   18.870536   23.802273 H          1 MOL1         0.0752
      13    C5      19.520636   19.909836   22.692914 C.3        1 MOL1        -0.1858
      14    H7      19.039776   20.412156   21.843459 H          1 MOL1         0.0752
      15    H8      20.365817   20.546526   22.987800 H          1 MOL1         0.0752
      16    C6      20.027401   18.523825   22.221674 C.3        1 MOL1        -0.1858
      17    H9      19.187670   17.947335   21.810365 H          1 MOL1         0.0752
      18    H10     20.398565   17.951058   23.079573 H          1 MOL1         0.0752
      19    C7      21.156859   18.609742   21.168852 C.3        1 MOL1        -0.1834
      20    H11     22.004389   19.175002   21.580510 H          1 MOL1         0.0752
      21    H12     21.528968   17.595739   20.967565 H          1 MOL1         0.0752
      22    C8      20.705392   19.247309   19.836897 C.3        1 MOL1        -0.2849
      23    H13     20.433152   20.301831   19.969752 H          1 MOL1         0.0764
      24    H14     21.514933   19.204085   19.096862 H          1 MOL1         0.0764
      25    H15     19.838753   18.716958   19.421259 H          1 MOL1         0.0764
@<TRIPOS>BOND
    1     1     2    1
    2     1     3    2
    3     1     4    1
    4     4     5    1
    5     4     6    1
    6     4     7    1
    7     7     8    1
    8     7     9    1
    9     7    10    1
   10    10    11    1
   11    10    12    1
   12    10    13    1
   13    13    14    1
   14    13    15    1
   15    13    16    1
   16    16    17    1
   17    16    18    1
   18    16    19    1
   19    19    20    1
   20    19    21    1
   21    19    22    1
   22    22    23    1
   23    22    24    1
   24    22    25    1
@<TRIPOS>SUBSTRUCTURE
       1 MOL1            1 RESIDUE      1      MOL     
@<SCITEGIC>MOL_PROPERTY
VM2 Rank
SciTegic.value.IntegerValue
115

@<SCITEGIC>MOL_PROPERTY
Conf_Id
SciTegic.value.IntegerValue
826

@<SCITEGIC>MOL_PROPERTY
Probability
SciTegic.value.DoubleValue
0.01

@<SCITEGIC>MOL_PROPERTY
Sum Probability
SciTegic.value.DoubleValue
99.77

@<SCITEGIC>MOL_PROPERTY
Delta G
SciTegic.value.DoubleValue
4.661

@<SCITEGIC>MOL_PROPERTY
G
SciTegic.value.DoubleValue
-3.301

@<SCITEGIC>MOL_PROPERTY
E
SciTegic.value.DoubleValue
-28.221

@<SCITEGIC>MOL_PROPERTY
-TS
SciTegic.value.DoubleValue
24.920

@<SCITEGIC>MOL_PROPERTY
U+W
SciTegic.value.DoubleValue
-48.789

@<SCITEGIC>MOL_PROPERTY
U
SciTegic.value.DoubleValue
10.710

@<SCITEGIC>MOL_PROPERTY
W
SciTegic.value.DoubleValue
-59.498

@<SCITEGIC>MOL_PROPERTY
W(PB)
SciTegic.value.DoubleValue
-61.911

@<SCITEGIC>MOL_PROPERTY
W(SA)
SciTegic.value.DoubleValue
2.413

@<SCITEGIC>MOL_PROPERTY
Valence
SciTegic.value.DoubleValue
11.065

@<SCITEGIC>MOL_PROPERTY
Coulomb
SciTegic.value.DoubleValue
-1.442

@<SCITEGIC>MOL_PROPERTY
VdW
SciTegic.value.DoubleValue
1.087

@<SCITEGIC>MOL_PROPERTY
VdW6
SciTegic.value.DoubleValue
-9.992

@<SCITEGIC>MOL_PROPERTY
VdW12
SciTegic.value.DoubleValue
11.079

@<SCITEGIC>MOL_PROPERTY
Bond
SciTegic.value.DoubleValue
0.233

@<SCITEGIC>MOL_PROPERTY
Angle
SciTegic.value.DoubleValue
3.172

@<SCITEGIC>MOL_PROPERTY
Pdih
SciTegic.value.DoubleValue
7.658

@<SCITEGIC>MOL_PROPERTY
Idih
SciTegic.value.DoubleValue
0.001

@<SCITEGIC>MOL_PROPERTY
Tether
SciTegic.value.DoubleValue
0.000

@<TRIPOS>MOLECULE
guest-8_vm2.mol2 : vm2 ligand conformer 116
          25          24           1
SMALL
USER_CHARGES
 
@<TRIPOS>ATOM
       1    C1      19.555097   19.062796   26.503723 C.2        1 MOL1         0.6168
       2    O1      19.589617   17.857240   26.655786 O.co2      1 MOL1        -0.6703
       3    O2      18.524447   19.692469   26.367662 O.co2      1 MOL1        -0.6703
       4    C2      20.870208   19.838129   26.557451 C.3        1 MOL1        -0.1963
       5    H1      21.272091   19.693243   27.566881 H          1 MOL1         0.0750
       6    H2      20.657112   20.909066   26.455166 H          1 MOL1         0.0750
       7    C3      21.941207   19.400494   25.518958 C.3        1 MOL1        -0.1860
       8    H3      22.921422   19.742006   25.878054 H          1 MOL1         0.0752
       9    H4      21.999135   18.303797   25.480303 H          1 MOL1         0.0752
      10    C4      21.735692   19.971770   24.093995 C.3        1 MOL1        -0.1858
      11    H5      22.621227   19.721217   23.493972 H          1 MOL1         0.0752
      12    H6      21.693058   21.068587   24.138285 H          1 MOL1         0.0752
      13    C5      20.479526   19.431574   23.373487 C.3        1 MOL1        -0.1858
      14    H7      20.473263   18.335302   23.430512 H          1 MOL1         0.0752
      15    H8      19.575523   19.786649   23.883898 H          1 MOL1         0.0752
      16    C6      20.431942   19.884283   21.895559 C.3        1 MOL1        -0.1858
      17    H9      21.302658   19.485551   21.357356 H          1 MOL1         0.0752
      18    H10     20.515079   20.978955   21.855046 H          1 MOL1         0.0752
      19    C7      19.135699   19.462515   21.165161 C.3        1 MOL1        -0.1834
      20    H11     18.262796   19.866162   21.696709 H          1 MOL1         0.0752
      21    H12     19.129258   19.919143   20.165853 H          1 MOL1         0.0752
      22    C8      18.989563   17.932730   21.014217 C.3        1 MOL1        -0.2849
      23    H13     18.102730   17.689024   20.415063 H          1 MOL1         0.0764
      24    H14     19.865668   17.501775   20.512440 H          1 MOL1         0.0764
      25    H15     18.875707   17.443586   21.989804 H          1 MOL1         0.0764
@<TRIPOS>BOND
    1     1     2    1
    2     1     3    2
    3     1     4    1
    4     4     5    1
    5     4     6    1
    6     4     7    1
    7     7     8    1
    8     7     9    1
    9     7    10    1
   10    10    11    1
   11    10    12    1
   12    10    13    1
   13    13    14    1
   14    13    15    1
   15    13    16    1
   16    16    17    1
   17    16    18    1
   18    16    19    1
   19    19    20    1
   20    19    21    1
   21    19    22    1
   22    22    23    1
   23    22    24    1
   24    22    25    1
@<TRIPOS>SUBSTRUCTURE
       1 MOL1            1 RESIDUE      1      MOL     
@<SCITEGIC>MOL_PROPERTY
VM2 Rank
SciTegic.value.IntegerValue
116

@<SCITEGIC>MOL_PROPERTY
Conf_Id
SciTegic.value.IntegerValue
570

@<SCITEGIC>MOL_PROPERTY
Probability
SciTegic.value.DoubleValue
0.01

@<SCITEGIC>MOL_PROPERTY
Sum Probability
SciTegic.value.DoubleValue
99.78

@<SCITEGIC>MOL_PROPERTY
Delta G
SciTegic.value.DoubleValue
4.661

@<SCITEGIC>MOL_PROPERTY
G
SciTegic.value.DoubleValue
-3.301

@<SCITEGIC>MOL_PROPERTY
E
SciTegic.value.DoubleValue
-28.442

@<SCITEGIC>MOL_PROPERTY
-TS
SciTegic.value.DoubleValue
25.141

@<SCITEGIC>MOL_PROPERTY
U+W
SciTegic.value.DoubleValue
-49.010

@<SCITEGIC>MOL_PROPERTY
U
SciTegic.value.DoubleValue
12.313

@<SCITEGIC>MOL_PROPERTY
W
SciTegic.value.DoubleValue
-61.323

@<SCITEGIC>MOL_PROPERTY
W(PB)
SciTegic.value.DoubleValue
-63.724

@<SCITEGIC>MOL_PROPERTY
W(SA)
SciTegic.value.DoubleValue
2.402

@<SCITEGIC>MOL_PROPERTY
Valence
SciTegic.value.DoubleValue
9.950

@<SCITEGIC>MOL_PROPERTY
Coulomb
SciTegic.value.DoubleValue
1.612

@<SCITEGIC>MOL_PROPERTY
VdW
SciTegic.value.DoubleValue
0.751

@<SCITEGIC>MOL_PROPERTY
VdW6
SciTegic.value.DoubleValue
-10.687

@<SCITEGIC>MOL_PROPERTY
VdW12
SciTegic.value.DoubleValue
11.438

@<SCITEGIC>MOL_PROPERTY
Bond
SciTegic.value.DoubleValue
0.232

@<SCITEGIC>MOL_PROPERTY
Angle
SciTegic.value.DoubleValue
3.418

@<SCITEGIC>MOL_PROPERTY
Pdih
SciTegic.value.DoubleValue
6.293

@<SCITEGIC>MOL_PROPERTY
Idih
SciTegic.value.DoubleValue
0.007

@<SCITEGIC>MOL_PROPERTY
Tether
SciTegic.value.DoubleValue
0.000

@<TRIPOS>MOLECULE
guest-8_vm2.mol2 : vm2 ligand conformer 117
          25          24           1
SMALL
USER_CHARGES
 
@<TRIPOS>ATOM
       1    C1      20.642274   19.467098   27.027615 C.2        1 MOL1         0.6168
       2    O1      21.547611   20.254288   26.834474 O.co2      1 MOL1        -0.6703
       3    O2      20.119327   19.295015   28.111017 O.co2      1 MOL1        -0.6703
       4    C2      20.119459   18.665565   25.841056 C.3        1 MOL1        -0.1963
       5    H1      19.792769   17.686852   26.212069 H          1 MOL1         0.0750
       6    H2      20.959218   18.485426   25.162954 H          1 MOL1         0.0750
       7    C3      18.949627   19.373818   25.107907 C.3        1 MOL1        -0.1860
       8    H3      18.136949   19.521101   25.832683 H          1 MOL1         0.0752
       9    H4      19.257526   20.378354   24.786162 H          1 MOL1         0.0752
      10    C4      18.398541   18.569962   23.902749 C.3        1 MOL1        -0.1858
      11    H5      17.313750   18.735295   23.849731 H          1 MOL1         0.0752
      12    H6      18.527906   17.492224   24.071822 H          1 MOL1         0.0752
      13    C5      18.997105   18.970142   22.530765 C.3        1 MOL1        -0.1858
      14    H7      18.477216   18.400717   21.748447 H          1 MOL1         0.0752
      15    H8      18.778159   20.028919   22.339765 H          1 MOL1         0.0752
      16    C6      20.518780   18.721539   22.404770 C.3        1 MOL1        -0.1858
      17    H9      20.746080   17.702609   22.746114 H          1 MOL1         0.0752
      18    H10     21.063065   19.408247   23.066160 H          1 MOL1         0.0752
      19    C7      21.048267   18.887621   20.961303 C.3        1 MOL1        -0.1834
      20    H11     22.108316   18.599589   20.938938 H          1 MOL1         0.0752
      21    H12     20.523825   18.192576   20.291148 H          1 MOL1         0.0752
      22    C8      20.912009   20.328953   20.424344 C.3        1 MOL1        -0.2849
      23    H13     21.407649   21.045306   21.092421 H          1 MOL1         0.0764
      24    H14     21.374971   20.414949   19.432817 H          1 MOL1         0.0764
      25    H15     19.859013   20.621279   20.326254 H          1 MOL1         0.0764
@<TRIPOS>BOND
    1     1     2    1
    2     1     3    2
    3     1     4    1
    4     4     5    1
    5     4     6    1
    6     4     7    1
    7     7     8    1
    8     7     9    1
    9     7    10    1
   10    10    11    1
   11    10    12    1
   12    10    13    1
   13    13    14    1
   14    13    15    1
   15    13    16    1
   16    16    17    1
   17    16    18    1
   18    16    19    1
   19    19    20    1
   20    19    21    1
   21    19    22    1
   22    22    23    1
   23    22    24    1
   24    22    25    1
@<TRIPOS>SUBSTRUCTURE
       1 MOL1            1 RESIDUE      1      MOL     
@<SCITEGIC>MOL_PROPERTY
VM2 Rank
SciTegic.value.IntegerValue
117

@<SCITEGIC>MOL_PROPERTY
Conf_Id
SciTegic.value.IntegerValue
477

@<SCITEGIC>MOL_PROPERTY
Probability
SciTegic.value.DoubleValue
0.01

@<SCITEGIC>MOL_PROPERTY
Sum Probability
SciTegic.value.DoubleValue
99.79

@<SCITEGIC>MOL_PROPERTY
Delta G
SciTegic.value.DoubleValue
4.713

@<SCITEGIC>MOL_PROPERTY
G
SciTegic.value.DoubleValue
-3.250

@<SCITEGIC>MOL_PROPERTY
E
SciTegic.value.DoubleValue
-28.158

@<SCITEGIC>MOL_PROPERTY
-TS
SciTegic.value.DoubleValue
24.909

@<SCITEGIC>MOL_PROPERTY
U+W
SciTegic.value.DoubleValue
-48.726

@<SCITEGIC>MOL_PROPERTY
U
SciTegic.value.DoubleValue
10.997

@<SCITEGIC>MOL_PROPERTY
W
SciTegic.value.DoubleValue
-59.723

@<SCITEGIC>MOL_PROPERTY
W(PB)
SciTegic.value.DoubleValue
-62.151

@<SCITEGIC>MOL_PROPERTY
W(SA)
SciTegic.value.DoubleValue
2.428

@<SCITEGIC>MOL_PROPERTY
Valence
SciTegic.value.DoubleValue
10.985

@<SCITEGIC>MOL_PROPERTY
Coulomb
SciTegic.value.DoubleValue
-0.994

@<SCITEGIC>MOL_PROPERTY
VdW
SciTegic.value.DoubleValue
1.006

@<SCITEGIC>MOL_PROPERTY
VdW6
SciTegic.value.DoubleValue
-10.062

@<SCITEGIC>MOL_PROPERTY
VdW12
SciTegic.value.DoubleValue
11.068

@<SCITEGIC>MOL_PROPERTY
Bond
SciTegic.value.DoubleValue
0.238

@<SCITEGIC>MOL_PROPERTY
Angle
SciTegic.value.DoubleValue
3.202

@<SCITEGIC>MOL_PROPERTY
Pdih
SciTegic.value.DoubleValue
7.545

@<SCITEGIC>MOL_PROPERTY
Idih
SciTegic.value.DoubleValue
0.001

@<SCITEGIC>MOL_PROPERTY
Tether
SciTegic.value.DoubleValue
0.000

@<TRIPOS>MOLECULE
guest-8_vm2.mol2 : vm2 ligand conformer 118
          25          24           1
SMALL
USER_CHARGES
 
@<TRIPOS>ATOM
       1    C1      20.139803   18.894388   27.255918 C.2        1 MOL1         0.6168
       2    O1      21.165665   18.617641   27.845652 O.co2      1 MOL1        -0.6703
       3    O2      19.105049   19.202540   27.813654 O.co2      1 MOL1        -0.6703
       4    C2      20.158458   18.875788   25.731694 C.3        1 MOL1        -0.1963
       5    H1      19.164105   18.567372   25.390257 H          1 MOL1         0.0750
       6    H2      20.867129   18.103478   25.409648 H          1 MOL1         0.0750
       7    C3      20.547134   20.246843   25.119818 C.3        1 MOL1        -0.1860
       8    H3      19.805159   21.003332   25.410406 H          1 MOL1         0.0752
       9    H4      21.503880   20.567647   25.554703 H          1 MOL1         0.0752
      10    C4      20.689207   20.215429   23.579514 C.3        1 MOL1        -0.1858
      11    H5      21.433274   19.460208   23.300061 H          1 MOL1         0.0752
      12    H6      21.094556   21.181386   23.249059 H          1 MOL1         0.0752
      13    C5      19.349680   19.958588   22.844600 C.3        1 MOL1        -0.1858
      14    H7      18.914923   18.997383   23.146803 H          1 MOL1         0.0752
      15    H8      18.634619   20.731219   23.158277 H          1 MOL1         0.0752
      16    C6      19.479393   20.007325   21.300674 C.3        1 MOL1        -0.1858
      17    H9      20.294625   20.682442   21.006879 H          1 MOL1         0.0752
      18    H10     18.561548   20.454345   20.895004 H          1 MOL1         0.0752
      19    C7      19.663009   18.626405   20.623592 C.3        1 MOL1        -0.1834
      20    H11     18.795468   17.989645   20.845250 H          1 MOL1         0.0752
      21    H12     19.667990   18.770231   19.534356 H          1 MOL1         0.0752
      22    C8      20.955602   17.889054   21.030884 C.3        1 MOL1        -0.2849
      23    H13     21.836375   18.527801   20.885355 H          1 MOL1         0.0764
      24    H14     20.918833   17.578588   22.082492 H          1 MOL1         0.0764
      25    H15     21.088894   16.984291   20.423950 H          1 MOL1         0.0764
@<TRIPOS>BOND
    1     1     2    1
    2     1     3    2
    3     1     4    1
    4     4     5    1
    5     4     6    1
    6     4     7    1
    7     7     8    1
    8     7     9    1
    9     7    10    1
   10    10    11    1
   11    10    12    1
   12    10    13    1
   13    13    14    1
   14    13    15    1
   15    13    16    1
   16    16    17    1
   17    16    18    1
   18    16    19    1
   19    19    20    1
   20    19    21    1
   21    19    22    1
   22    22    23    1
   23    22    24    1
   24    22    25    1
@<TRIPOS>SUBSTRUCTURE
       1 MOL1            1 RESIDUE      1      MOL     
@<SCITEGIC>MOL_PROPERTY
VM2 Rank
SciTegic.value.IntegerValue
118

@<SCITEGIC>MOL_PROPERTY
Conf_Id
SciTegic.value.IntegerValue
526

@<SCITEGIC>MOL_PROPERTY
Probability
SciTegic.value.DoubleValue
0.01

@<SCITEGIC>MOL_PROPERTY
Sum Probability
SciTegic.value.DoubleValue
99.80

@<SCITEGIC>MOL_PROPERTY
Delta G
SciTegic.value.DoubleValue
4.716

@<SCITEGIC>MOL_PROPERTY
G
SciTegic.value.DoubleValue
-3.247

@<SCITEGIC>MOL_PROPERTY
E
SciTegic.value.DoubleValue
-28.057

@<SCITEGIC>MOL_PROPERTY
-TS
SciTegic.value.DoubleValue
24.811

@<SCITEGIC>MOL_PROPERTY
U+W
SciTegic.value.DoubleValue
-48.625

@<SCITEGIC>MOL_PROPERTY
U
SciTegic.value.DoubleValue
10.664

@<SCITEGIC>MOL_PROPERTY
W
SciTegic.value.DoubleValue
-59.289

@<SCITEGIC>MOL_PROPERTY
W(PB)
SciTegic.value.DoubleValue
-61.723

@<SCITEGIC>MOL_PROPERTY
W(SA)
SciTegic.value.DoubleValue
2.435

@<SCITEGIC>MOL_PROPERTY
Valence
SciTegic.value.DoubleValue
11.013

@<SCITEGIC>MOL_PROPERTY
Coulomb
SciTegic.value.DoubleValue
-1.402

@<SCITEGIC>MOL_PROPERTY
VdW
SciTegic.value.DoubleValue
1.052

@<SCITEGIC>MOL_PROPERTY
VdW6
SciTegic.value.DoubleValue
-9.992

@<SCITEGIC>MOL_PROPERTY
VdW12
SciTegic.value.DoubleValue
11.045

@<SCITEGIC>MOL_PROPERTY
Bond
SciTegic.value.DoubleValue
0.241

@<SCITEGIC>MOL_PROPERTY
Angle
SciTegic.value.DoubleValue
3.227

@<SCITEGIC>MOL_PROPERTY
Pdih
SciTegic.value.DoubleValue
7.544

@<SCITEGIC>MOL_PROPERTY
Idih
SciTegic.value.DoubleValue
0.001

@<SCITEGIC>MOL_PROPERTY
Tether
SciTegic.value.DoubleValue
0.000

@<TRIPOS>MOLECULE
guest-8_vm2.mol2 : vm2 ligand conformer 119
          25          24           1
SMALL
USER_CHARGES
 
@<TRIPOS>ATOM
       1    C1      20.764607   19.136285   26.489575 C.2        1 MOL1         0.6168
       2    O1      21.707980   19.885956   26.330576 O.co2      1 MOL1        -0.6703
       3    O2      20.879900   17.935664   26.640892 O.co2      1 MOL1        -0.6703
       4    C2      19.366882   19.746759   26.574651 C.3        1 MOL1        -0.1963
       5    H1      19.446294   20.835459   26.468787 H          1 MOL1         0.0750
       6    H2      19.008926   19.555859   27.592921 H          1 MOL1         0.0750
       7    C3      18.333079   19.180994   25.560653 C.3        1 MOL1        -0.1860
       8    H3      18.407647   18.085305   25.521902 H          1 MOL1         0.0752
       9    H4      17.327265   19.401703   25.942790 H          1 MOL1         0.0752
      10    C4      18.434816   19.770822   24.132064 C.3        1 MOL1        -0.1858
      11    H5      18.344901   20.864762   24.176763 H          1 MOL1         0.0752
      12    H6      17.572700   19.413633   23.552281 H          1 MOL1         0.0752
      13    C5      19.730394   19.386138   23.382140 C.3        1 MOL1        -0.1858
      14    H7      20.596031   19.849369   23.871951 H          1 MOL1         0.0752
      15    H8      19.871222   18.298858   23.437789 H          1 MOL1         0.0752
      16    C6      19.688511   19.838732   21.904004 C.3        1 MOL1        -0.1858
      17    H9      19.471726   20.915053   21.866596 H          1 MOL1         0.0752
      18    H10     18.860723   19.335968   21.385554 H          1 MOL1         0.0752
      19    C7      21.009360   19.576745   21.143515 C.3        1 MOL1        -0.1834
      20    H11     20.937072   20.028801   20.144722 H          1 MOL1         0.0752
      21    H12     21.838519   20.084859   21.655129 H          1 MOL1         0.0752
      22    C8      21.337470   18.075905   20.987930 C.3        1 MOL1        -0.2849
      23    H13     20.509147   17.540334   20.506155 H          1 MOL1         0.0764
      24    H14     22.233379   17.940987   20.368256 H          1 MOL1         0.0764
      25    H15     21.532568   17.606228   21.960215 H          1 MOL1         0.0764
@<TRIPOS>BOND
    1     1     2    1
    2     1     3    2
    3     1     4    1
    4     4     5    1
    5     4     6    1
    6     4     7    1
    7     7     8    1
    8     7     9    1
    9     7    10    1
   10    10    11    1
   11    10    12    1
   12    10    13    1
   13    13    14    1
   14    13    15    1
   15    13    16    1
   16    16    17    1
   17    16    18    1
   18    16    19    1
   19    19    20    1
   20    19    21    1
   21    19    22    1
   22    22    23    1
   23    22    24    1
   24    22    25    1
@<TRIPOS>SUBSTRUCTURE
       1 MOL1            1 RESIDUE      1      MOL     
@<SCITEGIC>MOL_PROPERTY
VM2 Rank
SciTegic.value.IntegerValue
119

@<SCITEGIC>MOL_PROPERTY
Conf_Id
SciTegic.value.IntegerValue
228

@<SCITEGIC>MOL_PROPERTY
Probability
SciTegic.value.DoubleValue
0.01

@<SCITEGIC>MOL_PROPERTY
Sum Probability
SciTegic.value.DoubleValue
99.80

@<SCITEGIC>MOL_PROPERTY
Delta G
SciTegic.value.DoubleValue
4.775

@<SCITEGIC>MOL_PROPERTY
G
SciTegic.value.DoubleValue
-3.187

@<SCITEGIC>MOL_PROPERTY
E
SciTegic.value.DoubleValue
-28.329

@<SCITEGIC>MOL_PROPERTY
-TS
SciTegic.value.DoubleValue
25.142

@<SCITEGIC>MOL_PROPERTY
U+W
SciTegic.value.DoubleValue
-48.897

@<SCITEGIC>MOL_PROPERTY
U
SciTegic.value.DoubleValue
12.313

@<SCITEGIC>MOL_PROPERTY
W
SciTegic.value.DoubleValue
-61.210

@<SCITEGIC>MOL_PROPERTY
W(PB)
SciTegic.value.DoubleValue
-63.637

@<SCITEGIC>MOL_PROPERTY
W(SA)
SciTegic.value.DoubleValue
2.427

@<SCITEGIC>MOL_PROPERTY
Valence
SciTegic.value.DoubleValue
9.950

@<SCITEGIC>MOL_PROPERTY
Coulomb
SciTegic.value.DoubleValue
1.612

@<SCITEGIC>MOL_PROPERTY
VdW
SciTegic.value.DoubleValue
0.751

@<SCITEGIC>MOL_PROPERTY
VdW6
SciTegic.value.DoubleValue
-10.688

@<SCITEGIC>MOL_PROPERTY
VdW12
SciTegic.value.DoubleValue
11.439

@<SCITEGIC>MOL_PROPERTY
Bond
SciTegic.value.DoubleValue
0.232

@<SCITEGIC>MOL_PROPERTY
Angle
SciTegic.value.DoubleValue
3.418

@<SCITEGIC>MOL_PROPERTY
Pdih
SciTegic.value.DoubleValue
6.293

@<SCITEGIC>MOL_PROPERTY
Idih
SciTegic.value.DoubleValue
0.007

@<SCITEGIC>MOL_PROPERTY
Tether
SciTegic.value.DoubleValue
0.000

@<TRIPOS>MOLECULE
guest-8_vm2.mol2 : vm2 ligand conformer 120
          25          24           1
SMALL
USER_CHARGES
 
@<TRIPOS>ATOM
       1    C1      19.989409   19.888359   27.028407 C.2        1 MOL1         0.6168
       2    O1      21.040455   20.137868   27.585030 O.co2      1 MOL1        -0.6703
       3    O2      18.912848   19.888133   27.592133 O.co2      1 MOL1        -0.6703
       4    C2      20.025920   19.533079   25.546445 C.3        1 MOL1        -0.1963
       5    H1      20.839969   20.105789   25.088323 H          1 MOL1         0.0750
       6    H2      19.087216   19.871043   25.091530 H          1 MOL1         0.0750
       7    C3      20.226932   18.016904   25.297487 C.3        1 MOL1        -0.1860
       8    H3      21.206501   17.711958   25.690783 H          1 MOL1         0.0752
       9    H4      19.476606   17.462541   25.878101 H          1 MOL1         0.0752
      10    C4      20.108042   17.595203   23.811359 C.3        1 MOL1        -0.1858
      11    H5      19.096652   17.810293   23.445050 H          1 MOL1         0.0752
      12    H6      20.212989   16.502552   23.768566 H          1 MOL1         0.0752
      13    C5      21.180226   18.218339   22.878148 C.3        1 MOL1        -0.1858
      14    H7      22.089098   18.429809   23.457741 H          1 MOL1         0.0752
      15    H8      21.475695   17.472069   22.128090 H          1 MOL1         0.0752
      16    C6      20.730767   19.502552   22.135673 C.3        1 MOL1        -0.1858
      17    H9      21.617770   19.973096   21.690169 H          1 MOL1         0.0752
      18    H10     20.319043   20.231407   22.843705 H          1 MOL1         0.0752
      19    C7      19.701276   19.230572   21.014824 C.3        1 MOL1        -0.1834
      20    H11     20.110270   18.496677   20.306839 H          1 MOL1         0.0752
      21    H12     18.786700   18.792142   21.434191 H          1 MOL1         0.0752
      22    C8      19.337124   20.522990   20.256495 C.3        1 MOL1        -0.2849
      23    H13     20.225275   20.968587   19.789645 H          1 MOL1         0.0764
      24    H14     18.606827   20.313793   19.464076 H          1 MOL1         0.0764
      25    H15     18.897389   21.265454   20.935273 H          1 MOL1         0.0764
@<TRIPOS>BOND
    1     1     2    1
    2     1     3    2
    3     1     4    1
    4     4     5    1
    5     4     6    1
    6     4     7    1
    7     7     8    1
    8     7     9    1
    9     7    10    1
   10    10    11    1
   11    10    12    1
   12    10    13    1
   13    13    14    1
   14    13    15    1
   15    13    16    1
   16    16    17    1
   17    16    18    1
   18    16    19    1
   19    19    20    1
   20    19    21    1
   21    19    22    1
   22    22    23    1
   23    22    24    1
   24    22    25    1
@<TRIPOS>SUBSTRUCTURE
       1 MOL1            1 RESIDUE      1      MOL     
@<SCITEGIC>MOL_PROPERTY
VM2 Rank
SciTegic.value.IntegerValue
120

@<SCITEGIC>MOL_PROPERTY
Conf_Id
SciTegic.value.IntegerValue
1082

@<SCITEGIC>MOL_PROPERTY
Probability
SciTegic.value.DoubleValue
0.01

@<SCITEGIC>MOL_PROPERTY
Sum Probability
SciTegic.value.DoubleValue
99.81

@<SCITEGIC>MOL_PROPERTY
Delta G
SciTegic.value.DoubleValue
4.779

@<SCITEGIC>MOL_PROPERTY
G
SciTegic.value.DoubleValue
-3.183

@<SCITEGIC>MOL_PROPERTY
E
SciTegic.value.DoubleValue
-28.034

@<SCITEGIC>MOL_PROPERTY
-TS
SciTegic.value.DoubleValue
24.851

@<SCITEGIC>MOL_PROPERTY
U+W
SciTegic.value.DoubleValue
-48.602

@<SCITEGIC>MOL_PROPERTY
U
SciTegic.value.DoubleValue
10.987

@<SCITEGIC>MOL_PROPERTY
W
SciTegic.value.DoubleValue
-59.589

@<SCITEGIC>MOL_PROPERTY
W(PB)
SciTegic.value.DoubleValue
-62.018

@<SCITEGIC>MOL_PROPERTY
W(SA)
SciTegic.value.DoubleValue
2.430

@<SCITEGIC>MOL_PROPERTY
Valence
SciTegic.value.DoubleValue
11.268

@<SCITEGIC>MOL_PROPERTY
Coulomb
SciTegic.value.DoubleValue
-1.344

@<SCITEGIC>MOL_PROPERTY
VdW
SciTegic.value.DoubleValue
1.063

@<SCITEGIC>MOL_PROPERTY
VdW6
SciTegic.value.DoubleValue
-9.930

@<SCITEGIC>MOL_PROPERTY
VdW12
SciTegic.value.DoubleValue
10.993

@<SCITEGIC>MOL_PROPERTY
Bond
SciTegic.value.DoubleValue
0.245

@<SCITEGIC>MOL_PROPERTY
Angle
SciTegic.value.DoubleValue
3.252

@<SCITEGIC>MOL_PROPERTY
Pdih
SciTegic.value.DoubleValue
7.769

@<SCITEGIC>MOL_PROPERTY
Idih
SciTegic.value.DoubleValue
0.001

@<SCITEGIC>MOL_PROPERTY
Tether
SciTegic.value.DoubleValue
0.000

@<TRIPOS>MOLECULE
guest-8_vm2.mol2 : vm2 ligand conformer 121
          25          24           1
SMALL
USER_CHARGES
 
@<TRIPOS>ATOM
       1    C1      20.285664   19.383531   27.430694 C.2        1 MOL1         0.6168
       2    O1      21.373635   19.851173   27.703398 O.co2      1 MOL1        -0.6703
       3    O2      19.624498   18.720894   28.205645 O.co2      1 MOL1        -0.6703
       4    C2      19.729561   19.621800   26.031381 C.3        1 MOL1        -0.1963
       5    H1      20.073106   20.608175   25.699964 H          1 MOL1         0.0750
       6    H2      18.636182   19.664146   26.102515 H          1 MOL1         0.0750
       7    C3      20.158164   18.525837   25.021310 C.3        1 MOL1        -0.1860
       8    H3      21.252630   18.524416   24.924148 H          1 MOL1         0.0752
       9    H4      19.881931   17.543304   25.428381 H          1 MOL1         0.0752
      10    C4      19.510882   18.683478   23.624814 C.3        1 MOL1        -0.1858
      11    H5      18.417025   18.667410   23.724264 H          1 MOL1         0.0752
      12    H6      19.774587   17.806806   23.021402 H          1 MOL1         0.0752
      13    C5      19.944279   19.975959   22.889295 C.3        1 MOL1        -0.1858
      14    H7      19.560720   20.840748   23.445971 H          1 MOL1         0.0752
      15    H8      21.038821   20.068780   22.892054 H          1 MOL1         0.0752
      16    C6      19.407899   20.061241   21.437571 C.3        1 MOL1        -0.1858
      17    H9      19.153936   21.109311   21.227983 H          1 MOL1         0.0752
      18    H10     18.466745   19.502085   21.345556 H          1 MOL1         0.0752
      19    C7      20.410617   19.598850   20.351423 C.3        1 MOL1        -0.1834
      20    H11     19.963482   19.778909   19.364102 H          1 MOL1         0.0752
      21    H12     21.314971   20.221180   20.397125 H          1 MOL1         0.0752
      22    C8      20.807801   18.111236   20.450470 C.3        1 MOL1        -0.2849
      23    H13     19.919607   17.466312   20.461131 H          1 MOL1         0.0764
      24    H14     21.426798   17.821098   19.591744 H          1 MOL1         0.0764
      25    H15     21.391071   17.917140   21.359299 H          1 MOL1         0.0764
@<TRIPOS>BOND
    1     1     2    1
    2     1     3    2
    3     1     4    1
    4     4     5    1
    5     4     6    1
    6     4     7    1
    7     7     8    1
    8     7     9    1
    9     7    10    1
   10    10    11    1
   11    10    12    1
   12    10    13    1
   13    13    14    1
   14    13    15    1
   15    13    16    1
   16    16    17    1
   17    16    18    1
   18    16    19    1
   19    19    20    1
   20    19    21    1
   21    19    22    1
   22    22    23    1
   23    22    24    1
   24    22    25    1
@<TRIPOS>SUBSTRUCTURE
       1 MOL1            1 RESIDUE      1      MOL     
@<SCITEGIC>MOL_PROPERTY
VM2 Rank
SciTegic.value.IntegerValue
121

@<SCITEGIC>MOL_PROPERTY
Conf_Id
SciTegic.value.IntegerValue
148

@<SCITEGIC>MOL_PROPERTY
Probability
SciTegic.value.DoubleValue
0.01

@<SCITEGIC>MOL_PROPERTY
Sum Probability
SciTegic.value.DoubleValue
99.82

@<SCITEGIC>MOL_PROPERTY
Delta G
SciTegic.value.DoubleValue
4.780

@<SCITEGIC>MOL_PROPERTY
G
SciTegic.value.DoubleValue
-3.182

@<SCITEGIC>MOL_PROPERTY
E
SciTegic.value.DoubleValue
-28.064

@<SCITEGIC>MOL_PROPERTY
-TS
SciTegic.value.DoubleValue
24.881

@<SCITEGIC>MOL_PROPERTY
U+W
SciTegic.value.DoubleValue
-48.631

@<SCITEGIC>MOL_PROPERTY
U
SciTegic.value.DoubleValue
10.553

@<SCITEGIC>MOL_PROPERTY
W
SciTegic.value.DoubleValue
-59.185

@<SCITEGIC>MOL_PROPERTY
W(PB)
SciTegic.value.DoubleValue
-61.627

@<SCITEGIC>MOL_PROPERTY
W(SA)
SciTegic.value.DoubleValue
2.443

@<SCITEGIC>MOL_PROPERTY
Valence
SciTegic.value.DoubleValue
11.068

@<SCITEGIC>MOL_PROPERTY
Coulomb
SciTegic.value.DoubleValue
-1.642

@<SCITEGIC>MOL_PROPERTY
VdW
SciTegic.value.DoubleValue
1.127

@<SCITEGIC>MOL_PROPERTY
VdW6
SciTegic.value.DoubleValue
-9.885

@<SCITEGIC>MOL_PROPERTY
VdW12
SciTegic.value.DoubleValue
11.012

@<SCITEGIC>MOL_PROPERTY
Bond
SciTegic.value.DoubleValue
0.238

@<SCITEGIC>MOL_PROPERTY
Angle
SciTegic.value.DoubleValue
3.177

@<SCITEGIC>MOL_PROPERTY
Pdih
SciTegic.value.DoubleValue
7.653

@<SCITEGIC>MOL_PROPERTY
Idih
SciTegic.value.DoubleValue
0.001

@<SCITEGIC>MOL_PROPERTY
Tether
SciTegic.value.DoubleValue
0.000

@<TRIPOS>MOLECULE
guest-8_vm2.mol2 : vm2 ligand conformer 122
          25          24           1
SMALL
USER_CHARGES
 
@<TRIPOS>ATOM
       1    C1      20.241661   19.904478   27.025519 C.2        1 MOL1         0.6168
       2    O1      21.322152   20.042231   27.564347 O.co2      1 MOL1        -0.6703
       3    O2      19.180468   20.018853   27.606527 O.co2      1 MOL1        -0.6703
       4    C2      20.216661   19.545281   25.544264 C.3        1 MOL1        -0.1963
       5    H1      21.094054   19.999260   25.068429 H          1 MOL1         0.0750
       6    H2      19.326068   20.009097   25.105781 H          1 MOL1         0.0750
       7    C3      20.204526   18.015491   25.297754 C.3        1 MOL1        -0.1860
       8    H3      21.032423   17.561949   25.860164 H          1 MOL1         0.0752
       9    H4      19.281011   17.588959   25.712991 H          1 MOL1         0.0752
      10    C4      20.341942   17.610189   23.808666 C.3        1 MOL1        -0.1858
      11    H5      20.376016   16.513008   23.766680 H          1 MOL1         0.0752
      12    H6      21.309019   17.951773   23.419515 H          1 MOL1         0.0752
      13    C5      19.177964   18.090373   22.901286 C.3        1 MOL1        -0.1858
      14    H7      18.962712   17.311442   22.157150 H          1 MOL1         0.0752
      15    H8      18.263150   18.185292   23.501952 H          1 MOL1         0.0752
      16    C6      19.443073   19.420244   22.150524 C.3        1 MOL1        -0.1858
      17    H9      19.774853   20.196638   22.849944 H          1 MOL1         0.0752
      18    H10     18.493365   19.773376   21.726245 H          1 MOL1         0.0752
      19    C7      20.472724   19.279862   21.005869 C.3        1 MOL1        -0.1834
      20    H11     21.445082   18.962038   21.403420 H          1 MOL1         0.0752
      21    H12     20.144282   18.498827   20.306419 H          1 MOL1         0.0752
      22    C8      20.651828   20.606997   20.241246 C.3        1 MOL1        -0.2849
      23    H13     21.009088   21.400374   20.910781 H          1 MOL1         0.0764
      24    H14     21.384292   20.491270   19.431846 H          1 MOL1         0.0764
      25    H15     19.703643   20.935270   19.795715 H          1 MOL1         0.0764
@<TRIPOS>BOND
    1     1     2    1
    2     1     3    2
    3     1     4    1
    4     4     5    1
    5     4     6    1
    6     4     7    1
    7     7     8    1
    8     7     9    1
    9     7    10    1
   10    10    11    1
   11    10    12    1
   12    10    13    1
   13    13    14    1
   14    13    15    1
   15    13    16    1
   16    16    17    1
   17    16    18    1
   18    16    19    1
   19    19    20    1
   20    19    21    1
   21    19    22    1
   22    22    23    1
   23    22    24    1
   24    22    25    1
@<TRIPOS>SUBSTRUCTURE
       1 MOL1            1 RESIDUE      1      MOL     
@<SCITEGIC>MOL_PROPERTY
VM2 Rank
SciTegic.value.IntegerValue
122

@<SCITEGIC>MOL_PROPERTY
Conf_Id
SciTegic.value.IntegerValue
1309

@<SCITEGIC>MOL_PROPERTY
Probability
SciTegic.value.DoubleValue
0.01

@<SCITEGIC>MOL_PROPERTY
Sum Probability
SciTegic.value.DoubleValue
99.83

@<SCITEGIC>MOL_PROPERTY
Delta G
SciTegic.value.DoubleValue
4.784

@<SCITEGIC>MOL_PROPERTY
G
SciTegic.value.DoubleValue
-3.178

@<SCITEGIC>MOL_PROPERTY
E
SciTegic.value.DoubleValue
-28.029

@<SCITEGIC>MOL_PROPERTY
-TS
SciTegic.value.DoubleValue
24.851

@<SCITEGIC>MOL_PROPERTY
U+W
SciTegic.value.DoubleValue
-48.596

@<SCITEGIC>MOL_PROPERTY
U
SciTegic.value.DoubleValue
10.987

@<SCITEGIC>MOL_PROPERTY
W
SciTegic.value.DoubleValue
-59.583

@<SCITEGIC>MOL_PROPERTY
W(PB)
SciTegic.value.DoubleValue
-62.028

@<SCITEGIC>MOL_PROPERTY
W(SA)
SciTegic.value.DoubleValue
2.445

@<SCITEGIC>MOL_PROPERTY
Valence
SciTegic.value.DoubleValue
11.268

@<SCITEGIC>MOL_PROPERTY
Coulomb
SciTegic.value.DoubleValue
-1.344

@<SCITEGIC>MOL_PROPERTY
VdW
SciTegic.value.DoubleValue
1.063

@<SCITEGIC>MOL_PROPERTY
VdW6
SciTegic.value.DoubleValue
-9.930

@<SCITEGIC>MOL_PROPERTY
VdW12
SciTegic.value.DoubleValue
10.992

@<SCITEGIC>MOL_PROPERTY
Bond
SciTegic.value.DoubleValue
0.245

@<SCITEGIC>MOL_PROPERTY
Angle
SciTegic.value.DoubleValue
3.252

@<SCITEGIC>MOL_PROPERTY
Pdih
SciTegic.value.DoubleValue
7.770

@<SCITEGIC>MOL_PROPERTY
Idih
SciTegic.value.DoubleValue
0.001

@<SCITEGIC>MOL_PROPERTY
Tether
SciTegic.value.DoubleValue
0.000

@<TRIPOS>MOLECULE
guest-8_vm2.mol2 : vm2 ligand conformer 123
          25          24           1
SMALL
USER_CHARGES
 
@<TRIPOS>ATOM
       1    C1      20.021419   19.366747   27.433719 C.2        1 MOL1         0.6168
       2    O1      20.778830   18.794356   28.192319 O.co2      1 MOL1        -0.6703
       3    O2      18.889516   19.693173   27.732013 O.co2      1 MOL1        -0.6703
       4    C2      20.510575   19.671487   26.022353 C.3        1 MOL1        -0.1963
       5    H1      21.591126   19.852103   26.068412 H          1 MOL1         0.0750
       6    H2      20.037326   20.605910   25.700350 H          1 MOL1         0.0750
       7    C3      20.201163   18.528581   25.020801 C.3        1 MOL1        -0.1860
       8    H3      20.608904   17.589548   25.419987 H          1 MOL1         0.0752
       9    H4      19.113752   18.388397   24.948807 H          1 MOL1         0.0752
      10    C4      20.791002   18.764900   23.610031 C.3        1 MOL1        -0.1858
      11    H5      20.626669   17.861006   23.011555 H          1 MOL1         0.0752
      12    H6      21.880078   18.887659   23.684289 H          1 MOL1         0.0752
      13    C5      20.180599   19.991004   22.886563 C.3        1 MOL1        -0.1858
      14    H7      19.083470   19.944485   22.914671 H          1 MOL1         0.0752
      15    H8      20.464288   20.898224   23.435507 H          1 MOL1         0.0752
      16    C6      20.668273   20.141368   21.422990 C.3        1 MOL1        -0.1858
      17    H9      21.670298   19.705781   21.308513 H          1 MOL1         0.0752
      18    H10     20.782549   21.212850   21.209111 H          1 MOL1         0.0752
      19    C7      19.707442   19.554080   20.359566 C.3        1 MOL1        -0.1834
      20    H11     18.732863   20.056966   20.426950 H          1 MOL1         0.0752
      21    H12     20.105333   19.787800   19.362465 H          1 MOL1         0.0752
      22    C8      19.504182   18.028304   20.465644 C.3        1 MOL1        -0.2849
      23    H13     18.971257   17.763307   21.387390 H          1 MOL1         0.0764
      24    H14     18.907296   17.660825   19.620993 H          1 MOL1         0.0764
      25    H15     20.466887   17.501036   20.454940 H          1 MOL1         0.0764
@<TRIPOS>BOND
    1     1     2    1
    2     1     3    2
    3     1     4    1
    4     4     5    1
    5     4     6    1
    6     4     7    1
    7     7     8    1
    8     7     9    1
    9     7    10    1
   10    10    11    1
   11    10    12    1
   12    10    13    1
   13    13    14    1
   14    13    15    1
   15    13    16    1
   16    16    17    1
   17    16    18    1
   18    16    19    1
   19    19    20    1
   20    19    21    1
   21    19    22    1
   22    22    23    1
   23    22    24    1
   24    22    25    1
@<TRIPOS>SUBSTRUCTURE
       1 MOL1            1 RESIDUE      1      MOL     
@<SCITEGIC>MOL_PROPERTY
VM2 Rank
SciTegic.value.IntegerValue
123

@<SCITEGIC>MOL_PROPERTY
Conf_Id
SciTegic.value.IntegerValue
504

@<SCITEGIC>MOL_PROPERTY
Probability
SciTegic.value.DoubleValue
0.01

@<SCITEGIC>MOL_PROPERTY
Sum Probability
SciTegic.value.DoubleValue
99.83

@<SCITEGIC>MOL_PROPERTY
Delta G
SciTegic.value.DoubleValue
4.792

@<SCITEGIC>MOL_PROPERTY
G
SciTegic.value.DoubleValue
-3.170

@<SCITEGIC>MOL_PROPERTY
E
SciTegic.value.DoubleValue
-28.052

@<SCITEGIC>MOL_PROPERTY
-TS
SciTegic.value.DoubleValue
24.882

@<SCITEGIC>MOL_PROPERTY
U+W
SciTegic.value.DoubleValue
-48.619

@<SCITEGIC>MOL_PROPERTY
U
SciTegic.value.DoubleValue
10.553

@<SCITEGIC>MOL_PROPERTY
W
SciTegic.value.DoubleValue
-59.173

@<SCITEGIC>MOL_PROPERTY
W(PB)
SciTegic.value.DoubleValue
-61.592

@<SCITEGIC>MOL_PROPERTY
W(SA)
SciTegic.value.DoubleValue
2.420

@<SCITEGIC>MOL_PROPERTY
Valence
SciTegic.value.DoubleValue
11.068

@<SCITEGIC>MOL_PROPERTY
Coulomb
SciTegic.value.DoubleValue
-1.642

@<SCITEGIC>MOL_PROPERTY
VdW
SciTegic.value.DoubleValue
1.127

@<SCITEGIC>MOL_PROPERTY
VdW6
SciTegic.value.DoubleValue
-9.885

@<SCITEGIC>MOL_PROPERTY
VdW12
SciTegic.value.DoubleValue
11.012

@<SCITEGIC>MOL_PROPERTY
Bond
SciTegic.value.DoubleValue
0.238

@<SCITEGIC>MOL_PROPERTY
Angle
SciTegic.value.DoubleValue
3.177

@<SCITEGIC>MOL_PROPERTY
Pdih
SciTegic.value.DoubleValue
7.652

@<SCITEGIC>MOL_PROPERTY
Idih
SciTegic.value.DoubleValue
0.001

@<SCITEGIC>MOL_PROPERTY
Tether
SciTegic.value.DoubleValue
0.000

@<TRIPOS>MOLECULE
guest-8_vm2.mol2 : vm2 ligand conformer 124
          25          24           1
SMALL
USER_CHARGES
 
@<TRIPOS>ATOM
       1    C1      20.411750   19.774569   27.020174 C.2        1 MOL1         0.6168
       2    O1      21.426407   20.415755   26.830557 O.co2      1 MOL1        -0.6703
       3    O2      20.073866   19.355464   28.109686 O.co2      1 MOL1        -0.6703
       4    C2      19.523937   19.460216   25.821557 C.3        1 MOL1        -0.1963
       5    H1      19.602951   20.295154   25.118635 H          1 MOL1         0.0750
       6    H2      18.484377   19.432474   26.169124 H          1 MOL1         0.0750
       7    C3      19.892331   18.116476   25.138697 C.3        1 MOL1        -0.1860
       8    H3      20.950191   18.120565   24.841495 H          1 MOL1         0.0752
       9    H4      19.788437   17.318225   25.886653 H          1 MOL1         0.0752
      10    C4      18.994690   17.774927   23.922197 C.3        1 MOL1        -0.1858
      11    H5      17.992884   18.205927   24.054346 H          1 MOL1         0.0752
      12    H6      18.850194   16.686102   23.899839 H          1 MOL1         0.0752
      13    C5      19.578867   18.194341   22.549758 C.3        1 MOL1        -0.1858
      14    H7      20.537910   17.682084   22.397254 H          1 MOL1         0.0752
      15    H8      18.905040   17.830234   21.762400 H          1 MOL1         0.0752
      16    C6      19.770108   19.720081   22.380293 C.3        1 MOL1        -0.1858
      17    H9      20.566240   20.070981   23.049838 H          1 MOL1         0.0752
      18    H10     18.848144   20.233926   22.684171 H          1 MOL1         0.0752
      19    C7      20.111806   20.136453   20.930669 C.3        1 MOL1        -0.1834
      20    H11     19.313467   19.806608   20.251632 H          1 MOL1         0.0752
      21    H12     20.133255   21.233510   20.874365 H          1 MOL1         0.0752
      22    C8      21.469238   19.585719   20.442412 C.3        1 MOL1        -0.2849
      23    H13     21.456761   18.490444   20.378451 H          1 MOL1         0.0764
      24    H14     21.704778   19.974716   19.443385 H          1 MOL1         0.0764
      25    H15     22.280008   19.882018   21.120648 H          1 MOL1         0.0764
@<TRIPOS>BOND
    1     1     2    1
    2     1     3    2
    3     1     4    1
    4     4     5    1
    5     4     6    1
    6     4     7    1
    7     7     8    1
    8     7     9    1
    9     7    10    1
   10    10    11    1
   11    10    12    1
   12    10    13    1
   13    13    14    1
   14    13    15    1
   15    13    16    1
   16    16    17    1
   17    16    18    1
   18    16    19    1
   19    19    20    1
   20    19    21    1
   21    19    22    1
   22    22    23    1
   23    22    24    1
   24    22    25    1
@<TRIPOS>SUBSTRUCTURE
       1 MOL1            1 RESIDUE      1      MOL     
@<SCITEGIC>MOL_PROPERTY
VM2 Rank
SciTegic.value.IntegerValue
124

@<SCITEGIC>MOL_PROPERTY
Conf_Id
SciTegic.value.IntegerValue
173

@<SCITEGIC>MOL_PROPERTY
Probability
SciTegic.value.DoubleValue
0.01

@<SCITEGIC>MOL_PROPERTY
Sum Probability
SciTegic.value.DoubleValue
99.84

@<SCITEGIC>MOL_PROPERTY
Delta G
SciTegic.value.DoubleValue
4.799

@<SCITEGIC>MOL_PROPERTY
G
SciTegic.value.DoubleValue
-3.163

@<SCITEGIC>MOL_PROPERTY
E
SciTegic.value.DoubleValue
-28.071

@<SCITEGIC>MOL_PROPERTY
-TS
SciTegic.value.DoubleValue
24.908

@<SCITEGIC>MOL_PROPERTY
U+W
SciTegic.value.DoubleValue
-48.639

@<SCITEGIC>MOL_PROPERTY
U
SciTegic.value.DoubleValue
10.997

@<SCITEGIC>MOL_PROPERTY
W
SciTegic.value.DoubleValue
-59.636

@<SCITEGIC>MOL_PROPERTY
W(PB)
SciTegic.value.DoubleValue
-62.078

@<SCITEGIC>MOL_PROPERTY
W(SA)
SciTegic.value.DoubleValue
2.442

@<SCITEGIC>MOL_PROPERTY
Valence
SciTegic.value.DoubleValue
10.985

@<SCITEGIC>MOL_PROPERTY
Coulomb
SciTegic.value.DoubleValue
-0.994

@<SCITEGIC>MOL_PROPERTY
VdW
SciTegic.value.DoubleValue
1.006

@<SCITEGIC>MOL_PROPERTY
VdW6
SciTegic.value.DoubleValue
-10.062

@<SCITEGIC>MOL_PROPERTY
VdW12
SciTegic.value.DoubleValue
11.068

@<SCITEGIC>MOL_PROPERTY
Bond
SciTegic.value.DoubleValue
0.238

@<SCITEGIC>MOL_PROPERTY
Angle
SciTegic.value.DoubleValue
3.202

@<SCITEGIC>MOL_PROPERTY
Pdih
SciTegic.value.DoubleValue
7.544

@<SCITEGIC>MOL_PROPERTY
Idih
SciTegic.value.DoubleValue
0.001

@<SCITEGIC>MOL_PROPERTY
Tether
SciTegic.value.DoubleValue
0.000

@<TRIPOS>MOLECULE
guest-8_vm2.mol2 : vm2 ligand conformer 125
          25          24           1
SMALL
USER_CHARGES
 
@<TRIPOS>ATOM
       1    C1      20.212736   19.262298   27.470081 C.2        1 MOL1         0.6168
       2    O1      21.276214   19.231934   28.057330 O.co2      1 MOL1        -0.6703
       3    O2      19.179812   19.663775   27.968705 O.co2      1 MOL1        -0.6703
       4    C2      20.177334   18.791880   26.020378 C.3        1 MOL1        -0.1963
       5    H1      19.195732   18.339304   25.842033 H          1 MOL1         0.0750
       6    H2      20.927281   18.000800   25.901556 H          1 MOL1         0.0750
       7    C3      20.445441   19.939187   25.011599 C.3        1 MOL1        -0.1860
       8    H3      19.661507   20.703306   25.105680 H          1 MOL1         0.0752
       9    H4      21.390351   20.430045   25.282983 H          1 MOL1         0.0752
      10    C4      20.540893   19.464604   23.541702 C.3        1 MOL1        -0.1858
      11    H5      21.307737   18.682974   23.454618 H          1 MOL1         0.0752
      12    H6      20.883613   20.312899   22.935956 H          1 MOL1         0.0752
      13    C5      19.197857   18.949097   22.971638 C.3        1 MOL1        -0.1858
      14    H7      18.812696   18.144392   23.610057 H          1 MOL1         0.0752
      15    H8      18.453002   19.755594   23.008343 H          1 MOL1         0.0752
      16    C6      19.290828   18.400418   21.525341 C.3        1 MOL1        -0.1858
      17    H9      18.297718   18.017548   21.253286 H          1 MOL1         0.0752
      18    H10     19.963082   17.532047   21.495125 H          1 MOL1         0.0752
      19    C7      19.713029   19.443376   20.460360 C.3        1 MOL1        -0.1834
      20    H11     19.148218   19.252078   19.537487 H          1 MOL1         0.0752
      21    H12     19.432961   20.454993   20.785056 H          1 MOL1         0.0752
      22    C8      21.218856   19.387432   20.118866 C.3        1 MOL1        -0.2849
      23    H13     21.491507   18.402273   19.718610 H          1 MOL1         0.0764
      24    H14     21.468567   20.139111   19.358979 H          1 MOL1         0.0764
      25    H15     21.844260   19.579238   20.998183 H          1 MOL1         0.0764
@<TRIPOS>BOND
    1     1     2    1
    2     1     3    2
    3     1     4    1
    4     4     5    1
    5     4     6    1
    6     4     7    1
    7     7     8    1
    8     7     9    1
    9     7    10    1
   10    10    11    1
   11    10    12    1
   12    10    13    1
   13    13    14    1
   14    13    15    1
   15    13    16    1
   16    16    17    1
   17    16    18    1
   18    16    19    1
   19    19    20    1
   20    19    21    1
   21    19    22    1
   22    22    23    1
   23    22    24    1
   24    22    25    1
@<TRIPOS>SUBSTRUCTURE
       1 MOL1            1 RESIDUE      1      MOL     
@<SCITEGIC>MOL_PROPERTY
VM2 Rank
SciTegic.value.IntegerValue
125

@<SCITEGIC>MOL_PROPERTY
Conf_Id
SciTegic.value.IntegerValue
563

@<SCITEGIC>MOL_PROPERTY
Probability
SciTegic.value.DoubleValue
0.01

@<SCITEGIC>MOL_PROPERTY
Sum Probability
SciTegic.value.DoubleValue
99.85

@<SCITEGIC>MOL_PROPERTY
Delta G
SciTegic.value.DoubleValue
4.856

@<SCITEGIC>MOL_PROPERTY
G
SciTegic.value.DoubleValue
-3.107

@<SCITEGIC>MOL_PROPERTY
E
SciTegic.value.DoubleValue
-27.896

@<SCITEGIC>MOL_PROPERTY
-TS
SciTegic.value.DoubleValue
24.790

@<SCITEGIC>MOL_PROPERTY
U+W
SciTegic.value.DoubleValue
-48.464

@<SCITEGIC>MOL_PROPERTY
U
SciTegic.value.DoubleValue
10.617

@<SCITEGIC>MOL_PROPERTY
W
SciTegic.value.DoubleValue
-59.081

@<SCITEGIC>MOL_PROPERTY
W(PB)
SciTegic.value.DoubleValue
-61.515

@<SCITEGIC>MOL_PROPERTY
W(SA)
SciTegic.value.DoubleValue
2.434

@<SCITEGIC>MOL_PROPERTY
Valence
SciTegic.value.DoubleValue
11.188

@<SCITEGIC>MOL_PROPERTY
Coulomb
SciTegic.value.DoubleValue
-1.778

@<SCITEGIC>MOL_PROPERTY
VdW
SciTegic.value.DoubleValue
1.208

@<SCITEGIC>MOL_PROPERTY
VdW6
SciTegic.value.DoubleValue
-9.786

@<SCITEGIC>MOL_PROPERTY
VdW12
SciTegic.value.DoubleValue
10.993

@<SCITEGIC>MOL_PROPERTY
Bond
SciTegic.value.DoubleValue
0.241

@<SCITEGIC>MOL_PROPERTY
Angle
SciTegic.value.DoubleValue
3.293

@<SCITEGIC>MOL_PROPERTY
Pdih
SciTegic.value.DoubleValue
7.653

@<SCITEGIC>MOL_PROPERTY
Idih
SciTegic.value.DoubleValue
0.001

@<SCITEGIC>MOL_PROPERTY
Tether
SciTegic.value.DoubleValue
0.000

@<TRIPOS>MOLECULE
guest-8_vm2.mol2 : vm2 ligand conformer 126
          25          24           1
SMALL
USER_CHARGES
 
@<TRIPOS>ATOM
       1    C1      20.104738   19.825961   27.102234 C.2        1 MOL1         0.6168
       2    O1      20.514819   19.371126   28.151893 O.co2      1 MOL1        -0.6703
       3    O2      19.167718   20.595500   27.022188 O.co2      1 MOL1        -0.6703
       4    C2      20.790329   19.389871   25.812523 C.3        1 MOL1        -0.1963
       5    H1      21.851620   19.224454   26.032989 H          1 MOL1         0.0750
       6    H2      20.738668   20.224245   25.106004 H          1 MOL1         0.0750
       7    C3      20.167194   18.104405   25.206721 C.3        1 MOL1        -0.1860
       8    H3      20.272399   17.297222   25.944836 H          1 MOL1         0.0752
       9    H4      19.087348   18.241099   25.056256 H          1 MOL1         0.0752
      10    C4      20.841854   17.660062   23.884043 C.3        1 MOL1        -0.1858
      11    H5      20.881475   16.562235   23.872251 H          1 MOL1         0.0752
      12    H6      21.887473   17.996092   23.858008 H          1 MOL1         0.0752
      13    C5      20.106967   18.113376   22.597289 C.3        1 MOL1        -0.1858
      14    H7      20.634944   17.678976   21.739221 H          1 MOL1         0.0752
      15    H8      19.095277   17.685716   22.585664 H          1 MOL1         0.0752
      16    C6      20.016015   19.648574   22.424385 C.3        1 MOL1        -0.1858
      17    H9      21.018405   20.092033   22.495071 H          1 MOL1         0.0752
      18    H10     19.424748   20.066981   23.248883 H          1 MOL1         0.0752
      19    C7      19.349878   20.080597   21.096965 C.3        1 MOL1        -0.1834
      20    H11     18.357699   19.616463   21.010749 H          1 MOL1         0.0752
      21    H12     19.182509   21.166128   21.125835 H          1 MOL1         0.0752
      22    C8      20.193488   19.744528   19.847758 C.3        1 MOL1        -0.2849
      23    H13     19.723770   20.157594   18.945742 H          1 MOL1         0.0764
      24    H14     21.201943   20.170680   19.928430 H          1 MOL1         0.0764
      25    H15     20.287627   18.661023   19.705068 H          1 MOL1         0.0764
@<TRIPOS>BOND
    1     1     2    1
    2     1     3    2
    3     1     4    1
    4     4     5    1
    5     4     6    1
    6     4     7    1
    7     7     8    1
    8     7     9    1
    9     7    10    1
   10    10    11    1
   11    10    12    1
   12    10    13    1
   13    13    14    1
   14    13    15    1
   15    13    16    1
   16    16    17    1
   17    16    18    1
   18    16    19    1
   19    19    20    1
   20    19    21    1
   21    19    22    1
   22    22    23    1
   23    22    24    1
   24    22    25    1
@<TRIPOS>SUBSTRUCTURE
       1 MOL1            1 RESIDUE      1      MOL     
@<SCITEGIC>MOL_PROPERTY
VM2 Rank
SciTegic.value.IntegerValue
126

@<SCITEGIC>MOL_PROPERTY
Conf_Id
SciTegic.value.IntegerValue
285

@<SCITEGIC>MOL_PROPERTY
Probability
SciTegic.value.DoubleValue
0.01

@<SCITEGIC>MOL_PROPERTY
Sum Probability
SciTegic.value.DoubleValue
99.86

@<SCITEGIC>MOL_PROPERTY
Delta G
SciTegic.value.DoubleValue
4.871

@<SCITEGIC>MOL_PROPERTY
G
SciTegic.value.DoubleValue
-3.091

@<SCITEGIC>MOL_PROPERTY
E
SciTegic.value.DoubleValue
-27.945

@<SCITEGIC>MOL_PROPERTY
-TS
SciTegic.value.DoubleValue
24.853

@<SCITEGIC>MOL_PROPERTY
U+W
SciTegic.value.DoubleValue
-48.512

@<SCITEGIC>MOL_PROPERTY
U
SciTegic.value.DoubleValue
10.982

@<SCITEGIC>MOL_PROPERTY
W
SciTegic.value.DoubleValue
-59.494

@<SCITEGIC>MOL_PROPERTY
W(PB)
SciTegic.value.DoubleValue
-61.921

@<SCITEGIC>MOL_PROPERTY
W(SA)
SciTegic.value.DoubleValue
2.427

@<SCITEGIC>MOL_PROPERTY
Valence
SciTegic.value.DoubleValue
11.160

@<SCITEGIC>MOL_PROPERTY
Coulomb
SciTegic.value.DoubleValue
-1.272

@<SCITEGIC>MOL_PROPERTY
VdW
SciTegic.value.DoubleValue
1.094

@<SCITEGIC>MOL_PROPERTY
VdW6
SciTegic.value.DoubleValue
-9.961

@<SCITEGIC>MOL_PROPERTY
VdW12
SciTegic.value.DoubleValue
11.055

@<SCITEGIC>MOL_PROPERTY
Bond
SciTegic.value.DoubleValue
0.244

@<SCITEGIC>MOL_PROPERTY
Angle
SciTegic.value.DoubleValue
3.277

@<SCITEGIC>MOL_PROPERTY
Pdih
SciTegic.value.DoubleValue
7.638

@<SCITEGIC>MOL_PROPERTY
Idih
SciTegic.value.DoubleValue
0.001

@<SCITEGIC>MOL_PROPERTY
Tether
SciTegic.value.DoubleValue
0.000

@<TRIPOS>MOLECULE
guest-8_vm2.mol2 : vm2 ligand conformer 127
          25          24           1
SMALL
USER_CHARGES
 
@<TRIPOS>ATOM
       1    C1      20.247172   19.377753   27.466524 C.2        1 MOL1         0.6168
       2    O1      21.162965   18.853351   28.069099 O.co2      1 MOL1        -0.6703
       3    O2      19.171706   19.637057   27.969393 O.co2      1 MOL1        -0.6703
       4    C2      20.450877   19.707178   25.992020 C.3        1 MOL1        -0.1963
       5    H1      21.509599   19.949485   25.841210 H          1 MOL1         0.0750
       6    H2      19.875081   20.612716   25.771492 H          1 MOL1         0.0750
       7    C3      20.029128   18.545417   25.054864 C.3        1 MOL1        -0.1860
       8    H3      20.554879   17.633354   25.369785 H          1 MOL1         0.0752
       9    H4      18.956357   18.342795   25.178915 H          1 MOL1         0.0752
      10    C4      20.344102   18.805463   23.562181 C.3        1 MOL1        -0.1858
      11    H5      20.155376   17.875278   23.011616 H          1 MOL1         0.0752
      12    H6      21.412316   19.032371   23.443811 H          1 MOL1         0.0752
      13    C5      19.493950   19.939382   22.940945 C.3        1 MOL1        -0.1858
      14    H7      18.429625   19.676872   23.010913 H          1 MOL1         0.0752
      15    H8      19.623949   20.858350   23.525818 H          1 MOL1         0.0752
      16    C6      19.847768   20.263820   21.467507 C.3        1 MOL1        -0.1858
      17    H9      20.885444   20.618041   21.399240 H          1 MOL1         0.0752
      18    H10     19.222668   21.112275   21.157269 H          1 MOL1         0.0752
      19    C7      19.610723   19.101475   20.471030 C.3        1 MOL1        -0.1834
      20    H11     18.827483   18.429467   20.848092 H          1 MOL1         0.0752
      21    H12     19.227532   19.518192   19.529323 H          1 MOL1         0.0752
      22    C8      20.894609   18.303103   20.152436 C.3        1 MOL1        -0.2849
      23    H13     20.678256   17.495767   19.440955 H          1 MOL1         0.0764
      24    H14     21.655859   18.952802   19.701359 H          1 MOL1         0.0764
      25    H15     21.327423   17.850224   21.051709 H          1 MOL1         0.0764
@<TRIPOS>BOND
    1     1     2    1
    2     1     3    2
    3     1     4    1
    4     4     5    1
    5     4     6    1
    6     4     7    1
    7     7     8    1
    8     7     9    1
    9     7    10    1
   10    10    11    1
   11    10    12    1
   12    10    13    1
   13    13    14    1
   14    13    15    1
   15    13    16    1
   16    16    17    1
   17    16    18    1
   18    16    19    1
   19    19    20    1
   20    19    21    1
   21    19    22    1
   22    22    23    1
   23    22    24    1
   24    22    25    1
@<TRIPOS>SUBSTRUCTURE
       1 MOL1            1 RESIDUE      1      MOL     
@<SCITEGIC>MOL_PROPERTY
VM2 Rank
SciTegic.value.IntegerValue
127

@<SCITEGIC>MOL_PROPERTY
Conf_Id
SciTegic.value.IntegerValue
1318

@<SCITEGIC>MOL_PROPERTY
Probability
SciTegic.value.DoubleValue
0.01

@<SCITEGIC>MOL_PROPERTY
Sum Probability
SciTegic.value.DoubleValue
99.86

@<SCITEGIC>MOL_PROPERTY
Delta G
SciTegic.value.DoubleValue
4.875

@<SCITEGIC>MOL_PROPERTY
G
SciTegic.value.DoubleValue
-3.088

@<SCITEGIC>MOL_PROPERTY
E
SciTegic.value.DoubleValue
-27.878

@<SCITEGIC>MOL_PROPERTY
-TS
SciTegic.value.DoubleValue
24.790

@<SCITEGIC>MOL_PROPERTY
U+W
SciTegic.value.DoubleValue
-48.445

@<SCITEGIC>MOL_PROPERTY
U
SciTegic.value.DoubleValue
10.617

@<SCITEGIC>MOL_PROPERTY
W
SciTegic.value.DoubleValue
-59.063

@<SCITEGIC>MOL_PROPERTY
W(PB)
SciTegic.value.DoubleValue
-61.494

@<SCITEGIC>MOL_PROPERTY
W(SA)
SciTegic.value.DoubleValue
2.432

@<SCITEGIC>MOL_PROPERTY
Valence
SciTegic.value.DoubleValue
11.187

@<SCITEGIC>MOL_PROPERTY
Coulomb
SciTegic.value.DoubleValue
-1.778

@<SCITEGIC>MOL_PROPERTY
VdW
SciTegic.value.DoubleValue
1.208

@<SCITEGIC>MOL_PROPERTY
VdW6
SciTegic.value.DoubleValue
-9.786

@<SCITEGIC>MOL_PROPERTY
VdW12
SciTegic.value.DoubleValue
10.994

@<SCITEGIC>MOL_PROPERTY
Bond
SciTegic.value.DoubleValue
0.241

@<SCITEGIC>MOL_PROPERTY
Angle
SciTegic.value.DoubleValue
3.294

@<SCITEGIC>MOL_PROPERTY
Pdih
SciTegic.value.DoubleValue
7.653

@<SCITEGIC>MOL_PROPERTY
Idih
SciTegic.value.DoubleValue
0.001

@<SCITEGIC>MOL_PROPERTY
Tether
SciTegic.value.DoubleValue
0.000

@<TRIPOS>MOLECULE
guest-8_vm2.mol2 : vm2 ligand conformer 128
          25          24           1
SMALL
USER_CHARGES
 
@<TRIPOS>ATOM
       1    C1      20.124921   19.790898   27.137580 C.2        1 MOL1         0.6168
       2    O1      21.158600   20.317967   27.498688 O.co2      1 MOL1        -0.6703
       3    O2      19.020282   20.209880   27.422013 O.co2      1 MOL1        -0.6703
       4    C2      20.219245   18.545023   26.264021 C.3        1 MOL1        -0.1963
       5    H1      19.358270   17.904468   26.489775 H          1 MOL1         0.0750
       6    H2      21.120435   17.992370   26.555460 H          1 MOL1         0.0750
       7    C3      20.258311   18.873776   24.751280 C.3        1 MOL1        -0.1860
       8    H3      19.355636   19.441514   24.490103 H          1 MOL1         0.0752
       9    H4      21.121135   19.521060   24.541964 H          1 MOL1         0.0752
      10    C4      20.342206   17.595573   23.887339 C.3        1 MOL1        -0.1858
      11    H5      19.435892   16.992930   24.036698 H          1 MOL1         0.0752
      12    H6      21.182297   16.981369   24.239294 H          1 MOL1         0.0752
      13    C5      20.538210   17.865411   22.374361 C.3        1 MOL1        -0.1858
      14    H7      21.490795   18.384296   22.210664 H          1 MOL1         0.0752
      15    H8      20.641299   16.891992   21.875929 H          1 MOL1         0.0752
      16    C6      19.368490   18.629903   21.698899 C.3        1 MOL1        -0.1858
      17    H9      18.436932   18.428250   22.244972 H          1 MOL1         0.0752
      18    H10     19.213747   18.223238   20.690204 H          1 MOL1         0.0752
      19    C7      19.576579   20.160326   21.578887 C.3        1 MOL1        -0.1834
      20    H11     18.622875   20.621587   21.287926 H          1 MOL1         0.0752
      21    H12     19.842729   20.592100   22.551361 H          1 MOL1         0.0752
      22    C8      20.646155   20.545243   20.532932 C.3        1 MOL1        -0.2849
      23    H13     20.397013   20.133043   19.546503 H          1 MOL1         0.0764
      24    H14     20.711164   21.636595   20.435045 H          1 MOL1         0.0764
      25    H15     21.639658   20.177377   20.816735 H          1 MOL1         0.0764
@<TRIPOS>BOND
    1     1     2    1
    2     1     3    2
    3     1     4    1
    4     4     5    1
    5     4     6    1
    6     4     7    1
    7     7     8    1
    8     7     9    1
    9     7    10    1
   10    10    11    1
   11    10    12    1
   12    10    13    1
   13    13    14    1
   14    13    15    1
   15    13    16    1
   16    16    17    1
   17    16    18    1
   18    16    19    1
   19    19    20    1
   20    19    21    1
   21    19    22    1
   22    22    23    1
   23    22    24    1
   24    22    25    1
@<TRIPOS>SUBSTRUCTURE
       1 MOL1            1 RESIDUE      1      MOL     
@<SCITEGIC>MOL_PROPERTY
VM2 Rank
SciTegic.value.IntegerValue
128

@<SCITEGIC>MOL_PROPERTY
Conf_Id
SciTegic.value.IntegerValue
248

@<SCITEGIC>MOL_PROPERTY
Probability
SciTegic.value.DoubleValue
0.01

@<SCITEGIC>MOL_PROPERTY
Sum Probability
SciTegic.value.DoubleValue
99.87

@<SCITEGIC>MOL_PROPERTY
Delta G
SciTegic.value.DoubleValue
4.878

@<SCITEGIC>MOL_PROPERTY
G
SciTegic.value.DoubleValue
-3.084

@<SCITEGIC>MOL_PROPERTY
E
SciTegic.value.DoubleValue
-27.937

@<SCITEGIC>MOL_PROPERTY
-TS
SciTegic.value.DoubleValue
24.852

@<SCITEGIC>MOL_PROPERTY
U+W
SciTegic.value.DoubleValue
-48.504

@<SCITEGIC>MOL_PROPERTY
U
SciTegic.value.DoubleValue
11.373

@<SCITEGIC>MOL_PROPERTY
W
SciTegic.value.DoubleValue
-59.878

@<SCITEGIC>MOL_PROPERTY
W(PB)
SciTegic.value.DoubleValue
-62.302

@<SCITEGIC>MOL_PROPERTY
W(SA)
SciTegic.value.DoubleValue
2.424

@<SCITEGIC>MOL_PROPERTY
Valence
SciTegic.value.DoubleValue
11.258

@<SCITEGIC>MOL_PROPERTY
Coulomb
SciTegic.value.DoubleValue
-0.951

@<SCITEGIC>MOL_PROPERTY
VdW
SciTegic.value.DoubleValue
1.066

@<SCITEGIC>MOL_PROPERTY
VdW6
SciTegic.value.DoubleValue
-9.862

@<SCITEGIC>MOL_PROPERTY
VdW12
SciTegic.value.DoubleValue
10.928

@<SCITEGIC>MOL_PROPERTY
Bond
SciTegic.value.DoubleValue
0.236

@<SCITEGIC>MOL_PROPERTY
Angle
SciTegic.value.DoubleValue
3.227

@<SCITEGIC>MOL_PROPERTY
Pdih
SciTegic.value.DoubleValue
7.794

@<SCITEGIC>MOL_PROPERTY
Idih
SciTegic.value.DoubleValue
0.001

@<SCITEGIC>MOL_PROPERTY
Tether
SciTegic.value.DoubleValue
0.000

@<TRIPOS>MOLECULE
guest-8_vm2.mol2 : vm2 ligand conformer 129
          25          24           1
SMALL
USER_CHARGES
 
@<TRIPOS>ATOM
       1    C1      19.852338   19.700791   27.097116 C.2        1 MOL1         0.6168
       2    O1      20.651206   19.835449   28.002931 O.co2      1 MOL1        -0.6703
       3    O2      18.835903   20.358534   26.992703 O.co2      1 MOL1        -0.6703
       4    C2      20.152941   18.663697   26.020909 C.3        1 MOL1        -0.1963
       5    H1      19.196434   18.268405   25.662115 H          1 MOL1         0.0750
       6    H2      20.690176   17.832178   26.492302 H          1 MOL1         0.0750
       7    C3      20.986642   19.242623   24.847717 C.3        1 MOL1        -0.1860
       8    H3      20.438247   20.073224   24.386997 H          1 MOL1         0.0752
       9    H4      21.910265   19.673748   25.257881 H          1 MOL1         0.0752
      10    C4      21.366837   18.181251   23.784189 C.3        1 MOL1        -0.1858
      11    H5      21.814149   17.320656   24.300081 H          1 MOL1         0.0752
      12    H6      22.157932   18.580236   23.134786 H          1 MOL1         0.0752
      13    C5      20.184649   17.684187   22.910055 C.3        1 MOL1        -0.1858
      14    H7      20.341059   16.617075   22.701559 H          1 MOL1         0.0752
      15    H8      19.237614   17.742678   23.460480 H          1 MOL1         0.0752
      16    C6      20.042345   18.408133   21.547593 C.3        1 MOL1        -0.1858
      17    H9      19.236270   17.921480   20.981694 H          1 MOL1         0.0752
      18    H10     20.959735   18.266197   20.960179 H          1 MOL1         0.0752
      19    C7      19.733615   19.916904   21.661390 C.3        1 MOL1        -0.1834
      20    H11     18.867777   20.070405   22.320191 H          1 MOL1         0.0752
      21    H12     20.585413   20.438106   22.117409 H          1 MOL1         0.0752
      22    C8      19.446523   20.542431   20.281397 C.3        1 MOL1        -0.2849
      23    H13     18.575734   20.069639   19.808656 H          1 MOL1         0.0764
      24    H14     19.237450   21.615598   20.379420 H          1 MOL1         0.0764
      25    H15     20.307453   20.424586   19.610400 H          1 MOL1         0.0764
@<TRIPOS>BOND
    1     1     2    1
    2     1     3    2
    3     1     4    1
    4     4     5    1
    5     4     6    1
    6     4     7    1
    7     7     8    1
    8     7     9    1
    9     7    10    1
   10    10    11    1
   11    10    12    1
   12    10    13    1
   13    13    14    1
   14    13    15    1
   15    13    16    1
   16    16    17    1
   17    16    18    1
   18    16    19    1
   19    19    20    1
   20    19    21    1
   21    19    22    1
   22    22    23    1
   23    22    24    1
   24    22    25    1
@<TRIPOS>SUBSTRUCTURE
       1 MOL1            1 RESIDUE      1      MOL     
@<SCITEGIC>MOL_PROPERTY
VM2 Rank
SciTegic.value.IntegerValue
129

@<SCITEGIC>MOL_PROPERTY
Conf_Id
SciTegic.value.IntegerValue
1232

@<SCITEGIC>MOL_PROPERTY
Probability
SciTegic.value.DoubleValue
0.01

@<SCITEGIC>MOL_PROPERTY
Sum Probability
SciTegic.value.DoubleValue
99.87

@<SCITEGIC>MOL_PROPERTY
Delta G
SciTegic.value.DoubleValue
4.883

@<SCITEGIC>MOL_PROPERTY
G
SciTegic.value.DoubleValue
-3.080

@<SCITEGIC>MOL_PROPERTY
E
SciTegic.value.DoubleValue
-27.925

@<SCITEGIC>MOL_PROPERTY
-TS
SciTegic.value.DoubleValue
24.845

@<SCITEGIC>MOL_PROPERTY
U+W
SciTegic.value.DoubleValue
-48.492

@<SCITEGIC>MOL_PROPERTY
U
SciTegic.value.DoubleValue
11.197

@<SCITEGIC>MOL_PROPERTY
W
SciTegic.value.DoubleValue
-59.689

@<SCITEGIC>MOL_PROPERTY
W(PB)
SciTegic.value.DoubleValue
-62.122

@<SCITEGIC>MOL_PROPERTY
W(SA)
SciTegic.value.DoubleValue
2.433

@<SCITEGIC>MOL_PROPERTY
Valence
SciTegic.value.DoubleValue
11.280

@<SCITEGIC>MOL_PROPERTY
Coulomb
SciTegic.value.DoubleValue
-1.129

@<SCITEGIC>MOL_PROPERTY
VdW
SciTegic.value.DoubleValue
1.046

@<SCITEGIC>MOL_PROPERTY
VdW6
SciTegic.value.DoubleValue
-9.930

@<SCITEGIC>MOL_PROPERTY
VdW12
SciTegic.value.DoubleValue
10.976

@<SCITEGIC>MOL_PROPERTY
Bond
SciTegic.value.DoubleValue
0.250

@<SCITEGIC>MOL_PROPERTY
Angle
SciTegic.value.DoubleValue
3.254

@<SCITEGIC>MOL_PROPERTY
Pdih
SciTegic.value.DoubleValue
7.775

@<SCITEGIC>MOL_PROPERTY
Idih
SciTegic.value.DoubleValue
0.001

@<SCITEGIC>MOL_PROPERTY
Tether
SciTegic.value.DoubleValue
0.000

@<TRIPOS>MOLECULE
guest-8_vm2.mol2 : vm2 ligand conformer 130
          25          24           1
SMALL
USER_CHARGES
 
@<TRIPOS>ATOM
       1    C1      20.122046   19.790719   27.137615 C.2        1 MOL1         0.6168
       2    O1      21.170434   20.347525   27.397470 O.co2      1 MOL1        -0.6703
       3    O2      19.038083   20.182244   27.522875 O.co2      1 MOL1        -0.6703
       4    C2      20.167497   18.541705   26.264628 C.3        1 MOL1        -0.1963
       5    H1      19.351188   17.878951   26.575918 H          1 MOL1         0.0750
       6    H2      21.108172   18.016648   26.469569 H          1 MOL1         0.0750
       7    C3      20.051978   18.860541   24.753669 C.3        1 MOL1        -0.1860
       8    H3      19.109020   19.392120   24.565233 H          1 MOL1         0.0752
       9    H4      20.868570   19.538440   24.472614 H          1 MOL1         0.0752
      10    C4      20.112010   17.580810   23.890000 C.3        1 MOL1        -0.1858
      11    H5      19.365499   16.864941   24.260305 H          1 MOL1         0.0752
      12    H6      21.091018   17.098976   24.017560 H          1 MOL1         0.0752
      13    C5      19.848382   17.821186   22.382333 C.3        1 MOL1        -0.1858
      14    H7      19.858950   16.841835   21.884972 H          1 MOL1         0.0752
      15    H8      18.833838   18.213981   22.241377 H          1 MOL1         0.0752
      16    C6      20.895071   18.727743   21.681235 C.3        1 MOL1        -0.1858
      17    H9      21.077160   18.342686   20.668633 H          1 MOL1         0.0752
      18    H10     21.857088   18.647441   22.205387 H          1 MOL1         0.0752
      19    C7      20.490617   20.218907   21.568337 C.3        1 MOL1        -0.1834
      20    H11     20.193972   20.614586   22.547322 H          1 MOL1         0.0752
      21    H12     21.370691   20.797712   21.256203 H          1 MOL1         0.0752
      22    C8      19.356880   20.462620   20.547837 C.3        1 MOL1        -0.2849
      23    H13     18.425259   19.971338   20.853851 H          1 MOL1         0.0764
      24    H14     19.150847   21.536601   20.453111 H          1 MOL1         0.0764
      25    H15     19.633860   20.084177   19.555322 H          1 MOL1         0.0764
@<TRIPOS>BOND
    1     1     2    1
    2     1     3    2
    3     1     4    1
    4     4     5    1
    5     4     6    1
    6     4     7    1
    7     7     8    1
    8     7     9    1
    9     7    10    1
   10    10    11    1
   11    10    12    1
   12    10    13    1
   13    13    14    1
   14    13    15    1
   15    13    16    1
   16    16    17    1
   17    16    18    1
   18    16    19    1
   19    19    20    1
   20    19    21    1
   21    19    22    1
   22    22    23    1
   23    22    24    1
   24    22    25    1
@<TRIPOS>SUBSTRUCTURE
       1 MOL1            1 RESIDUE      1      MOL     
@<SCITEGIC>MOL_PROPERTY
VM2 Rank
SciTegic.value.IntegerValue
130

@<SCITEGIC>MOL_PROPERTY
Conf_Id
SciTegic.value.IntegerValue
1013

@<SCITEGIC>MOL_PROPERTY
Probability
SciTegic.value.DoubleValue
0.01

@<SCITEGIC>MOL_PROPERTY
Sum Probability
SciTegic.value.DoubleValue
99.88

@<SCITEGIC>MOL_PROPERTY
Delta G
SciTegic.value.DoubleValue
4.902

@<SCITEGIC>MOL_PROPERTY
G
SciTegic.value.DoubleValue
-3.061

@<SCITEGIC>MOL_PROPERTY
E
SciTegic.value.DoubleValue
-27.914

@<SCITEGIC>MOL_PROPERTY
-TS
SciTegic.value.DoubleValue
24.853

@<SCITEGIC>MOL_PROPERTY
U+W
SciTegic.value.DoubleValue
-48.481

@<SCITEGIC>MOL_PROPERTY
U
SciTegic.value.DoubleValue
11.373

@<SCITEGIC>MOL_PROPERTY
W
SciTegic.value.DoubleValue
-59.855

@<SCITEGIC>MOL_PROPERTY
W(PB)
SciTegic.value.DoubleValue
-62.293

@<SCITEGIC>MOL_PROPERTY
W(SA)
SciTegic.value.DoubleValue
2.438

@<SCITEGIC>MOL_PROPERTY
Valence
SciTegic.value.DoubleValue
11.258

@<SCITEGIC>MOL_PROPERTY
Coulomb
SciTegic.value.DoubleValue
-0.951

@<SCITEGIC>MOL_PROPERTY
VdW
SciTegic.value.DoubleValue
1.066

@<SCITEGIC>MOL_PROPERTY
VdW6
SciTegic.value.DoubleValue
-9.862

@<SCITEGIC>MOL_PROPERTY
VdW12
SciTegic.value.DoubleValue
10.928

@<SCITEGIC>MOL_PROPERTY
Bond
SciTegic.value.DoubleValue
0.236

@<SCITEGIC>MOL_PROPERTY
Angle
SciTegic.value.DoubleValue
3.228

@<SCITEGIC>MOL_PROPERTY
Pdih
SciTegic.value.DoubleValue
7.794

@<SCITEGIC>MOL_PROPERTY
Idih
SciTegic.value.DoubleValue
0.001

@<SCITEGIC>MOL_PROPERTY
Tether
SciTegic.value.DoubleValue
0.000

@<TRIPOS>MOLECULE
guest-8_vm2.mol2 : vm2 ligand conformer 131
          25          24           1
SMALL
USER_CHARGES
 
@<TRIPOS>ATOM
       1    C1      20.403104   19.736046   27.090580 C.2        1 MOL1         0.6168
       2    O1      21.324511   20.518048   26.963494 O.co2      1 MOL1        -0.6703
       3    O2      19.614956   19.768884   28.015010 O.co2      1 MOL1        -0.6703
       4    C2      20.212339   18.667531   26.020054 C.3        1 MOL1        -0.1963
       5    H1      19.796556   17.774984   26.502487 H          1 MOL1         0.0750
       6    H2      21.202875   18.396905   25.638617 H          1 MOL1         0.0750
       7    C3      19.284698   19.133757   24.867359 C.3        1 MOL1        -0.1860
       8    H3      18.323424   19.444279   25.299458 H          1 MOL1         0.0752
       9    H4      19.711953   20.026795   24.395313 H          1 MOL1         0.0752
      10    C4      19.018286   18.031033   23.811337 C.3        1 MOL1        -0.1858
      11    H5      18.168077   18.325096   23.180928 H          1 MOL1         0.0752
      12    H6      18.696167   17.121280   24.336166 H          1 MOL1         0.0752
      13    C5      20.233637   17.687149   22.909441 C.3        1 MOL1        -0.1858
      14    H7      21.177968   17.866253   23.438044 H          1 MOL1         0.0752
      15    H8      20.209381   16.608540   22.702856 H          1 MOL1         0.0752
      16    C6      20.251386   18.421517   21.545240 C.3        1 MOL1        -0.1858
      17    H9      19.346238   18.163302   20.978816 H          1 MOL1         0.0752
      18    H10     21.099582   18.040565   20.960201 H          1 MOL1         0.0752
      19    C7      20.368292   19.957449   21.654341 C.3        1 MOL1        -0.1834
      20    H11     19.467802   20.366707   22.130564 H          1 MOL1         0.0752
      21    H12     21.222451   20.220683   22.293388 H          1 MOL1         0.0752
      22    C8      20.541791   20.612586   20.269142 C.3        1 MOL1        -0.2849
      23    H13     19.687661   20.385359   19.617870 H          1 MOL1         0.0764
      24    H14     20.614922   21.703753   20.364085 H          1 MOL1         0.0764
      25    H15     21.454546   20.253724   19.775799 H          1 MOL1         0.0764
@<TRIPOS>BOND
    1     1     2    1
    2     1     3    2
    3     1     4    1
    4     4     5    1
    5     4     6    1
    6     4     7    1
    7     7     8    1
    8     7     9    1
    9     7    10    1
   10    10    11    1
   11    10    12    1
   12    10    13    1
   13    13    14    1
   14    13    15    1
   15    13    16    1
   16    16    17    1
   17    16    18    1
   18    16    19    1
   19    19    20    1
   20    19    21    1
   21    19    22    1
   22    22    23    1
   23    22    24    1
   24    22    25    1
@<TRIPOS>SUBSTRUCTURE
       1 MOL1            1 RESIDUE      1      MOL     
@<SCITEGIC>MOL_PROPERTY
VM2 Rank
SciTegic.value.IntegerValue
131

@<SCITEGIC>MOL_PROPERTY
Conf_Id
SciTegic.value.IntegerValue
1231

@<SCITEGIC>MOL_PROPERTY
Probability
SciTegic.value.DoubleValue
0.01

@<SCITEGIC>MOL_PROPERTY
Sum Probability
SciTegic.value.DoubleValue
99.89

@<SCITEGIC>MOL_PROPERTY
Delta G
SciTegic.value.DoubleValue
4.905

@<SCITEGIC>MOL_PROPERTY
G
SciTegic.value.DoubleValue
-3.057

@<SCITEGIC>MOL_PROPERTY
E
SciTegic.value.DoubleValue
-27.902

@<SCITEGIC>MOL_PROPERTY
-TS
SciTegic.value.DoubleValue
24.845

@<SCITEGIC>MOL_PROPERTY
U+W
SciTegic.value.DoubleValue
-48.470

@<SCITEGIC>MOL_PROPERTY
U
SciTegic.value.DoubleValue
11.197

@<SCITEGIC>MOL_PROPERTY
W
SciTegic.value.DoubleValue
-59.667

@<SCITEGIC>MOL_PROPERTY
W(PB)
SciTegic.value.DoubleValue
-62.100

@<SCITEGIC>MOL_PROPERTY
W(SA)
SciTegic.value.DoubleValue
2.433

@<SCITEGIC>MOL_PROPERTY
Valence
SciTegic.value.DoubleValue
11.279

@<SCITEGIC>MOL_PROPERTY
Coulomb
SciTegic.value.DoubleValue
-1.128

@<SCITEGIC>MOL_PROPERTY
VdW
SciTegic.value.DoubleValue
1.047

@<SCITEGIC>MOL_PROPERTY
VdW6
SciTegic.value.DoubleValue
-9.931

@<SCITEGIC>MOL_PROPERTY
VdW12
SciTegic.value.DoubleValue
10.977

@<SCITEGIC>MOL_PROPERTY
Bond
SciTegic.value.DoubleValue
0.250

@<SCITEGIC>MOL_PROPERTY
Angle
SciTegic.value.DoubleValue
3.254

@<SCITEGIC>MOL_PROPERTY
Pdih
SciTegic.value.DoubleValue
7.773

@<SCITEGIC>MOL_PROPERTY
Idih
SciTegic.value.DoubleValue
0.001

@<SCITEGIC>MOL_PROPERTY
Tether
SciTegic.value.DoubleValue
0.000

@<TRIPOS>MOLECULE
guest-8_vm2.mol2 : vm2 ligand conformer 132
          25          24           1
SMALL
USER_CHARGES
 
@<TRIPOS>ATOM
       1    C1      20.776516   18.958319   26.411073 C.2        1 MOL1         0.6168
       2    O1      21.450164   19.929451   26.695402 O.co2      1 MOL1        -0.6703
       3    O2      21.248491   17.883309   26.096771 O.co2      1 MOL1        -0.6703
       4    C2      19.257178   19.072223   26.522950 C.3        1 MOL1        -0.1963
       5    H1      19.039887   19.262717   27.580276 H          1 MOL1         0.0750
       6    H2      18.808065   18.101592   26.280142 H          1 MOL1         0.0750
       7    C3      18.610739   20.195057   25.663433 C.3        1 MOL1        -0.1860
       8    H3      17.625631   20.425120   26.091260 H          1 MOL1         0.0752
       9    H4      19.200191   21.118520   25.749112 H          1 MOL1         0.0752
      10    C4      18.404065   19.833858   24.171431 C.3        1 MOL1        -0.1858
      11    H5      17.813579   20.634173   23.704850 H          1 MOL1         0.0752
      12    H6      17.800828   18.919140   24.092668 H          1 MOL1         0.0752
      13    C5      19.718767   19.657686   23.378047 C.3        1 MOL1        -0.1858
      14    H7      20.366259   20.530426   23.538697 H          1 MOL1         0.0752
      15    H8      20.258160   18.781598   23.756531 H          1 MOL1         0.0752
      16    C6      19.453296   19.480344   21.864831 C.3        1 MOL1        -0.1858
      17    H9      18.859177   20.330623   21.503175 H          1 MOL1         0.0752
      18    H10     18.843697   18.581536   21.699400 H          1 MOL1         0.0752
      19    C7      20.745992   19.391444   21.020471 C.3        1 MOL1        -0.1834
      20    H11     20.472566   19.387904   19.956330 H          1 MOL1         0.0752
      21    H12     21.356299   20.290879   21.181179 H          1 MOL1         0.0752
      22    C8      21.587790   18.132308   21.321592 C.3        1 MOL1        -0.2849
      23    H13     21.980012   18.148074   22.346458 H          1 MOL1         0.0764
      24    H14     20.989582   17.220477   21.196115 H          1 MOL1         0.0764
      25    H15     22.445062   18.071067   20.638848 H          1 MOL1         0.0764
@<TRIPOS>BOND
    1     1     2    1
    2     1     3    2
    3     1     4    1
    4     4     5    1
    5     4     6    1
    6     4     7    1
    7     7     8    1
    8     7     9    1
    9     7    10    1
   10    10    11    1
   11    10    12    1
   12    10    13    1
   13    13    14    1
   14    13    15    1
   15    13    16    1
   16    16    17    1
   17    16    18    1
   18    16    19    1
   19    19    20    1
   20    19    21    1
   21    19    22    1
   22    22    23    1
   23    22    24    1
   24    22    25    1
@<TRIPOS>SUBSTRUCTURE
       1 MOL1            1 RESIDUE      1      MOL     
@<SCITEGIC>MOL_PROPERTY
VM2 Rank
SciTegic.value.IntegerValue
132

@<SCITEGIC>MOL_PROPERTY
Conf_Id
SciTegic.value.IntegerValue
751

@<SCITEGIC>MOL_PROPERTY
Probability
SciTegic.value.DoubleValue
0.01

@<SCITEGIC>MOL_PROPERTY
Sum Probability
SciTegic.value.DoubleValue
99.89

@<SCITEGIC>MOL_PROPERTY
Delta G
SciTegic.value.DoubleValue
4.906

@<SCITEGIC>MOL_PROPERTY
G
SciTegic.value.DoubleValue
-3.056

@<SCITEGIC>MOL_PROPERTY
E
SciTegic.value.DoubleValue
-28.214

@<SCITEGIC>MOL_PROPERTY
-TS
SciTegic.value.DoubleValue
25.158

@<SCITEGIC>MOL_PROPERTY
U+W
SciTegic.value.DoubleValue
-48.781

@<SCITEGIC>MOL_PROPERTY
U
SciTegic.value.DoubleValue
12.472

@<SCITEGIC>MOL_PROPERTY
W
SciTegic.value.DoubleValue
-61.253

@<SCITEGIC>MOL_PROPERTY
W(PB)
SciTegic.value.DoubleValue
-63.646

@<SCITEGIC>MOL_PROPERTY
W(SA)
SciTegic.value.DoubleValue
2.393

@<SCITEGIC>MOL_PROPERTY
Valence
SciTegic.value.DoubleValue
9.941

@<SCITEGIC>MOL_PROPERTY
Coulomb
SciTegic.value.DoubleValue
1.807

@<SCITEGIC>MOL_PROPERTY
VdW
SciTegic.value.DoubleValue
0.724

@<SCITEGIC>MOL_PROPERTY
VdW6
SciTegic.value.DoubleValue
-10.776

@<SCITEGIC>MOL_PROPERTY
VdW12
SciTegic.value.DoubleValue
11.499

@<SCITEGIC>MOL_PROPERTY
Bond
SciTegic.value.DoubleValue
0.236

@<SCITEGIC>MOL_PROPERTY
Angle
SciTegic.value.DoubleValue
3.415

@<SCITEGIC>MOL_PROPERTY
Pdih
SciTegic.value.DoubleValue
6.282

@<SCITEGIC>MOL_PROPERTY
Idih
SciTegic.value.DoubleValue
0.007

@<SCITEGIC>MOL_PROPERTY
Tether
SciTegic.value.DoubleValue
0.000

@<TRIPOS>MOLECULE
guest-8_vm2.mol2 : vm2 ligand conformer 133
          25          24           1
SMALL
USER_CHARGES
 
@<TRIPOS>ATOM
       1    C1      19.772260   18.768313   26.779167 C.2        1 MOL1         0.6168
       2    O1      20.473253   18.529126   27.742643 O.co2      1 MOL1        -0.6703
       3    O2      18.573338   18.953897   26.848616 O.co2      1 MOL1        -0.6703
       4    C2      20.437763   18.862111   25.411003 C.3        1 MOL1        -0.1963
       5    H1      19.722411   18.496491   24.668579 H          1 MOL1         0.0750
       6    H2      21.290271   18.172716   25.401571 H          1 MOL1         0.0750
       7    C3      20.911580   20.300281   25.072359 C.3        1 MOL1        -0.1860
       8    H3      20.061807   20.995844   25.107364 H          1 MOL1         0.0752
       9    H4      21.601355   20.621700   25.865041 H          1 MOL1         0.0752
      10    C4      21.642693   20.413215   23.709852 C.3        1 MOL1        -0.1858
      11    H5      22.177009   19.481934   23.481103 H          1 MOL1         0.0752
      12    H6      22.423763   21.178999   23.811437 H          1 MOL1         0.0752
      13    C5      20.740644   20.836572   22.520366 C.3        1 MOL1        -0.1858
      14    H7      20.293203   21.813655   22.747822 H          1 MOL1         0.0752
      15    H8      21.376641   20.996980   21.639200 H          1 MOL1         0.0752
      16    C6      19.609088   19.851788   22.138801 C.3        1 MOL1        -0.1858
      17    H9      19.022365   20.300059   21.325531 H          1 MOL1         0.0752
      18    H10     18.914089   19.735736   22.979731 H          1 MOL1         0.0752
      19    C7      20.125870   18.471424   21.673280 C.3        1 MOL1        -0.1834
      20    H11     20.816712   18.601656   20.829032 H          1 MOL1         0.0752
      21    H12     20.694415   17.986684   22.477129 H          1 MOL1         0.0752
      22    C8      18.966511   17.547274   21.249914 C.3        1 MOL1        -0.2849
      23    H13     18.397729   17.985243   20.419304 H          1 MOL1         0.0764
      24    H14     19.349154   16.572133   20.921842 H          1 MOL1         0.0764
      25    H15     18.276096   17.376707   22.086348 H          1 MOL1         0.0764
@<TRIPOS>BOND
    1     1     2    1
    2     1     3    2
    3     1     4    1
    4     4     5    1
    5     4     6    1
    6     4     7    1
    7     7     8    1
    8     7     9    1
    9     7    10    1
   10    10    11    1
   11    10    12    1
   12    10    13    1
   13    13    14    1
   14    13    15    1
   15    13    16    1
   16    16    17    1
   17    16    18    1
   18    16    19    1
   19    19    20    1
   20    19    21    1
   21    19    22    1
   22    22    23    1
   23    22    24    1
   24    22    25    1
@<TRIPOS>SUBSTRUCTURE
       1 MOL1            1 RESIDUE      1      MOL     
@<SCITEGIC>MOL_PROPERTY
VM2 Rank
SciTegic.value.IntegerValue
133

@<SCITEGIC>MOL_PROPERTY
Conf_Id
SciTegic.value.IntegerValue
168

@<SCITEGIC>MOL_PROPERTY
Probability
SciTegic.value.DoubleValue
0.01

@<SCITEGIC>MOL_PROPERTY
Sum Probability
SciTegic.value.DoubleValue
99.90

@<SCITEGIC>MOL_PROPERTY
Delta G
SciTegic.value.DoubleValue
4.940

@<SCITEGIC>MOL_PROPERTY
G
SciTegic.value.DoubleValue
-3.022

@<SCITEGIC>MOL_PROPERTY
E
SciTegic.value.DoubleValue
-28.285

@<SCITEGIC>MOL_PROPERTY
-TS
SciTegic.value.DoubleValue
25.263

@<SCITEGIC>MOL_PROPERTY
U+W
SciTegic.value.DoubleValue
-48.853

@<SCITEGIC>MOL_PROPERTY
U
SciTegic.value.DoubleValue
11.279

@<SCITEGIC>MOL_PROPERTY
W
SciTegic.value.DoubleValue
-60.131

@<SCITEGIC>MOL_PROPERTY
W(PB)
SciTegic.value.DoubleValue
-62.516

@<SCITEGIC>MOL_PROPERTY
W(SA)
SciTegic.value.DoubleValue
2.385

@<SCITEGIC>MOL_PROPERTY
Valence
SciTegic.value.DoubleValue
11.119

@<SCITEGIC>MOL_PROPERTY
Coulomb
SciTegic.value.DoubleValue
-0.438

@<SCITEGIC>MOL_PROPERTY
VdW
SciTegic.value.DoubleValue
0.598

@<SCITEGIC>MOL_PROPERTY
VdW6
SciTegic.value.DoubleValue
-10.693

@<SCITEGIC>MOL_PROPERTY
VdW12
SciTegic.value.DoubleValue
11.291

@<SCITEGIC>MOL_PROPERTY
Bond
SciTegic.value.DoubleValue
0.252

@<SCITEGIC>MOL_PROPERTY
Angle
SciTegic.value.DoubleValue
3.623

@<SCITEGIC>MOL_PROPERTY
Pdih
SciTegic.value.DoubleValue
7.244

@<SCITEGIC>MOL_PROPERTY
Idih
SciTegic.value.DoubleValue
0.001

@<SCITEGIC>MOL_PROPERTY
Tether
SciTegic.value.DoubleValue
0.000

@<TRIPOS>MOLECULE
guest-8_vm2.mol2 : vm2 ligand conformer 134
          25          24           1
SMALL
USER_CHARGES
 
@<TRIPOS>ATOM
       1    C1      20.021512   20.001900   26.735875 C.2        1 MOL1         0.6168
       2    O1      20.772844   20.013512   27.690996 O.co2      1 MOL1        -0.6703
       3    O2      18.845668   20.301650   26.800839 O.co2      1 MOL1        -0.6703
       4    C2      20.580287   19.565563   25.386452 C.3        1 MOL1        -0.1963
       5    H1      21.633317   19.867786   25.342698 H          1 MOL1         0.0750
       6    H2      20.053149   20.129382   24.611316 H          1 MOL1         0.0750
       7    C3      20.454319   18.037014   25.151547 C.3        1 MOL1        -0.1860
       8    H3      20.975917   17.527105   25.973359 H          1 MOL1         0.0752
       9    H4      19.401779   17.729742   25.221497 H          1 MOL1         0.0752
      10    C4      21.065909   17.558109   23.809789 C.3        1 MOL1        -0.1858
      11    H5      21.490172   16.558052   23.973203 H          1 MOL1         0.0752
      12    H6      21.916413   18.191654   23.526288 H          1 MOL1         0.0752
      13    C5      20.054237   17.438847   22.639278 C.3        1 MOL1        -0.1858
      14    H7      20.566259   16.985662   21.779548 H          1 MOL1         0.0752
      15    H8      19.266083   16.729340   22.925712 H          1 MOL1         0.0752
      16    C6      19.387958   18.757337   22.177245 C.3        1 MOL1        -0.1858
      17    H9      18.804010   19.190026   22.999100 H          1 MOL1         0.0752
      18    H10     18.662166   18.518151   21.388184 H          1 MOL1         0.0752
      19    C7      20.393115   19.794624   21.626902 C.3        1 MOL1        -0.1834
      20    H11     21.116270   20.073634   22.403812 H          1 MOL1         0.0752
      21    H12     20.967571   19.350337   20.802531 H          1 MOL1         0.0752
      22    C8      19.677151   21.065444   21.127077 C.3        1 MOL1        -0.2849
      23    H13     20.403429   21.791403   20.739197 H          1 MOL1         0.0764
      24    H14     18.971456   20.827714   20.320403 H          1 MOL1         0.0764
      25    H15     19.118723   21.546193   21.940974 H          1 MOL1         0.0764
@<TRIPOS>BOND
    1     1     2    1
    2     1     3    2
    3     1     4    1
    4     4     5    1
    5     4     6    1
    6     4     7    1
    7     7     8    1
    8     7     9    1
    9     7    10    1
   10    10    11    1
   11    10    12    1
   12    10    13    1
   13    13    14    1
   14    13    15    1
   15    13    16    1
   16    16    17    1
   17    16    18    1
   18    16    19    1
   19    19    20    1
   20    19    21    1
   21    19    22    1
   22    22    23    1
   23    22    24    1
   24    22    25    1
@<TRIPOS>SUBSTRUCTURE
       1 MOL1            1 RESIDUE      1      MOL     
@<SCITEGIC>MOL_PROPERTY
VM2 Rank
SciTegic.value.IntegerValue
134

@<SCITEGIC>MOL_PROPERTY
Conf_Id
SciTegic.value.IntegerValue
256

@<SCITEGIC>MOL_PROPERTY
Probability
SciTegic.value.DoubleValue
0.01

@<SCITEGIC>MOL_PROPERTY
Sum Probability
SciTegic.value.DoubleValue
99.90

@<SCITEGIC>MOL_PROPERTY
Delta G
SciTegic.value.DoubleValue
4.957

@<SCITEGIC>MOL_PROPERTY
G
SciTegic.value.DoubleValue
-3.006

@<SCITEGIC>MOL_PROPERTY
E
SciTegic.value.DoubleValue
-28.269

@<SCITEGIC>MOL_PROPERTY
-TS
SciTegic.value.DoubleValue
25.264

@<SCITEGIC>MOL_PROPERTY
U+W
SciTegic.value.DoubleValue
-48.837

@<SCITEGIC>MOL_PROPERTY
U
SciTegic.value.DoubleValue
11.279

@<SCITEGIC>MOL_PROPERTY
W
SciTegic.value.DoubleValue
-60.116

@<SCITEGIC>MOL_PROPERTY
W(PB)
SciTegic.value.DoubleValue
-62.521

@<SCITEGIC>MOL_PROPERTY
W(SA)
SciTegic.value.DoubleValue
2.405

@<SCITEGIC>MOL_PROPERTY
Valence
SciTegic.value.DoubleValue
11.119

@<SCITEGIC>MOL_PROPERTY
Coulomb
SciTegic.value.DoubleValue
-0.437

@<SCITEGIC>MOL_PROPERTY
VdW
SciTegic.value.DoubleValue
0.597

@<SCITEGIC>MOL_PROPERTY
VdW6
SciTegic.value.DoubleValue
-10.693

@<SCITEGIC>MOL_PROPERTY
VdW12
SciTegic.value.DoubleValue
11.291

@<SCITEGIC>MOL_PROPERTY
Bond
SciTegic.value.DoubleValue
0.252

@<SCITEGIC>MOL_PROPERTY
Angle
SciTegic.value.DoubleValue
3.622

@<SCITEGIC>MOL_PROPERTY
Pdih
SciTegic.value.DoubleValue
7.244

@<SCITEGIC>MOL_PROPERTY
Idih
SciTegic.value.DoubleValue
0.001

@<SCITEGIC>MOL_PROPERTY
Tether
SciTegic.value.DoubleValue
0.000

@<TRIPOS>MOLECULE
guest-8_vm2.mol2 : vm2 ligand conformer 135
          25          24           1
SMALL
USER_CHARGES
 
@<TRIPOS>ATOM
       1    C1      19.564030   18.882969   26.425022 C.2        1 MOL1         0.6168
       2    O1      19.221701   17.757335   26.120146 O.co2      1 MOL1        -0.6703
       3    O2      18.782027   19.763613   26.726151 O.co2      1 MOL1        -0.6703
       4    C2      21.059758   19.184199   26.502127 C.3        1 MOL1        -0.1963
       5    H1      21.619857   18.276274   26.247679 H          1 MOL1         0.0750
       6    H2      21.276032   19.401626   27.554453 H          1 MOL1         0.0750
       7    C3      21.542344   20.377186   25.629601 C.3        1 MOL1        -0.1860
       8    H3      20.845296   21.220740   25.730184 H          1 MOL1         0.0752
       9    H4      22.501010   20.727955   26.034972 H          1 MOL1         0.0752
      10    C4      21.757702   20.042270   24.132706 C.3        1 MOL1        -0.1858
      11    H5      22.467574   19.209170   24.038724 H          1 MOL1         0.0752
      12    H6      22.233640   20.908886   23.653817 H          1 MOL1         0.0752
      13    C5      20.456989   19.703561   23.369584 C.3        1 MOL1        -0.1858
      14    H7      20.039165   18.767895   23.759040 H          1 MOL1         0.0752
      15    H8      19.710254   20.489576   23.546498 H          1 MOL1         0.0752
      16    C6      20.707365   19.558512   21.850368 C.3        1 MOL1        -0.1858
      17    H9      21.419710   18.742008   21.669491 H          1 MOL1         0.0752
      18    H10     21.182964   20.475420   21.476425 H          1 MOL1         0.0752
      19    C7      19.416492   19.308918   21.035958 C.3        1 MOL1        -0.1834
      20    H11     18.703208   20.125884   21.212246 H          1 MOL1         0.0752
      21    H12     19.663544   19.338050   19.965776 H          1 MOL1         0.0752
      22    C8      18.744592   17.955437   21.354337 C.3        1 MOL1        -0.2849
      23    H13     19.448197   17.124705   21.213418 H          1 MOL1         0.0764
      24    H14     18.377367   17.923600   22.388053 H          1 MOL1         0.0764
      25    H15     17.885899   17.787550   20.691565 H          1 MOL1         0.0764
@<TRIPOS>BOND
    1     1     2    1
    2     1     3    2
    3     1     4    1
    4     4     5    1
    5     4     6    1
    6     4     7    1
    7     7     8    1
    8     7     9    1
    9     7    10    1
   10    10    11    1
   11    10    12    1
   12    10    13    1
   13    13    14    1
   14    13    15    1
   15    13    16    1
   16    16    17    1
   17    16    18    1
   18    16    19    1
   19    19    20    1
   20    19    21    1
   21    19    22    1
   22    22    23    1
   23    22    24    1
   24    22    25    1
@<TRIPOS>SUBSTRUCTURE
       1 MOL1            1 RESIDUE      1      MOL     
@<SCITEGIC>MOL_PROPERTY
VM2 Rank
SciTegic.value.IntegerValue
135

@<SCITEGIC>MOL_PROPERTY
Conf_Id
SciTegic.value.IntegerValue
1339

@<SCITEGIC>MOL_PROPERTY
Probability
SciTegic.value.DoubleValue
0.01

@<SCITEGIC>MOL_PROPERTY
Sum Probability
SciTegic.value.DoubleValue
99.91

@<SCITEGIC>MOL_PROPERTY
Delta G
SciTegic.value.DoubleValue
4.989

@<SCITEGIC>MOL_PROPERTY
G
SciTegic.value.DoubleValue
-2.973

@<SCITEGIC>MOL_PROPERTY
E
SciTegic.value.DoubleValue
-28.131

@<SCITEGIC>MOL_PROPERTY
-TS
SciTegic.value.DoubleValue
25.158

@<SCITEGIC>MOL_PROPERTY
U+W
SciTegic.value.DoubleValue
-48.698

@<SCITEGIC>MOL_PROPERTY
U
SciTegic.value.DoubleValue
12.472

@<SCITEGIC>MOL_PROPERTY
W
SciTegic.value.DoubleValue
-61.170

@<SCITEGIC>MOL_PROPERTY
W(PB)
SciTegic.value.DoubleValue
-63.568

@<SCITEGIC>MOL_PROPERTY
W(SA)
SciTegic.value.DoubleValue
2.398

@<SCITEGIC>MOL_PROPERTY
Valence
SciTegic.value.DoubleValue
9.941

@<SCITEGIC>MOL_PROPERTY
Coulomb
SciTegic.value.DoubleValue
1.807

@<SCITEGIC>MOL_PROPERTY
VdW
SciTegic.value.DoubleValue
0.724

@<SCITEGIC>MOL_PROPERTY
VdW6
SciTegic.value.DoubleValue
-10.776

@<SCITEGIC>MOL_PROPERTY
VdW12
SciTegic.value.DoubleValue
11.499

@<SCITEGIC>MOL_PROPERTY
Bond
SciTegic.value.DoubleValue
0.236

@<SCITEGIC>MOL_PROPERTY
Angle
SciTegic.value.DoubleValue
3.415

@<SCITEGIC>MOL_PROPERTY
Pdih
SciTegic.value.DoubleValue
6.282

@<SCITEGIC>MOL_PROPERTY
Idih
SciTegic.value.DoubleValue
0.007

@<SCITEGIC>MOL_PROPERTY
Tether
SciTegic.value.DoubleValue
0.000

@<TRIPOS>MOLECULE
guest-8_vm2.mol2 : vm2 ligand conformer 136
          25          24           1
SMALL
USER_CHARGES
 
@<TRIPOS>ATOM
       1    C1      20.486457   19.309986   27.336280 C.2        1 MOL1         0.6168
       2    O1      21.605196   19.766278   27.466237 O.co2      1 MOL1        -0.6703
       3    O2      19.590715   19.484499   28.138719 O.co2      1 MOL1        -0.6703
       4    C2      20.184242   18.489291   26.087549 C.3        1 MOL1        -0.1963
       5    H1      19.443359   17.725663   26.353022 H          1 MOL1         0.0750
       6    H2      21.101295   17.963891   25.795029 H          1 MOL1         0.0750
       7    C3      19.665385   19.352659   24.911254 C.3        1 MOL1        -0.1860
       8    H3      18.753840   19.880076   25.224501 H          1 MOL1         0.0752
       9    H4      20.412954   20.121689   24.677957 H          1 MOL1         0.0752
      10    C4      19.366929   18.494762   23.659088 C.3        1 MOL1        -0.1858
      11    H5      18.642554   17.715222   23.931576 H          1 MOL1         0.0752
      12    H6      20.278311   17.972346   23.344435 H          1 MOL1         0.0752
      13    C5      18.781782   19.315690   22.482163 C.3        1 MOL1        -0.1858
      14    H7      18.342810   18.632435   21.742539 H          1 MOL1         0.0752
      15    H8      17.944683   19.916710   22.862676 H          1 MOL1         0.0752
      16    C6      19.795524   20.255200   21.775775 C.3        1 MOL1        -0.1858
      17    H9      20.573431   20.588653   22.473603 H          1 MOL1         0.0752
      18    H10     19.260539   21.164839   21.470826 H          1 MOL1         0.0752
      19    C7      20.452776   19.654807   20.508437 C.3        1 MOL1        -0.1834
      20    H11     19.675611   19.402876   19.773761 H          1 MOL1         0.0752
      21    H12     21.078651   20.427313   20.040823 H          1 MOL1         0.0752
      22    C8      21.323994   18.410828   20.780499 C.3        1 MOL1        -0.2849
      23    H13     20.710062   17.560773   21.103012 H          1 MOL1         0.0764
      24    H14     21.856200   18.107907   19.869606 H          1 MOL1         0.0764
      25    H15     22.071554   18.616096   21.557730 H          1 MOL1         0.0764
@<TRIPOS>BOND
    1     1     2    1
    2     1     3    2
    3     1     4    1
    4     4     5    1
    5     4     6    1
    6     4     7    1
    7     7     8    1
    8     7     9    1
    9     7    10    1
   10    10    11    1
   11    10    12    1
   12    10    13    1
   13    13    14    1
   14    13    15    1
   15    13    16    1
   16    16    17    1
   17    16    18    1
   18    16    19    1
   19    19    20    1
   20    19    21    1
   21    19    22    1
   22    22    23    1
   23    22    24    1
   24    22    25    1
@<TRIPOS>SUBSTRUCTURE
       1 MOL1            1 RESIDUE      1      MOL     
@<SCITEGIC>MOL_PROPERTY
VM2 Rank
SciTegic.value.IntegerValue
136

@<SCITEGIC>MOL_PROPERTY
Conf_Id
SciTegic.value.IntegerValue
223

@<SCITEGIC>MOL_PROPERTY
Probability
SciTegic.value.DoubleValue
0.01

@<SCITEGIC>MOL_PROPERTY
Sum Probability
SciTegic.value.DoubleValue
99.91

@<SCITEGIC>MOL_PROPERTY
Delta G
SciTegic.value.DoubleValue
5.018

@<SCITEGIC>MOL_PROPERTY
G
SciTegic.value.DoubleValue
-2.944

@<SCITEGIC>MOL_PROPERTY
E
SciTegic.value.DoubleValue
-27.762

@<SCITEGIC>MOL_PROPERTY
-TS
SciTegic.value.DoubleValue
24.817

@<SCITEGIC>MOL_PROPERTY
U+W
SciTegic.value.DoubleValue
-48.329

@<SCITEGIC>MOL_PROPERTY
U
SciTegic.value.DoubleValue
11.068

@<SCITEGIC>MOL_PROPERTY
W
SciTegic.value.DoubleValue
-59.398

@<SCITEGIC>MOL_PROPERTY
W(PB)
SciTegic.value.DoubleValue
-61.845

@<SCITEGIC>MOL_PROPERTY
W(SA)
SciTegic.value.DoubleValue
2.447

@<SCITEGIC>MOL_PROPERTY
Valence
SciTegic.value.DoubleValue
11.256

@<SCITEGIC>MOL_PROPERTY
Coulomb
SciTegic.value.DoubleValue
-1.285

@<SCITEGIC>MOL_PROPERTY
VdW
SciTegic.value.DoubleValue
1.098

@<SCITEGIC>MOL_PROPERTY
VdW6
SciTegic.value.DoubleValue
-9.790

@<SCITEGIC>MOL_PROPERTY
VdW12
SciTegic.value.DoubleValue
10.888

@<SCITEGIC>MOL_PROPERTY
Bond
SciTegic.value.DoubleValue
0.240

@<SCITEGIC>MOL_PROPERTY
Angle
SciTegic.value.DoubleValue
3.223

@<SCITEGIC>MOL_PROPERTY
Pdih
SciTegic.value.DoubleValue
7.792

@<SCITEGIC>MOL_PROPERTY
Idih
SciTegic.value.DoubleValue
0.001

@<SCITEGIC>MOL_PROPERTY
Tether
SciTegic.value.DoubleValue
0.000

@<TRIPOS>MOLECULE
guest-8_vm2.mol2 : vm2 ligand conformer 137
          25          24           1
SMALL
USER_CHARGES
 
@<TRIPOS>ATOM
       1    C1      19.829529   19.268034   27.343919 C.2        1 MOL1         0.6168
       2    O1      20.714003   19.555983   28.125907 O.co2      1 MOL1        -0.6703
       3    O2      18.665179   19.578757   27.500157 O.co2      1 MOL1        -0.6703
       4    C2      20.204828   18.490614   26.087347 C.3        1 MOL1        -0.1963
       5    H1      19.355547   17.852426   25.815252 H          1 MOL1         0.0750
       6    H2      21.042726   17.827798   26.334561 H          1 MOL1         0.0750
       7    C3      20.582446   19.411228   24.900685 C.3        1 MOL1        -0.1860
       8    H3      19.737989   20.078623   24.685810 H          1 MOL1         0.0752
       9    H4      21.426508   20.050725   25.193622 H          1 MOL1         0.0752
      10    C4      20.958618   18.596405   23.640708 C.3        1 MOL1        -0.1858
      11    H5      20.114033   17.961918   23.346351 H          1 MOL1         0.0752
      12    H6      21.782290   17.915667   23.895290 H          1 MOL1         0.0752
      13    C5      21.407403   19.483328   22.451831 C.3        1 MOL1        -0.1858
      14    H7      22.169828   20.186464   22.813848 H          1 MOL1         0.0752
      15    H8      21.912544   18.860333   21.701304 H          1 MOL1         0.0752
      16    C6      20.266442   20.285264   21.770332 C.3        1 MOL1        -0.1858
      17    H9      20.674227   21.255137   21.454571 H          1 MOL1         0.0752
      18    H10     19.468665   20.518032   22.486339 H          1 MOL1         0.0752
      19    C7      19.661984   19.604350   20.517502 C.3        1 MOL1        -0.1834
      20    H11     18.932357   20.290299   20.065542 H          1 MOL1         0.0752
      21    H12     20.447813   19.452283   19.764806 H          1 MOL1         0.0752
      22    C8      18.962567   18.260037   20.807612 C.3        1 MOL1        -0.2849
      23    H13     19.686880   17.495463   21.114726 H          1 MOL1         0.0764
      24    H14     18.212970   18.369662   21.602065 H          1 MOL1         0.0764
      25    H15     18.452496   17.890551   19.908703 H          1 MOL1         0.0764
@<TRIPOS>BOND
    1     1     2    1
    2     1     3    2
    3     1     4    1
    4     4     5    1
    5     4     6    1
    6     4     7    1
    7     7     8    1
    8     7     9    1
    9     7    10    1
   10    10    11    1
   11    10    12    1
   12    10    13    1
   13    13    14    1
   14    13    15    1
   15    13    16    1
   16    16    17    1
   17    16    18    1
   18    16    19    1
   19    19    20    1
   20    19    21    1
   21    19    22    1
   22    22    23    1
   23    22    24    1
   24    22    25    1
@<TRIPOS>SUBSTRUCTURE
       1 MOL1            1 RESIDUE      1      MOL     
@<SCITEGIC>MOL_PROPERTY
VM2 Rank
SciTegic.value.IntegerValue
137

@<SCITEGIC>MOL_PROPERTY
Conf_Id
SciTegic.value.IntegerValue
1093

@<SCITEGIC>MOL_PROPERTY
Probability
SciTegic.value.DoubleValue
0.01

@<SCITEGIC>MOL_PROPERTY
Sum Probability
SciTegic.value.DoubleValue
99.92

@<SCITEGIC>MOL_PROPERTY
Delta G
SciTegic.value.DoubleValue
5.026

@<SCITEGIC>MOL_PROPERTY
G
SciTegic.value.DoubleValue
-2.936

@<SCITEGIC>MOL_PROPERTY
E
SciTegic.value.DoubleValue
-27.753

@<SCITEGIC>MOL_PROPERTY
-TS
SciTegic.value.DoubleValue
24.818

@<SCITEGIC>MOL_PROPERTY
U+W
SciTegic.value.DoubleValue
-48.321

@<SCITEGIC>MOL_PROPERTY
U
SciTegic.value.DoubleValue
11.068

@<SCITEGIC>MOL_PROPERTY
W
SciTegic.value.DoubleValue
-59.389

@<SCITEGIC>MOL_PROPERTY
W(PB)
SciTegic.value.DoubleValue
-61.842

@<SCITEGIC>MOL_PROPERTY
W(SA)
SciTegic.value.DoubleValue
2.453

@<SCITEGIC>MOL_PROPERTY
Valence
SciTegic.value.DoubleValue
11.256

@<SCITEGIC>MOL_PROPERTY
Coulomb
SciTegic.value.DoubleValue
-1.286

@<SCITEGIC>MOL_PROPERTY
VdW
SciTegic.value.DoubleValue
1.098

@<SCITEGIC>MOL_PROPERTY
VdW6
SciTegic.value.DoubleValue
-9.790

@<SCITEGIC>MOL_PROPERTY
VdW12
SciTegic.value.DoubleValue
10.888

@<SCITEGIC>MOL_PROPERTY
Bond
SciTegic.value.DoubleValue
0.240

@<SCITEGIC>MOL_PROPERTY
Angle
SciTegic.value.DoubleValue
3.222

@<SCITEGIC>MOL_PROPERTY
Pdih
SciTegic.value.DoubleValue
7.793

@<SCITEGIC>MOL_PROPERTY
Idih
SciTegic.value.DoubleValue
0.001

@<SCITEGIC>MOL_PROPERTY
Tether
SciTegic.value.DoubleValue
0.000

@<TRIPOS>MOLECULE
guest-8_vm2.mol2 : vm2 ligand conformer 138
          25          24           1
SMALL
USER_CHARGES
 
@<TRIPOS>ATOM
       1    C1      19.704171   19.181632   27.093666 C.2        1 MOL1         0.6168
       2    O1      20.203868   18.313044   27.781132 O.co2      1 MOL1        -0.6703
       3    O2      18.536118   19.508864   27.165855 O.co2      1 MOL1        -0.6703
       4    C2      20.588028   19.887981   26.071840 C.3        1 MOL1        -0.1963
       5    H1      21.601234   19.953986   26.485976 H          1 MOL1         0.0750
       6    H2      20.218510   20.913558   25.952615 H          1 MOL1         0.0750
       7    C3      20.615521   19.168100   24.701108 C.3        1 MOL1        -0.1860
       8    H3      20.977833   18.140281   24.840539 H          1 MOL1         0.0752
       9    H4      19.590710   19.091303   24.319703 H          1 MOL1         0.0752
      10    C4      21.520232   19.904028   23.684915 C.3        1 MOL1        -0.1858
      11    H5      22.532098   19.961336   24.108961 H          1 MOL1         0.0752
      12    H6      21.183690   20.941737   23.555992 H          1 MOL1         0.0752
      13    C5      21.608929   19.198276   22.307438 C.3        1 MOL1        -0.1858
      14    H7      22.628823   19.338863   21.924366 H          1 MOL1         0.0752
      15    H8      21.487760   18.113124   22.421284 H          1 MOL1         0.0752
      16    C6      20.636696   19.749361   21.230938 C.3        1 MOL1        -0.1858
      17    H9      20.875338   19.275118   20.269270 H          1 MOL1         0.0752
      18    H10     20.833139   20.821238   21.092687 H          1 MOL1         0.0752
      19    C7      19.128498   19.553751   21.514788 C.3        1 MOL1        -0.1834
      20    H11     18.845705   20.078080   22.436291 H          1 MOL1         0.0752
      21    H12     18.557415   20.034637   20.708849 H          1 MOL1         0.0752
      22    C8      18.710939   18.068963   21.594320 C.3        1 MOL1        -0.2849
      23    H13     19.195805   17.559664   22.436093 H          1 MOL1         0.0764
      24    H14     17.625561   17.982000   21.732343 H          1 MOL1         0.0764
      25    H15     18.978483   17.536979   20.672220 H          1 MOL1         0.0764
@<TRIPOS>BOND
    1     1     2    1
    2     1     3    2
    3     1     4    1
    4     4     5    1
    5     4     6    1
    6     4     7    1
    7     7     8    1
    8     7     9    1
    9     7    10    1
   10    10    11    1
   11    10    12    1
   12    10    13    1
   13    13    14    1
   14    13    15    1
   15    13    16    1
   16    16    17    1
   17    16    18    1
   18    16    19    1
   19    19    20    1
   20    19    21    1
   21    19    22    1
   22    22    23    1
   23    22    24    1
   24    22    25    1
@<TRIPOS>SUBSTRUCTURE
       1 MOL1            1 RESIDUE      1      MOL     
@<SCITEGIC>MOL_PROPERTY
VM2 Rank
SciTegic.value.IntegerValue
138

@<SCITEGIC>MOL_PROPERTY
Conf_Id
SciTegic.value.IntegerValue
1002

@<SCITEGIC>MOL_PROPERTY
Probability
SciTegic.value.DoubleValue
0.00

@<SCITEGIC>MOL_PROPERTY
Sum Probability
SciTegic.value.DoubleValue
99.92

@<SCITEGIC>MOL_PROPERTY
Delta G
SciTegic.value.DoubleValue
5.086

@<SCITEGIC>MOL_PROPERTY
G
SciTegic.value.DoubleValue
-2.876

@<SCITEGIC>MOL_PROPERTY
E
SciTegic.value.DoubleValue
-28.079

@<SCITEGIC>MOL_PROPERTY
-TS
SciTegic.value.DoubleValue
25.203

@<SCITEGIC>MOL_PROPERTY
U+W
SciTegic.value.DoubleValue
-48.646

@<SCITEGIC>MOL_PROPERTY
U
SciTegic.value.DoubleValue
11.386

@<SCITEGIC>MOL_PROPERTY
W
SciTegic.value.DoubleValue
-60.033

@<SCITEGIC>MOL_PROPERTY
W(PB)
SciTegic.value.DoubleValue
-62.431

@<SCITEGIC>MOL_PROPERTY
W(SA)
SciTegic.value.DoubleValue
2.398

@<SCITEGIC>MOL_PROPERTY
Valence
SciTegic.value.DoubleValue
11.144

@<SCITEGIC>MOL_PROPERTY
Coulomb
SciTegic.value.DoubleValue
-0.493

@<SCITEGIC>MOL_PROPERTY
VdW
SciTegic.value.DoubleValue
0.736

@<SCITEGIC>MOL_PROPERTY
VdW6
SciTegic.value.DoubleValue
-10.363

@<SCITEGIC>MOL_PROPERTY
VdW12
SciTegic.value.DoubleValue
11.100

@<SCITEGIC>MOL_PROPERTY
Bond
SciTegic.value.DoubleValue
0.234

@<SCITEGIC>MOL_PROPERTY
Angle
SciTegic.value.DoubleValue
3.542

@<SCITEGIC>MOL_PROPERTY
Pdih
SciTegic.value.DoubleValue
7.366

@<SCITEGIC>MOL_PROPERTY
Idih
SciTegic.value.DoubleValue
0.000

@<SCITEGIC>MOL_PROPERTY
Tether
SciTegic.value.DoubleValue
0.000

@<TRIPOS>MOLECULE
guest-8_vm2.mol2 : vm2 ligand conformer 139
          25          24           1
SMALL
USER_CHARGES
 
@<TRIPOS>ATOM
       1    C1      20.572054   19.505038   27.070737 C.2        1 MOL1         0.6168
       2    O1      21.651948   20.061861   27.050267 O.co2      1 MOL1        -0.6703
       3    O2      19.723343   19.712703   27.915346 O.co2      1 MOL1        -0.6703
       4    C2      20.257835   18.502258   25.966263 C.3        1 MOL1        -0.1963
       5    H1      19.619012   17.718026   26.389708 H          1 MOL1         0.0750
       6    H2      21.197377   18.026274   25.660840 H          1 MOL1         0.0750
       7    C3      19.567456   19.152561   24.742309 C.3        1 MOL1        -0.1860
       8    H3      18.633265   19.632886   25.064208 H          1 MOL1         0.0752
       9    H4      20.214935   19.947446   24.350142 H          1 MOL1         0.0752
      10    C4      19.264795   18.114732   23.636488 C.3        1 MOL1        -0.1858
      11    H5      18.644155   17.315092   24.063121 H          1 MOL1         0.0752
      12    H6      20.191694   17.630927   23.304304 H          1 MOL1         0.0752
      13    C5      18.517592   18.712745   22.420208 C.3        1 MOL1        -0.1858
      14    H7      18.262141   17.897564   21.729691 H          1 MOL1         0.0752
      15    H8      17.559141   19.123553   22.765544 H          1 MOL1         0.0752
      16    C6      19.272054   19.815602   21.631056 C.3        1 MOL1        -0.1858
      17    H9      19.468292   20.686395   22.270037 H          1 MOL1         0.0752
      18    H10     18.590397   20.176808   20.849009 H          1 MOL1         0.0752
      19    C7      20.576584   19.344548   20.939710 C.3        1 MOL1        -0.1834
      20    H11     20.507901   18.278749   20.682073 H          1 MOL1         0.0752
      21    H12     20.679128   19.882341   19.987083 H          1 MOL1         0.0752
      22    C8      21.849339   19.611954   21.773617 C.3        1 MOL1        -0.2849
      23    H13     21.842933   19.057839   22.718639 H          1 MOL1         0.0764
      24    H14     22.743962   19.307059   21.215635 H          1 MOL1         0.0764
      25    H15     21.947041   20.680094   22.006910 H          1 MOL1         0.0764
@<TRIPOS>BOND
    1     1     2    1
    2     1     3    2
    3     1     4    1
    4     4     5    1
    5     4     6    1
    6     4     7    1
    7     7     8    1
    8     7     9    1
    9     7    10    1
   10    10    11    1
   11    10    12    1
   12    10    13    1
   13    13    14    1
   14    13    15    1
   15    13    16    1
   16    16    17    1
   17    16    18    1
   18    16    19    1
   19    19    20    1
   20    19    21    1
   21    19    22    1
   22    22    23    1
   23    22    24    1
   24    22    25    1
@<TRIPOS>SUBSTRUCTURE
       1 MOL1            1 RESIDUE      1      MOL     
@<SCITEGIC>MOL_PROPERTY
VM2 Rank
SciTegic.value.IntegerValue
139

@<SCITEGIC>MOL_PROPERTY
Conf_Id
SciTegic.value.IntegerValue
797

@<SCITEGIC>MOL_PROPERTY
Probability
SciTegic.value.DoubleValue
0.00

@<SCITEGIC>MOL_PROPERTY
Sum Probability
SciTegic.value.DoubleValue
99.93

@<SCITEGIC>MOL_PROPERTY
Delta G
SciTegic.value.DoubleValue
5.122

@<SCITEGIC>MOL_PROPERTY
G
SciTegic.value.DoubleValue
-2.840

@<SCITEGIC>MOL_PROPERTY
E
SciTegic.value.DoubleValue
-28.050

@<SCITEGIC>MOL_PROPERTY
-TS
SciTegic.value.DoubleValue
25.210

@<SCITEGIC>MOL_PROPERTY
U+W
SciTegic.value.DoubleValue
-48.618

@<SCITEGIC>MOL_PROPERTY
U
SciTegic.value.DoubleValue
11.356

@<SCITEGIC>MOL_PROPERTY
W
SciTegic.value.DoubleValue
-59.975

@<SCITEGIC>MOL_PROPERTY
W(PB)
SciTegic.value.DoubleValue
-62.370

@<SCITEGIC>MOL_PROPERTY
W(SA)
SciTegic.value.DoubleValue
2.396

@<SCITEGIC>MOL_PROPERTY
Valence
SciTegic.value.DoubleValue
11.110

@<SCITEGIC>MOL_PROPERTY
Coulomb
SciTegic.value.DoubleValue
-0.410

@<SCITEGIC>MOL_PROPERTY
VdW
SciTegic.value.DoubleValue
0.657

@<SCITEGIC>MOL_PROPERTY
VdW6
SciTegic.value.DoubleValue
-10.516

@<SCITEGIC>MOL_PROPERTY
VdW12
SciTegic.value.DoubleValue
11.173

@<SCITEGIC>MOL_PROPERTY
Bond
SciTegic.value.DoubleValue
0.235

@<SCITEGIC>MOL_PROPERTY
Angle
SciTegic.value.DoubleValue
3.588

@<SCITEGIC>MOL_PROPERTY
Pdih
SciTegic.value.DoubleValue
7.287

@<SCITEGIC>MOL_PROPERTY
Idih
SciTegic.value.DoubleValue
0.000

@<SCITEGIC>MOL_PROPERTY
Tether
SciTegic.value.DoubleValue
0.000

@<TRIPOS>MOLECULE
guest-8_vm2.mol2 : vm2 ligand conformer 140
          25          24           1
SMALL
USER_CHARGES
 
@<TRIPOS>ATOM
       1    C1      19.707112   19.792882   26.711844 C.2        1 MOL1         0.6168
       2    O1      19.927115   19.419808   27.847357 O.co2      1 MOL1        -0.6703
       3    O2      18.689896   20.366950   26.376733 O.co2      1 MOL1        -0.6703
       4    C2      20.756997   19.506300   25.644643 C.3        1 MOL1        -0.1963
       5    H1      21.744433   19.538007   26.120090 H          1 MOL1         0.0750
       6    H2      20.722942   20.323510   24.916054 H          1 MOL1         0.0750
       7    C3      20.544109   18.137453   24.947186 C.3        1 MOL1        -0.1860
       8    H3      20.547490   17.351011   25.714389 H          1 MOL1         0.0752
       9    H4      19.549538   18.100258   24.485008 H          1 MOL1         0.0752
      10    C4      21.631830   17.805163   23.897580 C.3        1 MOL1        -0.1858
      11    H5      21.457057   16.788560   23.519834 H          1 MOL1         0.0752
      12    H6      22.607371   17.773525   24.401627 H          1 MOL1         0.0752
      13    C5      21.730187   18.775393   22.690695 C.3        1 MOL1        -0.1858
      14    H7      21.989547   19.788309   23.024947 H          1 MOL1         0.0752
      15    H8      22.580747   18.444795   22.079133 H          1 MOL1         0.0752
      16    C6      20.477044   18.807655   21.778219 C.3        1 MOL1        -0.1858
      17    H9      19.960248   17.838930   21.812009 H          1 MOL1         0.0752
      18    H10     20.810864   18.939053   20.739850 H          1 MOL1         0.0752
      19    C7      19.492698   19.952554   22.112063 C.3        1 MOL1        -0.1834
      20    H11     19.117555   19.853990   23.137647 H          1 MOL1         0.0752
      21    H12     20.016660   20.916698   22.059158 H          1 MOL1         0.0752
      22    C8      18.296011   19.969842   21.139681 C.3        1 MOL1        -0.2849
      23    H13     18.632234   20.111024   20.104178 H          1 MOL1         0.0764
      24    H14     17.734193   19.028137   21.192911 H          1 MOL1         0.0764
      25    H15     17.608533   20.788927   21.387636 H          1 MOL1         0.0764
@<TRIPOS>BOND
    1     1     2    1
    2     1     3    2
    3     1     4    1
    4     4     5    1
    5     4     6    1
    6     4     7    1
    7     7     8    1
    8     7     9    1
    9     7    10    1
   10    10    11    1
   11    10    12    1
   12    10    13    1
   13    13    14    1
   14    13    15    1
   15    13    16    1
   16    16    17    1
   17    16    18    1
   18    16    19    1
   19    19    20    1
   20    19    21    1
   21    19    22    1
   22    22    23    1
   23    22    24    1
   24    22    25    1
@<TRIPOS>SUBSTRUCTURE
       1 MOL1            1 RESIDUE      1      MOL     
@<SCITEGIC>MOL_PROPERTY
VM2 Rank
SciTegic.value.IntegerValue
140

@<SCITEGIC>MOL_PROPERTY
Conf_Id
SciTegic.value.IntegerValue
571

@<SCITEGIC>MOL_PROPERTY
Probability
SciTegic.value.DoubleValue
0.00

@<SCITEGIC>MOL_PROPERTY
Sum Probability
SciTegic.value.DoubleValue
99.93

@<SCITEGIC>MOL_PROPERTY
Delta G
SciTegic.value.DoubleValue
5.135

@<SCITEGIC>MOL_PROPERTY
G
SciTegic.value.DoubleValue
-2.827

@<SCITEGIC>MOL_PROPERTY
E
SciTegic.value.DoubleValue
-28.108

@<SCITEGIC>MOL_PROPERTY
-TS
SciTegic.value.DoubleValue
25.281

@<SCITEGIC>MOL_PROPERTY
U+W
SciTegic.value.DoubleValue
-48.675

@<SCITEGIC>MOL_PROPERTY
U
SciTegic.value.DoubleValue
11.616

@<SCITEGIC>MOL_PROPERTY
W
SciTegic.value.DoubleValue
-60.291

@<SCITEGIC>MOL_PROPERTY
W(PB)
SciTegic.value.DoubleValue
-62.674

@<SCITEGIC>MOL_PROPERTY
W(SA)
SciTegic.value.DoubleValue
2.383

@<SCITEGIC>MOL_PROPERTY
Valence
SciTegic.value.DoubleValue
11.123

@<SCITEGIC>MOL_PROPERTY
Coulomb
SciTegic.value.DoubleValue
-0.039

@<SCITEGIC>MOL_PROPERTY
VdW
SciTegic.value.DoubleValue
0.532

@<SCITEGIC>MOL_PROPERTY
VdW6
SciTegic.value.DoubleValue
-10.780

@<SCITEGIC>MOL_PROPERTY
VdW12
SciTegic.value.DoubleValue
11.312

@<SCITEGIC>MOL_PROPERTY
Bond
SciTegic.value.DoubleValue
0.247

@<SCITEGIC>MOL_PROPERTY
Angle
SciTegic.value.DoubleValue
3.570

@<SCITEGIC>MOL_PROPERTY
Pdih
SciTegic.value.DoubleValue
7.305

@<SCITEGIC>MOL_PROPERTY
Idih
SciTegic.value.DoubleValue
0.001

@<SCITEGIC>MOL_PROPERTY
Tether
SciTegic.value.DoubleValue
0.000

@<TRIPOS>MOLECULE
guest-8_vm2.mol2 : vm2 ligand conformer 141
          25          24           1
SMALL
USER_CHARGES
 
@<TRIPOS>ATOM
       1    C1      20.397884   19.854521   26.463385 C.2        1 MOL1         0.6168
       2    O1      21.249131   20.533317   25.923572 O.co2      1 MOL1        -0.6703
       3    O2      19.540486   20.307850   27.196322 O.co2      1 MOL1        -0.6703
       4    C2      20.428369   18.344684   26.241039 C.3        1 MOL1        -0.1963
       5    H1      20.438349   17.870637   27.229305 H          1 MOL1         0.0750
       6    H2      21.377071   18.080031   25.760400 H          1 MOL1         0.0750
       7    C3      19.227954   17.797685   25.420767 C.3        1 MOL1        -0.1860
       8    H3      19.301855   16.703565   25.359939 H          1 MOL1         0.0752
       9    H4      18.299434   18.013493   25.967168 H          1 MOL1         0.0752
      10    C4      19.112342   18.381835   23.991538 C.3        1 MOL1        -0.1858
      11    H5      18.979951   19.470146   24.054206 H          1 MOL1         0.0752
      12    H6      18.202013   17.983862   23.523240 H          1 MOL1         0.0752
      13    C5      20.329057   18.051514   23.093506 C.3        1 MOL1        -0.1858
      14    H7      21.227561   18.547638   23.482088 H          1 MOL1         0.0752
      15    H8      20.528172   16.972517   23.141897 H          1 MOL1         0.0752
      16    C6      20.122504   18.445588   21.609204 C.3        1 MOL1        -0.1858
      17    H9      19.286626   17.862793   21.199025 H          1 MOL1         0.0752
      18    H10     21.011139   18.144408   21.038080 H          1 MOL1         0.0752
      19    C7      19.852197   19.949854   21.357710 C.3        1 MOL1        -0.1834
      20    H11     19.712713   20.104996   20.279098 H          1 MOL1         0.0752
      21    H12     18.908117   20.248781   21.832134 H          1 MOL1         0.0752
      22    C8      20.993078   20.867151   21.848956 C.3        1 MOL1        -0.2849
      23    H13     21.953799   20.570233   21.408958 H          1 MOL1         0.0764
      24    H14     20.797736   21.909357   21.565772 H          1 MOL1         0.0764
      25    H15     21.089306   20.832791   22.942364 H          1 MOL1         0.0764
@<TRIPOS>BOND
    1     1     2    1
    2     1     3    2
    3     1     4    1
    4     4     5    1
    5     4     6    1
    6     4     7    1
    7     7     8    1
    8     7     9    1
    9     7    10    1
   10    10    11    1
   11    10    12    1
   12    10    13    1
   13    13    14    1
   14    13    15    1
   15    13    16    1
   16    16    17    1
   17    16    18    1
   18    16    19    1
   19    19    20    1
   20    19    21    1
   21    19    22    1
   22    22    23    1
   23    22    24    1
   24    22    25    1
@<TRIPOS>SUBSTRUCTURE
       1 MOL1            1 RESIDUE      1      MOL     
@<SCITEGIC>MOL_PROPERTY
VM2 Rank
SciTegic.value.IntegerValue
141

@<SCITEGIC>MOL_PROPERTY
Conf_Id
SciTegic.value.IntegerValue
827

@<SCITEGIC>MOL_PROPERTY
Probability
SciTegic.value.DoubleValue
0.00

@<SCITEGIC>MOL_PROPERTY
Sum Probability
SciTegic.value.DoubleValue
99.94

@<SCITEGIC>MOL_PROPERTY
Delta G
SciTegic.value.DoubleValue
5.137

@<SCITEGIC>MOL_PROPERTY
G
SciTegic.value.DoubleValue
-2.825

@<SCITEGIC>MOL_PROPERTY
E
SciTegic.value.DoubleValue
-28.329

@<SCITEGIC>MOL_PROPERTY
-TS
SciTegic.value.DoubleValue
25.504

@<SCITEGIC>MOL_PROPERTY
U+W
SciTegic.value.DoubleValue
-48.897

@<SCITEGIC>MOL_PROPERTY
U
SciTegic.value.DoubleValue
12.037

@<SCITEGIC>MOL_PROPERTY
W
SciTegic.value.DoubleValue
-60.933

@<SCITEGIC>MOL_PROPERTY
W(PB)
SciTegic.value.DoubleValue
-63.292

@<SCITEGIC>MOL_PROPERTY
W(SA)
SciTegic.value.DoubleValue
2.358

@<SCITEGIC>MOL_PROPERTY
Valence
SciTegic.value.DoubleValue
9.200

@<SCITEGIC>MOL_PROPERTY
Coulomb
SciTegic.value.DoubleValue
2.437

@<SCITEGIC>MOL_PROPERTY
VdW
SciTegic.value.DoubleValue
0.400

@<SCITEGIC>MOL_PROPERTY
VdW6
SciTegic.value.DoubleValue
-11.697

@<SCITEGIC>MOL_PROPERTY
VdW12
SciTegic.value.DoubleValue
12.097

@<SCITEGIC>MOL_PROPERTY
Bond
SciTegic.value.DoubleValue
0.260

@<SCITEGIC>MOL_PROPERTY
Angle
SciTegic.value.DoubleValue
3.326

@<SCITEGIC>MOL_PROPERTY
Pdih
SciTegic.value.DoubleValue
5.612

@<SCITEGIC>MOL_PROPERTY
Idih
SciTegic.value.DoubleValue
0.002

@<SCITEGIC>MOL_PROPERTY
Tether
SciTegic.value.DoubleValue
0.000

@<TRIPOS>MOLECULE
guest-8_vm2.mol2 : vm2 ligand conformer 142
          25          24           1
SMALL
USER_CHARGES
 
@<TRIPOS>ATOM
       1    C1      19.819528   19.318216   27.105427 C.2        1 MOL1         0.6168
       2    O1      20.607387   19.906306   27.819977 O.co2      1 MOL1        -0.6703
       3    O2      18.644809   19.615353   27.012021 O.co2      1 MOL1        -0.6703
       4    C2      20.331364   18.129001   26.297456 C.3        1 MOL1        -0.1963
       5    H1      19.473288   17.518232   25.991650 H          1 MOL1         0.0750
       6    H2      20.936871   17.511252   26.971013 H          1 MOL1         0.0750
       7    C3      21.175538   18.524951   25.058250 C.3        1 MOL1        -0.1860
       8    H3      22.015204   19.158247   25.376804 H          1 MOL1         0.0752
       9    H4      21.612284   17.617356   24.620060 H          1 MOL1         0.0752
      10    C4      20.343971   19.259325   23.982596 C.3        1 MOL1        -0.1858
      11    H5      19.920086   20.178688   24.409398 H          1 MOL1         0.0752
      12    H6      19.494915   18.630733   23.689241 H          1 MOL1         0.0752
      13    C5      21.200718   19.619014   22.745841 C.3        1 MOL1        -0.1858
      14    H7      22.019090   20.273334   23.076048 H          1 MOL1         0.0752
      15    H8      21.675932   18.718250   22.334085 H          1 MOL1         0.0752
      16    C6      20.402446   20.352029   21.637751 C.3        1 MOL1        -0.1858
      17    H9      21.065040   21.096313   21.175306 H          1 MOL1         0.0752
      18    H10     19.574420   20.923283   22.079265 H          1 MOL1         0.0752
      19    C7      19.872728   19.434514   20.507942 C.3        1 MOL1        -0.1834
      20    H11     19.397712   20.063285   19.742325 H          1 MOL1         0.0752
      21    H12     20.716960   18.934121   20.013871 H          1 MOL1         0.0752
      22    C8      18.854510   18.375291   20.978739 C.3        1 MOL1        -0.2849
      23    H13     18.030731   18.840521   21.535477 H          1 MOL1         0.0764
      24    H14     18.425683   17.845816   20.118214 H          1 MOL1         0.0764
      25    H15     19.332186   17.626425   21.622659 H          1 MOL1         0.0764
@<TRIPOS>BOND
    1     1     2    1
    2     1     3    2
    3     1     4    1
    4     4     5    1
    5     4     6    1
    6     4     7    1
    7     7     8    1
    8     7     9    1
    9     7    10    1
   10    10    11    1
   11    10    12    1
   12    10    13    1
   13    13    14    1
   14    13    15    1
   15    13    16    1
   16    16    17    1
   17    16    18    1
   18    16    19    1
   19    19    20    1
   20    19    21    1
   21    19    22    1
   22    22    23    1
   23    22    24    1
   24    22    25    1
@<TRIPOS>SUBSTRUCTURE
       1 MOL1            1 RESIDUE      1      MOL     
@<SCITEGIC>MOL_PROPERTY
VM2 Rank
SciTegic.value.IntegerValue
142

@<SCITEGIC>MOL_PROPERTY
Conf_Id
SciTegic.value.IntegerValue
1233

@<SCITEGIC>MOL_PROPERTY
Probability
SciTegic.value.DoubleValue
0.00

@<SCITEGIC>MOL_PROPERTY
Sum Probability
SciTegic.value.DoubleValue
99.94

@<SCITEGIC>MOL_PROPERTY
Delta G
SciTegic.value.DoubleValue
5.300

@<SCITEGIC>MOL_PROPERTY
G
SciTegic.value.DoubleValue
-2.662

@<SCITEGIC>MOL_PROPERTY
E
SciTegic.value.DoubleValue
-27.708

@<SCITEGIC>MOL_PROPERTY
-TS
SciTegic.value.DoubleValue
25.046

@<SCITEGIC>MOL_PROPERTY
U+W
SciTegic.value.DoubleValue
-48.276

@<SCITEGIC>MOL_PROPERTY
U
SciTegic.value.DoubleValue
11.935

@<SCITEGIC>MOL_PROPERTY
W
SciTegic.value.DoubleValue
-60.211

@<SCITEGIC>MOL_PROPERTY
W(PB)
SciTegic.value.DoubleValue
-62.649

@<SCITEGIC>MOL_PROPERTY
W(SA)
SciTegic.value.DoubleValue
2.438

@<SCITEGIC>MOL_PROPERTY
Valence
SciTegic.value.DoubleValue
10.764

@<SCITEGIC>MOL_PROPERTY
Coulomb
SciTegic.value.DoubleValue
0.351

@<SCITEGIC>MOL_PROPERTY
VdW
SciTegic.value.DoubleValue
0.820

@<SCITEGIC>MOL_PROPERTY
VdW6
SciTegic.value.DoubleValue
-10.096

@<SCITEGIC>MOL_PROPERTY
VdW12
SciTegic.value.DoubleValue
10.916

@<SCITEGIC>MOL_PROPERTY
Bond
SciTegic.value.DoubleValue
0.214

@<SCITEGIC>MOL_PROPERTY
Angle
SciTegic.value.DoubleValue
3.143

@<SCITEGIC>MOL_PROPERTY
Pdih
SciTegic.value.DoubleValue
7.406

@<SCITEGIC>MOL_PROPERTY
Idih
SciTegic.value.DoubleValue
0.001

@<SCITEGIC>MOL_PROPERTY
Tether
SciTegic.value.DoubleValue
0.000

@<TRIPOS>MOLECULE
guest-8_vm2.mol2 : vm2 ligand conformer 143
          25          24           1
SMALL
USER_CHARGES
 
@<TRIPOS>ATOM
       1    C1      19.998332   19.517904   27.195014 C.2        1 MOL1         0.6168
       2    O1      21.030601   19.536084   27.836286 O.co2      1 MOL1        -0.6703
       3    O2      19.023650   18.862800   27.507867 O.co2      1 MOL1        -0.6703
       4    C2      19.917935   20.379092   25.937703 C.3        1 MOL1        -0.1963
       5    H1      20.324017   21.365767   26.189678 H          1 MOL1         0.0750
       6    H2      18.861875   20.526532   25.681204 H          1 MOL1         0.0750
       7    C3      20.687017   19.797152   24.723252 C.3        1 MOL1        -0.1860
       8    H3      20.696691   20.545050   23.921881 H          1 MOL1         0.0752
       9    H4      21.735842   19.630413   25.005276 H          1 MOL1         0.0752
      10    C4      20.070278   18.473374   24.208990 C.3        1 MOL1        -0.1858
      11    H5      19.000122   18.605641   23.998948 H          1 MOL1         0.0752
      12    H6      20.132152   17.727793   25.013645 H          1 MOL1         0.0752
      13    C5      20.792035   17.906372   22.960230 C.3        1 MOL1        -0.1858
      14    H7      21.843958   18.222975   22.951245 H          1 MOL1         0.0752
      15    H8      20.811306   16.811235   23.044777 H          1 MOL1         0.0752
      16    C6      20.119068   18.257276   21.609295 C.3        1 MOL1        -0.1858
      17    H9      19.097770   17.852829   21.594781 H          1 MOL1         0.0752
      18    H10     20.665642   17.741438   20.808044 H          1 MOL1         0.0752
      19    C7      20.076238   19.768320   21.293742 C.3        1 MOL1        -0.1834
      20    H11     19.433017   20.282423   22.019896 H          1 MOL1         0.0752
      21    H12     21.083355   20.196748   21.389614 H          1 MOL1         0.0752
      22    C8      19.537847   20.035626   19.873622 C.3        1 MOL1        -0.2849
      23    H13     18.520740   19.638684   19.758432 H          1 MOL1         0.0764
      24    H14     19.506267   21.113606   19.668746 H          1 MOL1         0.0764
      25    H15     20.177610   19.565461   19.115369 H          1 MOL1         0.0764
@<TRIPOS>BOND
    1     1     2    1
    2     1     3    2
    3     1     4    1
    4     4     5    1
    5     4     6    1
    6     4     7    1
    7     7     8    1
    8     7     9    1
    9     7    10    1
   10    10    11    1
   11    10    12    1
   12    10    13    1
   13    13    14    1
   14    13    15    1
   15    13    16    1
   16    16    17    1
   17    16    18    1
   18    16    19    1
   19    19    20    1
   20    19    21    1
   21    19    22    1
   22    22    23    1
   23    22    24    1
   24    22    25    1
@<TRIPOS>SUBSTRUCTURE
       1 MOL1            1 RESIDUE      1      MOL     
@<SCITEGIC>MOL_PROPERTY
VM2 Rank
SciTegic.value.IntegerValue
143

@<SCITEGIC>MOL_PROPERTY
Conf_Id
SciTegic.value.IntegerValue
1185

@<SCITEGIC>MOL_PROPERTY
Probability
SciTegic.value.DoubleValue
0.00

@<SCITEGIC>MOL_PROPERTY
Sum Probability
SciTegic.value.DoubleValue
99.94

@<SCITEGIC>MOL_PROPERTY
Delta G
SciTegic.value.DoubleValue
5.309

@<SCITEGIC>MOL_PROPERTY
G
SciTegic.value.DoubleValue
-2.653

@<SCITEGIC>MOL_PROPERTY
E
SciTegic.value.DoubleValue
-27.733

@<SCITEGIC>MOL_PROPERTY
-TS
SciTegic.value.DoubleValue
25.081

@<SCITEGIC>MOL_PROPERTY
U+W
SciTegic.value.DoubleValue
-48.301

@<SCITEGIC>MOL_PROPERTY
U
SciTegic.value.DoubleValue
11.345

@<SCITEGIC>MOL_PROPERTY
W
SciTegic.value.DoubleValue
-59.646

@<SCITEGIC>MOL_PROPERTY
W(PB)
SciTegic.value.DoubleValue
-62.071

@<SCITEGIC>MOL_PROPERTY
W(SA)
SciTegic.value.DoubleValue
2.425

@<SCITEGIC>MOL_PROPERTY
Valence
SciTegic.value.DoubleValue
10.839

@<SCITEGIC>MOL_PROPERTY
Coulomb
SciTegic.value.DoubleValue
-0.332

@<SCITEGIC>MOL_PROPERTY
VdW
SciTegic.value.DoubleValue
0.838

@<SCITEGIC>MOL_PROPERTY
VdW6
SciTegic.value.DoubleValue
-10.154

@<SCITEGIC>MOL_PROPERTY
VdW12
SciTegic.value.DoubleValue
10.992

@<SCITEGIC>MOL_PROPERTY
Bond
SciTegic.value.DoubleValue
0.219

@<SCITEGIC>MOL_PROPERTY
Angle
SciTegic.value.DoubleValue
3.144

@<SCITEGIC>MOL_PROPERTY
Pdih
SciTegic.value.DoubleValue
7.476

@<SCITEGIC>MOL_PROPERTY
Idih
SciTegic.value.DoubleValue
0.000

@<SCITEGIC>MOL_PROPERTY
Tether
SciTegic.value.DoubleValue
0.000

@<TRIPOS>MOLECULE
guest-8_vm2.mol2 : vm2 ligand conformer 144
          25          24           1
SMALL
USER_CHARGES
 
@<TRIPOS>ATOM
       1    C1      20.119546   19.086662   27.205078 C.2        1 MOL1         0.6168
       2    O1      21.002410   19.636347   27.833995 O.co2      1 MOL1        -0.6703
       3    O2      18.942617   19.150982   27.501296 O.co2      1 MOL1        -0.6703
       4    C2      20.514658   18.256020   25.987353 C.3        1 MOL1        -0.1963
       5    H1      19.693055   17.569290   25.750367 H          1 MOL1         0.0750
       6    H2      21.372015   17.637127   26.276891 H          1 MOL1         0.0750
       7    C3      20.882963   19.100033   24.739546 C.3        1 MOL1        -0.1860
       8    H3      21.688029   19.800555   25.001289 H          1 MOL1         0.0752
       9    H4      21.290428   18.432660   23.971286 H          1 MOL1         0.0752
      10    C4      19.673452   19.885298   24.175936 C.3        1 MOL1        -0.1858
      11    H5      19.328246   20.588114   24.946697 H          1 MOL1         0.0752
      12    H6      18.831341   19.206183   23.984891 H          1 MOL1         0.0752
      13    C5      20.009558   20.690416   22.895059 C.3        1 MOL1        -0.1858
      14    H7      19.454757   21.637880   22.931809 H          1 MOL1         0.0752
      15    H8      21.072504   20.967797   22.886981 H          1 MOL1         0.0752
      16    C6      19.634232   19.982238   21.568914 C.3        1 MOL1        -0.1858
      17    H9      19.841925   20.671941   20.739452 H          1 MOL1         0.0752
      18    H10     18.551985   19.794623   21.549363 H          1 MOL1         0.0752
      19    C7      20.388362   18.657916   21.319669 C.3        1 MOL1        -0.1834
      20    H11     21.470003   18.821231   21.421691 H          1 MOL1         0.0752
      21    H12     20.098191   17.916110   22.075222 H          1 MOL1         0.0752
      22    C8      20.085201   18.088087   19.919152 C.3        1 MOL1        -0.2849
      23    H13     20.395663   18.789244   19.133474 H          1 MOL1         0.0764
      24    H14     20.622091   17.143669   19.761558 H          1 MOL1         0.0764
      25    H15     19.011666   17.891865   19.799332 H          1 MOL1         0.0764
@<TRIPOS>BOND
    1     1     2    1
    2     1     3    2
    3     1     4    1
    4     4     5    1
    5     4     6    1
    6     4     7    1
    7     7     8    1
    8     7     9    1
    9     7    10    1
   10    10    11    1
   11    10    12    1
   12    10    13    1
   13    13    14    1
   14    13    15    1
   15    13    16    1
   16    16    17    1
   17    16    18    1
   18    16    19    1
   19    19    20    1
   20    19    21    1
   21    19    22    1
   22    22    23    1
   23    22    24    1
   24    22    25    1
@<TRIPOS>SUBSTRUCTURE
       1 MOL1            1 RESIDUE      1      MOL     
@<SCITEGIC>MOL_PROPERTY
VM2 Rank
SciTegic.value.IntegerValue
144

@<SCITEGIC>MOL_PROPERTY
Conf_Id
SciTegic.value.IntegerValue
876

@<SCITEGIC>MOL_PROPERTY
Probability
SciTegic.value.DoubleValue
0.00

@<SCITEGIC>MOL_PROPERTY
Sum Probability
SciTegic.value.DoubleValue
99.95

@<SCITEGIC>MOL_PROPERTY
Delta G
SciTegic.value.DoubleValue
5.317

@<SCITEGIC>MOL_PROPERTY
G
SciTegic.value.DoubleValue
-2.645

@<SCITEGIC>MOL_PROPERTY
E
SciTegic.value.DoubleValue
-27.725

@<SCITEGIC>MOL_PROPERTY
-TS
SciTegic.value.DoubleValue
25.080

@<SCITEGIC>MOL_PROPERTY
U+W
SciTegic.value.DoubleValue
-48.293

@<SCITEGIC>MOL_PROPERTY
U
SciTegic.value.DoubleValue
11.345

@<SCITEGIC>MOL_PROPERTY
W
SciTegic.value.DoubleValue
-59.638

@<SCITEGIC>MOL_PROPERTY
W(PB)
SciTegic.value.DoubleValue
-62.075

@<SCITEGIC>MOL_PROPERTY
W(SA)
SciTegic.value.DoubleValue
2.437

@<SCITEGIC>MOL_PROPERTY
Valence
SciTegic.value.DoubleValue
10.840

@<SCITEGIC>MOL_PROPERTY
Coulomb
SciTegic.value.DoubleValue
-0.333

@<SCITEGIC>MOL_PROPERTY
VdW
SciTegic.value.DoubleValue
0.838

@<SCITEGIC>MOL_PROPERTY
VdW6
SciTegic.value.DoubleValue
-10.154

@<SCITEGIC>MOL_PROPERTY
VdW12
SciTegic.value.DoubleValue
10.991

@<SCITEGIC>MOL_PROPERTY
Bond
SciTegic.value.DoubleValue
0.219

@<SCITEGIC>MOL_PROPERTY
Angle
SciTegic.value.DoubleValue
3.144

@<SCITEGIC>MOL_PROPERTY
Pdih
SciTegic.value.DoubleValue
7.476

@<SCITEGIC>MOL_PROPERTY
Idih
SciTegic.value.DoubleValue
0.000

@<SCITEGIC>MOL_PROPERTY
Tether
SciTegic.value.DoubleValue
0.000

@<TRIPOS>MOLECULE
guest-8_vm2.mol2 : vm2 ligand conformer 145
          25          24           1
SMALL
USER_CHARGES
 
@<TRIPOS>ATOM
       1    C1      20.558460   19.251244   26.963146 C.2        1 MOL1         0.6168
       2    O1      21.767670   19.139998   26.912965 O.co2      1 MOL1        -0.6703
       3    O2      19.841590   18.515450   27.612625 O.co2      1 MOL1        -0.6703
       4    C2      19.908498   20.391257   26.184119 C.3        1 MOL1        -0.1963
       5    H1      20.507328   21.292626   26.359873 H          1 MOL1         0.0750
       6    H2      18.915122   20.582684   26.607537 H          1 MOL1         0.0750
       7    C3      19.800940   20.130087   24.659289 C.3        1 MOL1        -0.1860
       8    H3      19.442881   21.042745   24.164380 H          1 MOL1         0.0752
       9    H4      20.804044   19.920850   24.264754 H          1 MOL1         0.0752
      10    C4      18.848954   18.958631   24.324549 C.3        1 MOL1        -0.1858
      11    H5      17.890678   19.120197   24.836817 H          1 MOL1         0.0752
      12    H6      19.259633   18.024009   24.730872 H          1 MOL1         0.0752
      13    C5      18.568312   18.779165   22.811453 C.3        1 MOL1        -0.1858
      14    H7      17.843644   17.960381   22.705265 H          1 MOL1         0.0752
      15    H8      18.069325   19.672389   22.411494 H          1 MOL1         0.0752
      16    C6      19.815562   18.432233   21.959189 C.3        1 MOL1        -0.1858
      17    H9      19.515397   17.723629   21.175162 H          1 MOL1         0.0752
      18    H10     20.559677   17.909089   22.575346 H          1 MOL1         0.0752
      19    C7      20.452846   19.664054   21.275535 C.3        1 MOL1        -0.1834
      20    H11     19.712972   20.144776   20.620825 H          1 MOL1         0.0752
      21    H12     20.743796   20.412276   22.022580 H          1 MOL1         0.0752
      22    C8      21.690167   19.271881   20.443129 C.3        1 MOL1        -0.2849
      23    H13     21.423972   18.552100   19.658047 H          1 MOL1         0.0764
      24    H14     22.126765   20.155227   19.959305 H          1 MOL1         0.0764
      25    H15     22.461761   18.817203   21.078170 H          1 MOL1         0.0764
@<TRIPOS>BOND
    1     1     2    1
    2     1     3    2
    3     1     4    1
    4     4     5    1
    5     4     6    1
    6     4     7    1
    7     7     8    1
    8     7     9    1
    9     7    10    1
   10    10    11    1
   11    10    12    1
   12    10    13    1
   13    13    14    1
   14    13    15    1
   15    13    16    1
   16    16    17    1
   17    16    18    1
   18    16    19    1
   19    19    20    1
   20    19    21    1
   21    19    22    1
   22    22    23    1
   23    22    24    1
   24    22    25    1
@<TRIPOS>SUBSTRUCTURE
       1 MOL1            1 RESIDUE      1      MOL     
@<SCITEGIC>MOL_PROPERTY
VM2 Rank
SciTegic.value.IntegerValue
145

@<SCITEGIC>MOL_PROPERTY
Conf_Id
SciTegic.value.IntegerValue
469

@<SCITEGIC>MOL_PROPERTY
Probability
SciTegic.value.DoubleValue
0.00

@<SCITEGIC>MOL_PROPERTY
Sum Probability
SciTegic.value.DoubleValue
99.95

@<SCITEGIC>MOL_PROPERTY
Delta G
SciTegic.value.DoubleValue
5.327

@<SCITEGIC>MOL_PROPERTY
G
SciTegic.value.DoubleValue
-2.636

@<SCITEGIC>MOL_PROPERTY
E
SciTegic.value.DoubleValue
-27.714

@<SCITEGIC>MOL_PROPERTY
-TS
SciTegic.value.DoubleValue
25.078

@<SCITEGIC>MOL_PROPERTY
U+W
SciTegic.value.DoubleValue
-48.281

@<SCITEGIC>MOL_PROPERTY
U
SciTegic.value.DoubleValue
12.004

@<SCITEGIC>MOL_PROPERTY
W
SciTegic.value.DoubleValue
-60.285

@<SCITEGIC>MOL_PROPERTY
W(PB)
SciTegic.value.DoubleValue
-62.708

@<SCITEGIC>MOL_PROPERTY
W(SA)
SciTegic.value.DoubleValue
2.423

@<SCITEGIC>MOL_PROPERTY
Valence
SciTegic.value.DoubleValue
10.797

@<SCITEGIC>MOL_PROPERTY
Coulomb
SciTegic.value.DoubleValue
0.449

@<SCITEGIC>MOL_PROPERTY
VdW
SciTegic.value.DoubleValue
0.758

@<SCITEGIC>MOL_PROPERTY
VdW6
SciTegic.value.DoubleValue
-10.233

@<SCITEGIC>MOL_PROPERTY
VdW12
SciTegic.value.DoubleValue
10.990

@<SCITEGIC>MOL_PROPERTY
Bond
SciTegic.value.DoubleValue
0.215

@<SCITEGIC>MOL_PROPERTY
Angle
SciTegic.value.DoubleValue
3.136

@<SCITEGIC>MOL_PROPERTY
Pdih
SciTegic.value.DoubleValue
7.446

@<SCITEGIC>MOL_PROPERTY
Idih
SciTegic.value.DoubleValue
0.001

@<SCITEGIC>MOL_PROPERTY
Tether
SciTegic.value.DoubleValue
0.000

@<TRIPOS>MOLECULE
guest-8_vm2.mol2 : vm2 ligand conformer 146
          25          24           1
SMALL
USER_CHARGES
 
@<TRIPOS>ATOM
       1    C1      19.857094   19.137480   27.107733 C.2        1 MOL1         0.6168
       2    O1      20.810682   18.929101   27.831890 O.co2      1 MOL1        -0.6703
       3    O2      18.898806   18.394428   27.026893 O.co2      1 MOL1        -0.6703
       4    C2      19.856362   20.412784   26.269508 C.3        1 MOL1        -0.1963
       5    H1      20.162053   21.236375   26.925387 H          1 MOL1         0.0750
       6    H2      18.827447   20.623446   25.953584 H          1 MOL1         0.0750
       7    C3      20.794498   20.357174   25.035875 C.3        1 MOL1        -0.1860
       8    H3      20.835490   21.353100   24.574423 H          1 MOL1         0.0752
       9    H4      21.815413   20.118643   25.365135 H          1 MOL1         0.0752
      10    C4      20.329799   19.327249   23.981768 C.3        1 MOL1        -0.1858
      11    H5      19.302027   19.558337   23.677862 H          1 MOL1         0.0752
      12    H6      20.305322   18.325397   24.432057 H          1 MOL1         0.0752
      13    C5      21.264972   19.309913   22.749653 C.3        1 MOL1        -0.1858
      14    H7      21.343967   20.315546   22.314672 H          1 MOL1         0.0752
      15    H8      22.274649   19.043728   23.091123 H          1 MOL1         0.0752
      16    C6      20.830268   18.293883   21.662856 C.3        1 MOL1        -0.1858
      17    H9      20.296262   17.450499   22.121588 H          1 MOL1         0.0752
      18    H10     21.736789   17.864644   21.214728 H          1 MOL1         0.0752
      19    C7      19.984361   18.897720   20.514495 C.3        1 MOL1        -0.1834
      20    H11     20.561730   19.681339   20.004781 H          1 MOL1         0.0752
      21    H12     19.802918   18.114057   19.766089 H          1 MOL1         0.0752
      22    C8      18.626157   19.474269   20.965327 C.3        1 MOL1        -0.2849
      23    H13     18.762786   20.366285   21.589225 H          1 MOL1         0.0764
      24    H14     18.026077   19.768765   20.094743 H          1 MOL1         0.0764
      25    H15     18.053236   18.732514   21.536791 H          1 MOL1         0.0764
@<TRIPOS>BOND
    1     1     2    1
    2     1     3    2
    3     1     4    1
    4     4     5    1
    5     4     6    1
    6     4     7    1
    7     7     8    1
    8     7     9    1
    9     7    10    1
   10    10    11    1
   11    10    12    1
   12    10    13    1
   13    13    14    1
   14    13    15    1
   15    13    16    1
   16    16    17    1
   17    16    18    1
   18    16    19    1
   19    19    20    1
   20    19    21    1
   21    19    22    1
   22    22    23    1
   23    22    24    1
   24    22    25    1
@<TRIPOS>SUBSTRUCTURE
       1 MOL1            1 RESIDUE      1      MOL     
@<SCITEGIC>MOL_PROPERTY
VM2 Rank
SciTegic.value.IntegerValue
146

@<SCITEGIC>MOL_PROPERTY
Conf_Id
SciTegic.value.IntegerValue
144

@<SCITEGIC>MOL_PROPERTY
Probability
SciTegic.value.DoubleValue
0.00

@<SCITEGIC>MOL_PROPERTY
Sum Probability
SciTegic.value.DoubleValue
99.95

@<SCITEGIC>MOL_PROPERTY
Delta G
SciTegic.value.DoubleValue
5.338

@<SCITEGIC>MOL_PROPERTY
G
SciTegic.value.DoubleValue
-2.625

@<SCITEGIC>MOL_PROPERTY
E
SciTegic.value.DoubleValue
-27.671

@<SCITEGIC>MOL_PROPERTY
-TS
SciTegic.value.DoubleValue
25.047

@<SCITEGIC>MOL_PROPERTY
U+W
SciTegic.value.DoubleValue
-48.239

@<SCITEGIC>MOL_PROPERTY
U
SciTegic.value.DoubleValue
11.936

@<SCITEGIC>MOL_PROPERTY
W
SciTegic.value.DoubleValue
-60.175

@<SCITEGIC>MOL_PROPERTY
W(PB)
SciTegic.value.DoubleValue
-62.618

@<SCITEGIC>MOL_PROPERTY
W(SA)
SciTegic.value.DoubleValue
2.444

@<SCITEGIC>MOL_PROPERTY
Valence
SciTegic.value.DoubleValue
10.764

@<SCITEGIC>MOL_PROPERTY
Coulomb
SciTegic.value.DoubleValue
0.352

@<SCITEGIC>MOL_PROPERTY
VdW
SciTegic.value.DoubleValue
0.820

@<SCITEGIC>MOL_PROPERTY
VdW6
SciTegic.value.DoubleValue
-10.096

@<SCITEGIC>MOL_PROPERTY
VdW12
SciTegic.value.DoubleValue
10.916

@<SCITEGIC>MOL_PROPERTY
Bond
SciTegic.value.DoubleValue
0.214

@<SCITEGIC>MOL_PROPERTY
Angle
SciTegic.value.DoubleValue
3.143

@<SCITEGIC>MOL_PROPERTY
Pdih
SciTegic.value.DoubleValue
7.406

@<SCITEGIC>MOL_PROPERTY
Idih
SciTegic.value.DoubleValue
0.001

@<SCITEGIC>MOL_PROPERTY
Tether
SciTegic.value.DoubleValue
0.000

@<TRIPOS>MOLECULE
guest-8_vm2.mol2 : vm2 ligand conformer 147
          25          24           1
SMALL
USER_CHARGES
 
@<TRIPOS>ATOM
       1    C1      20.018018   19.321835   26.963709 C.2        1 MOL1         0.6168
       2    O1      20.891709   19.665120   27.736007 O.co2      1 MOL1        -0.6703
       3    O2      18.874905   19.731183   27.017476 O.co2      1 MOL1        -0.6703
       4    C2      20.371030   18.298179   25.888319 C.3        1 MOL1        -0.1963
       5    H1      19.442225   17.889733   25.474120 H          1 MOL1         0.0750
       6    H2      20.882271   17.465739   26.385475 H          1 MOL1         0.0750
       7    C3      21.276298   18.854943   24.755797 C.3        1 MOL1        -0.1860
       8    H3      22.221165   19.199935   25.197628 H          1 MOL1         0.0752
       9    H4      21.543237   18.038710   24.072219 H          1 MOL1         0.0752
      10    C4      20.648780   20.022799   23.951789 C.3        1 MOL1        -0.1858
      11    H5      21.373554   20.369010   23.203385 H          1 MOL1         0.0752
      12    H6      20.489468   20.875612   24.625640 H          1 MOL1         0.0752
      13    C5      19.306321   19.692075   23.248646 C.3        1 MOL1        -0.1858
      14    H7      18.539529   19.496867   24.010069 H          1 MOL1         0.0752
      15    H8      18.960150   20.585074   22.712360 H          1 MOL1         0.0752
      16    C6      19.353593   18.492121   22.266307 C.3        1 MOL1        -0.1858
      17    H9      18.354651   18.356772   21.830261 H          1 MOL1         0.0752
      18    H10     19.559556   17.571762   22.828157 H          1 MOL1         0.0752
      19    C7      20.385673   18.621562   21.118999 C.3        1 MOL1        -0.1834
      20    H11     21.402291   18.679028   21.529819 H          1 MOL1         0.0752
      21    H12     20.353288   17.705272   20.513832 H          1 MOL1         0.0752
      22    C8      20.126672   19.834184   20.198951 C.3        1 MOL1        -0.2849
      23    H13     20.256281   20.779784   20.740193 H          1 MOL1         0.0764
      24    H14     20.829478   19.834015   19.355877 H          1 MOL1         0.0764
      25    H15     19.107980   19.807151   19.790955 H          1 MOL1         0.0764
@<TRIPOS>BOND
    1     1     2    1
    2     1     3    2
    3     1     4    1
    4     4     5    1
    5     4     6    1
    6     4     7    1
    7     7     8    1
    8     7     9    1
    9     7    10    1
   10    10    11    1
   11    10    12    1
   12    10    13    1
   13    13    14    1
   14    13    15    1
   15    13    16    1
   16    16    17    1
   17    16    18    1
   18    16    19    1
   19    19    20    1
   20    19    21    1
   21    19    22    1
   22    22    23    1
   23    22    24    1
   24    22    25    1
@<TRIPOS>SUBSTRUCTURE
       1 MOL1            1 RESIDUE      1      MOL     
@<SCITEGIC>MOL_PROPERTY
VM2 Rank
SciTegic.value.IntegerValue
147

@<SCITEGIC>MOL_PROPERTY
Conf_Id
SciTegic.value.IntegerValue
146

@<SCITEGIC>MOL_PROPERTY
Probability
SciTegic.value.DoubleValue
0.00

@<SCITEGIC>MOL_PROPERTY
Sum Probability
SciTegic.value.DoubleValue
99.96

@<SCITEGIC>MOL_PROPERTY
Delta G
SciTegic.value.DoubleValue
5.345

@<SCITEGIC>MOL_PROPERTY
G
SciTegic.value.DoubleValue
-2.618

@<SCITEGIC>MOL_PROPERTY
E
SciTegic.value.DoubleValue
-28.450

@<SCITEGIC>MOL_PROPERTY
-TS
SciTegic.value.DoubleValue
25.832

@<SCITEGIC>MOL_PROPERTY
U+W
SciTegic.value.DoubleValue
-49.017

@<SCITEGIC>MOL_PROPERTY
U
SciTegic.value.DoubleValue
11.078

@<SCITEGIC>MOL_PROPERTY
W
SciTegic.value.DoubleValue
-60.096

@<SCITEGIC>MOL_PROPERTY
W(PB)
SciTegic.value.DoubleValue
-62.453

@<SCITEGIC>MOL_PROPERTY
W(SA)
SciTegic.value.DoubleValue
2.357

@<SCITEGIC>MOL_PROPERTY
Valence
SciTegic.value.DoubleValue
9.623

@<SCITEGIC>MOL_PROPERTY
Coulomb
SciTegic.value.DoubleValue
0.949

@<SCITEGIC>MOL_PROPERTY
VdW
SciTegic.value.DoubleValue
0.506

@<SCITEGIC>MOL_PROPERTY
VdW6
SciTegic.value.DoubleValue
-12.338

@<SCITEGIC>MOL_PROPERTY
VdW12
SciTegic.value.DoubleValue
12.845

@<SCITEGIC>MOL_PROPERTY
Bond
SciTegic.value.DoubleValue
0.307

@<SCITEGIC>MOL_PROPERTY
Angle
SciTegic.value.DoubleValue
3.790

@<SCITEGIC>MOL_PROPERTY
Pdih
SciTegic.value.DoubleValue
5.525

@<SCITEGIC>MOL_PROPERTY
Idih
SciTegic.value.DoubleValue
0.001

@<SCITEGIC>MOL_PROPERTY
Tether
SciTegic.value.DoubleValue
0.000

@<TRIPOS>MOLECULE
guest-8_vm2.mol2 : vm2 ligand conformer 148
          25          24           1
SMALL
USER_CHARGES
 
@<TRIPOS>ATOM
       1    C1      19.935400   19.236018   27.183306 C.2        1 MOL1         0.6168
       2    O1      20.993379   19.403024   27.757669 O.co2      1 MOL1        -0.6703
       3    O2      18.913972   19.829371   27.469232 O.co2      1 MOL1        -0.6703
       4    C2      19.879309   18.210705   26.054243 C.3        1 MOL1        -0.1963
       5    H1      18.983771   17.598593   26.213190 H          1 MOL1         0.0750
       6    H2      20.742477   17.540370   26.145815 H          1 MOL1         0.0750
       7    C3      19.833844   18.834706   24.635068 C.3        1 MOL1        -0.1860
       8    H3      19.637796   18.033323   23.911501 H          1 MOL1         0.0752
       9    H4      18.992445   19.538592   24.572879 H          1 MOL1         0.0752
      10    C4      21.150369   19.553396   24.258602 C.3        1 MOL1        -0.1858
      11    H5      21.972234   18.824658   24.243989 H          1 MOL1         0.0752
      12    H6      21.400860   20.281951   25.041756 H          1 MOL1         0.0752
      13    C5      21.101523   20.301444   22.902626 C.3        1 MOL1        -0.1858
      14    H7      20.346933   21.098998   22.939692 H          1 MOL1         0.0752
      15    H8      22.066290   20.810248   22.771567 H          1 MOL1         0.0752
      16    C6      20.864204   19.393022   21.669398 C.3        1 MOL1        -0.1858
      17    H9      21.234625   18.378611   21.870884 H          1 MOL1         0.0752
      18    H10     21.464656   19.776778   20.833262 H          1 MOL1         0.0752
      19    C7      19.385880   19.347339   21.218357 C.3        1 MOL1        -0.1834
      20    H11     18.743373   19.000145   22.036482 H          1 MOL1         0.0752
      21    H12     19.048387   20.361251   20.962908 H          1 MOL1         0.0752
      22    C8      19.195120   18.424974   19.997499 C.3        1 MOL1        -0.2849
      23    H13     19.494330   17.395338   20.233411 H          1 MOL1         0.0764
      24    H14     18.142804   18.408969   19.685431 H          1 MOL1         0.0764
      25    H15     19.796024   18.770320   19.146055 H          1 MOL1         0.0764
@<TRIPOS>BOND
    1     1     2    1
    2     1     3    2
    3     1     4    1
    4     4     5    1
    5     4     6    1
    6     4     7    1
    7     7     8    1
    8     7     9    1
    9     7    10    1
   10    10    11    1
   11    10    12    1
   12    10    13    1
   13    13    14    1
   14    13    15    1
   15    13    16    1
   16    16    17    1
   17    16    18    1
   18    16    19    1
   19    19    20    1
   20    19    21    1
   21    19    22    1
   22    22    23    1
   23    22    24    1
   24    22    25    1
@<TRIPOS>SUBSTRUCTURE
       1 MOL1            1 RESIDUE      1      MOL     
@<SCITEGIC>MOL_PROPERTY
VM2 Rank
SciTegic.value.IntegerValue
148

@<SCITEGIC>MOL_PROPERTY
Conf_Id
SciTegic.value.IntegerValue
574

@<SCITEGIC>MOL_PROPERTY
Probability
SciTegic.value.DoubleValue
0.00

@<SCITEGIC>MOL_PROPERTY
Sum Probability
SciTegic.value.DoubleValue
99.96

@<SCITEGIC>MOL_PROPERTY
Delta G
SciTegic.value.DoubleValue
5.351

@<SCITEGIC>MOL_PROPERTY
G
SciTegic.value.DoubleValue
-2.611

@<SCITEGIC>MOL_PROPERTY
E
SciTegic.value.DoubleValue
-27.722

@<SCITEGIC>MOL_PROPERTY
-TS
SciTegic.value.DoubleValue
25.111

@<SCITEGIC>MOL_PROPERTY
U+W
SciTegic.value.DoubleValue
-48.290

@<SCITEGIC>MOL_PROPERTY
U
SciTegic.value.DoubleValue
11.468

@<SCITEGIC>MOL_PROPERTY
W
SciTegic.value.DoubleValue
-59.758

@<SCITEGIC>MOL_PROPERTY
W(PB)
SciTegic.value.DoubleValue
-62.184

@<SCITEGIC>MOL_PROPERTY
W(SA)
SciTegic.value.DoubleValue
2.426

@<SCITEGIC>MOL_PROPERTY
Valence
SciTegic.value.DoubleValue
10.870

@<SCITEGIC>MOL_PROPERTY
Coulomb
SciTegic.value.DoubleValue
-0.266

@<SCITEGIC>MOL_PROPERTY
VdW
SciTegic.value.DoubleValue
0.864

@<SCITEGIC>MOL_PROPERTY
VdW6
SciTegic.value.DoubleValue
-10.146

@<SCITEGIC>MOL_PROPERTY
VdW12
SciTegic.value.DoubleValue
11.010

@<SCITEGIC>MOL_PROPERTY
Bond
SciTegic.value.DoubleValue
0.218

@<SCITEGIC>MOL_PROPERTY
Angle
SciTegic.value.DoubleValue
3.178

@<SCITEGIC>MOL_PROPERTY
Pdih
SciTegic.value.DoubleValue
7.473

@<SCITEGIC>MOL_PROPERTY
Idih
SciTegic.value.DoubleValue
0.001

@<SCITEGIC>MOL_PROPERTY
Tether
SciTegic.value.DoubleValue
0.000

@<TRIPOS>MOLECULE
guest-8_vm2.mol2 : vm2 ligand conformer 149
          25          24           1
SMALL
USER_CHARGES
 
@<TRIPOS>ATOM
       1    C1      20.283938   19.338794   26.960665 C.2        1 MOL1         0.6168
       2    O1      21.366804   19.889953   26.988711 O.co2      1 MOL1        -0.6703
       3    O2      19.391741   19.569615   27.753337 O.co2      1 MOL1        -0.6703
       4    C2      20.039043   18.277022   25.892197 C.3        1 MOL1        -0.1963
       5    H1      19.649134   17.387182   26.399780 H          1 MOL1         0.0750
       6    H2      21.002397   17.989119   25.456158 H          1 MOL1         0.0750
       7    C3      19.044640   18.712721   24.781595 C.3        1 MOL1        -0.1860
       8    H3      18.867797   17.868196   24.103158 H          1 MOL1         0.0752
       9    H4      18.074041   18.935673   25.245534 H          1 MOL1         0.0752
      10    C4      19.500223   19.949574   23.965056 C.3        1 MOL1        -0.1858
      11    H5      19.565497   20.816703   24.636303 H          1 MOL1         0.0752
      12    H6      18.720346   20.199910   23.234033 H          1 MOL1         0.0752
      13    C5      20.857260   19.790834   23.230726 C.3        1 MOL1        -0.1858
      14    H7      21.074903   20.719765   22.687952 H          1 MOL1         0.0752
      15    H8      21.659938   19.695584   23.974014 H          1 MOL1         0.0752
      16    C6      20.940026   18.593171   22.247938 C.3        1 MOL1        -0.1858
      17    H9      20.865472   17.654924   22.812999 H          1 MOL1         0.0752
      18    H10     21.937771   18.585029   21.788830 H          1 MOL1         0.0752
      19    C7      19.873746   18.588980   21.124865 C.3        1 MOL1        -0.1834
      20    H11     20.008184   17.683332   20.517748 H          1 MOL1         0.0752
      21    H12     18.867774   18.517597   21.559045 H          1 MOL1         0.0752
      22    C8      19.955579   19.823336   20.200910 C.3        1 MOL1        -0.2849
      23    H13     19.239246   19.732801   19.374241 H          1 MOL1         0.0764
      24    H14     19.719558   20.745634   20.746402 H          1 MOL1         0.0764
      25    H15     20.959804   19.925161   19.769531 H          1 MOL1         0.0764
@<TRIPOS>BOND
    1     1     2    1
    2     1     3    2
    3     1     4    1
    4     4     5    1
    5     4     6    1
    6     4     7    1
    7     7     8    1
    8     7     9    1
    9     7    10    1
   10    10    11    1
   11    10    12    1
   12    10    13    1
   13    13    14    1
   14    13    15    1
   15    13    16    1
   16    16    17    1
   17    16    18    1
   18    16    19    1
   19    19    20    1
   20    19    21    1
   21    19    22    1
   22    22    23    1
   23    22    24    1
   24    22    25    1
@<TRIPOS>SUBSTRUCTURE
       1 MOL1            1 RESIDUE      1      MOL     
@<SCITEGIC>MOL_PROPERTY
VM2 Rank
SciTegic.value.IntegerValue
149

@<SCITEGIC>MOL_PROPERTY
Conf_Id
SciTegic.value.IntegerValue
1373

@<SCITEGIC>MOL_PROPERTY
Probability
SciTegic.value.DoubleValue
0.00

@<SCITEGIC>MOL_PROPERTY
Sum Probability
SciTegic.value.DoubleValue
99.96

@<SCITEGIC>MOL_PROPERTY
Delta G
SciTegic.value.DoubleValue
5.352

@<SCITEGIC>MOL_PROPERTY
G
SciTegic.value.DoubleValue
-2.611

@<SCITEGIC>MOL_PROPERTY
E
SciTegic.value.DoubleValue
-28.443

@<SCITEGIC>MOL_PROPERTY
-TS
SciTegic.value.DoubleValue
25.833

@<SCITEGIC>MOL_PROPERTY
U+W
SciTegic.value.DoubleValue
-49.011

@<SCITEGIC>MOL_PROPERTY
U
SciTegic.value.DoubleValue
11.078

@<SCITEGIC>MOL_PROPERTY
W
SciTegic.value.DoubleValue
-60.089

@<SCITEGIC>MOL_PROPERTY
W(PB)
SciTegic.value.DoubleValue
-62.437

@<SCITEGIC>MOL_PROPERTY
W(SA)
SciTegic.value.DoubleValue
2.348

@<SCITEGIC>MOL_PROPERTY
Valence
SciTegic.value.DoubleValue
9.623

@<SCITEGIC>MOL_PROPERTY
Coulomb
SciTegic.value.DoubleValue
0.949

@<SCITEGIC>MOL_PROPERTY
VdW
SciTegic.value.DoubleValue
0.506

@<SCITEGIC>MOL_PROPERTY
VdW6
SciTegic.value.DoubleValue
-12.338

@<SCITEGIC>MOL_PROPERTY
VdW12
SciTegic.value.DoubleValue
12.844

@<SCITEGIC>MOL_PROPERTY
Bond
SciTegic.value.DoubleValue
0.307

@<SCITEGIC>MOL_PROPERTY
Angle
SciTegic.value.DoubleValue
3.790

@<SCITEGIC>MOL_PROPERTY
Pdih
SciTegic.value.DoubleValue
5.525

@<SCITEGIC>MOL_PROPERTY
Idih
SciTegic.value.DoubleValue
0.001

@<SCITEGIC>MOL_PROPERTY
Tether
SciTegic.value.DoubleValue
0.000

@<TRIPOS>MOLECULE
guest-8_vm2.mol2 : vm2 ligand conformer 150
          25          24           1
SMALL
USER_CHARGES
 
@<TRIPOS>ATOM
       1    C1      19.896484   19.793552   26.822068 C.2        1 MOL1         0.6168
       2    O1      20.317505   19.488944   27.920870 O.co2      1 MOL1        -0.6703
       3    O2      18.724709   20.017165   26.589753 O.co2      1 MOL1        -0.6703
       4    C2      20.899355   19.923738   25.678849 C.3        1 MOL1        -0.1963
       5    H1      21.735429   20.528187   26.049352 H          1 MOL1         0.0750
       6    H2      20.430500   20.497922   24.873582 H          1 MOL1         0.0750
       7    C3      21.440334   18.563544   25.156797 C.3        1 MOL1        -0.1860
       8    H3      22.293173   18.734498   24.486172 H          1 MOL1         0.0752
       9    H4      21.839143   18.005204   26.015173 H          1 MOL1         0.0752
      10    C4      20.378208   17.687846   24.441952 C.3        1 MOL1        -0.1858
      11    H5      19.378337   17.882439   24.853248 H          1 MOL1         0.0752
      12    H6      20.593813   16.635465   24.671679 H          1 MOL1         0.0752
      13    C5      20.352189   17.831308   22.899442 C.3        1 MOL1        -0.1858
      14    H7      21.328431   17.540073   22.488435 H          1 MOL1         0.0752
      15    H8      19.623396   17.112699   22.500349 H          1 MOL1         0.0752
      16    C6      19.986024   19.246363   22.399147 C.3        1 MOL1        -0.1858
      17    H9      20.777061   19.952967   22.681018 H          1 MOL1         0.0752
      18    H10     19.060060   19.581076   22.886780 H          1 MOL1         0.0752
      19    C7      19.805431   19.282497   20.866916 C.3        1 MOL1        -0.1834
      20    H11     20.728696   18.942928   20.377320 H          1 MOL1         0.0752
      21    H12     19.010885   18.583829   20.570369 H          1 MOL1         0.0752
      22    C8      19.452760   20.699042   20.370206 C.3        1 MOL1        -0.2849
      23    H13     20.246455   21.413519   20.625016 H          1 MOL1         0.0764
      24    H14     19.327085   20.706654   19.279712 H          1 MOL1         0.0764
      25    H15     18.516272   21.051584   20.821967 H          1 MOL1         0.0764
@<TRIPOS>BOND
    1     1     2    1
    2     1     3    2
    3     1     4    1
    4     4     5    1
    5     4     6    1
    6     4     7    1
    7     7     8    1
    8     7     9    1
    9     7    10    1
   10    10    11    1
   11    10    12    1
   12    10    13    1
   13    13    14    1
   14    13    15    1
   15    13    16    1
   16    16    17    1
   17    16    18    1
   18    16    19    1
   19    19    20    1
   20    19    21    1
   21    19    22    1
   22    22    23    1
   23    22    24    1
   24    22    25    1
@<TRIPOS>SUBSTRUCTURE
       1 MOL1            1 RESIDUE      1      MOL     
@<SCITEGIC>MOL_PROPERTY
VM2 Rank
SciTegic.value.IntegerValue
150

@<SCITEGIC>MOL_PROPERTY
Conf_Id
SciTegic.value.IntegerValue
191

@<SCITEGIC>MOL_PROPERTY
Probability
SciTegic.value.DoubleValue
0.00

@<SCITEGIC>MOL_PROPERTY
Sum Probability
SciTegic.value.DoubleValue
99.96

@<SCITEGIC>MOL_PROPERTY
Delta G
SciTegic.value.DoubleValue
5.373

@<SCITEGIC>MOL_PROPERTY
G
SciTegic.value.DoubleValue
-2.589

@<SCITEGIC>MOL_PROPERTY
E
SciTegic.value.DoubleValue
-27.736

@<SCITEGIC>MOL_PROPERTY
-TS
SciTegic.value.DoubleValue
25.147

@<SCITEGIC>MOL_PROPERTY
U+W
SciTegic.value.DoubleValue
-48.304

@<SCITEGIC>MOL_PROPERTY
U
SciTegic.value.DoubleValue
11.917

@<SCITEGIC>MOL_PROPERTY
W
SciTegic.value.DoubleValue
-60.221

@<SCITEGIC>MOL_PROPERTY
W(PB)
SciTegic.value.DoubleValue
-62.639

@<SCITEGIC>MOL_PROPERTY
W(SA)
SciTegic.value.DoubleValue
2.418

@<SCITEGIC>MOL_PROPERTY
Valence
SciTegic.value.DoubleValue
10.867

@<SCITEGIC>MOL_PROPERTY
Coulomb
SciTegic.value.DoubleValue
0.269

@<SCITEGIC>MOL_PROPERTY
VdW
SciTegic.value.DoubleValue
0.781

@<SCITEGIC>MOL_PROPERTY
VdW6
SciTegic.value.DoubleValue
-10.299

@<SCITEGIC>MOL_PROPERTY
VdW12
SciTegic.value.DoubleValue
11.079

@<SCITEGIC>MOL_PROPERTY
Bond
SciTegic.value.DoubleValue
0.238

@<SCITEGIC>MOL_PROPERTY
Angle
SciTegic.value.DoubleValue
3.230

@<SCITEGIC>MOL_PROPERTY
Pdih
SciTegic.value.DoubleValue
7.398

@<SCITEGIC>MOL_PROPERTY
Idih
SciTegic.value.DoubleValue
0.001

@<SCITEGIC>MOL_PROPERTY
Tether
SciTegic.value.DoubleValue
0.000

@<TRIPOS>MOLECULE
guest-8_vm2.mol2 : vm2 ligand conformer 151
          25          24           1
SMALL
USER_CHARGES
 
@<TRIPOS>ATOM
       1    C1      19.806564   18.953467   26.940611 C.2        1 MOL1         0.6168
       2    O1      20.715910   18.549129   27.638323 O.co2      1 MOL1        -0.6703
       3    O2      18.804488   18.308916   26.701142 O.co2      1 MOL1        -0.6703
       4    C2      19.922164   20.356494   26.351309 C.3        1 MOL1        -0.1963
       5    H1      20.252364   21.024011   27.155862 H          1 MOL1         0.0750
       6    H2      18.922747   20.692664   26.049639 H          1 MOL1         0.0750
       7    C3      20.904996   20.459421   25.156127 C.3        1 MOL1        -0.1860
       8    H3      21.026052   21.516635   24.883826 H          1 MOL1         0.0752
       9    H4      21.894791   20.097143   25.466989 H          1 MOL1         0.0752
      10    C4      20.421372   19.667525   23.920436 C.3        1 MOL1        -0.1858
      11    H5      19.424082   20.025864   23.634852 H          1 MOL1         0.0752
      12    H6      20.322983   18.603729   24.176827 H          1 MOL1         0.0752
      13    C5      21.389907   19.822659   22.726969 C.3        1 MOL1        -0.1858
      14    H7      21.411436   20.873827   22.408624 H          1 MOL1         0.0752
      15    H8      22.408188   19.580831   23.060790 H          1 MOL1         0.0752
      16    C6      21.051931   18.923513   21.511095 C.3        1 MOL1        -0.1858
      17    H9      21.120783   17.864514   21.795167 H          1 MOL1         0.0752
      18    H10     21.834527   19.081232   20.756437 H          1 MOL1         0.0752
      19    C7      19.680652   19.213465   20.851037 C.3        1 MOL1        -0.1834
      20    H11     19.399058   20.264493   21.003570 H          1 MOL1         0.0752
      21    H12     19.778142   19.078046   19.765017 H          1 MOL1         0.0752
      22    C8      18.555016   18.279412   21.348951 C.3        1 MOL1        -0.2849
      23    H13     18.795901   17.229950   21.135345 H          1 MOL1         0.0764
      24    H14     18.391899   18.375217   22.428524 H          1 MOL1         0.0764
      25    H15     17.608997   18.515757   20.845013 H          1 MOL1         0.0764
@<TRIPOS>BOND
    1     1     2    1
    2     1     3    2
    3     1     4    1
    4     4     5    1
    5     4     6    1
    6     4     7    1
    7     7     8    1
    8     7     9    1
    9     7    10    1
   10    10    11    1
   11    10    12    1
   12    10    13    1
   13    13    14    1
   14    13    15    1
   15    13    16    1
   16    16    17    1
   17    16    18    1
   18    16    19    1
   19    19    20    1
   20    19    21    1
   21    19    22    1
   22    22    23    1
   23    22    24    1
   24    22    25    1
@<TRIPOS>SUBSTRUCTURE
       1 MOL1            1 RESIDUE      1      MOL     
@<SCITEGIC>MOL_PROPERTY
VM2 Rank
SciTegic.value.IntegerValue
151

@<SCITEGIC>MOL_PROPERTY
Conf_Id
SciTegic.value.IntegerValue
841

@<SCITEGIC>MOL_PROPERTY
Probability
SciTegic.value.DoubleValue
0.00

@<SCITEGIC>MOL_PROPERTY
Sum Probability
SciTegic.value.DoubleValue
99.97

@<SCITEGIC>MOL_PROPERTY
Delta G
SciTegic.value.DoubleValue
5.408

@<SCITEGIC>MOL_PROPERTY
G
SciTegic.value.DoubleValue
-2.554

@<SCITEGIC>MOL_PROPERTY
E
SciTegic.value.DoubleValue
-27.607

@<SCITEGIC>MOL_PROPERTY
-TS
SciTegic.value.DoubleValue
25.054

@<SCITEGIC>MOL_PROPERTY
U+W
SciTegic.value.DoubleValue
-48.175

@<SCITEGIC>MOL_PROPERTY
U
SciTegic.value.DoubleValue
12.391

@<SCITEGIC>MOL_PROPERTY
W
SciTegic.value.DoubleValue
-60.566

@<SCITEGIC>MOL_PROPERTY
W(PB)
SciTegic.value.DoubleValue
-62.990

@<SCITEGIC>MOL_PROPERTY
W(SA)
SciTegic.value.DoubleValue
2.424

@<SCITEGIC>MOL_PROPERTY
Valence
SciTegic.value.DoubleValue
10.775

@<SCITEGIC>MOL_PROPERTY
Coulomb
SciTegic.value.DoubleValue
0.820

@<SCITEGIC>MOL_PROPERTY
VdW
SciTegic.value.DoubleValue
0.796

@<SCITEGIC>MOL_PROPERTY
VdW6
SciTegic.value.DoubleValue
-10.157

@<SCITEGIC>MOL_PROPERTY
VdW12
SciTegic.value.DoubleValue
10.953

@<SCITEGIC>MOL_PROPERTY
Bond
SciTegic.value.DoubleValue
0.213

@<SCITEGIC>MOL_PROPERTY
Angle
SciTegic.value.DoubleValue
3.162

@<SCITEGIC>MOL_PROPERTY
Pdih
SciTegic.value.DoubleValue
7.399

@<SCITEGIC>MOL_PROPERTY
Idih
SciTegic.value.DoubleValue
0.001

@<SCITEGIC>MOL_PROPERTY
Tether
SciTegic.value.DoubleValue
0.000

@<TRIPOS>MOLECULE
guest-8_vm2.mol2 : vm2 ligand conformer 152
          25          24           1
SMALL
USER_CHARGES
 
@<TRIPOS>ATOM
       1    C1      20.345867   18.747610   26.831560 C.2        1 MOL1         0.6168
       2    O1      21.383740   19.104940   27.353423 O.co2      1 MOL1        -0.6703
       3    O2      20.080786   17.587281   26.585993 O.co2      1 MOL1        -0.6703
       4    C2      19.310428   19.814553   26.486888 C.3        1 MOL1        -0.1963
       5    H1      19.214286   20.471907   27.358986 H          1 MOL1         0.0750
       6    H2      18.338089   19.326572   26.348074 H          1 MOL1         0.0750
       7    C3      19.667940   20.660379   25.237150 C.3        1 MOL1        -0.1860
       8    H3      18.944972   21.482101   25.144840 H          1 MOL1         0.0752
       9    H4      20.655130   21.121658   25.379615 H          1 MOL1         0.0752
      10    C4      19.663178   19.827249   23.935658 C.3        1 MOL1        -0.1858
      11    H5      18.678325   19.359604   23.801580 H          1 MOL1         0.0752
      12    H6      20.397911   19.016657   24.025060 H          1 MOL1         0.0752
      13    C5      19.998814   20.692906   22.700970 C.3        1 MOL1        -0.1858
      14    H7      19.337273   21.569820   22.689419 H          1 MOL1         0.0752
      15    H8      21.022445   21.080407   22.794914 H          1 MOL1         0.0752
      16    C6      19.849495   19.955681   21.346234 C.3        1 MOL1        -0.1858
      17    H9      20.057000   20.683680   20.550117 H          1 MOL1         0.0752
      18    H10     18.806409   19.643463   21.200095 H          1 MOL1         0.0752
      19    C7      20.802221   18.748998   21.155266 C.3        1 MOL1        -0.1834
      20    H11     21.110724   18.709011   20.101464 H          1 MOL1         0.0752
      21    H12     21.722570   18.894337   21.737596 H          1 MOL1         0.0752
      22    C8      20.150532   17.394404   21.512858 C.3        1 MOL1        -0.2849
      23    H13     19.266284   17.209768   20.889154 H          1 MOL1         0.0764
      24    H14     20.857707   16.572085   21.344185 H          1 MOL1         0.0764
      25    H15     19.837910   17.355567   22.562661 H          1 MOL1         0.0764
@<TRIPOS>BOND
    1     1     2    1
    2     1     3    2
    3     1     4    1
    4     4     5    1
    5     4     6    1
    6     4     7    1
    7     7     8    1
    8     7     9    1
    9     7    10    1
   10    10    11    1
   11    10    12    1
   12    10    13    1
   13    13    14    1
   14    13    15    1
   15    13    16    1
   16    16    17    1
   17    16    18    1
   18    16    19    1
   19    19    20    1
   20    19    21    1
   21    19    22    1
   22    22    23    1
   23    22    24    1
   24    22    25    1
@<TRIPOS>SUBSTRUCTURE
       1 MOL1            1 RESIDUE      1      MOL     
@<SCITEGIC>MOL_PROPERTY
VM2 Rank
SciTegic.value.IntegerValue
152

@<SCITEGIC>MOL_PROPERTY
Conf_Id
SciTegic.value.IntegerValue
792

@<SCITEGIC>MOL_PROPERTY
Probability
SciTegic.value.DoubleValue
0.00

@<SCITEGIC>MOL_PROPERTY
Sum Probability
SciTegic.value.DoubleValue
99.97

@<SCITEGIC>MOL_PROPERTY
Delta G
SciTegic.value.DoubleValue
5.481

@<SCITEGIC>MOL_PROPERTY
G
SciTegic.value.DoubleValue
-2.481

@<SCITEGIC>MOL_PROPERTY
E
SciTegic.value.DoubleValue
-27.540

@<SCITEGIC>MOL_PROPERTY
-TS
SciTegic.value.DoubleValue
25.059

@<SCITEGIC>MOL_PROPERTY
U+W
SciTegic.value.DoubleValue
-48.107

@<SCITEGIC>MOL_PROPERTY
U
SciTegic.value.DoubleValue
12.670

@<SCITEGIC>MOL_PROPERTY
W
SciTegic.value.DoubleValue
-60.777

@<SCITEGIC>MOL_PROPERTY
W(PB)
SciTegic.value.DoubleValue
-63.216

@<SCITEGIC>MOL_PROPERTY
W(SA)
SciTegic.value.DoubleValue
2.438

@<SCITEGIC>MOL_PROPERTY
Valence
SciTegic.value.DoubleValue
10.771

@<SCITEGIC>MOL_PROPERTY
Coulomb
SciTegic.value.DoubleValue
1.134

@<SCITEGIC>MOL_PROPERTY
VdW
SciTegic.value.DoubleValue
0.764

@<SCITEGIC>MOL_PROPERTY
VdW6
SciTegic.value.DoubleValue
-10.207

@<SCITEGIC>MOL_PROPERTY
VdW12
SciTegic.value.DoubleValue
10.972

@<SCITEGIC>MOL_PROPERTY
Bond
SciTegic.value.DoubleValue
0.213

@<SCITEGIC>MOL_PROPERTY
Angle
SciTegic.value.DoubleValue
3.170

@<SCITEGIC>MOL_PROPERTY
Pdih
SciTegic.value.DoubleValue
7.388

@<SCITEGIC>MOL_PROPERTY
Idih
SciTegic.value.DoubleValue
0.001

@<SCITEGIC>MOL_PROPERTY
Tether
SciTegic.value.DoubleValue
0.000

@<TRIPOS>MOLECULE
guest-8_vm2.mol2 : vm2 ligand conformer 153
          25          24           1
SMALL
USER_CHARGES
 
@<TRIPOS>ATOM
       1    C1      19.743946   19.554266   26.932000 C.2        1 MOL1         0.6168
       2    O1      20.548051   20.156770   27.615815 O.co2      1 MOL1        -0.6703
       3    O2      18.631088   19.971107   26.677563 O.co2      1 MOL1        -0.6703
       4    C2      20.148374   18.189375   26.381875 C.3        1 MOL1        -0.1963
       5    H1      19.240748   17.645819   26.092720 H          1 MOL1         0.0750
       6    H2      20.606963   17.627205   27.203810 H          1 MOL1         0.0750
       7    C3      21.134699   18.258114   25.187118 C.3        1 MOL1        -0.1860
       8    H3      22.027542   18.825380   25.484796 H          1 MOL1         0.0752
       9    H4      21.472085   17.241448   24.944089 H          1 MOL1         0.0752
      10    C4      20.501617   18.898330   23.931230 C.3        1 MOL1        -0.1858
      11    H5      20.185065   19.925655   24.158108 H          1 MOL1         0.0752
      12    H6      19.600578   18.334056   23.658698 H          1 MOL1         0.0752
      13    C5      21.484748   18.913153   22.739711 C.3        1 MOL1        -0.1858
      14    H7      22.430281   19.369024   23.063686 H          1 MOL1         0.0752
      15    H8      21.723561   17.880586   22.450690 H          1 MOL1         0.0752
      16    C6      20.972081   19.689048   21.500275 C.3        1 MOL1        -0.1858
      17    H9      21.772525   19.675124   20.747988 H          1 MOL1         0.0752
      18    H10     20.820282   20.746981   21.754541 H          1 MOL1         0.0752
      19    C7      19.691943   19.104314   20.852600 C.3        1 MOL1        -0.1834
      20    H11     19.762434   19.226807   19.762964 H          1 MOL1         0.0752
      21    H12     19.632783   18.022439   21.034993 H          1 MOL1         0.0752
      22    C8      18.396454   19.799523   21.327813 C.3        1 MOL1        -0.2849
      23    H13     18.416322   20.869791   21.084596 H          1 MOL1         0.0764
      24    H14     17.520954   19.359317   20.833361 H          1 MOL1         0.0764
      25    H15     18.253526   19.702007   22.410090 H          1 MOL1         0.0764
@<TRIPOS>BOND
    1     1     2    1
    2     1     3    2
    3     1     4    1
    4     4     5    1
    5     4     6    1
    6     4     7    1
    7     7     8    1
    8     7     9    1
    9     7    10    1
   10    10    11    1
   11    10    12    1
   12    10    13    1
   13    13    14    1
   14    13    15    1
   15    13    16    1
   16    16    17    1
   17    16    18    1
   18    16    19    1
   19    19    20    1
   20    19    21    1
   21    19    22    1
   22    22    23    1
   23    22    24    1
   24    22    25    1
@<TRIPOS>SUBSTRUCTURE
       1 MOL1            1 RESIDUE      1      MOL     
@<SCITEGIC>MOL_PROPERTY
VM2 Rank
SciTegic.value.IntegerValue
153

@<SCITEGIC>MOL_PROPERTY
Conf_Id
SciTegic.value.IntegerValue
513

@<SCITEGIC>MOL_PROPERTY
Probability
SciTegic.value.DoubleValue
0.00

@<SCITEGIC>MOL_PROPERTY
Sum Probability
SciTegic.value.DoubleValue
99.97

@<SCITEGIC>MOL_PROPERTY
Delta G
SciTegic.value.DoubleValue
5.489

@<SCITEGIC>MOL_PROPERTY
G
SciTegic.value.DoubleValue
-2.474

@<SCITEGIC>MOL_PROPERTY
E
SciTegic.value.DoubleValue
-27.527

@<SCITEGIC>MOL_PROPERTY
-TS
SciTegic.value.DoubleValue
25.053

@<SCITEGIC>MOL_PROPERTY
U+W
SciTegic.value.DoubleValue
-48.094

@<SCITEGIC>MOL_PROPERTY
U
SciTegic.value.DoubleValue
12.391

@<SCITEGIC>MOL_PROPERTY
W
SciTegic.value.DoubleValue
-60.485

@<SCITEGIC>MOL_PROPERTY
W(PB)
SciTegic.value.DoubleValue
-62.925

@<SCITEGIC>MOL_PROPERTY
W(SA)
SciTegic.value.DoubleValue
2.439

@<SCITEGIC>MOL_PROPERTY
Valence
SciTegic.value.DoubleValue
10.774

@<SCITEGIC>MOL_PROPERTY
Coulomb
SciTegic.value.DoubleValue
0.820

@<SCITEGIC>MOL_PROPERTY
VdW
SciTegic.value.DoubleValue
0.796

@<SCITEGIC>MOL_PROPERTY
VdW6
SciTegic.value.DoubleValue
-10.157

@<SCITEGIC>MOL_PROPERTY
VdW12
SciTegic.value.DoubleValue
10.953

@<SCITEGIC>MOL_PROPERTY
Bond
SciTegic.value.DoubleValue
0.213

@<SCITEGIC>MOL_PROPERTY
Angle
SciTegic.value.DoubleValue
3.162

@<SCITEGIC>MOL_PROPERTY
Pdih
SciTegic.value.DoubleValue
7.399

@<SCITEGIC>MOL_PROPERTY
Idih
SciTegic.value.DoubleValue
0.001

@<SCITEGIC>MOL_PROPERTY
Tether
SciTegic.value.DoubleValue
0.000

@<TRIPOS>MOLECULE
guest-8_vm2.mol2 : vm2 ligand conformer 154
          25          24           1
SMALL
USER_CHARGES
 
@<TRIPOS>ATOM
       1    C1      20.661807   19.027603   26.686495 C.2        1 MOL1         0.6168
       2    O1      21.855810   19.163231   26.504775 O.co2      1 MOL1        -0.6703
       3    O2      20.156083   18.003018   27.100750 O.co2      1 MOL1        -0.6703
       4    C2      19.751485   20.218821   26.400709 C.3        1 MOL1        -0.1963
       5    H1      20.217375   21.102647   26.852047 H          1 MOL1         0.0750
       6    H2      18.796940   20.063311   26.917848 H          1 MOL1         0.0750
       7    C3      19.508852   20.475088   24.890909 C.3        1 MOL1        -0.1860
       8    H3      18.974061   21.427148   24.773415 H          1 MOL1         0.0752
       9    H4      20.476216   20.598474   24.388998 H          1 MOL1         0.0752
      10    C4      18.685524   19.346647   24.223078 C.3        1 MOL1        -0.1858
      11    H5      17.710581   19.290719   24.726249 H          1 MOL1         0.0752
      12    H6      19.166014   18.371395   24.381959 H          1 MOL1         0.0752
      13    C5      18.447615   19.577496   22.709252 C.3        1 MOL1        -0.1858
      14    H7      17.438256   19.220588   22.463046 H          1 MOL1         0.0752
      15    H8      18.447475   20.652402   22.482570 H          1 MOL1         0.0752
      16    C6      19.443140   18.838335   21.779886 C.3        1 MOL1        -0.1858
      17    H9      19.139692   19.015523   20.739058 H          1 MOL1         0.0752
      18    H10     19.359863   17.755409   21.944764 H          1 MOL1         0.0752
      19    C7      20.915730   19.270055   21.953520 C.3        1 MOL1        -0.1834
      20    H11     20.994317   20.363100   21.875976 H          1 MOL1         0.0752
      21    H12     21.271475   18.988312   22.953744 H          1 MOL1         0.0752
      22    C8      21.826954   18.613706   20.896627 C.3        1 MOL1        -0.2849
      23    H13     21.523517   18.902074   19.881719 H          1 MOL1         0.0764
      24    H14     22.870094   18.924310   21.039419 H          1 MOL1         0.0764
      25    H15     21.786297   17.518987   20.969138 H          1 MOL1         0.0764
@<TRIPOS>BOND
    1     1     2    1
    2     1     3    2
    3     1     4    1
    4     4     5    1
    5     4     6    1
    6     4     7    1
    7     7     8    1
    8     7     9    1
    9     7    10    1
   10    10    11    1
   11    10    12    1
   12    10    13    1
   13    13    14    1
   14    13    15    1
   15    13    16    1
   16    16    17    1
   17    16    18    1
   18    16    19    1
   19    19    20    1
   20    19    21    1
   21    19    22    1
   22    22    23    1
   23    22    24    1
   24    22    25    1
@<TRIPOS>SUBSTRUCTURE
       1 MOL1            1 RESIDUE      1      MOL     
@<SCITEGIC>MOL_PROPERTY
VM2 Rank
SciTegic.value.IntegerValue
154

@<SCITEGIC>MOL_PROPERTY
Conf_Id
SciTegic.value.IntegerValue
743

@<SCITEGIC>MOL_PROPERTY
Probability
SciTegic.value.DoubleValue
0.00

@<SCITEGIC>MOL_PROPERTY
Sum Probability
SciTegic.value.DoubleValue
99.97

@<SCITEGIC>MOL_PROPERTY
Delta G
SciTegic.value.DoubleValue
5.492

@<SCITEGIC>MOL_PROPERTY
G
SciTegic.value.DoubleValue
-2.471

@<SCITEGIC>MOL_PROPERTY
E
SciTegic.value.DoubleValue
-27.597

@<SCITEGIC>MOL_PROPERTY
-TS
SciTegic.value.DoubleValue
25.126

@<SCITEGIC>MOL_PROPERTY
U+W
SciTegic.value.DoubleValue
-48.165

@<SCITEGIC>MOL_PROPERTY
U
SciTegic.value.DoubleValue
12.689

@<SCITEGIC>MOL_PROPERTY
W
SciTegic.value.DoubleValue
-60.854

@<SCITEGIC>MOL_PROPERTY
W(PB)
SciTegic.value.DoubleValue
-63.277

@<SCITEGIC>MOL_PROPERTY
W(SA)
SciTegic.value.DoubleValue
2.424

@<SCITEGIC>MOL_PROPERTY
Valence
SciTegic.value.DoubleValue
10.791

@<SCITEGIC>MOL_PROPERTY
Coulomb
SciTegic.value.DoubleValue
1.261

@<SCITEGIC>MOL_PROPERTY
VdW
SciTegic.value.DoubleValue
0.637

@<SCITEGIC>MOL_PROPERTY
VdW6
SciTegic.value.DoubleValue
-10.463

@<SCITEGIC>MOL_PROPERTY
VdW12
SciTegic.value.DoubleValue
11.099

@<SCITEGIC>MOL_PROPERTY
Bond
SciTegic.value.DoubleValue
0.216

@<SCITEGIC>MOL_PROPERTY
Angle
SciTegic.value.DoubleValue
3.125

@<SCITEGIC>MOL_PROPERTY
Pdih
SciTegic.value.DoubleValue
7.449

@<SCITEGIC>MOL_PROPERTY
Idih
SciTegic.value.DoubleValue
0.001

@<SCITEGIC>MOL_PROPERTY
Tether
SciTegic.value.DoubleValue
0.000

@<TRIPOS>MOLECULE
guest-8_vm2.mol2 : vm2 ligand conformer 155
          25          24           1
SMALL
USER_CHARGES
 
@<TRIPOS>ATOM
       1    C1      19.954757   19.795337   26.843053 C.2        1 MOL1         0.6168
       2    O1      20.835240   20.579428   27.138171 O.co2      1 MOL1        -0.6703
       3    O2      18.780262   20.098814   26.769416 O.co2      1 MOL1        -0.6703
       4    C2      20.344984   18.344574   26.574039 C.3        1 MOL1        -0.1963
       5    H1      19.448030   17.719187   26.658815 H          1 MOL1         0.0750
       6    H2      21.025480   18.034244   27.375626 H          1 MOL1         0.0750
       7    C3      21.026792   18.119588   25.199458 C.3        1 MOL1        -0.1860
       8    H3      21.906188   18.773592   25.118397 H          1 MOL1         0.0752
       9    H4      21.395372   17.086129   25.148838 H          1 MOL1         0.0752
      10    C4      20.071699   18.379282   24.012827 C.3        1 MOL1        -0.1858
      11    H5      19.705376   19.411883   24.057792 H          1 MOL1         0.0752
      12    H6      19.190269   17.730251   24.104996 H          1 MOL1         0.0752
      13    C5      20.763898   18.115560   22.654807 C.3        1 MOL1        -0.1858
      14    H7      21.680206   18.715564   22.570082 H          1 MOL1         0.0752
      15    H8      21.082736   17.064535   22.631561 H          1 MOL1         0.0752
      16    C6      19.843488   18.376884   21.435410 C.3        1 MOL1        -0.1858
      17    H9      18.793083   18.204469   21.707038 H          1 MOL1         0.0752
      18    H10     20.078541   17.630819   20.664062 H          1 MOL1         0.0752
      19    C7      20.003731   19.777130   20.793060 C.3        1 MOL1        -0.1834
      20    H11     21.037813   19.906197   20.444875 H          1 MOL1         0.0752
      21    H12     19.369827   19.824091   19.896896 H          1 MOL1         0.0752
      22    C8      19.628149   20.947403   21.725760 C.3        1 MOL1        -0.2849
      23    H13     20.340208   21.036190   22.555798 H          1 MOL1         0.0764
      24    H14     19.642178   21.896943   21.175414 H          1 MOL1         0.0764
      25    H15     18.621745   20.811972   22.142740 H          1 MOL1         0.0764
@<TRIPOS>BOND
    1     1     2    1
    2     1     3    2
    3     1     4    1
    4     4     5    1
    5     4     6    1
    6     4     7    1
    7     7     8    1
    8     7     9    1
    9     7    10    1
   10    10    11    1
   11    10    12    1
   12    10    13    1
   13    13    14    1
   14    13    15    1
   15    13    16    1
   16    16    17    1
   17    16    18    1
   18    16    19    1
   19    19    20    1
   20    19    21    1
   21    19    22    1
   22    22    23    1
   23    22    24    1
   24    22    25    1
@<TRIPOS>SUBSTRUCTURE
       1 MOL1            1 RESIDUE      1      MOL     
@<SCITEGIC>MOL_PROPERTY
VM2 Rank
SciTegic.value.IntegerValue
155

@<SCITEGIC>MOL_PROPERTY
Conf_Id
SciTegic.value.IntegerValue
217

@<SCITEGIC>MOL_PROPERTY
Probability
SciTegic.value.DoubleValue
0.00

@<SCITEGIC>MOL_PROPERTY
Sum Probability
SciTegic.value.DoubleValue
99.98

@<SCITEGIC>MOL_PROPERTY
Delta G
SciTegic.value.DoubleValue
5.502

@<SCITEGIC>MOL_PROPERTY
G
SciTegic.value.DoubleValue
-2.460

@<SCITEGIC>MOL_PROPERTY
E
SciTegic.value.DoubleValue
-27.521

@<SCITEGIC>MOL_PROPERTY
-TS
SciTegic.value.DoubleValue
25.061

@<SCITEGIC>MOL_PROPERTY
U+W
SciTegic.value.DoubleValue
-48.089

@<SCITEGIC>MOL_PROPERTY
U
SciTegic.value.DoubleValue
12.640

@<SCITEGIC>MOL_PROPERTY
W
SciTegic.value.DoubleValue
-60.729

@<SCITEGIC>MOL_PROPERTY
W(PB)
SciTegic.value.DoubleValue
-63.138

@<SCITEGIC>MOL_PROPERTY
W(SA)
SciTegic.value.DoubleValue
2.409

@<SCITEGIC>MOL_PROPERTY
Valence
SciTegic.value.DoubleValue
10.756

@<SCITEGIC>MOL_PROPERTY
Coulomb
SciTegic.value.DoubleValue
1.146

@<SCITEGIC>MOL_PROPERTY
VdW
SciTegic.value.DoubleValue
0.738

@<SCITEGIC>MOL_PROPERTY
VdW6
SciTegic.value.DoubleValue
-10.212

@<SCITEGIC>MOL_PROPERTY
VdW12
SciTegic.value.DoubleValue
10.950

@<SCITEGIC>MOL_PROPERTY
Bond
SciTegic.value.DoubleValue
0.214

@<SCITEGIC>MOL_PROPERTY
Angle
SciTegic.value.DoubleValue
3.129

@<SCITEGIC>MOL_PROPERTY
Pdih
SciTegic.value.DoubleValue
7.413

@<SCITEGIC>MOL_PROPERTY
Idih
SciTegic.value.DoubleValue
0.001

@<SCITEGIC>MOL_PROPERTY
Tether
SciTegic.value.DoubleValue
0.000

@<TRIPOS>MOLECULE
guest-8_vm2.mol2 : vm2 ligand conformer 156
          25          24           1
SMALL
USER_CHARGES
 
@<TRIPOS>ATOM
       1    C1      20.066137   18.929545   27.136318 C.2        1 MOL1         0.6168
       2    O1      21.124518   18.955235   27.732984 O.co2      1 MOL1        -0.6703
       3    O2      18.984760   18.864555   27.686958 O.co2      1 MOL1        -0.6703
       4    C2      20.095425   19.005328   25.614022 C.3        1 MOL1        -0.1963
       5    H1      19.232029   18.450646   25.227705 H          1 MOL1         0.0750
       6    H2      21.000308   18.488924   25.276077 H          1 MOL1         0.0750
       7    C3      20.078998   20.461482   25.085371 C.3        1 MOL1        -0.1860
       8    H3      19.261985   21.004846   25.580037 H          1 MOL1         0.0752
       9    H4      21.008036   20.965709   25.384968 H          1 MOL1         0.0752
      10    C4      19.888437   20.585720   23.552582 C.3        1 MOL1        -0.1858
      11    H5      19.841918   21.657402   23.316010 H          1 MOL1         0.0752
      12    H6      18.911128   20.181633   23.263706 H          1 MOL1         0.0752
      13    C5      21.025037   19.961039   22.699262 C.3        1 MOL1        -0.1858
      14    H7      21.166534   20.575222   21.800713 H          1 MOL1         0.0752
      15    H8      21.972789   20.035630   23.249345 H          1 MOL1         0.0752
      16    C6      20.804841   18.487433   22.258708 C.3        1 MOL1        -0.1858
      17    H9      20.722530   17.841024   23.139467 H          1 MOL1         0.0752
      18    H10     21.705338   18.149949   21.727972 H          1 MOL1         0.0752
      19    C7      19.577879   18.235328   21.346054 C.3        1 MOL1        -0.1834
      20    H11     19.546119   17.165991   21.095987 H          1 MOL1         0.0752
      21    H12     18.647159   18.443390   21.888966 H          1 MOL1         0.0752
      22    C8      19.606968   19.048336   20.033740 C.3        1 MOL1        -0.2849
      23    H13     20.544285   18.880366   19.487661 H          1 MOL1         0.0764
      24    H14     18.776382   18.752207   19.380129 H          1 MOL1         0.0764
      25    H15     19.508131   20.123545   20.229004 H          1 MOL1         0.0764
@<TRIPOS>BOND
    1     1     2    1
    2     1     3    2
    3     1     4    1
    4     4     5    1
    5     4     6    1
    6     4     7    1
    7     7     8    1
    8     7     9    1
    9     7    10    1
   10    10    11    1
   11    10    12    1
   12    10    13    1
   13    13    14    1
   14    13    15    1
   15    13    16    1
   16    16    17    1
   17    16    18    1
   18    16    19    1
   19    19    20    1
   20    19    21    1
   21    19    22    1
   22    22    23    1
   23    22    24    1
   24    22    25    1
@<TRIPOS>SUBSTRUCTURE
       1 MOL1            1 RESIDUE      1      MOL     
@<SCITEGIC>MOL_PROPERTY
VM2 Rank
SciTegic.value.IntegerValue
156

@<SCITEGIC>MOL_PROPERTY
Conf_Id
SciTegic.value.IntegerValue
233

@<SCITEGIC>MOL_PROPERTY
Probability
SciTegic.value.DoubleValue
0.00

@<SCITEGIC>MOL_PROPERTY
Sum Probability
SciTegic.value.DoubleValue
99.98

@<SCITEGIC>MOL_PROPERTY
Delta G
SciTegic.value.DoubleValue
5.599

@<SCITEGIC>MOL_PROPERTY
G
SciTegic.value.DoubleValue
-2.364

@<SCITEGIC>MOL_PROPERTY
E
SciTegic.value.DoubleValue
-27.068

@<SCITEGIC>MOL_PROPERTY
-TS
SciTegic.value.DoubleValue
24.704

@<SCITEGIC>MOL_PROPERTY
U+W
SciTegic.value.DoubleValue
-47.636

@<SCITEGIC>MOL_PROPERTY
U
SciTegic.value.DoubleValue
11.838

@<SCITEGIC>MOL_PROPERTY
W
SciTegic.value.DoubleValue
-59.473

@<SCITEGIC>MOL_PROPERTY
W(PB)
SciTegic.value.DoubleValue
-61.864

@<SCITEGIC>MOL_PROPERTY
W(SA)
SciTegic.value.DoubleValue
2.390

@<SCITEGIC>MOL_PROPERTY
Valence
SciTegic.value.DoubleValue
11.761

@<SCITEGIC>MOL_PROPERTY
Coulomb
SciTegic.value.DoubleValue
-1.046

@<SCITEGIC>MOL_PROPERTY
VdW
SciTegic.value.DoubleValue
1.123

@<SCITEGIC>MOL_PROPERTY
VdW6
SciTegic.value.DoubleValue
-10.751

@<SCITEGIC>MOL_PROPERTY
VdW12
SciTegic.value.DoubleValue
11.874

@<SCITEGIC>MOL_PROPERTY
Bond
SciTegic.value.DoubleValue
0.310

@<SCITEGIC>MOL_PROPERTY
Angle
SciTegic.value.DoubleValue
4.048

@<SCITEGIC>MOL_PROPERTY
Pdih
SciTegic.value.DoubleValue
7.403

@<SCITEGIC>MOL_PROPERTY
Idih
SciTegic.value.DoubleValue
0.001

@<SCITEGIC>MOL_PROPERTY
Tether
SciTegic.value.DoubleValue
0.000

@<TRIPOS>MOLECULE
guest-8_vm2.mol2 : vm2 ligand conformer 157
          25          24           1
SMALL
USER_CHARGES
 
@<TRIPOS>ATOM
       1    C1      19.928313   19.522637   27.131342 C.2        1 MOL1         0.6168
       2    O1      20.755911   19.511667   28.021201 O.co2      1 MOL1        -0.6703
       3    O2      18.895359   20.160852   27.180946 O.co2      1 MOL1        -0.6703
       4    C2      20.211704   18.706903   25.875084 C.3        1 MOL1        -0.1963
       5    H1      19.251100   18.351191   25.485395 H          1 MOL1         0.0750
       6    H2      20.794084   17.824442   26.165414 H          1 MOL1         0.0750
       7    C3      20.970666   19.517001   24.792451 C.3        1 MOL1        -0.1860
       8    H3      20.360902   20.374762   24.480712 H          1 MOL1         0.0752
       9    H4      21.877694   19.942911   25.243113 H          1 MOL1         0.0752
      10    C4      21.385938   18.675315   23.558510 C.3        1 MOL1        -0.1858
      11    H5      22.119723   17.924734   23.882064 H          1 MOL1         0.0752
      12    H6      21.921640   19.325038   22.857942 H          1 MOL1         0.0752
      13    C5      20.232027   17.938267   22.824091 C.3        1 MOL1        -0.1858
      14    H7      20.650423   17.342895   22.001428 H          1 MOL1         0.0752
      15    H8      19.795996   17.205677   23.515540 H          1 MOL1         0.0752
      16    C6      19.089463   18.835350   22.275120 C.3        1 MOL1        -0.1858
      17    H9      18.887293   19.675047   22.950418 H          1 MOL1         0.0752
      18    H10     18.168737   18.236324   22.275579 H          1 MOL1         0.0752
      19    C7      19.293597   19.353964   20.829780 C.3        1 MOL1        -0.1834
      20    H11     19.404132   18.503607   20.142931 H          1 MOL1         0.0752
      21    H12     18.379486   19.879644   20.521212 H          1 MOL1         0.0752
      22    C8      20.490023   20.312046   20.657474 C.3        1 MOL1        -0.2849
      23    H13     21.441413   19.771856   20.728579 H          1 MOL1         0.0764
      24    H14     20.458633   20.790281   19.670041 H          1 MOL1         0.0764
      25    H15     20.476350   21.102959   21.418645 H          1 MOL1         0.0764
@<TRIPOS>BOND
    1     1     2    1
    2     1     3    2
    3     1     4    1
    4     4     5    1
    5     4     6    1
    6     4     7    1
    7     7     8    1
    8     7     9    1
    9     7    10    1
   10    10    11    1
   11    10    12    1
   12    10    13    1
   13    13    14    1
   14    13    15    1
   15    13    16    1
   16    16    17    1
   17    16    18    1
   18    16    19    1
   19    19    20    1
   20    19    21    1
   21    19    22    1
   22    22    23    1
   23    22    24    1
   24    22    25    1
@<TRIPOS>SUBSTRUCTURE
       1 MOL1            1 RESIDUE      1      MOL     
@<SCITEGIC>MOL_PROPERTY
VM2 Rank
SciTegic.value.IntegerValue
157

@<SCITEGIC>MOL_PROPERTY
Conf_Id
SciTegic.value.IntegerValue
1324

@<SCITEGIC>MOL_PROPERTY
Probability
SciTegic.value.DoubleValue
0.00

@<SCITEGIC>MOL_PROPERTY
Sum Probability
SciTegic.value.DoubleValue
99.98

@<SCITEGIC>MOL_PROPERTY
Delta G
SciTegic.value.DoubleValue
5.626

@<SCITEGIC>MOL_PROPERTY
G
SciTegic.value.DoubleValue
-2.337

@<SCITEGIC>MOL_PROPERTY
E
SciTegic.value.DoubleValue
-26.933

@<SCITEGIC>MOL_PROPERTY
-TS
SciTegic.value.DoubleValue
24.596

@<SCITEGIC>MOL_PROPERTY
U+W
SciTegic.value.DoubleValue
-47.500

@<SCITEGIC>MOL_PROPERTY
U
SciTegic.value.DoubleValue
12.179

@<SCITEGIC>MOL_PROPERTY
W
SciTegic.value.DoubleValue
-59.679

@<SCITEGIC>MOL_PROPERTY
W(PB)
SciTegic.value.DoubleValue
-62.055

@<SCITEGIC>MOL_PROPERTY
W(SA)
SciTegic.value.DoubleValue
2.376

@<SCITEGIC>MOL_PROPERTY
Valence
SciTegic.value.DoubleValue
11.760

@<SCITEGIC>MOL_PROPERTY
Coulomb
SciTegic.value.DoubleValue
-0.592

@<SCITEGIC>MOL_PROPERTY
VdW
SciTegic.value.DoubleValue
1.011

@<SCITEGIC>MOL_PROPERTY
VdW6
SciTegic.value.DoubleValue
-10.896

@<SCITEGIC>MOL_PROPERTY
VdW12
SciTegic.value.DoubleValue
11.907

@<SCITEGIC>MOL_PROPERTY
Bond
SciTegic.value.DoubleValue
0.319

@<SCITEGIC>MOL_PROPERTY
Angle
SciTegic.value.DoubleValue
4.243

@<SCITEGIC>MOL_PROPERTY
Pdih
SciTegic.value.DoubleValue
7.197

@<SCITEGIC>MOL_PROPERTY
Idih
SciTegic.value.DoubleValue
0.001

@<SCITEGIC>MOL_PROPERTY
Tether
SciTegic.value.DoubleValue
0.000

@<TRIPOS>MOLECULE
guest-8_vm2.mol2 : vm2 ligand conformer 158
          25          24           1
SMALL
USER_CHARGES
 
@<TRIPOS>ATOM
       1    C1      20.141040   18.899934   26.786568 C.2        1 MOL1         0.6168
       2    O1      21.194078   18.316875   26.955286 O.co2      1 MOL1        -0.6703
       3    O2      19.054061   18.386394   26.966543 O.co2      1 MOL1        -0.6703
       4    C2      20.189970   20.375001   26.392812 C.3        1 MOL1        -0.1963
       5    H1      21.237673   20.692232   26.326213 H          1 MOL1         0.0750
       6    H2      19.746833   20.930475   27.227403 H          1 MOL1         0.0750
       7    C3      19.432049   20.738666   25.084814 C.3        1 MOL1        -0.1860
       8    H3      18.460411   20.226019   25.058777 H          1 MOL1         0.0752
       9    H4      19.205170   21.812947   25.113727 H          1 MOL1         0.0752
      10    C4      20.215022   20.459244   23.777631 C.3        1 MOL1        -0.1858
      11    H5      21.185309   20.972948   23.810017 H          1 MOL1         0.0752
      12    H6      19.652259   20.911244   22.951239 H          1 MOL1         0.0752
      13    C5      20.431182   18.955446   23.481481 C.3        1 MOL1        -0.1858
      14    H7      21.037544   18.512766   24.280757 H          1 MOL1         0.0752
      15    H8      19.468206   18.428818   23.501770 H          1 MOL1         0.0752
      16    C6      21.157821   18.684971   22.139136 C.3        1 MOL1        -0.1858
      17    H9      21.335227   17.604580   22.050085 H          1 MOL1         0.0752
      18    H10     22.151292   19.152450   22.172385 H          1 MOL1         0.0752
      19    C7      20.418904   19.172409   20.867790 C.3        1 MOL1        -0.1834
      20    H11     20.336498   20.267091   20.871683 H          1 MOL1         0.0752
      21    H12     21.030340   18.919315   19.990797 H          1 MOL1         0.0752
      22    C8      19.018873   18.545060   20.693937 C.3        1 MOL1        -0.2849
      23    H13     19.074498   17.448900   20.711614 H          1 MOL1         0.0764
      24    H14     18.335916   18.868893   21.489450 H          1 MOL1         0.0764
      25    H15     18.578881   18.846717   19.734689 H          1 MOL1         0.0764
@<TRIPOS>BOND
    1     1     2    1
    2     1     3    2
    3     1     4    1
    4     4     5    1
    5     4     6    1
    6     4     7    1
    7     7     8    1
    8     7     9    1
    9     7    10    1
   10    10    11    1
   11    10    12    1
   12    10    13    1
   13    13    14    1
   14    13    15    1
   15    13    16    1
   16    16    17    1
   17    16    18    1
   18    16    19    1
   19    19    20    1
   20    19    21    1
   21    19    22    1
   22    22    23    1
   23    22    24    1
   24    22    25    1
@<TRIPOS>SUBSTRUCTURE
       1 MOL1            1 RESIDUE      1      MOL     
@<SCITEGIC>MOL_PROPERTY
VM2 Rank
SciTegic.value.IntegerValue
158

@<SCITEGIC>MOL_PROPERTY
Conf_Id
SciTegic.value.IntegerValue
1332

@<SCITEGIC>MOL_PROPERTY
Probability
SciTegic.value.DoubleValue
0.00

@<SCITEGIC>MOL_PROPERTY
Sum Probability
SciTegic.value.DoubleValue
99.98

@<SCITEGIC>MOL_PROPERTY
Delta G
SciTegic.value.DoubleValue
5.679

@<SCITEGIC>MOL_PROPERTY
G
SciTegic.value.DoubleValue
-2.283

@<SCITEGIC>MOL_PROPERTY
E
SciTegic.value.DoubleValue
-27.597

@<SCITEGIC>MOL_PROPERTY
-TS
SciTegic.value.DoubleValue
25.314

@<SCITEGIC>MOL_PROPERTY
U+W
SciTegic.value.DoubleValue
-48.164

@<SCITEGIC>MOL_PROPERTY
U
SciTegic.value.DoubleValue
12.473

@<SCITEGIC>MOL_PROPERTY
W
SciTegic.value.DoubleValue
-60.637

@<SCITEGIC>MOL_PROPERTY
W(PB)
SciTegic.value.DoubleValue
-63.028

@<SCITEGIC>MOL_PROPERTY
W(SA)
SciTegic.value.DoubleValue
2.391

@<SCITEGIC>MOL_PROPERTY
Valence
SciTegic.value.DoubleValue
10.550

@<SCITEGIC>MOL_PROPERTY
Coulomb
SciTegic.value.DoubleValue
1.041

@<SCITEGIC>MOL_PROPERTY
VdW
SciTegic.value.DoubleValue
0.881

@<SCITEGIC>MOL_PROPERTY
VdW6
SciTegic.value.DoubleValue
-11.389

@<SCITEGIC>MOL_PROPERTY
VdW12
SciTegic.value.DoubleValue
12.271

@<SCITEGIC>MOL_PROPERTY
Bond
SciTegic.value.DoubleValue
0.286

@<SCITEGIC>MOL_PROPERTY
Angle
SciTegic.value.DoubleValue
3.974

@<SCITEGIC>MOL_PROPERTY
Pdih
SciTegic.value.DoubleValue
6.285

@<SCITEGIC>MOL_PROPERTY
Idih
SciTegic.value.DoubleValue
0.006

@<SCITEGIC>MOL_PROPERTY
Tether
SciTegic.value.DoubleValue
0.000

@<TRIPOS>MOLECULE
guest-8_vm2.mol2 : vm2 ligand conformer 159
          25          24           1
SMALL
USER_CHARGES
 
@<TRIPOS>ATOM
       1    C1      20.513445   19.699309   26.524736 C.2        1 MOL1         0.6168
       2    O1      21.486569   20.356954   26.212100 O.co2      1 MOL1        -0.6703
       3    O2      19.567372   20.151882   27.139495 O.co2      1 MOL1        -0.6703
       4    C2      20.513174   18.209489   26.187632 C.3        1 MOL1        -0.1963
       5    H1      20.522398   17.676402   27.145298 H          1 MOL1         0.0750
       6    H2      21.452628   17.959550   25.679911 H          1 MOL1         0.0750
       7    C3      19.300743   17.719258   25.346930 C.3        1 MOL1        -0.1860
       8    H3      19.219997   16.630932   25.470880 H          1 MOL1         0.0752
       9    H4      18.369400   18.139424   25.751348 H          1 MOL1         0.0752
      10    C4      19.403407   18.015168   23.830120 C.3        1 MOL1        -0.1858
      11    H5      18.583887   17.490314   23.320708 H          1 MOL1         0.0752
      12    H6      20.336345   17.587720   23.439649 H          1 MOL1         0.0752
      13    C5      19.325340   19.519710   23.476600 C.3        1 MOL1        -0.1858
      14    H7      18.473122   19.968962   24.004374 H          1 MOL1         0.0752
      15    H8      20.219343   20.039633   23.841311 H          1 MOL1         0.0752
      16    C6      19.159654   19.785459   21.958996 C.3        1 MOL1        -0.1858
      17    H9      19.071464   20.868540   21.798531 H          1 MOL1         0.0752
      18    H10     18.208281   19.350951   21.623304 H          1 MOL1         0.0752
      19    C7      20.300727   19.237896   21.066155 C.3        1 MOL1        -0.1834
      20    H11     20.345700   18.143168   21.138689 H          1 MOL1         0.0752
      21    H12     20.063473   19.463387   20.017423 H          1 MOL1         0.0752
      22    C8      21.682569   19.838875   21.403238 C.3        1 MOL1        -0.2849
      23    H13     22.439244   19.487517   20.690028 H          1 MOL1         0.0764
      24    H14     21.655955   20.935258   21.356750 H          1 MOL1         0.0764
      25    H15     22.010676   19.545027   22.408511 H          1 MOL1         0.0764
@<TRIPOS>BOND
    1     1     2    1
    2     1     3    2
    3     1     4    1
    4     4     5    1
    5     4     6    1
    6     4     7    1
    7     7     8    1
    8     7     9    1
    9     7    10    1
   10    10    11    1
   11    10    12    1
   12    10    13    1
   13    13    14    1
   14    13    15    1
   15    13    16    1
   16    16    17    1
   17    16    18    1
   18    16    19    1
   19    19    20    1
   20    19    21    1
   21    19    22    1
   22    22    23    1
   23    22    24    1
   24    22    25    1
@<TRIPOS>SUBSTRUCTURE
       1 MOL1            1 RESIDUE      1      MOL     
@<SCITEGIC>MOL_PROPERTY
VM2 Rank
SciTegic.value.IntegerValue
159

@<SCITEGIC>MOL_PROPERTY
Conf_Id
SciTegic.value.IntegerValue
551

@<SCITEGIC>MOL_PROPERTY
Probability
SciTegic.value.DoubleValue
0.00

@<SCITEGIC>MOL_PROPERTY
Sum Probability
SciTegic.value.DoubleValue
99.98

@<SCITEGIC>MOL_PROPERTY
Delta G
SciTegic.value.DoubleValue
5.862

@<SCITEGIC>MOL_PROPERTY
G
SciTegic.value.DoubleValue
-2.100

@<SCITEGIC>MOL_PROPERTY
E
SciTegic.value.DoubleValue
-27.543

@<SCITEGIC>MOL_PROPERTY
-TS
SciTegic.value.DoubleValue
25.442

@<SCITEGIC>MOL_PROPERTY
U+W
SciTegic.value.DoubleValue
-48.110

@<SCITEGIC>MOL_PROPERTY
U
SciTegic.value.DoubleValue
12.721

@<SCITEGIC>MOL_PROPERTY
W
SciTegic.value.DoubleValue
-60.831

@<SCITEGIC>MOL_PROPERTY
W(PB)
SciTegic.value.DoubleValue
-63.185

@<SCITEGIC>MOL_PROPERTY
W(SA)
SciTegic.value.DoubleValue
2.354

@<SCITEGIC>MOL_PROPERTY
Valence
SciTegic.value.DoubleValue
10.325

@<SCITEGIC>MOL_PROPERTY
Coulomb
SciTegic.value.DoubleValue
1.750

@<SCITEGIC>MOL_PROPERTY
VdW
SciTegic.value.DoubleValue
0.646

@<SCITEGIC>MOL_PROPERTY
VdW6
SciTegic.value.DoubleValue
-11.745

@<SCITEGIC>MOL_PROPERTY
VdW12
SciTegic.value.DoubleValue
12.390

@<SCITEGIC>MOL_PROPERTY
Bond
SciTegic.value.DoubleValue
0.275

@<SCITEGIC>MOL_PROPERTY
Angle
SciTegic.value.DoubleValue
3.728

@<SCITEGIC>MOL_PROPERTY
Pdih
SciTegic.value.DoubleValue
6.316

@<SCITEGIC>MOL_PROPERTY
Idih
SciTegic.value.DoubleValue
0.007

@<SCITEGIC>MOL_PROPERTY
Tether
SciTegic.value.DoubleValue
0.000

@<TRIPOS>MOLECULE
guest-8_vm2.mol2 : vm2 ligand conformer 160
          25          24           1
SMALL
USER_CHARGES
 
@<TRIPOS>ATOM
       1    C1      20.760600   19.488795   26.428205 C.2        1 MOL1         0.6168
       2    O1      21.809935   19.633294   25.832902 O.co2      1 MOL1        -0.6703
       3    O2      20.660592   18.867345   27.468318 O.co2      1 MOL1        -0.6703
       4    C2      19.510690   20.166450   25.870160 C.3        1 MOL1        -0.1963
       5    H1      19.784260   20.756013   24.988548 H          1 MOL1         0.0750
       6    H2      19.172062   20.883155   26.627056 H          1 MOL1         0.0750
       7    C3      18.349128   19.192005   25.536749 C.3        1 MOL1        -0.1860
       8    H3      18.074353   18.651788   26.453325 H          1 MOL1         0.0752
       9    H4      17.462418   19.773801   25.251191 H          1 MOL1         0.0752
      10    C4      18.657361   18.155890   24.425713 C.3        1 MOL1        -0.1858
      11    H5      17.812677   17.454480   24.388517 H          1 MOL1         0.0752
      12    H6      19.533017   17.550867   24.698588 H          1 MOL1         0.0752
      13    C5      18.834304   18.762973   23.010411 C.3        1 MOL1        -0.1858
      14    H7      18.372378   18.082971   22.281599 H          1 MOL1         0.0752
      15    H8      18.285096   19.711176   22.933449 H          1 MOL1         0.0752
      16    C6      20.313219   18.965815   22.606700 C.3        1 MOL1        -0.1858
      17    H9      20.839857   18.002925   22.653069 H          1 MOL1         0.0752
      18    H10     20.815168   19.631163   23.318830 H          1 MOL1         0.0752
      19    C7      20.440916   19.552795   21.185062 C.3        1 MOL1        -0.1834
      20    H11     19.950344   18.885820   20.462688 H          1 MOL1         0.0752
      21    H12     19.917910   20.517862   21.135392 H          1 MOL1         0.0752
      22    C8      21.916256   19.748638   20.781779 C.3        1 MOL1        -0.2849
      23    H13     22.455999   18.792652   20.791334 H          1 MOL1         0.0764
      24    H14     21.988811   20.169241   19.770435 H          1 MOL1         0.0764
      25    H15     22.423680   20.435180   21.472234 H          1 MOL1         0.0764
@<TRIPOS>BOND
    1     1     2    1
    2     1     3    2
    3     1     4    1
    4     4     5    1
    5     4     6    1
    6     4     7    1
    7     7     8    1
    8     7     9    1
    9     7    10    1
   10    10    11    1
   11    10    12    1
   12    10    13    1
   13    13    14    1
   14    13    15    1
   15    13    16    1
   16    16    17    1
   17    16    18    1
   18    16    19    1
   19    19    20    1
   20    19    21    1
   21    19    22    1
   22    22    23    1
   23    22    24    1
   24    22    25    1
@<TRIPOS>SUBSTRUCTURE
       1 MOL1            1 RESIDUE      1      MOL     
@<SCITEGIC>MOL_PROPERTY
VM2 Rank
SciTegic.value.IntegerValue
160

@<SCITEGIC>MOL_PROPERTY
Conf_Id
SciTegic.value.IntegerValue
215

@<SCITEGIC>MOL_PROPERTY
Probability
SciTegic.value.DoubleValue
0.00

@<SCITEGIC>MOL_PROPERTY
Sum Probability
SciTegic.value.DoubleValue
99.98

@<SCITEGIC>MOL_PROPERTY
Delta G
SciTegic.value.DoubleValue
5.972

@<SCITEGIC>MOL_PROPERTY
G
SciTegic.value.DoubleValue
-1.991

@<SCITEGIC>MOL_PROPERTY
E
SciTegic.value.DoubleValue
-27.118

@<SCITEGIC>MOL_PROPERTY
-TS
SciTegic.value.DoubleValue
25.127

@<SCITEGIC>MOL_PROPERTY
U+W
SciTegic.value.DoubleValue
-47.685

@<SCITEGIC>MOL_PROPERTY
U
SciTegic.value.DoubleValue
13.358

@<SCITEGIC>MOL_PROPERTY
W
SciTegic.value.DoubleValue
-61.043

@<SCITEGIC>MOL_PROPERTY
W(PB)
SciTegic.value.DoubleValue
-63.441

@<SCITEGIC>MOL_PROPERTY
W(SA)
SciTegic.value.DoubleValue
2.397

@<SCITEGIC>MOL_PROPERTY
Valence
SciTegic.value.DoubleValue
11.157

@<SCITEGIC>MOL_PROPERTY
Coulomb
SciTegic.value.DoubleValue
1.807

@<SCITEGIC>MOL_PROPERTY
VdW
SciTegic.value.DoubleValue
0.394

@<SCITEGIC>MOL_PROPERTY
VdW6
SciTegic.value.DoubleValue
-10.846

@<SCITEGIC>MOL_PROPERTY
VdW12
SciTegic.value.DoubleValue
11.240

@<SCITEGIC>MOL_PROPERTY
Bond
SciTegic.value.DoubleValue
0.228

@<SCITEGIC>MOL_PROPERTY
Angle
SciTegic.value.DoubleValue
3.384

@<SCITEGIC>MOL_PROPERTY
Pdih
SciTegic.value.DoubleValue
7.541

@<SCITEGIC>MOL_PROPERTY
Idih
SciTegic.value.DoubleValue
0.004

@<SCITEGIC>MOL_PROPERTY
Tether
SciTegic.value.DoubleValue
0.000

@<TRIPOS>MOLECULE
guest-8_vm2.mol2 : vm2 ligand conformer 161
          25          24           1
SMALL
USER_CHARGES
 
@<TRIPOS>ATOM
       1    C1      20.538905   19.308916   26.985408 C.2        1 MOL1         0.6168
       2    O1      21.694436   19.682810   26.943899 O.co2      1 MOL1        -0.6703
       3    O2      20.071814   18.667590   27.905983 O.co2      1 MOL1        -0.6703
       4    C2      19.629475   19.646580   25.809468 C.3        1 MOL1        -0.1963
       5    H1      19.955087   20.610417   25.402063 H          1 MOL1         0.0750
       6    H2      18.611408   19.781404   26.193513 H          1 MOL1         0.0750
       7    C3      19.646008   18.556912   24.706540 C.3        1 MOL1        -0.1860
       8    H3      20.664391   18.456360   24.309669 H          1 MOL1         0.0752
       9    H4      19.400399   17.588372   25.163255 H          1 MOL1         0.0752
      10    C4      18.645022   18.827805   23.554750 C.3        1 MOL1        -0.1858
      11    H5      17.628338   18.844499   23.970137 H          1 MOL1         0.0752
      12    H6      18.660076   17.984920   22.852886 H          1 MOL1         0.0752
      13    C5      18.878437   20.147072   22.775507 C.3        1 MOL1        -0.1858
      14    H7      18.107940   20.235185   21.997715 H          1 MOL1         0.0752
      15    H8      18.707217   20.994627   23.451754 H          1 MOL1         0.0752
      16    C6      20.273458   20.314290   22.116749 C.3        1 MOL1        -0.1858
      17    H9      21.069207   20.269088   22.871797 H          1 MOL1         0.0752
      18    H10     20.316522   21.333620   21.709648 H          1 MOL1         0.0752
      19    C7      20.569024   19.333057   20.954019 C.3        1 MOL1        -0.1834
      20    H11     19.639898   19.075826   20.427244 H          1 MOL1         0.0752
      21    H12     21.202816   19.848730   20.219435 H          1 MOL1         0.0752
      22    C8      21.306422   18.048967   21.393676 C.3        1 MOL1        -0.2849
      23    H13     21.554765   17.432482   20.520205 H          1 MOL1         0.0764
      24    H14     22.243882   18.292832   21.910024 H          1 MOL1         0.0764
      25    H15     20.695963   17.437509   22.066580 H          1 MOL1         0.0764
@<TRIPOS>BOND
    1     1     2    1
    2     1     3    2
    3     1     4    1
    4     4     5    1
    5     4     6    1
    6     4     7    1
    7     7     8    1
    8     7     9    1
    9     7    10    1
   10    10    11    1
   11    10    12    1
   12    10    13    1
   13    13    14    1
   14    13    15    1
   15    13    16    1
   16    16    17    1
   17    16    18    1
   18    16    19    1
   19    19    20    1
   20    19    21    1
   21    19    22    1
   22    22    23    1
   23    22    24    1
   24    22    25    1
@<TRIPOS>SUBSTRUCTURE
       1 MOL1            1 RESIDUE      1      MOL     
@<SCITEGIC>MOL_PROPERTY
VM2 Rank
SciTegic.value.IntegerValue
161

@<SCITEGIC>MOL_PROPERTY
Conf_Id
SciTegic.value.IntegerValue
799

@<SCITEGIC>MOL_PROPERTY
Probability
SciTegic.value.DoubleValue
0.00

@<SCITEGIC>MOL_PROPERTY
Sum Probability
SciTegic.value.DoubleValue
99.98

@<SCITEGIC>MOL_PROPERTY
Delta G
SciTegic.value.DoubleValue
5.972

@<SCITEGIC>MOL_PROPERTY
G
SciTegic.value.DoubleValue
-1.990

@<SCITEGIC>MOL_PROPERTY
E
SciTegic.value.DoubleValue
-27.416

@<SCITEGIC>MOL_PROPERTY
-TS
SciTegic.value.DoubleValue
25.426

@<SCITEGIC>MOL_PROPERTY
U+W
SciTegic.value.DoubleValue
-47.984

@<SCITEGIC>MOL_PROPERTY
U
SciTegic.value.DoubleValue
12.079

@<SCITEGIC>MOL_PROPERTY
W
SciTegic.value.DoubleValue
-60.063

@<SCITEGIC>MOL_PROPERTY
W(PB)
SciTegic.value.DoubleValue
-62.444

@<SCITEGIC>MOL_PROPERTY
W(SA)
SciTegic.value.DoubleValue
2.381

@<SCITEGIC>MOL_PROPERTY
Valence
SciTegic.value.DoubleValue
11.557

@<SCITEGIC>MOL_PROPERTY
Coulomb
SciTegic.value.DoubleValue
-0.145

@<SCITEGIC>MOL_PROPERTY
VdW
SciTegic.value.DoubleValue
0.666

@<SCITEGIC>MOL_PROPERTY
VdW6
SciTegic.value.DoubleValue
-11.344

@<SCITEGIC>MOL_PROPERTY
VdW12
SciTegic.value.DoubleValue
12.010

@<SCITEGIC>MOL_PROPERTY
Bond
SciTegic.value.DoubleValue
0.285

@<SCITEGIC>MOL_PROPERTY
Angle
SciTegic.value.DoubleValue
4.008

@<SCITEGIC>MOL_PROPERTY
Pdih
SciTegic.value.DoubleValue
7.263

@<SCITEGIC>MOL_PROPERTY
Idih
SciTegic.value.DoubleValue
0.000

@<SCITEGIC>MOL_PROPERTY
Tether
SciTegic.value.DoubleValue
0.000

@<TRIPOS>MOLECULE
guest-8_vm2.mol2 : vm2 ligand conformer 162
          25          24           1
SMALL
USER_CHARGES
 
@<TRIPOS>ATOM
       1    C1      19.992025   19.958737   26.166827 C.2        1 MOL1         0.6168
       2    O1      20.947894   20.709520   26.182057 O.co2      1 MOL1        -0.6703
       3    O2      18.849780   20.329493   25.978157 O.co2      1 MOL1        -0.6703
       4    C2      20.224358   18.489661   26.514907 C.3        1 MOL1        -0.1963
       5    H1      19.637561   18.291654   27.419349 H          1 MOL1         0.0750
       6    H2      21.277275   18.349208   26.787453 H          1 MOL1         0.0750
       7    C3      19.810794   17.474206   25.412753 C.3        1 MOL1        -0.1860
       8    H3      19.639179   16.503628   25.897318 H          1 MOL1         0.0752
       9    H4      18.844082   17.761897   24.978596 H          1 MOL1         0.0752
      10    C4      20.869714   17.257644   24.300221 C.3        1 MOL1        -0.1858
      11    H5      20.534428   16.434507   23.654608 H          1 MOL1         0.0752
      12    H6      21.805160   16.914293   24.762503 H          1 MOL1         0.0752
      13    C5      21.177136   18.486673   23.409952 C.3        1 MOL1        -0.1858
      14    H7      21.598975   19.296703   24.018068 H          1 MOL1         0.0752
      15    H8      21.962761   18.205671   22.695587 H          1 MOL1         0.0752
      16    C6      19.949772   19.002587   22.623826 C.3        1 MOL1        -0.1858
      17    H9      19.179692   19.354737   23.322796 H          1 MOL1         0.0752
      18    H10     19.508782   18.178175   22.047384 H          1 MOL1         0.0752
      19    C7      20.327860   20.155875   21.670808 C.3        1 MOL1        -0.1834
      20    H11     20.764368   20.982291   22.249041 H          1 MOL1         0.0752
      21    H12     21.098380   19.817044   20.964604 H          1 MOL1         0.0752
      22    C8      19.103667   20.669604   20.886492 C.3        1 MOL1        -0.2849
      23    H13     18.664236   19.869765   20.276219 H          1 MOL1         0.0764
      24    H14     18.330008   21.044334   21.569566 H          1 MOL1         0.0764
      25    H15     19.390103   21.489961   20.215720 H          1 MOL1         0.0764
@<TRIPOS>BOND
    1     1     2    1
    2     1     3    2
    3     1     4    1
    4     4     5    1
    5     4     6    1
    6     4     7    1
    7     7     8    1
    8     7     9    1
    9     7    10    1
   10    10    11    1
   11    10    12    1
   12    10    13    1
   13    13    14    1
   14    13    15    1
   15    13    16    1
   16    16    17    1
   17    16    18    1
   18    16    19    1
   19    19    20    1
   20    19    21    1
   21    19    22    1
   22    22    23    1
   23    22    24    1
   24    22    25    1
@<TRIPOS>SUBSTRUCTURE
       1 MOL1            1 RESIDUE      1      MOL     
@<SCITEGIC>MOL_PROPERTY
VM2 Rank
SciTegic.value.IntegerValue
162

@<SCITEGIC>MOL_PROPERTY
Conf_Id
SciTegic.value.IntegerValue
740

@<SCITEGIC>MOL_PROPERTY
Probability
SciTegic.value.DoubleValue
0.00

@<SCITEGIC>MOL_PROPERTY
Sum Probability
SciTegic.value.DoubleValue
99.99

@<SCITEGIC>MOL_PROPERTY
Delta G
SciTegic.value.DoubleValue
5.999

@<SCITEGIC>MOL_PROPERTY
G
SciTegic.value.DoubleValue
-1.964

@<SCITEGIC>MOL_PROPERTY
E
SciTegic.value.DoubleValue
-27.680

@<SCITEGIC>MOL_PROPERTY
-TS
SciTegic.value.DoubleValue
25.717

@<SCITEGIC>MOL_PROPERTY
U+W
SciTegic.value.DoubleValue
-48.248

@<SCITEGIC>MOL_PROPERTY
U
SciTegic.value.DoubleValue
13.046

@<SCITEGIC>MOL_PROPERTY
W
SciTegic.value.DoubleValue
-61.294

@<SCITEGIC>MOL_PROPERTY
W(PB)
SciTegic.value.DoubleValue
-63.665

@<SCITEGIC>MOL_PROPERTY
W(SA)
SciTegic.value.DoubleValue
2.371

@<SCITEGIC>MOL_PROPERTY
Valence
SciTegic.value.DoubleValue
10.098

@<SCITEGIC>MOL_PROPERTY
Coulomb
SciTegic.value.DoubleValue
2.795

@<SCITEGIC>MOL_PROPERTY
VdW
SciTegic.value.DoubleValue
0.153

@<SCITEGIC>MOL_PROPERTY
VdW6
SciTegic.value.DoubleValue
-11.572

@<SCITEGIC>MOL_PROPERTY
VdW12
SciTegic.value.DoubleValue
11.725

@<SCITEGIC>MOL_PROPERTY
Bond
SciTegic.value.DoubleValue
0.240

@<SCITEGIC>MOL_PROPERTY
Angle
SciTegic.value.DoubleValue
3.695

@<SCITEGIC>MOL_PROPERTY
Pdih
SciTegic.value.DoubleValue
6.146

@<SCITEGIC>MOL_PROPERTY
Idih
SciTegic.value.DoubleValue
0.017

@<SCITEGIC>MOL_PROPERTY
Tether
SciTegic.value.DoubleValue
0.000

@<TRIPOS>MOLECULE
guest-8_vm2.mol2 : vm2 ligand conformer 163
          25          24           1
SMALL
USER_CHARGES
 
@<TRIPOS>ATOM
       1    C1      20.779898   18.930805   26.162355 C.2        1 MOL1         0.6168
       2    O1      21.753256   19.658775   26.177427 O.co2      1 MOL1        -0.6703
       3    O2      20.840356   17.732610   25.966269 O.co2      1 MOL1        -0.6703
       4    C2      19.423120   19.534742   26.519757 C.3        1 MOL1        -0.1963
       5    H1      19.562202   20.586385   26.797870 H          1 MOL1         0.0750
       6    H2      19.083328   19.014246   27.422631 H          1 MOL1         0.0750
       7    C3      18.330377   19.405620   25.421498 C.3        1 MOL1        -0.1860
       8    H3      18.355117   18.399894   24.981392 H          1 MOL1         0.0752
       9    H4      17.350634   19.489272   25.910762 H          1 MOL1         0.0752
      10    C4      18.391635   20.490881   24.314972 C.3        1 MOL1        -0.1858
      11    H5      18.305250   21.480721   24.783387 H          1 MOL1         0.0752
      12    H6      17.506825   20.384791   23.672600 H          1 MOL1         0.0752
      13    C5      19.654407   20.473473   23.419036 C.3        1 MOL1        -0.1858
      14    H7      19.584146   21.309274   22.709821 H          1 MOL1         0.0752
      15    H8      20.548911   20.666729   24.024360 H          1 MOL1         0.0752
      16    C6      19.830080   19.158790   22.624477 C.3        1 MOL1        -0.1858
      17    H9      18.916821   18.950544   22.050887 H          1 MOL1         0.0752
      18    H10     19.973098   18.319620   23.317970 H          1 MOL1         0.0752
      19    C7      21.037738   19.229690   21.666456 C.3        1 MOL1        -0.1834
      20    H11     20.907663   20.065863   20.965652 H          1 MOL1         0.0752
      21    H12     21.951773   19.433082   22.241805 H          1 MOL1         0.0752
      22    C8      21.212132   17.918613   20.873753 C.3        1 MOL1        -0.2849
      23    H13     20.322864   17.705701   20.266179 H          1 MOL1         0.0764
      24    H14     22.075757   17.985879   20.199517 H          1 MOL1         0.0764
      25    H15     21.375919   17.070204   21.551200 H          1 MOL1         0.0764
@<TRIPOS>BOND
    1     1     2    1
    2     1     3    2
    3     1     4    1
    4     4     5    1
    5     4     6    1
    6     4     7    1
    7     7     8    1
    8     7     9    1
    9     7    10    1
   10    10    11    1
   11    10    12    1
   12    10    13    1
   13    13    14    1
   14    13    15    1
   15    13    16    1
   16    16    17    1
   17    16    18    1
   18    16    19    1
   19    19    20    1
   20    19    21    1
   21    19    22    1
   22    22    23    1
   23    22    24    1
   24    22    25    1
@<TRIPOS>SUBSTRUCTURE
       1 MOL1            1 RESIDUE      1      MOL     
@<SCITEGIC>MOL_PROPERTY
VM2 Rank
SciTegic.value.IntegerValue
163

@<SCITEGIC>MOL_PROPERTY
Conf_Id
SciTegic.value.IntegerValue
91

@<SCITEGIC>MOL_PROPERTY
Probability
SciTegic.value.DoubleValue
0.00

@<SCITEGIC>MOL_PROPERTY
Sum Probability
SciTegic.value.DoubleValue
99.99

@<SCITEGIC>MOL_PROPERTY
Delta G
SciTegic.value.DoubleValue
6.028

@<SCITEGIC>MOL_PROPERTY
G
SciTegic.value.DoubleValue
-1.935

@<SCITEGIC>MOL_PROPERTY
E
SciTegic.value.DoubleValue
-27.651

@<SCITEGIC>MOL_PROPERTY
-TS
SciTegic.value.DoubleValue
25.716

@<SCITEGIC>MOL_PROPERTY
U+W
SciTegic.value.DoubleValue
-48.218

@<SCITEGIC>MOL_PROPERTY
U
SciTegic.value.DoubleValue
13.047

@<SCITEGIC>MOL_PROPERTY
W
SciTegic.value.DoubleValue
-61.265

@<SCITEGIC>MOL_PROPERTY
W(PB)
SciTegic.value.DoubleValue
-63.654

@<SCITEGIC>MOL_PROPERTY
W(SA)
SciTegic.value.DoubleValue
2.389

@<SCITEGIC>MOL_PROPERTY
Valence
SciTegic.value.DoubleValue
10.098

@<SCITEGIC>MOL_PROPERTY
Coulomb
SciTegic.value.DoubleValue
2.796

@<SCITEGIC>MOL_PROPERTY
VdW
SciTegic.value.DoubleValue
0.153

@<SCITEGIC>MOL_PROPERTY
VdW6
SciTegic.value.DoubleValue
-11.572

@<SCITEGIC>MOL_PROPERTY
VdW12
SciTegic.value.DoubleValue
11.725

@<SCITEGIC>MOL_PROPERTY
Bond
SciTegic.value.DoubleValue
0.240

@<SCITEGIC>MOL_PROPERTY
Angle
SciTegic.value.DoubleValue
3.695

@<SCITEGIC>MOL_PROPERTY
Pdih
SciTegic.value.DoubleValue
6.145

@<SCITEGIC>MOL_PROPERTY
Idih
SciTegic.value.DoubleValue
0.018

@<SCITEGIC>MOL_PROPERTY
Tether
SciTegic.value.DoubleValue
0.000

@<TRIPOS>MOLECULE
guest-8_vm2.mol2 : vm2 ligand conformer 164
          25          24           1
SMALL
USER_CHARGES
 
@<TRIPOS>ATOM
       1    C1      19.514051   19.409149   26.442603 C.2        1 MOL1         0.6168
       2    O1      19.716259   18.806931   27.479174 O.co2      1 MOL1        -0.6703
       3    O2      18.441391   19.418216   25.871913 O.co2      1 MOL1        -0.6703
       4    C2      20.654428   20.239492   25.856960 C.3        1 MOL1        -0.1963
       5    H1      20.916471   20.994532   26.606944 H          1 MOL1         0.0750
       6    H2      20.287856   20.788201   24.982770 H          1 MOL1         0.0750
       7    C3      21.922528   19.420255   25.495427 C.3        1 MOL1        -0.1860
       8    H3      22.721191   20.109718   25.190369 H          1 MOL1         0.0752
       9    H4      22.284855   18.920732   26.404628 H          1 MOL1         0.0752
      10    C4      21.723106   18.351711   24.390260 C.3        1 MOL1        -0.1858
      11    H5      20.938056   17.640605   24.682340 H          1 MOL1         0.0752
      12    H6      22.649080   17.763409   24.332590 H          1 MOL1         0.0752
      13    C5      21.437821   18.929262   22.980300 C.3        1 MOL1        -0.1858
      14    H7      21.860031   19.939509   22.892095 H          1 MOL1         0.0752
      15    H8      21.965584   18.312464   22.240047 H          1 MOL1         0.0752
      16    C6      19.936214   18.941736   22.611059 C.3        1 MOL1        -0.1858
      17    H9      19.370250   19.538895   23.335530 H          1 MOL1         0.0752
      18    H10     19.537544   17.919748   22.668148 H          1 MOL1         0.0752
      19    C7      19.702186   19.505578   21.193588 C.3        1 MOL1        -0.1834
      20    H11     20.096974   20.529229   21.133257 H          1 MOL1         0.0752
      21    H12     20.256783   18.905292   20.459136 H          1 MOL1         0.0752
      22    C8      18.205017   19.511670   20.824715 C.3        1 MOL1        -0.2849
      23    H13     17.630510   20.129286   21.527596 H          1 MOL1         0.0764
      24    H14     18.056298   19.917992   19.815866 H          1 MOL1         0.0764
      25    H15     17.791514   18.494857   20.845469 H          1 MOL1         0.0764
@<TRIPOS>BOND
    1     1     2    1
    2     1     3    2
    3     1     4    1
    4     4     5    1
    5     4     6    1
    6     4     7    1
    7     7     8    1
    8     7     9    1
    9     7    10    1
   10    10    11    1
   11    10    12    1
   12    10    13    1
   13    13    14    1
   14    13    15    1
   15    13    16    1
   16    16    17    1
   17    16    18    1
   18    16    19    1
   19    19    20    1
   20    19    21    1
   21    19    22    1
   22    22    23    1
   23    22    24    1
   24    22    25    1
@<TRIPOS>SUBSTRUCTURE
       1 MOL1            1 RESIDUE      1      MOL     
@<SCITEGIC>MOL_PROPERTY
VM2 Rank
SciTegic.value.IntegerValue
164

@<SCITEGIC>MOL_PROPERTY
Conf_Id
SciTegic.value.IntegerValue
159

@<SCITEGIC>MOL_PROPERTY
Probability
SciTegic.value.DoubleValue
0.00

@<SCITEGIC>MOL_PROPERTY
Sum Probability
SciTegic.value.DoubleValue
99.99

@<SCITEGIC>MOL_PROPERTY
Delta G
SciTegic.value.DoubleValue
6.045

@<SCITEGIC>MOL_PROPERTY
G
SciTegic.value.DoubleValue
-1.918

@<SCITEGIC>MOL_PROPERTY
E
SciTegic.value.DoubleValue
-27.045

@<SCITEGIC>MOL_PROPERTY
-TS
SciTegic.value.DoubleValue
25.128

@<SCITEGIC>MOL_PROPERTY
U+W
SciTegic.value.DoubleValue
-47.613

@<SCITEGIC>MOL_PROPERTY
U
SciTegic.value.DoubleValue
13.358

@<SCITEGIC>MOL_PROPERTY
W
SciTegic.value.DoubleValue
-60.971

@<SCITEGIC>MOL_PROPERTY
W(PB)
SciTegic.value.DoubleValue
-63.383

@<SCITEGIC>MOL_PROPERTY
W(SA)
SciTegic.value.DoubleValue
2.412

@<SCITEGIC>MOL_PROPERTY
Valence
SciTegic.value.DoubleValue
11.157

@<SCITEGIC>MOL_PROPERTY
Coulomb
SciTegic.value.DoubleValue
1.807

@<SCITEGIC>MOL_PROPERTY
VdW
SciTegic.value.DoubleValue
0.393

@<SCITEGIC>MOL_PROPERTY
VdW6
SciTegic.value.DoubleValue
-10.846

@<SCITEGIC>MOL_PROPERTY
VdW12
SciTegic.value.DoubleValue
11.239

@<SCITEGIC>MOL_PROPERTY
Bond
SciTegic.value.DoubleValue
0.228

@<SCITEGIC>MOL_PROPERTY
Angle
SciTegic.value.DoubleValue
3.384

@<SCITEGIC>MOL_PROPERTY
Pdih
SciTegic.value.DoubleValue
7.541

@<SCITEGIC>MOL_PROPERTY
Idih
SciTegic.value.DoubleValue
0.004

@<SCITEGIC>MOL_PROPERTY
Tether
SciTegic.value.DoubleValue
0.000

@<TRIPOS>MOLECULE
guest-8_vm2.mol2 : vm2 ligand conformer 165
          25          24           1
SMALL
USER_CHARGES
 
@<TRIPOS>ATOM
       1    C1      20.527759   19.221654   26.931798 C.2        1 MOL1         0.6168
       2    O1      21.481409   19.959904   26.781437 O.co2      1 MOL1        -0.6703
       3    O2      19.875499   19.166452   27.955973 O.co2      1 MOL1        -0.6703
       4    C2      20.140873   18.295063   25.782315 C.3        1 MOL1        -0.1963
       5    H1      20.011152   17.292098   26.205252 H          1 MOL1         0.0750
       6    H2      20.985640   18.234802   25.089316 H          1 MOL1         0.0750
       7    C3      18.838272   18.713554   25.045153 C.3        1 MOL1        -0.1860
       8    H3      18.520981   17.911051   24.365720 H          1 MOL1         0.0752
       9    H4      18.040342   18.806946   25.794920 H          1 MOL1         0.0752
      10    C4      18.945739   20.049472   24.264059 C.3        1 MOL1        -0.1858
      11    H5      19.656122   20.727988   24.755635 H          1 MOL1         0.0752
      12    H6      17.970648   20.552682   24.316113 H          1 MOL1         0.0752
      13    C5      19.309331   19.896289   22.765693 C.3        1 MOL1        -0.1858
      14    H7      18.541845   19.287539   22.269921 H          1 MOL1         0.0752
      15    H8      19.266310   20.889302   22.298156 H          1 MOL1         0.0752
      16    C6      20.706750   19.283488   22.511845 C.3        1 MOL1        -0.1858
      17    H9      20.710542   18.229390   22.817514 H          1 MOL1         0.0752
      18    H10     21.445067   19.800339   23.140216 H          1 MOL1         0.0752
      19    C7      21.158683   19.380851   21.036130 C.3        1 MOL1        -0.1834
      20    H11     21.177356   20.433670   20.722357 H          1 MOL1         0.0752
      21    H12     22.192067   19.015804   20.958619 H          1 MOL1         0.0752
      22    C8      20.268684   18.567273   20.071597 C.3        1 MOL1        -0.2849
      23    H13     19.247787   18.967756   20.035783 H          1 MOL1         0.0764
      24    H14     20.675405   18.601159   19.052637 H          1 MOL1         0.0764
      25    H15     20.215361   17.514990   20.379748 H          1 MOL1         0.0764
@<TRIPOS>BOND
    1     1     2    1
    2     1     3    2
    3     1     4    1
    4     4     5    1
    5     4     6    1
    6     4     7    1
    7     7     8    1
    8     7     9    1
    9     7    10    1
   10    10    11    1
   11    10    12    1
   12    10    13    1
   13    13    14    1
   14    13    15    1
   15    13    16    1
   16    16    17    1
   17    16    18    1
   18    16    19    1
   19    19    20    1
   20    19    21    1
   21    19    22    1
   22    22    23    1
   23    22    24    1
   24    22    25    1
@<TRIPOS>SUBSTRUCTURE
       1 MOL1            1 RESIDUE      1      MOL     
@<SCITEGIC>MOL_PROPERTY
VM2 Rank
SciTegic.value.IntegerValue
165

@<SCITEGIC>MOL_PROPERTY
Conf_Id
SciTegic.value.IntegerValue
1353

@<SCITEGIC>MOL_PROPERTY
Probability
SciTegic.value.DoubleValue
0.00

@<SCITEGIC>MOL_PROPERTY
Sum Probability
SciTegic.value.DoubleValue
99.99

@<SCITEGIC>MOL_PROPERTY
Delta G
SciTegic.value.DoubleValue
6.241

@<SCITEGIC>MOL_PROPERTY
G
SciTegic.value.DoubleValue
-1.722

@<SCITEGIC>MOL_PROPERTY
E
SciTegic.value.DoubleValue
-26.981

@<SCITEGIC>MOL_PROPERTY
-TS
SciTegic.value.DoubleValue
25.260

@<SCITEGIC>MOL_PROPERTY
U+W
SciTegic.value.DoubleValue
-47.549

@<SCITEGIC>MOL_PROPERTY
U
SciTegic.value.DoubleValue
12.456

@<SCITEGIC>MOL_PROPERTY
W
SciTegic.value.DoubleValue
-60.006

@<SCITEGIC>MOL_PROPERTY
W(PB)
SciTegic.value.DoubleValue
-62.416

@<SCITEGIC>MOL_PROPERTY
W(SA)
SciTegic.value.DoubleValue
2.410

@<SCITEGIC>MOL_PROPERTY
Valence
SciTegic.value.DoubleValue
11.319

@<SCITEGIC>MOL_PROPERTY
Coulomb
SciTegic.value.DoubleValue
0.249

@<SCITEGIC>MOL_PROPERTY
VdW
SciTegic.value.DoubleValue
0.888

@<SCITEGIC>MOL_PROPERTY
VdW6
SciTegic.value.DoubleValue
-10.932

@<SCITEGIC>MOL_PROPERTY
VdW12
SciTegic.value.DoubleValue
11.819

@<SCITEGIC>MOL_PROPERTY
Bond
SciTegic.value.DoubleValue
0.269

@<SCITEGIC>MOL_PROPERTY
Angle
SciTegic.value.DoubleValue
3.445

@<SCITEGIC>MOL_PROPERTY
Pdih
SciTegic.value.DoubleValue
7.604

@<SCITEGIC>MOL_PROPERTY
Idih
SciTegic.value.DoubleValue
0.001

@<SCITEGIC>MOL_PROPERTY
Tether
SciTegic.value.DoubleValue
0.000

@<TRIPOS>MOLECULE
guest-8_vm2.mol2 : vm2 ligand conformer 166
          25          24           1
SMALL
USER_CHARGES
 
@<TRIPOS>ATOM
       1    C1      19.529085   19.431343   26.673312 C.2        1 MOL1         0.6168
       2    O1      19.934752   19.234235   27.801857 O.co2      1 MOL1        -0.6703
       3    O2      18.641137   20.216157   26.404584 O.co2      1 MOL1        -0.6703
       4    C2      20.186584   18.667967   25.529503 C.3        1 MOL1        -0.1963
       5    H1      19.415728   18.465989   24.777906 H          1 MOL1         0.0750
       6    H2      20.524219   17.698682   25.914937 H          1 MOL1         0.0750
       7    C3      21.378289   19.437664   24.902600 C.3        1 MOL1        -0.1860
       8    H3      21.040729   20.410961   24.524668 H          1 MOL1         0.0752
       9    H4      22.106067   19.659650   25.695139 H          1 MOL1         0.0752
      10    C4      22.097818   18.651434   23.780379 C.3        1 MOL1        -0.1858
      11    H5      22.496050   17.719946   24.205172 H          1 MOL1         0.0752
      12    H6      22.972831   19.228431   23.451606 H          1 MOL1         0.0752
      13    C5      21.236169   18.299250   22.538931 C.3        1 MOL1        -0.1858
      14    H7      21.864980   17.693702   21.872289 H          1 MOL1         0.0752
      15    H8      20.404523   17.643989   22.821965 H          1 MOL1         0.0752
      16    C6      20.735498   19.524348   21.726675 C.3        1 MOL1        -0.1858
      17    H9      20.738953   19.262450   20.659847 H          1 MOL1         0.0752
      18    H10     21.454354   20.348297   21.830491 H          1 MOL1         0.0752
      19    C7      19.316747   20.030226   22.090570 C.3        1 MOL1        -0.1834
      20    H11     19.246286   20.259161   23.160452 H          1 MOL1         0.0752
      21    H12     19.141554   20.979085   21.565426 H          1 MOL1         0.0752
      22    C8      18.196920   19.041376   21.697589 C.3        1 MOL1        -0.2849
      23    H13     17.211208   19.482180   21.894718 H          1 MOL1         0.0764
      24    H14     18.248063   18.793668   20.629445 H          1 MOL1         0.0764
      25    H15     18.262281   18.108465   22.270261 H          1 MOL1         0.0764
@<TRIPOS>BOND
    1     1     2    1
    2     1     3    2
    3     1     4    1
    4     4     5    1
    5     4     6    1
    6     4     7    1
    7     7     8    1
    8     7     9    1
    9     7    10    1
   10    10    11    1
   11    10    12    1
   12    10    13    1
   13    13    14    1
   14    13    15    1
   15    13    16    1
   16    16    17    1
   17    16    18    1
   18    16    19    1
   19    19    20    1
   20    19    21    1
   21    19    22    1
   22    22    23    1
   23    22    24    1
   24    22    25    1
@<TRIPOS>SUBSTRUCTURE
       1 MOL1            1 RESIDUE      1      MOL     
@<SCITEGIC>MOL_PROPERTY
VM2 Rank
SciTegic.value.IntegerValue
166

@<SCITEGIC>MOL_PROPERTY
Conf_Id
SciTegic.value.IntegerValue
1083

@<SCITEGIC>MOL_PROPERTY
Probability
SciTegic.value.DoubleValue
0.00

@<SCITEGIC>MOL_PROPERTY
Sum Probability
SciTegic.value.DoubleValue
99.99

@<SCITEGIC>MOL_PROPERTY
Delta G
SciTegic.value.DoubleValue
6.256

@<SCITEGIC>MOL_PROPERTY
G
SciTegic.value.DoubleValue
-1.707

@<SCITEGIC>MOL_PROPERTY
E
SciTegic.value.DoubleValue
-27.165

@<SCITEGIC>MOL_PROPERTY
-TS
SciTegic.value.DoubleValue
25.458

@<SCITEGIC>MOL_PROPERTY
U+W
SciTegic.value.DoubleValue
-47.733

@<SCITEGIC>MOL_PROPERTY
U
SciTegic.value.DoubleValue
12.724

@<SCITEGIC>MOL_PROPERTY
W
SciTegic.value.DoubleValue
-60.457

@<SCITEGIC>MOL_PROPERTY
W(PB)
SciTegic.value.DoubleValue
-62.797

@<SCITEGIC>MOL_PROPERTY
W(SA)
SciTegic.value.DoubleValue
2.340

@<SCITEGIC>MOL_PROPERTY
Valence
SciTegic.value.DoubleValue
11.802

@<SCITEGIC>MOL_PROPERTY
Coulomb
SciTegic.value.DoubleValue
0.382

@<SCITEGIC>MOL_PROPERTY
VdW
SciTegic.value.DoubleValue
0.540

@<SCITEGIC>MOL_PROPERTY
VdW6
SciTegic.value.DoubleValue
-11.531

@<SCITEGIC>MOL_PROPERTY
VdW12
SciTegic.value.DoubleValue
12.070

@<SCITEGIC>MOL_PROPERTY
Bond
SciTegic.value.DoubleValue
0.296

@<SCITEGIC>MOL_PROPERTY
Angle
SciTegic.value.DoubleValue
3.953

@<SCITEGIC>MOL_PROPERTY
Pdih
SciTegic.value.DoubleValue
7.553

@<SCITEGIC>MOL_PROPERTY
Idih
SciTegic.value.DoubleValue
0.001

@<SCITEGIC>MOL_PROPERTY
Tether
SciTegic.value.DoubleValue
0.000

@<TRIPOS>MOLECULE
guest-8_vm2.mol2 : vm2 ligand conformer 167
          25          24           1
SMALL
USER_CHARGES
 
@<TRIPOS>ATOM
       1    C1      19.739352   19.656040   26.871218 C.2        1 MOL1         0.6168
       2    O1      19.969982   19.041850   27.894229 O.co2      1 MOL1        -0.6703
       3    O2      18.744162   20.332486   26.701986 O.co2      1 MOL1        -0.6703
       4    C2      20.746253   19.557736   25.730790 C.3        1 MOL1        -0.1963
       5    H1      21.747280   19.467594   26.168896 H          1 MOL1         0.0750
       6    H2      20.717412   20.504070   25.180179 H          1 MOL1         0.0750
       7    C3      20.465388   18.359719   24.786068 C.3        1 MOL1        -0.1860
       8    H3      20.437700   17.442079   25.389608 H          1 MOL1         0.0752
       9    H4      19.465454   18.466167   24.350429 H          1 MOL1         0.0752
      10    C4      21.533180   18.184211   23.676202 C.3        1 MOL1        -0.1858
      11    H5      21.394373   17.210338   23.187544 H          1 MOL1         0.0752
      12    H6      22.519275   18.134842   24.157832 H          1 MOL1         0.0752
      13    C5      21.563549   19.300651   22.597345 C.3        1 MOL1        -0.1858
      14    H7      21.277802   20.270933   23.019100 H          1 MOL1         0.0752
      15    H8      22.606877   19.422516   22.276231 H          1 MOL1         0.0752
      16    C6      20.729646   18.997808   21.324261 C.3        1 MOL1        -0.1858
      17    H9      21.089958   18.060602   20.878851 H          1 MOL1         0.0752
      18    H10     20.933501   19.779991   20.580439 H          1 MOL1         0.0752
      19    C7      19.198663   18.897324   21.522976 C.3        1 MOL1        -0.1834
      20    H11     18.738720   18.642969   20.558276 H          1 MOL1         0.0752
      21    H12     18.958767   18.065836   22.197361 H          1 MOL1         0.0752
      22    C8      18.562823   20.206174   22.040924 C.3        1 MOL1        -0.2849
      23    H13     18.792771   21.045292   21.371783 H          1 MOL1         0.0764
      24    H14     17.471213   20.107070   22.096898 H          1 MOL1         0.0764
      25    H15     18.925297   20.459432   23.045019 H          1 MOL1         0.0764
@<TRIPOS>BOND
    1     1     2    1
    2     1     3    2
    3     1     4    1
    4     4     5    1
    5     4     6    1
    6     4     7    1
    7     7     8    1
    8     7     9    1
    9     7    10    1
   10    10    11    1
   11    10    12    1
   12    10    13    1
   13    13    14    1
   14    13    15    1
   15    13    16    1
   16    16    17    1
   17    16    18    1
   18    16    19    1
   19    19    20    1
   20    19    21    1
   21    19    22    1
   22    22    23    1
   23    22    24    1
   24    22    25    1
@<TRIPOS>SUBSTRUCTURE
       1 MOL1            1 RESIDUE      1      MOL     
@<SCITEGIC>MOL_PROPERTY
VM2 Rank
SciTegic.value.IntegerValue
167

@<SCITEGIC>MOL_PROPERTY
Conf_Id
SciTegic.value.IntegerValue
1054

@<SCITEGIC>MOL_PROPERTY
Probability
SciTegic.value.DoubleValue
0.00

@<SCITEGIC>MOL_PROPERTY
Sum Probability
SciTegic.value.DoubleValue
99.99

@<SCITEGIC>MOL_PROPERTY
Delta G
SciTegic.value.DoubleValue
6.274

@<SCITEGIC>MOL_PROPERTY
G
SciTegic.value.DoubleValue
-1.688

@<SCITEGIC>MOL_PROPERTY
E
SciTegic.value.DoubleValue
-27.073

@<SCITEGIC>MOL_PROPERTY
-TS
SciTegic.value.DoubleValue
25.385

@<SCITEGIC>MOL_PROPERTY
U+W
SciTegic.value.DoubleValue
-47.640

@<SCITEGIC>MOL_PROPERTY
U
SciTegic.value.DoubleValue
12.577

@<SCITEGIC>MOL_PROPERTY
W
SciTegic.value.DoubleValue
-60.217

@<SCITEGIC>MOL_PROPERTY
W(PB)
SciTegic.value.DoubleValue
-62.546

@<SCITEGIC>MOL_PROPERTY
W(SA)
SciTegic.value.DoubleValue
2.329

@<SCITEGIC>MOL_PROPERTY
Valence
SciTegic.value.DoubleValue
11.827

@<SCITEGIC>MOL_PROPERTY
Coulomb
SciTegic.value.DoubleValue
0.089

@<SCITEGIC>MOL_PROPERTY
VdW
SciTegic.value.DoubleValue
0.661

@<SCITEGIC>MOL_PROPERTY
VdW6
SciTegic.value.DoubleValue
-11.300

@<SCITEGIC>MOL_PROPERTY
VdW12
SciTegic.value.DoubleValue
11.961

@<SCITEGIC>MOL_PROPERTY
Bond
SciTegic.value.DoubleValue
0.300

@<SCITEGIC>MOL_PROPERTY
Angle
SciTegic.value.DoubleValue
3.988

@<SCITEGIC>MOL_PROPERTY
Pdih
SciTegic.value.DoubleValue
7.539

@<SCITEGIC>MOL_PROPERTY
Idih
SciTegic.value.DoubleValue
0.000

@<SCITEGIC>MOL_PROPERTY
Tether
SciTegic.value.DoubleValue
0.000

@<TRIPOS>MOLECULE
guest-8_vm2.mol2 : vm2 ligand conformer 168
          25          24           1
SMALL
USER_CHARGES
 
@<TRIPOS>ATOM
       1    C1      20.374639   19.440942   27.051018 C.2        1 MOL1         0.6168
       2    O1      21.301329   20.222238   27.140138 O.co2      1 MOL1        -0.6703
       3    O2      19.319600   19.578932   27.638357 O.co2      1 MOL1        -0.6703
       4    C2      20.555863   18.208289   26.169733 C.3        1 MOL1        -0.1963
       5    H1      19.820489   17.452134   26.470025 H          1 MOL1         0.0750
       6    H2      21.546309   17.791610   26.387293 H          1 MOL1         0.0750
       7    C3      20.438128   18.498105   24.650856 C.3        1 MOL1        -0.1860
       8    H3      21.168818   19.271688   24.380333 H          1 MOL1         0.0752
       9    H4      20.706118   17.591678   24.091615 H          1 MOL1         0.0752
      10    C4      19.017061   18.950016   24.242114 C.3        1 MOL1        -0.1858
      11    H5      18.783546   19.910202   24.722473 H          1 MOL1         0.0752
      12    H6      18.287159   18.227224   24.631467 H          1 MOL1         0.0752
      13    C5      18.808472   19.077477   22.712232 C.3        1 MOL1        -0.1858
      14    H7      18.947444   18.099173   22.235812 H          1 MOL1         0.0752
      15    H8      17.755908   19.342593   22.543707 H          1 MOL1         0.0752
      16    C6      19.691056   20.156438   22.029731 C.3        1 MOL1        -0.1858
      17    H9      19.934298   20.942501   22.757571 H          1 MOL1         0.0752
      18    H10     19.103359   20.651745   21.244844 H          1 MOL1         0.0752
      19    C7      20.997243   19.619784   21.392816 C.3        1 MOL1        -0.1834
      20    H11     21.634864   20.474648   21.128967 H          1 MOL1         0.0752
      21    H12     21.565432   19.025143   22.118342 H          1 MOL1         0.0752
      22    C8      20.749609   18.781780   20.119003 C.3        1 MOL1        -0.2849
      23    H13     20.189898   19.359188   19.371778 H          1 MOL1         0.0764
      24    H14     21.703447   18.481066   19.666658 H          1 MOL1         0.0764
      25    H15     20.184053   17.868380   20.339802 H          1 MOL1         0.0764
@<TRIPOS>BOND
    1     1     2    1
    2     1     3    2
    3     1     4    1
    4     4     5    1
    5     4     6    1
    6     4     7    1
    7     7     8    1
    8     7     9    1
    9     7    10    1
   10    10    11    1
   11    10    12    1
   12    10    13    1
   13    13    14    1
   14    13    15    1
   15    13    16    1
   16    16    17    1
   17    16    18    1
   18    16    19    1
   19    19    20    1
   20    19    21    1
   21    19    22    1
   22    22    23    1
   23    22    24    1
   24    22    25    1
@<TRIPOS>SUBSTRUCTURE
       1 MOL1            1 RESIDUE      1      MOL     
@<SCITEGIC>MOL_PROPERTY
VM2 Rank
SciTegic.value.IntegerValue
168

@<SCITEGIC>MOL_PROPERTY
Conf_Id
SciTegic.value.IntegerValue
706

@<SCITEGIC>MOL_PROPERTY
Probability
SciTegic.value.DoubleValue
0.00

@<SCITEGIC>MOL_PROPERTY
Sum Probability
SciTegic.value.DoubleValue
99.99

@<SCITEGIC>MOL_PROPERTY
Delta G
SciTegic.value.DoubleValue
6.290

@<SCITEGIC>MOL_PROPERTY
G
SciTegic.value.DoubleValue
-1.672

@<SCITEGIC>MOL_PROPERTY
E
SciTegic.value.DoubleValue
-26.816

@<SCITEGIC>MOL_PROPERTY
-TS
SciTegic.value.DoubleValue
25.143

@<SCITEGIC>MOL_PROPERTY
U+W
SciTegic.value.DoubleValue
-47.383

@<SCITEGIC>MOL_PROPERTY
U
SciTegic.value.DoubleValue
12.751

@<SCITEGIC>MOL_PROPERTY
W
SciTegic.value.DoubleValue
-60.134

@<SCITEGIC>MOL_PROPERTY
W(PB)
SciTegic.value.DoubleValue
-62.535

@<SCITEGIC>MOL_PROPERTY
W(SA)
SciTegic.value.DoubleValue
2.401

@<SCITEGIC>MOL_PROPERTY
Valence
SciTegic.value.DoubleValue
11.503

@<SCITEGIC>MOL_PROPERTY
Coulomb
SciTegic.value.DoubleValue
0.344

@<SCITEGIC>MOL_PROPERTY
VdW
SciTegic.value.DoubleValue
0.904

@<SCITEGIC>MOL_PROPERTY
VdW6
SciTegic.value.DoubleValue
-10.720

@<SCITEGIC>MOL_PROPERTY
VdW12
SciTegic.value.DoubleValue
11.623

@<SCITEGIC>MOL_PROPERTY
Bond
SciTegic.value.DoubleValue
0.257

@<SCITEGIC>MOL_PROPERTY
Angle
SciTegic.value.DoubleValue
3.380

@<SCITEGIC>MOL_PROPERTY
Pdih
SciTegic.value.DoubleValue
7.866

@<SCITEGIC>MOL_PROPERTY
Idih
SciTegic.value.DoubleValue
0.001

@<SCITEGIC>MOL_PROPERTY
Tether
SciTegic.value.DoubleValue
0.000

@<TRIPOS>MOLECULE
guest-8_vm2.mol2 : vm2 ligand conformer 169
          25          24           1
SMALL
USER_CHARGES
 
@<TRIPOS>ATOM
       1    C1      19.917146   19.412100   27.056200 C.2        1 MOL1         0.6168
       2    O1      20.959433   19.684043   27.619053 O.co2      1 MOL1        -0.6703
       3    O2      18.901027   20.069509   27.167718 O.co2      1 MOL1        -0.6703
       4    C2      19.873617   18.164852   26.177897 C.3        1 MOL1        -0.1963
       5    H1      18.949314   17.626253   26.417714 H          1 MOL1         0.0750
       6    H2      20.705707   17.508652   26.460303 H          1 MOL1         0.0750
       7    C3      19.918677   18.464600   24.657055 C.3        1 MOL1        -0.1860
       8    H3      19.754817   17.530575   24.103045 H          1 MOL1         0.0752
       9    H4      19.089872   19.138961   24.404389 H          1 MOL1         0.0752
      10    C4      21.261294   19.092096   24.216201 C.3        1 MOL1        -0.1858
      11    H5      22.085600   18.468005   24.587430 H          1 MOL1         0.0752
      12    H6      21.382519   20.074790   24.692490 H          1 MOL1         0.0752
      13    C5      21.416529   19.242771   22.682094 C.3        1 MOL1        -0.1858
      14    H7      22.422953   19.638530   22.489572 H          1 MOL1         0.0752
      15    H8      21.391230   18.254089   22.207498 H          1 MOL1         0.0752
      16    C6      20.389035   20.200616   22.022016 C.3        1 MOL1        -0.1858
      17    H9      20.891087   20.765473   21.224744 H          1 MOL1         0.0752
      18    H10     20.065067   20.950363   22.756684 H          1 MOL1         0.0752
      19    C7      19.146975   19.502210   21.414330 C.3        1 MOL1        -0.1834
      20    H11     18.675686   18.841007   22.151576 H          1 MOL1         0.0752
      21    H12     18.400232   20.269138   21.167015 H          1 MOL1         0.0752
      22    C8      19.469266   18.701204   20.133434 C.3        1 MOL1        -0.2849
      23    H13     20.151119   17.867159   20.339228 H          1 MOL1         0.0764
      24    H14     18.551040   18.281476   19.702689 H          1 MOL1         0.0764
      25    H15     19.933691   19.344266   19.374616 H          1 MOL1         0.0764
@<TRIPOS>BOND
    1     1     2    1
    2     1     3    2
    3     1     4    1
    4     4     5    1
    5     4     6    1
    6     4     7    1
    7     7     8    1
    8     7     9    1
    9     7    10    1
   10    10    11    1
   11    10    12    1
   12    10    13    1
   13    13    14    1
   14    13    15    1
   15    13    16    1
   16    16    17    1
   17    16    18    1
   18    16    19    1
   19    19    20    1
   20    19    21    1
   21    19    22    1
   22    22    23    1
   23    22    24    1
   24    22    25    1
@<TRIPOS>SUBSTRUCTURE
       1 MOL1            1 RESIDUE      1      MOL     
@<SCITEGIC>MOL_PROPERTY
VM2 Rank
SciTegic.value.IntegerValue
169

@<SCITEGIC>MOL_PROPERTY
Conf_Id
SciTegic.value.IntegerValue
422

@<SCITEGIC>MOL_PROPERTY
Probability
SciTegic.value.DoubleValue
0.00

@<SCITEGIC>MOL_PROPERTY
Sum Probability
SciTegic.value.DoubleValue
99.99

@<SCITEGIC>MOL_PROPERTY
Delta G
SciTegic.value.DoubleValue
6.311

@<SCITEGIC>MOL_PROPERTY
G
SciTegic.value.DoubleValue
-1.652

@<SCITEGIC>MOL_PROPERTY
E
SciTegic.value.DoubleValue
-26.796

@<SCITEGIC>MOL_PROPERTY
-TS
SciTegic.value.DoubleValue
25.144

@<SCITEGIC>MOL_PROPERTY
U+W
SciTegic.value.DoubleValue
-47.364

@<SCITEGIC>MOL_PROPERTY
U
SciTegic.value.DoubleValue
12.751

@<SCITEGIC>MOL_PROPERTY
W
SciTegic.value.DoubleValue
-60.114

@<SCITEGIC>MOL_PROPERTY
W(PB)
SciTegic.value.DoubleValue
-62.501

@<SCITEGIC>MOL_PROPERTY
W(SA)
SciTegic.value.DoubleValue
2.387

@<SCITEGIC>MOL_PROPERTY
Valence
SciTegic.value.DoubleValue
11.503

@<SCITEGIC>MOL_PROPERTY
Coulomb
SciTegic.value.DoubleValue
0.344

@<SCITEGIC>MOL_PROPERTY
VdW
SciTegic.value.DoubleValue
0.904

@<SCITEGIC>MOL_PROPERTY
VdW6
SciTegic.value.DoubleValue
-10.719

@<SCITEGIC>MOL_PROPERTY
VdW12
SciTegic.value.DoubleValue
11.623

@<SCITEGIC>MOL_PROPERTY
Bond
SciTegic.value.DoubleValue
0.257

@<SCITEGIC>MOL_PROPERTY
Angle
SciTegic.value.DoubleValue
3.378

@<SCITEGIC>MOL_PROPERTY
Pdih
SciTegic.value.DoubleValue
7.868

@<SCITEGIC>MOL_PROPERTY
Idih
SciTegic.value.DoubleValue
0.001

@<SCITEGIC>MOL_PROPERTY
Tether
SciTegic.value.DoubleValue
0.000

@<TRIPOS>MOLECULE
guest-8_vm2.mol2 : vm2 ligand conformer 170
          25          24           1
SMALL
USER_CHARGES
 
@<TRIPOS>ATOM
       1    C1      20.515537   19.705638   26.862305 C.2        1 MOL1         0.6168
       2    O1      21.412188   20.503221   26.671254 O.co2      1 MOL1        -0.6703
       3    O2      20.388752   19.068456   27.889385 O.co2      1 MOL1        -0.6703
       4    C2      19.503357   19.478193   25.745232 C.3        1 MOL1        -0.1963
       5    H1      19.398607   20.419720   25.195587 H          1 MOL1         0.0750
       6    H2      18.532365   19.261759   26.206152 H          1 MOL1         0.0750
       7    C3      19.912813   18.324453   24.792415 C.3        1 MOL1        -0.1860
       8    H3      20.880710   18.556908   24.334023 H          1 MOL1         0.0752
       9    H4      20.071168   17.418670   25.393723 H          1 MOL1         0.0752
      10    C4      18.850817   18.012713   23.707167 C.3        1 MOL1        -0.1858
      11    H5      17.890409   17.838755   24.211293 H          1 MOL1         0.0752
      12    H6      19.101319   17.063779   23.213956 H          1 MOL1         0.0752
      13    C5      18.653601   19.114652   22.631003 C.3        1 MOL1        -0.1858
      14    H7      17.596114   19.102203   22.334243 H          1 MOL1         0.0752
      15    H8      18.823125   20.114021   23.047535 H          1 MOL1         0.0752
      16    C6      19.489678   18.918667   21.338557 C.3        1 MOL1        -0.1858
      17    H9      19.170860   19.667551   20.600882 H          1 MOL1         0.0752
      18    H10     19.241368   17.942633   20.900074 H          1 MOL1         0.0752
      19    C7      21.025175   19.014071   21.501788 C.3        1 MOL1        -0.1834
      20    H11     21.384390   18.220841   22.169224 H          1 MOL1         0.0752
      21    H12     21.491388   18.818905   20.526368 H          1 MOL1         0.0752
      22    C8      21.501081   20.393937   22.006894 C.3        1 MOL1        -0.2849
      23    H13     21.132409   20.600571   23.019375 H          1 MOL1         0.0764
      24    H14     22.597424   20.434549   22.037733 H          1 MOL1         0.0764
      25    H15     21.151034   21.195977   21.344368 H          1 MOL1         0.0764
@<TRIPOS>BOND
    1     1     2    1
    2     1     3    2
    3     1     4    1
    4     4     5    1
    5     4     6    1
    6     4     7    1
    7     7     8    1
    8     7     9    1
    9     7    10    1
   10    10    11    1
   11    10    12    1
   12    10    13    1
   13    13    14    1
   14    13    15    1
   15    13    16    1
   16    16    17    1
   17    16    18    1
   18    16    19    1
   19    19    20    1
   20    19    21    1
   21    19    22    1
   22    22    23    1
   23    22    24    1
   24    22    25    1
@<TRIPOS>SUBSTRUCTURE
       1 MOL1            1 RESIDUE      1      MOL     
@<SCITEGIC>MOL_PROPERTY
VM2 Rank
SciTegic.value.IntegerValue
170

@<SCITEGIC>MOL_PROPERTY
Conf_Id
SciTegic.value.IntegerValue
703

@<SCITEGIC>MOL_PROPERTY
Probability
SciTegic.value.DoubleValue
0.00

@<SCITEGIC>MOL_PROPERTY
Sum Probability
SciTegic.value.DoubleValue
99.99

@<SCITEGIC>MOL_PROPERTY
Delta G
SciTegic.value.DoubleValue
6.325

@<SCITEGIC>MOL_PROPERTY
G
SciTegic.value.DoubleValue
-1.638

@<SCITEGIC>MOL_PROPERTY
E
SciTegic.value.DoubleValue
-27.023

@<SCITEGIC>MOL_PROPERTY
-TS
SciTegic.value.DoubleValue
25.385

@<SCITEGIC>MOL_PROPERTY
U+W
SciTegic.value.DoubleValue
-47.590

@<SCITEGIC>MOL_PROPERTY
U
SciTegic.value.DoubleValue
12.576

@<SCITEGIC>MOL_PROPERTY
W
SciTegic.value.DoubleValue
-60.167

@<SCITEGIC>MOL_PROPERTY
W(PB)
SciTegic.value.DoubleValue
-62.529

@<SCITEGIC>MOL_PROPERTY
W(SA)
SciTegic.value.DoubleValue
2.363

@<SCITEGIC>MOL_PROPERTY
Valence
SciTegic.value.DoubleValue
11.827

@<SCITEGIC>MOL_PROPERTY
Coulomb
SciTegic.value.DoubleValue
0.088

@<SCITEGIC>MOL_PROPERTY
VdW
SciTegic.value.DoubleValue
0.661

@<SCITEGIC>MOL_PROPERTY
VdW6
SciTegic.value.DoubleValue
-11.300

@<SCITEGIC>MOL_PROPERTY
VdW12
SciTegic.value.DoubleValue
11.961

@<SCITEGIC>MOL_PROPERTY
Bond
SciTegic.value.DoubleValue
0.300

@<SCITEGIC>MOL_PROPERTY
Angle
SciTegic.value.DoubleValue
3.988

@<SCITEGIC>MOL_PROPERTY
Pdih
SciTegic.value.DoubleValue
7.540

@<SCITEGIC>MOL_PROPERTY
Idih
SciTegic.value.DoubleValue
0.000

@<SCITEGIC>MOL_PROPERTY
Tether
SciTegic.value.DoubleValue
0.000

@<TRIPOS>MOLECULE
guest-8_vm2.mol2 : vm2 ligand conformer 171
          25          24           1
SMALL
USER_CHARGES
 
@<TRIPOS>ATOM
       1    C1      20.379167   19.432646   27.131168 C.2        1 MOL1         0.6168
       2    O1      21.318833   20.184871   27.299467 O.co2      1 MOL1        -0.6703
       3    O2      19.320481   19.537140   27.718865 O.co2      1 MOL1        -0.6703
       4    C2      20.547466   18.281666   26.143173 C.3        1 MOL1        -0.1963
       5    H1      19.783893   17.523346   26.354584 H          1 MOL1         0.0750
       6    H2      21.520070   17.817667   26.344856 H          1 MOL1         0.0750
       7    C3      20.478206   18.711022   24.654441 C.3        1 MOL1        -0.1860
       8    H3      21.216613   19.503159   24.468327 H          1 MOL1         0.0752
       9    H4      20.763837   17.852805   24.033181 H          1 MOL1         0.0752
      10    C4      19.069830   19.197290   24.240167 C.3        1 MOL1        -0.1858
      11    H5      18.744504   19.989512   24.928206 H          1 MOL1         0.0752
      12    H6      18.350290   18.375497   24.356863 H          1 MOL1         0.0752
      13    C5      18.990961   19.751093   22.795353 C.3        1 MOL1        -0.1858
      14    H7      17.967311   20.116756   22.637204 H          1 MOL1         0.0752
      15    H8      19.638089   20.631904   22.700901 H          1 MOL1         0.0752
      16    C6      19.306777   18.710924   21.687571 C.3        1 MOL1        -0.1858
      17    H9      18.633908   18.882557   20.836351 H          1 MOL1         0.0752
      18    H10     19.068467   17.703169   22.053985 H          1 MOL1         0.0752
      19    C7      20.765737   18.740969   21.167763 C.3        1 MOL1        -0.1834
      20    H11     21.474783   18.686428   22.002821 H          1 MOL1         0.0752
      21    H12     20.938825   17.844134   20.557271 H          1 MOL1         0.0752
      22    C8      21.075541   19.986380   20.308032 C.3        1 MOL1        -0.2849
      23    H13     20.994684   20.911002   20.892403 H          1 MOL1         0.0764
      24    H14     22.097003   19.932818   19.909785 H          1 MOL1         0.0764
      25    H15     20.385753   20.057542   19.457059 H          1 MOL1         0.0764
@<TRIPOS>BOND
    1     1     2    1
    2     1     3    2
    3     1     4    1
    4     4     5    1
    5     4     6    1
    6     4     7    1
    7     7     8    1
    8     7     9    1
    9     7    10    1
   10    10    11    1
   11    10    12    1
   12    10    13    1
   13    13    14    1
   14    13    15    1
   15    13    16    1
   16    16    17    1
   17    16    18    1
   18    16    19    1
   19    19    20    1
   20    19    21    1
   21    19    22    1
   22    22    23    1
   23    22    24    1
   24    22    25    1
@<TRIPOS>SUBSTRUCTURE
       1 MOL1            1 RESIDUE      1      MOL     
@<SCITEGIC>MOL_PROPERTY
VM2 Rank
SciTegic.value.IntegerValue
171

@<SCITEGIC>MOL_PROPERTY
Conf_Id
SciTegic.value.IntegerValue
278

@<SCITEGIC>MOL_PROPERTY
Probability
SciTegic.value.DoubleValue
0.00

@<SCITEGIC>MOL_PROPERTY
Sum Probability
SciTegic.value.DoubleValue
99.99

@<SCITEGIC>MOL_PROPERTY
Delta G
SciTegic.value.DoubleValue
6.347

@<SCITEGIC>MOL_PROPERTY
G
SciTegic.value.DoubleValue
-1.615

@<SCITEGIC>MOL_PROPERTY
E
SciTegic.value.DoubleValue
-26.798

@<SCITEGIC>MOL_PROPERTY
-TS
SciTegic.value.DoubleValue
25.183

@<SCITEGIC>MOL_PROPERTY
U+W
SciTegic.value.DoubleValue
-47.366

@<SCITEGIC>MOL_PROPERTY
U
SciTegic.value.DoubleValue
12.643

@<SCITEGIC>MOL_PROPERTY
W
SciTegic.value.DoubleValue
-60.009

@<SCITEGIC>MOL_PROPERTY
W(PB)
SciTegic.value.DoubleValue
-62.424

@<SCITEGIC>MOL_PROPERTY
W(SA)
SciTegic.value.DoubleValue
2.415

@<SCITEGIC>MOL_PROPERTY
Valence
SciTegic.value.DoubleValue
11.578

@<SCITEGIC>MOL_PROPERTY
Coulomb
SciTegic.value.DoubleValue
0.067

@<SCITEGIC>MOL_PROPERTY
VdW
SciTegic.value.DoubleValue
0.998

@<SCITEGIC>MOL_PROPERTY
VdW6
SciTegic.value.DoubleValue
-10.640

@<SCITEGIC>MOL_PROPERTY
VdW12
SciTegic.value.DoubleValue
11.638

@<SCITEGIC>MOL_PROPERTY
Bond
SciTegic.value.DoubleValue
0.260

@<SCITEGIC>MOL_PROPERTY
Angle
SciTegic.value.DoubleValue
3.401

@<SCITEGIC>MOL_PROPERTY
Pdih
SciTegic.value.DoubleValue
7.917

@<SCITEGIC>MOL_PROPERTY
Idih
SciTegic.value.DoubleValue
0.001

@<SCITEGIC>MOL_PROPERTY
Tether
SciTegic.value.DoubleValue
0.000

@<TRIPOS>MOLECULE
guest-8_vm2.mol2 : vm2 ligand conformer 172
          25          24           1
SMALL
USER_CHARGES
 
@<TRIPOS>ATOM
       1    C1      19.874993   19.234303   27.149256 C.2        1 MOL1         0.6168
       2    O1      20.730708   19.722359   27.861098 O.co2      1 MOL1        -0.6703
       3    O2      18.696149   19.520902   27.221635 O.co2      1 MOL1        -0.6703
       4    C2      20.303873   18.189918   26.122407 C.3        1 MOL1        -0.1963
       5    H1      19.420855   17.615516   25.817166 H          1 MOL1         0.0750
       6    H2      20.978119   17.489865   26.629597 H          1 MOL1         0.0750
       7    C3      21.013646   18.782094   24.876987 C.3        1 MOL1        -0.1860
       8    H3      21.875355   19.381635   25.201507 H          1 MOL1         0.0752
       9    H4      21.414066   17.955176   24.277556 H          1 MOL1         0.0752
      10    C4      20.067644   19.650231   24.011914 C.3        1 MOL1        -0.1858
      11    H5      19.672165   20.467853   24.629856 H          1 MOL1         0.0752
      12    H6      19.201214   19.054180   23.701309 H          1 MOL1         0.0752
      13    C5      20.768296   20.270011   22.776435 C.3        1 MOL1        -0.1858
      14    H7      20.147088   21.081160   22.373078 H          1 MOL1         0.0752
      15    H8      21.698732   20.748736   23.110873 H          1 MOL1         0.0752
      16    C6      21.098784   19.263452   21.641960 C.3        1 MOL1        -0.1858
      17    H9      21.268212   18.258033   22.046513 H          1 MOL1         0.0752
      18    H10     22.051866   19.565051   21.186646 H          1 MOL1         0.0752
      19    C7      20.041944   19.200279   20.511622 C.3        1 MOL1        -0.1834
      20    H11     19.937150   20.191164   20.048623 H          1 MOL1         0.0752
      21    H12     20.413370   18.530738   19.723652 H          1 MOL1         0.0752
      22    C8      18.656964   18.700450   20.972686 C.3        1 MOL1        -0.2849
      23    H13     17.991170   18.564268   20.110772 H          1 MOL1         0.0764
      24    H14     18.739248   17.737483   21.493226 H          1 MOL1         0.0764
      25    H15     18.180628   19.422029   21.647981 H          1 MOL1         0.0764
@<TRIPOS>BOND
    1     1     2    1
    2     1     3    2
    3     1     4    1
    4     4     5    1
    5     4     6    1
    6     4     7    1
    7     7     8    1
    8     7     9    1
    9     7    10    1
   10    10    11    1
   11    10    12    1
   12    10    13    1
   13    13    14    1
   14    13    15    1
   15    13    16    1
   16    16    17    1
   17    16    18    1
   18    16    19    1
   19    19    20    1
   20    19    21    1
   21    19    22    1
   22    22    23    1
   23    22    24    1
   24    22    25    1
@<TRIPOS>SUBSTRUCTURE
       1 MOL1            1 RESIDUE      1      MOL     
@<SCITEGIC>MOL_PROPERTY
VM2 Rank
SciTegic.value.IntegerValue
172

@<SCITEGIC>MOL_PROPERTY
Conf_Id
SciTegic.value.IntegerValue
387

@<SCITEGIC>MOL_PROPERTY
Probability
SciTegic.value.DoubleValue
0.00

@<SCITEGIC>MOL_PROPERTY
Sum Probability
SciTegic.value.DoubleValue
99.99

@<SCITEGIC>MOL_PROPERTY
Delta G
SciTegic.value.DoubleValue
6.389

@<SCITEGIC>MOL_PROPERTY
G
SciTegic.value.DoubleValue
-1.574

@<SCITEGIC>MOL_PROPERTY
E
SciTegic.value.DoubleValue
-26.710

@<SCITEGIC>MOL_PROPERTY
-TS
SciTegic.value.DoubleValue
25.136

@<SCITEGIC>MOL_PROPERTY
U+W
SciTegic.value.DoubleValue
-47.278

@<SCITEGIC>MOL_PROPERTY
U
SciTegic.value.DoubleValue
12.718

@<SCITEGIC>MOL_PROPERTY
W
SciTegic.value.DoubleValue
-59.995

@<SCITEGIC>MOL_PROPERTY
W(PB)
SciTegic.value.DoubleValue
-62.409

@<SCITEGIC>MOL_PROPERTY
W(SA)
SciTegic.value.DoubleValue
2.414

@<SCITEGIC>MOL_PROPERTY
Valence
SciTegic.value.DoubleValue
11.548

@<SCITEGIC>MOL_PROPERTY
Coulomb
SciTegic.value.DoubleValue
0.194

@<SCITEGIC>MOL_PROPERTY
VdW
SciTegic.value.DoubleValue
0.975

@<SCITEGIC>MOL_PROPERTY
VdW6
SciTegic.value.DoubleValue
-10.624

@<SCITEGIC>MOL_PROPERTY
VdW12
SciTegic.value.DoubleValue
11.599

@<SCITEGIC>MOL_PROPERTY
Bond
SciTegic.value.DoubleValue
0.265

@<SCITEGIC>MOL_PROPERTY
Angle
SciTegic.value.DoubleValue
3.381

@<SCITEGIC>MOL_PROPERTY
Pdih
SciTegic.value.DoubleValue
7.902

@<SCITEGIC>MOL_PROPERTY
Idih
SciTegic.value.DoubleValue
0.000

@<SCITEGIC>MOL_PROPERTY
Tether
SciTegic.value.DoubleValue
0.000

@<TRIPOS>MOLECULE
guest-8_vm2.mol2 : vm2 ligand conformer 173
          25          24           1
SMALL
USER_CHARGES
 
@<TRIPOS>ATOM
       1    C1      20.493070   19.589306   26.918037 C.2        1 MOL1         0.6168
       2    O1      21.676024   19.700171   26.662363 O.co2      1 MOL1        -0.6703
       3    O2      20.071044   19.178100   27.981154 O.co2      1 MOL1        -0.6703
       4    C2      19.479939   20.010937   25.857103 C.3        1 MOL1        -0.1963
       5    H1      19.993975   20.635567   25.119582 H          1 MOL1         0.0750
       6    H2      18.741081   20.651937   26.351938 H          1 MOL1         0.0750
       7    C3      18.752144   18.820500   25.172796 C.3        1 MOL1        -0.1860
       8    H3      18.320268   18.187790   25.960684 H          1 MOL1         0.0752
       9    H4      17.901773   19.191505   24.584995 H          1 MOL1         0.0752
      10    C4      19.669135   17.947545   24.276724 C.3        1 MOL1        -0.1858
      11    H5      19.351267   16.901176   24.380751 H          1 MOL1         0.0752
      12    H6      20.705710   17.979946   24.639046 H          1 MOL1         0.0752
      13    C5      19.626851   18.299196   22.768167 C.3        1 MOL1        -0.1858
      14    H7      20.247478   17.567139   22.236561 H          1 MOL1         0.0752
      15    H8      18.603638   18.168143   22.390882 H          1 MOL1         0.0752
      16    C6      20.117347   19.728874   22.436428 C.3        1 MOL1        -0.1858
      17    H9      21.115519   19.889350   22.866378 H          1 MOL1         0.0752
      18    H10     19.446901   20.455943   22.911483 H          1 MOL1         0.0752
      19    C7      20.148969   20.033558   20.920288 C.3        1 MOL1        -0.1834
      20    H11     19.158385   19.847121   20.482969 H          1 MOL1         0.0752
      21    H12     20.352002   21.104495   20.782155 H          1 MOL1         0.0752
      22    C8      21.218477   19.225814   20.152941 C.3        1 MOL1        -0.2849
      23    H13     22.212599   19.370700   20.595483 H          1 MOL1         0.0764
      24    H14     20.992430   18.152464   20.157405 H          1 MOL1         0.0764
      25    H15     21.264939   19.549966   19.105253 H          1 MOL1         0.0764
@<TRIPOS>BOND
    1     1     2    1
    2     1     3    2
    3     1     4    1
    4     4     5    1
    5     4     6    1
    6     4     7    1
    7     7     8    1
    8     7     9    1
    9     7    10    1
   10    10    11    1
   11    10    12    1
   12    10    13    1
   13    13    14    1
   14    13    15    1
   15    13    16    1
   16    16    17    1
   17    16    18    1
   18    16    19    1
   19    19    20    1
   20    19    21    1
   21    19    22    1
   22    22    23    1
   23    22    24    1
   24    22    25    1
@<TRIPOS>SUBSTRUCTURE
       1 MOL1            1 RESIDUE      1      MOL     
@<SCITEGIC>MOL_PROPERTY
VM2 Rank
SciTegic.value.IntegerValue
173

@<SCITEGIC>MOL_PROPERTY
Conf_Id
SciTegic.value.IntegerValue
543

@<SCITEGIC>MOL_PROPERTY
Probability
SciTegic.value.DoubleValue
0.00

@<SCITEGIC>MOL_PROPERTY
Sum Probability
SciTegic.value.DoubleValue
99.99

@<SCITEGIC>MOL_PROPERTY
Delta G
SciTegic.value.DoubleValue
6.389

@<SCITEGIC>MOL_PROPERTY
G
SciTegic.value.DoubleValue
-1.573

@<SCITEGIC>MOL_PROPERTY
E
SciTegic.value.DoubleValue
-26.781

@<SCITEGIC>MOL_PROPERTY
-TS
SciTegic.value.DoubleValue
25.208

@<SCITEGIC>MOL_PROPERTY
U+W
SciTegic.value.DoubleValue
-47.349

@<SCITEGIC>MOL_PROPERTY
U
SciTegic.value.DoubleValue
12.780

@<SCITEGIC>MOL_PROPERTY
W
SciTegic.value.DoubleValue
-60.128

@<SCITEGIC>MOL_PROPERTY
W(PB)
SciTegic.value.DoubleValue
-62.546

@<SCITEGIC>MOL_PROPERTY
W(SA)
SciTegic.value.DoubleValue
2.418

@<SCITEGIC>MOL_PROPERTY
Valence
SciTegic.value.DoubleValue
11.506

@<SCITEGIC>MOL_PROPERTY
Coulomb
SciTegic.value.DoubleValue
0.275

@<SCITEGIC>MOL_PROPERTY
VdW
SciTegic.value.DoubleValue
0.999

@<SCITEGIC>MOL_PROPERTY
VdW6
SciTegic.value.DoubleValue
-10.780

@<SCITEGIC>MOL_PROPERTY
VdW12
SciTegic.value.DoubleValue
11.779

@<SCITEGIC>MOL_PROPERTY
Bond
SciTegic.value.DoubleValue
0.274

@<SCITEGIC>MOL_PROPERTY
Angle
SciTegic.value.DoubleValue
3.484

@<SCITEGIC>MOL_PROPERTY
Pdih
SciTegic.value.DoubleValue
7.747

@<SCITEGIC>MOL_PROPERTY
Idih
SciTegic.value.DoubleValue
0.001

@<SCITEGIC>MOL_PROPERTY
Tether
SciTegic.value.DoubleValue
0.000

@<TRIPOS>MOLECULE
guest-8_vm2.mol2 : vm2 ligand conformer 174
          25          24           1
SMALL
USER_CHARGES
 
@<TRIPOS>ATOM
       1    C1      19.866638   19.298457   27.148175 C.2        1 MOL1         0.6168
       2    O1      20.814562   19.062847   27.871429 O.co2      1 MOL1        -0.6703
       3    O2      18.797028   18.727832   27.234042 O.co2      1 MOL1        -0.6703
       4    C2      20.024243   20.384209   26.087327 C.3        1 MOL1        -0.1963
       5    H1      20.499299   21.246540   26.569646 H          1 MOL1         0.0750
       6    H2      19.026691   20.708968   25.767561 H          1 MOL1         0.0750
       7    C3      20.865004   19.950096   24.858430 C.3        1 MOL1        -0.1860
       8    H3      21.047645   20.831707   24.231652 H          1 MOL1         0.0752
       9    H4      21.848216   19.596437   25.198316 H          1 MOL1         0.0752
      10    C4      20.170629   18.845577   24.024880 C.3        1 MOL1        -0.1858
      11    H5      19.183564   19.195007   23.699214 H          1 MOL1         0.0752
      12    H6      19.990591   17.974686   24.669781 H          1 MOL1         0.0752
      13    C5      21.009325   18.383052   22.806643 C.3        1 MOL1        -0.1858
      14    H7      22.028879   18.164201   23.152113 H          1 MOL1         0.0752
      15    H8      20.613387   17.429568   22.431597 H          1 MOL1         0.0752
      16    C6      21.080724   19.404109   21.639700 C.3        1 MOL1        -0.1858
      17    H9      22.080810   19.337555   21.190218 H          1 MOL1         0.0752
      18    H10     20.990392   20.432063   22.011710 H          1 MOL1         0.0752
      19    C7      20.046400   19.163974   20.512281 C.3        1 MOL1        -0.1834
      20    H11     20.240681   19.880229   19.702112 H          1 MOL1         0.0752
      21    H12     20.195882   18.164493   20.081125 H          1 MOL1         0.0752
      22    C8      18.578447   19.313847   20.963093 C.3        1 MOL1        -0.2849
      23    H13     18.413952   20.282504   21.452667 H          1 MOL1         0.0764
      24    H14     17.903180   19.250999   20.100083 H          1 MOL1         0.0764
      25    H15     18.296185   18.517376   21.662779 H          1 MOL1         0.0764
@<TRIPOS>BOND
    1     1     2    1
    2     1     3    2
    3     1     4    1
    4     4     5    1
    5     4     6    1
    6     4     7    1
    7     7     8    1
    8     7     9    1
    9     7    10    1
   10    10    11    1
   11    10    12    1
   12    10    13    1
   13    13    14    1
   14    13    15    1
   15    13    16    1
   16    16    17    1
   17    16    18    1
   18    16    19    1
   19    19    20    1
   20    19    21    1
   21    19    22    1
   22    22    23    1
   23    22    24    1
   24    22    25    1
@<TRIPOS>SUBSTRUCTURE
       1 MOL1            1 RESIDUE      1      MOL     
@<SCITEGIC>MOL_PROPERTY
VM2 Rank
SciTegic.value.IntegerValue
174

@<SCITEGIC>MOL_PROPERTY
Conf_Id
SciTegic.value.IntegerValue
65

@<SCITEGIC>MOL_PROPERTY
Probability
SciTegic.value.DoubleValue
0.00

@<SCITEGIC>MOL_PROPERTY
Sum Probability
SciTegic.value.DoubleValue
99.99

@<SCITEGIC>MOL_PROPERTY
Delta G
SciTegic.value.DoubleValue
6.405

@<SCITEGIC>MOL_PROPERTY
G
SciTegic.value.DoubleValue
-1.557

@<SCITEGIC>MOL_PROPERTY
E
SciTegic.value.DoubleValue
-26.694

@<SCITEGIC>MOL_PROPERTY
-TS
SciTegic.value.DoubleValue
25.137

@<SCITEGIC>MOL_PROPERTY
U+W
SciTegic.value.DoubleValue
-47.262

@<SCITEGIC>MOL_PROPERTY
U
SciTegic.value.DoubleValue
12.718

@<SCITEGIC>MOL_PROPERTY
W
SciTegic.value.DoubleValue
-59.980

@<SCITEGIC>MOL_PROPERTY
W(PB)
SciTegic.value.DoubleValue
-62.377

@<SCITEGIC>MOL_PROPERTY
W(SA)
SciTegic.value.DoubleValue
2.397

@<SCITEGIC>MOL_PROPERTY
Valence
SciTegic.value.DoubleValue
11.548

@<SCITEGIC>MOL_PROPERTY
Coulomb
SciTegic.value.DoubleValue
0.195

@<SCITEGIC>MOL_PROPERTY
VdW
SciTegic.value.DoubleValue
0.975

@<SCITEGIC>MOL_PROPERTY
VdW6
SciTegic.value.DoubleValue
-10.625

@<SCITEGIC>MOL_PROPERTY
VdW12
SciTegic.value.DoubleValue
11.600

@<SCITEGIC>MOL_PROPERTY
Bond
SciTegic.value.DoubleValue
0.265

@<SCITEGIC>MOL_PROPERTY
Angle
SciTegic.value.DoubleValue
3.380

@<SCITEGIC>MOL_PROPERTY
Pdih
SciTegic.value.DoubleValue
7.903

@<SCITEGIC>MOL_PROPERTY
Idih
SciTegic.value.DoubleValue
0.001

@<SCITEGIC>MOL_PROPERTY
Tether
SciTegic.value.DoubleValue
0.000

@<TRIPOS>MOLECULE
guest-8_vm2.mol2 : vm2 ligand conformer 175
          25          24           1
SMALL
USER_CHARGES
 
@<TRIPOS>ATOM
       1    C1      20.290112   19.812191   26.397151 C.2        1 MOL1         0.6168
       2    O1      21.292202   20.453558   26.147795 O.co2      1 MOL1        -0.6703
       3    O2      19.250455   20.313255   26.778787 O.co2      1 MOL1        -0.6703
       4    C2      20.375657   18.288750   26.333254 C.3        1 MOL1        -0.1963
       5    H1      19.451780   17.862252   26.742083 H          1 MOL1         0.0750
       6    H2      21.183383   17.996717   27.014336 H          1 MOL1         0.0750
       7    C3      20.665958   17.699178   24.924373 C.3        1 MOL1        -0.1860
       8    H3      21.458447   18.276043   24.429284 H          1 MOL1         0.0752
       9    H4      21.076422   16.689765   25.061311 H          1 MOL1         0.0752
      10    C4      19.422377   17.575239   24.005885 C.3        1 MOL1        -0.1858
      11    H5      18.659008   16.976881   24.521344 H          1 MOL1         0.0752
      12    H6      19.698804   16.993484   23.116885 H          1 MOL1         0.0752
      13    C5      18.781167   18.912430   23.552709 C.3        1 MOL1        -0.1858
      14    H7      17.921452   18.685401   22.908007 H          1 MOL1         0.0752
      15    H8      18.364626   19.431022   24.425350 H          1 MOL1         0.0752
      16    C6      19.726645   19.878698   22.795345 C.3        1 MOL1        -0.1858
      17    H9      20.546082   20.195392   23.453816 H          1 MOL1         0.0752
      18    H10     19.164899   20.790692   22.552325 H          1 MOL1         0.0752
      19    C7      20.304591   19.281997   21.492253 C.3        1 MOL1        -0.1834
      20    H11     20.934892   18.413328   21.724073 H          1 MOL1         0.0752
      21    H12     19.485686   18.923902   20.853390 H          1 MOL1         0.0752
      22    C8      21.143837   20.318705   20.718448 C.3        1 MOL1        -0.2849
      23    H13     21.551228   19.878334   19.799178 H          1 MOL1         0.0764
      24    H14     20.534030   21.187165   20.437094 H          1 MOL1         0.0764
      25    H15     21.985990   20.673593   21.326943 H          1 MOL1         0.0764
@<TRIPOS>BOND
    1     1     2    1
    2     1     3    2
    3     1     4    1
    4     4     5    1
    5     4     6    1
    6     4     7    1
    7     7     8    1
    8     7     9    1
    9     7    10    1
   10    10    11    1
   11    10    12    1
   12    10    13    1
   13    13    14    1
   14    13    15    1
   15    13    16    1
   16    16    17    1
   17    16    18    1
   18    16    19    1
   19    19    20    1
   20    19    21    1
   21    19    22    1
   22    22    23    1
   23    22    24    1
   24    22    25    1
@<TRIPOS>SUBSTRUCTURE
       1 MOL1            1 RESIDUE      1      MOL     
@<SCITEGIC>MOL_PROPERTY
VM2 Rank
SciTegic.value.IntegerValue
175

@<SCITEGIC>MOL_PROPERTY
Conf_Id
SciTegic.value.IntegerValue
239

@<SCITEGIC>MOL_PROPERTY
Probability
SciTegic.value.DoubleValue
0.00

@<SCITEGIC>MOL_PROPERTY
Sum Probability
SciTegic.value.DoubleValue
99.99

@<SCITEGIC>MOL_PROPERTY
Delta G
SciTegic.value.DoubleValue
6.407

@<SCITEGIC>MOL_PROPERTY
G
SciTegic.value.DoubleValue
-1.555

@<SCITEGIC>MOL_PROPERTY
E
SciTegic.value.DoubleValue
-27.545

@<SCITEGIC>MOL_PROPERTY
-TS
SciTegic.value.DoubleValue
25.989

@<SCITEGIC>MOL_PROPERTY
U+W
SciTegic.value.DoubleValue
-48.112

@<SCITEGIC>MOL_PROPERTY
U
SciTegic.value.DoubleValue
13.027

@<SCITEGIC>MOL_PROPERTY
W
SciTegic.value.DoubleValue
-61.139

@<SCITEGIC>MOL_PROPERTY
W(PB)
SciTegic.value.DoubleValue
-63.503

@<SCITEGIC>MOL_PROPERTY
W(SA)
SciTegic.value.DoubleValue
2.364

@<SCITEGIC>MOL_PROPERTY
Valence
SciTegic.value.DoubleValue
10.559

@<SCITEGIC>MOL_PROPERTY
Coulomb
SciTegic.value.DoubleValue
2.239

@<SCITEGIC>MOL_PROPERTY
VdW
SciTegic.value.DoubleValue
0.229

@<SCITEGIC>MOL_PROPERTY
VdW6
SciTegic.value.DoubleValue
-12.344

@<SCITEGIC>MOL_PROPERTY
VdW12
SciTegic.value.DoubleValue
12.573

@<SCITEGIC>MOL_PROPERTY
Bond
SciTegic.value.DoubleValue
0.282

@<SCITEGIC>MOL_PROPERTY
Angle
SciTegic.value.DoubleValue
4.052

@<SCITEGIC>MOL_PROPERTY
Pdih
SciTegic.value.DoubleValue
6.208

@<SCITEGIC>MOL_PROPERTY
Idih
SciTegic.value.DoubleValue
0.016

@<SCITEGIC>MOL_PROPERTY
Tether
SciTegic.value.DoubleValue
0.000

@<TRIPOS>MOLECULE
guest-8_vm2.mol2 : vm2 ligand conformer 176
          25          24           1
SMALL
USER_CHARGES
 
@<TRIPOS>ATOM
       1    C1      19.938456   19.789589   26.401247 C.2        1 MOL1         0.6168
       2    O1      20.914185   20.419637   26.759850 O.co2      1 MOL1        -0.6703
       3    O2      18.857362   20.297627   26.175754 O.co2      1 MOL1        -0.6703
       4    C2      20.046574   18.267599   26.337032 C.3        1 MOL1        -0.1963
       5    H1      19.298523   17.875856   27.035985 H          1 MOL1         0.0750
       6    H2      21.026437   17.963055   26.723957 H          1 MOL1         0.0750
       7    C3      19.801690   17.643796   24.934281 C.3        1 MOL1        -0.1860
       8    H3      19.526738   16.590426   25.079054 H          1 MOL1         0.0752
       9    H4      18.930870   18.114036   24.458388 H          1 MOL1         0.0752
      10    C4      21.029513   17.678383   23.987320 C.3        1 MOL1        -0.1858
      11    H5      20.809346   17.064757   23.104053 H          1 MOL1         0.0752
      12    H6      21.874696   17.183222   24.484253 H          1 MOL1         0.0752
      13    C5      21.484063   19.085856   23.521482 C.3        1 MOL1        -0.1858
      14    H7      21.850891   19.654711   24.385072 H          1 MOL1         0.0752
      15    H8      22.350686   18.969553   22.856854 H          1 MOL1         0.0752
      16    C6      20.405739   19.922300   22.787466 C.3        1 MOL1        -0.1858
      17    H9      20.840657   20.898199   22.532872 H          1 MOL1         0.0752
      18    H10     19.567945   20.132746   23.465087 H          1 MOL1         0.0752
      19    C7      19.878882   19.254676   21.497187 C.3        1 MOL1        -0.1834
      20    H11     20.721881   19.003092   20.839130 H          1 MOL1         0.0752
      21    H12     19.370170   18.312993   21.742237 H          1 MOL1         0.0752
      22    C8      18.896537   20.174537   20.744381 C.3        1 MOL1        -0.2849
      23    H13     19.383851   21.113273   20.450190 H          1 MOL1         0.0764
      24    H14     18.527572   19.684290   19.834177 H          1 MOL1         0.0764
      25    H15     18.030250   20.420010   21.372651 H          1 MOL1         0.0764
@<TRIPOS>BOND
    1     1     2    1
    2     1     3    2
    3     1     4    1
    4     4     5    1
    5     4     6    1
    6     4     7    1
    7     7     8    1
    8     7     9    1
    9     7    10    1
   10    10    11    1
   11    10    12    1
   12    10    13    1
   13    13    14    1
   14    13    15    1
   15    13    16    1
   16    16    17    1
   17    16    18    1
   18    16    19    1
   19    19    20    1
   20    19    21    1
   21    19    22    1
   22    22    23    1
   23    22    24    1
   24    22    25    1
@<TRIPOS>SUBSTRUCTURE
       1 MOL1            1 RESIDUE      1      MOL     
@<SCITEGIC>MOL_PROPERTY
VM2 Rank
SciTegic.value.IntegerValue
176

@<SCITEGIC>MOL_PROPERTY
Conf_Id
SciTegic.value.IntegerValue
1098

@<SCITEGIC>MOL_PROPERTY
Probability
SciTegic.value.DoubleValue
0.00

@<SCITEGIC>MOL_PROPERTY
Sum Probability
SciTegic.value.DoubleValue
99.99

@<SCITEGIC>MOL_PROPERTY
Delta G
SciTegic.value.DoubleValue
6.416

@<SCITEGIC>MOL_PROPERTY
G
SciTegic.value.DoubleValue
-1.546

@<SCITEGIC>MOL_PROPERTY
E
SciTegic.value.DoubleValue
-27.536

@<SCITEGIC>MOL_PROPERTY
-TS
SciTegic.value.DoubleValue
25.989

@<SCITEGIC>MOL_PROPERTY
U+W
SciTegic.value.DoubleValue
-48.103

@<SCITEGIC>MOL_PROPERTY
U
SciTegic.value.DoubleValue
13.027

@<SCITEGIC>MOL_PROPERTY
W
SciTegic.value.DoubleValue
-61.131

@<SCITEGIC>MOL_PROPERTY
W(PB)
SciTegic.value.DoubleValue
-63.486

@<SCITEGIC>MOL_PROPERTY
W(SA)
SciTegic.value.DoubleValue
2.355

@<SCITEGIC>MOL_PROPERTY
Valence
SciTegic.value.DoubleValue
10.559

@<SCITEGIC>MOL_PROPERTY
Coulomb
SciTegic.value.DoubleValue
2.239

@<SCITEGIC>MOL_PROPERTY
VdW
SciTegic.value.DoubleValue
0.229

@<SCITEGIC>MOL_PROPERTY
VdW6
SciTegic.value.DoubleValue
-12.344

@<SCITEGIC>MOL_PROPERTY
VdW12
SciTegic.value.DoubleValue
12.573

@<SCITEGIC>MOL_PROPERTY
Bond
SciTegic.value.DoubleValue
0.282

@<SCITEGIC>MOL_PROPERTY
Angle
SciTegic.value.DoubleValue
4.052

@<SCITEGIC>MOL_PROPERTY
Pdih
SciTegic.value.DoubleValue
6.208

@<SCITEGIC>MOL_PROPERTY
Idih
SciTegic.value.DoubleValue
0.016

@<SCITEGIC>MOL_PROPERTY
Tether
SciTegic.value.DoubleValue
0.000

@<TRIPOS>MOLECULE
guest-8_vm2.mol2 : vm2 ligand conformer 177
          25          24           1
SMALL
USER_CHARGES
 
@<TRIPOS>ATOM
       1    C1      19.988342   19.066149   27.052724 C.2        1 MOL1         0.6168
       2    O1      20.939180   19.400018   27.732179 O.co2      1 MOL1        -0.6703
       3    O2      18.841243   19.382914   27.299609 O.co2      1 MOL1        -0.6703
       4    C2      20.249027   18.182744   25.835907 C.3        1 MOL1        -0.1963
       5    H1      19.308609   17.698277   25.546604 H          1 MOL1         0.0750
       6    H2      20.933108   17.385826   26.150243 H          1 MOL1         0.0750
       7    C3      20.855658   18.937746   24.624750 C.3        1 MOL1        -0.1860
       8    H3      21.778414   19.446081   24.936577 H          1 MOL1         0.0752
       9    H4      21.143211   18.201489   23.863973 H          1 MOL1         0.0752
      10    C4      19.873083   19.965625   24.013529 C.3        1 MOL1        -0.1858
      11    H5      19.584510   20.687606   24.789550 H          1 MOL1         0.0752
      12    H6      18.943979   19.468970   23.707818 H          1 MOL1         0.0752
      13    C5      20.468560   20.752208   22.820920 C.3        1 MOL1        -0.1858
      14    H7      19.746024   21.519590   22.511674 H          1 MOL1         0.0752
      15    H8      21.354633   21.299388   23.170354 H          1 MOL1         0.0752
      16    C6      20.864775   19.912500   21.577374 C.3        1 MOL1        -0.1858
      17    H9      21.654099   19.192316   21.828874 H          1 MOL1         0.0752
      18    H10     21.320961   20.602230   20.854264 H          1 MOL1         0.0752
      19    C7      19.684609   19.199592   20.869866 C.3        1 MOL1        -0.1834
      20    H11     18.755489   19.768405   21.012078 H          1 MOL1         0.0752
      21    H12     19.877880   19.197046   19.788258 H          1 MOL1         0.0752
      22    C8      19.488523   17.734504   21.319143 C.3        1 MOL1        -0.2849
      23    H13     19.232308   17.663859   22.381865 H          1 MOL1         0.0764
      24    H14     18.676333   17.264782   20.749599 H          1 MOL1         0.0764
      25    H15     20.400547   17.147779   21.149354 H          1 MOL1         0.0764
@<TRIPOS>BOND
    1     1     2    1
    2     1     3    2
    3     1     4    1
    4     4     5    1
    5     4     6    1
    6     4     7    1
    7     7     8    1
    8     7     9    1
    9     7    10    1
   10    10    11    1
   11    10    12    1
   12    10    13    1
   13    13    14    1
   14    13    15    1
   15    13    16    1
   16    16    17    1
   17    16    18    1
   18    16    19    1
   19    19    20    1
   20    19    21    1
   21    19    22    1
   22    22    23    1
   23    22    24    1
   24    22    25    1
@<TRIPOS>SUBSTRUCTURE
       1 MOL1            1 RESIDUE      1      MOL     
@<SCITEGIC>MOL_PROPERTY
VM2 Rank
SciTegic.value.IntegerValue
177

@<SCITEGIC>MOL_PROPERTY
Conf_Id
SciTegic.value.IntegerValue
1254

@<SCITEGIC>MOL_PROPERTY
Probability
SciTegic.value.DoubleValue
0.00

@<SCITEGIC>MOL_PROPERTY
Sum Probability
SciTegic.value.DoubleValue
99.99

@<SCITEGIC>MOL_PROPERTY
Delta G
SciTegic.value.DoubleValue
6.440

@<SCITEGIC>MOL_PROPERTY
G
SciTegic.value.DoubleValue
-1.522

@<SCITEGIC>MOL_PROPERTY
E
SciTegic.value.DoubleValue
-27.047

@<SCITEGIC>MOL_PROPERTY
-TS
SciTegic.value.DoubleValue
25.525

@<SCITEGIC>MOL_PROPERTY
U+W
SciTegic.value.DoubleValue
-47.615

@<SCITEGIC>MOL_PROPERTY
U
SciTegic.value.DoubleValue
12.524

@<SCITEGIC>MOL_PROPERTY
W
SciTegic.value.DoubleValue
-60.139

@<SCITEGIC>MOL_PROPERTY
W(PB)
SciTegic.value.DoubleValue
-62.516

@<SCITEGIC>MOL_PROPERTY
W(SA)
SciTegic.value.DoubleValue
2.377

@<SCITEGIC>MOL_PROPERTY
Valence
SciTegic.value.DoubleValue
11.399

@<SCITEGIC>MOL_PROPERTY
Coulomb
SciTegic.value.DoubleValue
0.532

@<SCITEGIC>MOL_PROPERTY
VdW
SciTegic.value.DoubleValue
0.593

@<SCITEGIC>MOL_PROPERTY
VdW6
SciTegic.value.DoubleValue
-11.287

@<SCITEGIC>MOL_PROPERTY
VdW12
SciTegic.value.DoubleValue
11.880

@<SCITEGIC>MOL_PROPERTY
Bond
SciTegic.value.DoubleValue
0.261

@<SCITEGIC>MOL_PROPERTY
Angle
SciTegic.value.DoubleValue
3.786

@<SCITEGIC>MOL_PROPERTY
Pdih
SciTegic.value.DoubleValue
7.352

@<SCITEGIC>MOL_PROPERTY
Idih
SciTegic.value.DoubleValue
0.001

@<SCITEGIC>MOL_PROPERTY
Tether
SciTegic.value.DoubleValue
0.000

@<TRIPOS>MOLECULE
guest-8_vm2.mol2 : vm2 ligand conformer 178
          25          24           1
SMALL
USER_CHARGES
 
@<TRIPOS>ATOM
       1    C1      20.590209   19.295660   26.923803 C.2        1 MOL1         0.6168
       2    O1      21.609044   19.902797   26.658470 O.co2      1 MOL1        -0.6703
       3    O2      19.993844   19.411445   27.976588 O.co2      1 MOL1        -0.6703
       4    C2      20.040863   18.315717   25.890498 C.3        1 MOL1        -0.1963
       5    H1      19.824198   17.378648   26.416438 H          1 MOL1         0.0750
       6    H2      20.834589   18.095091   25.169627 H          1 MOL1         0.0750
       7    C3      18.754867   18.812151   25.172957 C.3        1 MOL1        -0.1860
       8    H3      18.300448   17.986679   24.608700 H          1 MOL1         0.0752
       9    H4      18.021658   19.089981   25.942905 H          1 MOL1         0.0752
      10    C4      18.980896   20.027262   24.235788 C.3        1 MOL1        -0.1858
      11    H5      19.828011   20.632226   24.586829 H          1 MOL1         0.0752
      12    H6      18.100589   20.680581   24.306374 H          1 MOL1         0.0752
      13    C5      19.174328   19.666518   22.741252 C.3        1 MOL1        -0.1858
      14    H7      18.279364   19.147949   22.371644 H          1 MOL1         0.0752
      15    H8      19.242036   20.604832   22.176741 H          1 MOL1         0.0752
      16    C6      20.424578   18.800863   22.454672 C.3        1 MOL1        -0.1858
      17    H9      20.314582   17.834827   22.963081 H          1 MOL1         0.0752
      18    H10     21.316362   19.282784   22.878261 H          1 MOL1         0.0752
      19    C7      20.649445   18.521601   20.950026 C.3        1 MOL1        -0.1834
      20    H11     21.452812   17.779093   20.847590 H          1 MOL1         0.0752
      21    H12     19.748385   18.064685   20.518078 H          1 MOL1         0.0752
      22    C8      21.034925   19.779987   20.141946 C.3        1 MOL1        -0.2849
      23    H13     21.913927   20.272566   20.577648 H          1 MOL1         0.0764
      24    H14     21.277924   19.510576   19.105967 H          1 MOL1         0.0764
      25    H15     20.213180   20.505914   20.110916 H          1 MOL1         0.0764
@<TRIPOS>BOND
    1     1     2    1
    2     1     3    2
    3     1     4    1
    4     4     5    1
    5     4     6    1
    6     4     7    1
    7     7     8    1
    8     7     9    1
    9     7    10    1
   10    10    11    1
   11    10    12    1
   12    10    13    1
   13    13    14    1
   14    13    15    1
   15    13    16    1
   16    16    17    1
   17    16    18    1
   18    16    19    1
   19    19    20    1
   20    19    21    1
   21    19    22    1
   22    22    23    1
   23    22    24    1
   24    22    25    1
@<TRIPOS>SUBSTRUCTURE
       1 MOL1            1 RESIDUE      1      MOL     
@<SCITEGIC>MOL_PROPERTY
VM2 Rank
SciTegic.value.IntegerValue
178

@<SCITEGIC>MOL_PROPERTY
Conf_Id
SciTegic.value.IntegerValue
1345

@<SCITEGIC>MOL_PROPERTY
Probability
SciTegic.value.DoubleValue
0.00

@<SCITEGIC>MOL_PROPERTY
Sum Probability
SciTegic.value.DoubleValue
99.99

@<SCITEGIC>MOL_PROPERTY
Delta G
SciTegic.value.DoubleValue
6.444

@<SCITEGIC>MOL_PROPERTY
G
SciTegic.value.DoubleValue
-1.519

@<SCITEGIC>MOL_PROPERTY
E
SciTegic.value.DoubleValue
-26.726

@<SCITEGIC>MOL_PROPERTY
-TS
SciTegic.value.DoubleValue
25.208

@<SCITEGIC>MOL_PROPERTY
U+W
SciTegic.value.DoubleValue
-47.294

@<SCITEGIC>MOL_PROPERTY
U
SciTegic.value.DoubleValue
12.779

@<SCITEGIC>MOL_PROPERTY
W
SciTegic.value.DoubleValue
-60.073

@<SCITEGIC>MOL_PROPERTY
W(PB)
SciTegic.value.DoubleValue
-62.478

@<SCITEGIC>MOL_PROPERTY
W(SA)
SciTegic.value.DoubleValue
2.405

@<SCITEGIC>MOL_PROPERTY
Valence
SciTegic.value.DoubleValue
11.506

@<SCITEGIC>MOL_PROPERTY
Coulomb
SciTegic.value.DoubleValue
0.274

@<SCITEGIC>MOL_PROPERTY
VdW
SciTegic.value.DoubleValue
0.999

@<SCITEGIC>MOL_PROPERTY
VdW6
SciTegic.value.DoubleValue
-10.780

@<SCITEGIC>MOL_PROPERTY
VdW12
SciTegic.value.DoubleValue
11.778

@<SCITEGIC>MOL_PROPERTY
Bond
SciTegic.value.DoubleValue
0.274

@<SCITEGIC>MOL_PROPERTY
Angle
SciTegic.value.DoubleValue
3.484

@<SCITEGIC>MOL_PROPERTY
Pdih
SciTegic.value.DoubleValue
7.747

@<SCITEGIC>MOL_PROPERTY
Idih
SciTegic.value.DoubleValue
0.001

@<SCITEGIC>MOL_PROPERTY
Tether
SciTegic.value.DoubleValue
0.000

@<TRIPOS>MOLECULE
guest-8_vm2.mol2 : vm2 ligand conformer 179
          25          24           1
SMALL
USER_CHARGES
 
@<TRIPOS>ATOM
       1    C1      20.075010   19.509218   27.106664 C.2        1 MOL1         0.6168
       2    O1      21.152323   19.151050   27.540493 O.co2      1 MOL1        -0.6703
       3    O2      19.012442   19.213338   27.617139 O.co2      1 MOL1        -0.6703
       4    C2      20.053752   20.395321   25.864326 C.3        1 MOL1        -0.1963
       5    H1      21.046282   20.844126   25.736978 H          1 MOL1         0.0750
       6    H2      19.356326   21.218035   26.060897 H          1 MOL1         0.0750
       7    C3      19.630477   19.656655   24.568006 C.3        1 MOL1        -0.1860
       8    H3      18.650035   19.185627   24.723184 H          1 MOL1         0.0752
       9    H4      19.497527   20.397496   23.771838 H          1 MOL1         0.0752
      10    C4      20.660036   18.586291   24.131221 C.3        1 MOL1        -0.1858
      11    H5      20.752438   17.847447   24.939090 H          1 MOL1         0.0752
      12    H6      21.654830   19.038064   24.017753 H          1 MOL1         0.0752
      13    C5      20.263110   17.837777   22.832889 C.3        1 MOL1        -0.1858
      14    H7      20.588873   16.793734   22.935515 H          1 MOL1         0.0752
      15    H8      19.170886   17.793349   22.731687 H          1 MOL1         0.0752
      16    C6      20.912840   18.394199   21.538287 C.3        1 MOL1        -0.1858
      17    H9      20.674965   17.715372   20.708070 H          1 MOL1         0.0752
      18    H10     22.005231   18.360434   21.648639 H          1 MOL1         0.0752
      19    C7      20.498813   19.829214   21.134818 C.3        1 MOL1        -0.1834
      20    H11     20.782954   20.540141   21.920881 H          1 MOL1         0.0752
      21    H12     21.073655   20.120207   20.244979 H          1 MOL1         0.0752
      22    C8      18.994196   19.960936   20.812156 C.3        1 MOL1        -0.2849
      23    H13     18.702117   19.263878   20.016121 H          1 MOL1         0.0764
      24    H14     18.374316   19.753148   21.692815 H          1 MOL1         0.0764
      25    H15     18.761620   20.978483   20.472803 H          1 MOL1         0.0764
@<TRIPOS>BOND
    1     1     2    1
    2     1     3    2
    3     1     4    1
    4     4     5    1
    5     4     6    1
    6     4     7    1
    7     7     8    1
    8     7     9    1
    9     7    10    1
   10    10    11    1
   11    10    12    1
   12    10    13    1
   13    13    14    1
   14    13    15    1
   15    13    16    1
   16    16    17    1
   17    16    18    1
   18    16    19    1
   19    19    20    1
   20    19    21    1
   21    19    22    1
   22    22    23    1
   23    22    24    1
   24    22    25    1
@<TRIPOS>SUBSTRUCTURE
       1 MOL1            1 RESIDUE      1      MOL     
@<SCITEGIC>MOL_PROPERTY
VM2 Rank
SciTegic.value.IntegerValue
179

@<SCITEGIC>MOL_PROPERTY
Conf_Id
SciTegic.value.IntegerValue
287

@<SCITEGIC>MOL_PROPERTY
Probability
SciTegic.value.DoubleValue
0.00

@<SCITEGIC>MOL_PROPERTY
Sum Probability
SciTegic.value.DoubleValue
100.00

@<SCITEGIC>MOL_PROPERTY
Delta G
SciTegic.value.DoubleValue
6.483

@<SCITEGIC>MOL_PROPERTY
G
SciTegic.value.DoubleValue
-1.479

@<SCITEGIC>MOL_PROPERTY
E
SciTegic.value.DoubleValue
-26.984

@<SCITEGIC>MOL_PROPERTY
-TS
SciTegic.value.DoubleValue
25.506

@<SCITEGIC>MOL_PROPERTY
U+W
SciTegic.value.DoubleValue
-47.552

@<SCITEGIC>MOL_PROPERTY
U
SciTegic.value.DoubleValue
12.398

@<SCITEGIC>MOL_PROPERTY
W
SciTegic.value.DoubleValue
-59.950

@<SCITEGIC>MOL_PROPERTY
W(PB)
SciTegic.value.DoubleValue
-62.336

@<SCITEGIC>MOL_PROPERTY
W(SA)
SciTegic.value.DoubleValue
2.386

@<SCITEGIC>MOL_PROPERTY
Valence
SciTegic.value.DoubleValue
11.447

@<SCITEGIC>MOL_PROPERTY
Coulomb
SciTegic.value.DoubleValue
0.281

@<SCITEGIC>MOL_PROPERTY
VdW
SciTegic.value.DoubleValue
0.670

@<SCITEGIC>MOL_PROPERTY
VdW6
SciTegic.value.DoubleValue
-11.120

@<SCITEGIC>MOL_PROPERTY
VdW12
SciTegic.value.DoubleValue
11.790

@<SCITEGIC>MOL_PROPERTY
Bond
SciTegic.value.DoubleValue
0.259

@<SCITEGIC>MOL_PROPERTY
Angle
SciTegic.value.DoubleValue
3.688

@<SCITEGIC>MOL_PROPERTY
Pdih
SciTegic.value.DoubleValue
7.499

@<SCITEGIC>MOL_PROPERTY
Idih
SciTegic.value.DoubleValue
0.001

@<SCITEGIC>MOL_PROPERTY
Tether
SciTegic.value.DoubleValue
0.000

@<TRIPOS>MOLECULE
guest-8_vm2.mol2 : vm2 ligand conformer 180
          25          24           1
SMALL
USER_CHARGES
 
@<TRIPOS>ATOM
       1    C1      19.991665   19.232016   26.998150 C.2        1 MOL1         0.6168
       2    O1      20.610008   18.473894   27.719550 O.co2      1 MOL1        -0.6703
       3    O2      18.778372   19.258829   26.933563 O.co2      1 MOL1        -0.6703
       4    C2      20.783621   20.222977   26.149706 C.3        1 MOL1        -0.1963
       5    H1      21.495104   20.725509   26.815198 H          1 MOL1         0.0750
       6    H2      20.100087   20.998045   25.784901 H          1 MOL1         0.0750
       7    C3      21.555862   19.572682   24.969293 C.3        1 MOL1        -0.1860
       8    H3      22.143896   20.344665   24.454923 H          1 MOL1         0.0752
       9    H4      22.280723   18.853823   25.375619 H          1 MOL1         0.0752
      10    C4      20.658205   18.846103   23.937747 C.3        1 MOL1        -0.1858
      11    H5      20.105579   18.036886   24.434476 H          1 MOL1         0.0752
      12    H6      21.306288   18.360534   23.198685 H          1 MOL1         0.0752
      13    C5      19.658063   19.787528   23.222119 C.3        1 MOL1        -0.1858
      14    H7      18.932173   20.149375   23.962405 H          1 MOL1         0.0752
      15    H8      20.176132   20.676024   22.836655 H          1 MOL1         0.0752
      16    C6      18.874557   19.091726   22.080066 C.3        1 MOL1        -0.1858
      17    H9      17.849952   19.487987   22.078144 H          1 MOL1         0.0752
      18    H10     18.778122   18.016673   22.284633 H          1 MOL1         0.0752
      19    C7      19.463328   19.314765   20.664916 C.3        1 MOL1        -0.1834
      20    H11     18.789559   18.853588   19.929740 H          1 MOL1         0.0752
      21    H12     19.476528   20.389644   20.437593 H          1 MOL1         0.0752
      22    C8      20.879319   18.733480   20.470888 C.3        1 MOL1        -0.2849
      23    H13     21.614567   19.270025   21.083579 H          1 MOL1         0.0764
      24    H14     20.908885   17.670049   20.741364 H          1 MOL1         0.0764
      25    H15     21.191797   18.825252   19.422715 H          1 MOL1         0.0764
@<TRIPOS>BOND
    1     1     2    1
    2     1     3    2
    3     1     4    1
    4     4     5    1
    5     4     6    1
    6     4     7    1
    7     7     8    1
    8     7     9    1
    9     7    10    1
   10    10    11    1
   11    10    12    1
   12    10    13    1
   13    13    14    1
   14    13    15    1
   15    13    16    1
   16    16    17    1
   17    16    18    1
   18    16    19    1
   19    19    20    1
   20    19    21    1
   21    19    22    1
   22    22    23    1
   23    22    24    1
   24    22    25    1
@<TRIPOS>SUBSTRUCTURE
       1 MOL1            1 RESIDUE      1      MOL     
@<SCITEGIC>MOL_PROPERTY
VM2 Rank
SciTegic.value.IntegerValue
180

@<SCITEGIC>MOL_PROPERTY
Conf_Id
SciTegic.value.IntegerValue
735

@<SCITEGIC>MOL_PROPERTY
Probability
SciTegic.value.DoubleValue
0.00

@<SCITEGIC>MOL_PROPERTY
Sum Probability
SciTegic.value.DoubleValue
100.00

@<SCITEGIC>MOL_PROPERTY
Delta G
SciTegic.value.DoubleValue
6.507

@<SCITEGIC>MOL_PROPERTY
G
SciTegic.value.DoubleValue
-1.455

@<SCITEGIC>MOL_PROPERTY
E
SciTegic.value.DoubleValue
-26.716

@<SCITEGIC>MOL_PROPERTY
-TS
SciTegic.value.DoubleValue
25.261

@<SCITEGIC>MOL_PROPERTY
U+W
SciTegic.value.DoubleValue
-47.284

@<SCITEGIC>MOL_PROPERTY
U
SciTegic.value.DoubleValue
12.991

@<SCITEGIC>MOL_PROPERTY
W
SciTegic.value.DoubleValue
-60.275

@<SCITEGIC>MOL_PROPERTY
W(PB)
SciTegic.value.DoubleValue
-62.676

@<SCITEGIC>MOL_PROPERTY
W(SA)
SciTegic.value.DoubleValue
2.402

@<SCITEGIC>MOL_PROPERTY
Valence
SciTegic.value.DoubleValue
11.321

@<SCITEGIC>MOL_PROPERTY
Coulomb
SciTegic.value.DoubleValue
0.926

@<SCITEGIC>MOL_PROPERTY
VdW
SciTegic.value.DoubleValue
0.744

@<SCITEGIC>MOL_PROPERTY
VdW6
SciTegic.value.DoubleValue
-11.101

@<SCITEGIC>MOL_PROPERTY
VdW12
SciTegic.value.DoubleValue
11.845

@<SCITEGIC>MOL_PROPERTY
Bond
SciTegic.value.DoubleValue
0.264

@<SCITEGIC>MOL_PROPERTY
Angle
SciTegic.value.DoubleValue
3.450

@<SCITEGIC>MOL_PROPERTY
Pdih
SciTegic.value.DoubleValue
7.605

@<SCITEGIC>MOL_PROPERTY
Idih
SciTegic.value.DoubleValue
0.001

@<SCITEGIC>MOL_PROPERTY
Tether
SciTegic.value.DoubleValue
0.000

@<TRIPOS>MOLECULE
guest-8_vm2.mol2 : vm2 ligand conformer 181
          25          24           1
SMALL
USER_CHARGES
 
@<TRIPOS>ATOM
       1    C1      20.500369   19.083991   26.773162 C.2        1 MOL1         0.6168
       2    O1      21.446373   19.846991   26.778935 O.co2      1 MOL1        -0.6703
       3    O2      19.802416   18.871493   27.745409 O.co2      1 MOL1        -0.6703
       4    C2      20.185510   18.330370   25.484165 C.3        1 MOL1        -0.1963
       5    H1      20.072761   17.271543   25.744202 H          1 MOL1         0.0750
       6    H2      21.055036   18.397417   24.821216 H          1 MOL1         0.0750
       7    C3      18.901432   18.822387   24.761316 C.3        1 MOL1        -0.1860
       8    H3      18.684029   18.171392   23.905687 H          1 MOL1         0.0752
       9    H4      18.050230   18.707285   25.446386 H          1 MOL1         0.0752
      10    C4      18.960225   20.297286   24.291999 C.3        1 MOL1        -0.1858
      11    H5      19.075840   20.943007   25.173302 H          1 MOL1         0.0752
      12    H6      17.990180   20.565722   23.852140 H          1 MOL1         0.0752
      13    C5      20.082055   20.644747   23.278291 C.3        1 MOL1        -0.1858
      14    H7      20.041354   21.729847   23.112461 H          1 MOL1         0.0752
      15    H8      21.071831   20.455640   23.714588 H          1 MOL1         0.0752
      16    C6      19.950768   19.951955   21.897355 C.3        1 MOL1        -0.1858
      17    H9      20.306005   20.650617   21.127561 H          1 MOL1         0.0752
      18    H10     18.893309   19.760030   21.670291 H          1 MOL1         0.0752
      19    C7      20.771256   18.647500   21.773266 C.3        1 MOL1        -0.1834
      20    H11     21.827962   18.854335   21.991499 H          1 MOL1         0.0752
      21    H12     20.435226   17.909165   22.510065 H          1 MOL1         0.0752
      22    C8      20.652597   18.037281   20.362104 C.3        1 MOL1        -0.2849
      23    H13     21.020876   18.735637   19.599249 H          1 MOL1         0.0764
      24    H14     21.242022   17.114109   20.289152 H          1 MOL1         0.0764
      25    H15     19.608462   17.792232   20.127491 H          1 MOL1         0.0764
@<TRIPOS>BOND
    1     1     2    1
    2     1     3    2
    3     1     4    1
    4     4     5    1
    5     4     6    1
    6     4     7    1
    7     7     8    1
    8     7     9    1
    9     7    10    1
   10    10    11    1
   11    10    12    1
   12    10    13    1
   13    13    14    1
   14    13    15    1
   15    13    16    1
   16    16    17    1
   17    16    18    1
   18    16    19    1
   19    19    20    1
   20    19    21    1
   21    19    22    1
   22    22    23    1
   23    22    24    1
   24    22    25    1
@<TRIPOS>SUBSTRUCTURE
       1 MOL1            1 RESIDUE      1      MOL     
@<SCITEGIC>MOL_PROPERTY
VM2 Rank
SciTegic.value.IntegerValue
181

@<SCITEGIC>MOL_PROPERTY
Conf_Id
SciTegic.value.IntegerValue
814

@<SCITEGIC>MOL_PROPERTY
Probability
SciTegic.value.DoubleValue
0.00

@<SCITEGIC>MOL_PROPERTY
Sum Probability
SciTegic.value.DoubleValue
100.00

@<SCITEGIC>MOL_PROPERTY
Delta G
SciTegic.value.DoubleValue
6.539

@<SCITEGIC>MOL_PROPERTY
G
SciTegic.value.DoubleValue
-1.424

@<SCITEGIC>MOL_PROPERTY
E
SciTegic.value.DoubleValue
-26.982

@<SCITEGIC>MOL_PROPERTY
-TS
SciTegic.value.DoubleValue
25.558

@<SCITEGIC>MOL_PROPERTY
U+W
SciTegic.value.DoubleValue
-47.549

@<SCITEGIC>MOL_PROPERTY
U
SciTegic.value.DoubleValue
12.713

@<SCITEGIC>MOL_PROPERTY
W
SciTegic.value.DoubleValue
-60.262

@<SCITEGIC>MOL_PROPERTY
W(PB)
SciTegic.value.DoubleValue
-62.653

@<SCITEGIC>MOL_PROPERTY
W(SA)
SciTegic.value.DoubleValue
2.391

@<SCITEGIC>MOL_PROPERTY
Valence
SciTegic.value.DoubleValue
11.394

@<SCITEGIC>MOL_PROPERTY
Coulomb
SciTegic.value.DoubleValue
0.936

@<SCITEGIC>MOL_PROPERTY
VdW
SciTegic.value.DoubleValue
0.383

@<SCITEGIC>MOL_PROPERTY
VdW6
SciTegic.value.DoubleValue
-11.631

@<SCITEGIC>MOL_PROPERTY
VdW12
SciTegic.value.DoubleValue
12.013

@<SCITEGIC>MOL_PROPERTY
Bond
SciTegic.value.DoubleValue
0.274

@<SCITEGIC>MOL_PROPERTY
Angle
SciTegic.value.DoubleValue
3.833

@<SCITEGIC>MOL_PROPERTY
Pdih
SciTegic.value.DoubleValue
7.286

@<SCITEGIC>MOL_PROPERTY
Idih
SciTegic.value.DoubleValue
0.001

@<SCITEGIC>MOL_PROPERTY
Tether
SciTegic.value.DoubleValue
0.000

@<TRIPOS>MOLECULE
guest-8_vm2.mol2 : vm2 ligand conformer 182
          25          24           1
SMALL
USER_CHARGES
 
@<TRIPOS>ATOM
       1    C1      19.831162   19.041661   26.780838 C.2        1 MOL1         0.6168
       2    O1      20.572461   18.920375   27.736520 O.co2      1 MOL1        -0.6703
       3    O2      18.796843   19.679231   26.809376 O.co2      1 MOL1        -0.6703
       4    C2      20.208937   18.331827   25.483915 C.3        1 MOL1        -0.1963
       5    H1      19.322920   18.287617   24.841192 H          1 MOL1         0.0750
       6    H2      20.460323   17.296085   25.739825 H          1 MOL1         0.0750
       7    C3      21.403744   18.980834   24.732472 C.3        1 MOL1        -0.1860
       8    H3      22.278172   18.975030   25.397646 H          1 MOL1         0.0752
       9    H4      21.681821   18.361211   23.871135 H          1 MOL1         0.0752
      10    C4      21.148618   20.435848   24.266764 C.3        1 MOL1        -0.1858
      11    H5      22.066686   20.823848   23.805107 H          1 MOL1         0.0752
      12    H6      20.972770   21.063124   25.151422 H          1 MOL1         0.0752
      13    C5      19.968920   20.637549   23.279617 C.3        1 MOL1        -0.1858
      14    H7      19.021197   20.325749   23.738283 H          1 MOL1         0.0752
      15    H8      19.868609   21.718872   23.114459 H          1 MOL1         0.0752
      16    C6      20.154767   19.964822   21.895032 C.3        1 MOL1        -0.1858
      17    H9      21.222487   19.907461   21.643447 H          1 MOL1         0.0752
      18    H10     19.696656   20.611973   21.134616 H          1 MOL1         0.0752
      19    C7      19.502709   18.567127   21.787945 C.3        1 MOL1        -0.1834
      20    H11     19.946056   17.878127   22.515716 H          1 MOL1         0.0752
      21    H12     18.433664   18.639354   22.030763 H          1 MOL1         0.0752
      22    C8      19.664839   17.974727   20.373520 C.3        1 MOL1        -0.2849
      23    H13     19.193884   18.619936   19.620403 H          1 MOL1         0.0764
      24    H14     20.725857   17.863054   20.114521 H          1 MOL1         0.0764
      25    H15     19.195086   16.984456   20.312811 H          1 MOL1         0.0764
@<TRIPOS>BOND
    1     1     2    1
    2     1     3    2
    3     1     4    1
    4     4     5    1
    5     4     6    1
    6     4     7    1
    7     7     8    1
    8     7     9    1
    9     7    10    1
   10    10    11    1
   11    10    12    1
   12    10    13    1
   13    13    14    1
   14    13    15    1
   15    13    16    1
   16    16    17    1
   17    16    18    1
   18    16    19    1
   19    19    20    1
   20    19    21    1
   21    19    22    1
   22    22    23    1
   23    22    24    1
   24    22    25    1
@<TRIPOS>SUBSTRUCTURE
       1 MOL1            1 RESIDUE      1      MOL     
@<SCITEGIC>MOL_PROPERTY
VM2 Rank
SciTegic.value.IntegerValue
182

@<SCITEGIC>MOL_PROPERTY
Conf_Id
SciTegic.value.IntegerValue
830

@<SCITEGIC>MOL_PROPERTY
Probability
SciTegic.value.DoubleValue
0.00

@<SCITEGIC>MOL_PROPERTY
Sum Probability
SciTegic.value.DoubleValue
100.00

@<SCITEGIC>MOL_PROPERTY
Delta G
SciTegic.value.DoubleValue
6.565

@<SCITEGIC>MOL_PROPERTY
G
SciTegic.value.DoubleValue
-1.397

@<SCITEGIC>MOL_PROPERTY
E
SciTegic.value.DoubleValue
-26.955

@<SCITEGIC>MOL_PROPERTY
-TS
SciTegic.value.DoubleValue
25.558

@<SCITEGIC>MOL_PROPERTY
U+W
SciTegic.value.DoubleValue
-47.523

@<SCITEGIC>MOL_PROPERTY
U
SciTegic.value.DoubleValue
12.713

@<SCITEGIC>MOL_PROPERTY
W
SciTegic.value.DoubleValue
-60.236

@<SCITEGIC>MOL_PROPERTY
W(PB)
SciTegic.value.DoubleValue
-62.605

@<SCITEGIC>MOL_PROPERTY
W(SA)
SciTegic.value.DoubleValue
2.369

@<SCITEGIC>MOL_PROPERTY
Valence
SciTegic.value.DoubleValue
11.394

@<SCITEGIC>MOL_PROPERTY
Coulomb
SciTegic.value.DoubleValue
0.936

@<SCITEGIC>MOL_PROPERTY
VdW
SciTegic.value.DoubleValue
0.383

@<SCITEGIC>MOL_PROPERTY
VdW6
SciTegic.value.DoubleValue
-11.631

@<SCITEGIC>MOL_PROPERTY
VdW12
SciTegic.value.DoubleValue
12.014

@<SCITEGIC>MOL_PROPERTY
Bond
SciTegic.value.DoubleValue
0.274

@<SCITEGIC>MOL_PROPERTY
Angle
SciTegic.value.DoubleValue
3.833

@<SCITEGIC>MOL_PROPERTY
Pdih
SciTegic.value.DoubleValue
7.286

@<SCITEGIC>MOL_PROPERTY
Idih
SciTegic.value.DoubleValue
0.001

@<SCITEGIC>MOL_PROPERTY
Tether
SciTegic.value.DoubleValue
0.000

@<TRIPOS>MOLECULE
guest-8_vm2.mol2 : vm2 ligand conformer 183
          25          24           1
SMALL
USER_CHARGES
 
@<TRIPOS>ATOM
       1    C1      19.987516   18.956994   26.871008 C.2        1 MOL1         0.6168
       2    O1      20.799414   18.279176   27.470091 O.co2      1 MOL1        -0.6703
       3    O2      18.825581   18.635484   26.717812 O.co2      1 MOL1        -0.6703
       4    C2      20.447277   20.298799   26.307732 C.3        1 MOL1        -0.1963
       5    H1      20.958546   20.832877   27.117061 H          1 MOL1         0.0750
       6    H2      19.563494   20.894989   26.054980 H          1 MOL1         0.0750
       7    C3      21.401837   20.182338   25.087640 C.3        1 MOL1        -0.1860
       8    H3      21.725664   21.187284   24.785108 H          1 MOL1         0.0752
       9    H4      22.309358   19.649500   25.403584 H          1 MOL1         0.0752
      10    C4      20.798772   19.450245   23.863129 C.3        1 MOL1        -0.1858
      11    H5      20.489811   18.435787   24.149966 H          1 MOL1         0.0752
      12    H6      21.593874   19.337133   23.115723 H          1 MOL1         0.0752
      13    C5      19.605332   20.197729   23.222046 C.3        1 MOL1        -0.1858
      14    H7      18.824959   20.353618   23.977620 H          1 MOL1         0.0752
      15    H8      19.929730   21.196189   22.899183 H          1 MOL1         0.0752
      16    C6      18.959279   19.453831   22.026002 C.3        1 MOL1        -0.1858
      17    H9      18.096602   20.047894   21.694833 H          1 MOL1         0.0752
      18    H10     18.547321   18.492039   22.361120 H          1 MOL1         0.0752
      19    C7      19.895129   19.243096   20.809425 C.3        1 MOL1        -0.1834
      20    H11     19.310816   19.376575   19.888534 H          1 MOL1         0.0752
      21    H12     20.675609   20.016201   20.790067 H          1 MOL1         0.0752
      22    C8      20.532862   17.836308   20.771115 C.3        1 MOL1        -0.2849
      23    H13     19.759748   17.059550   20.707702 H          1 MOL1         0.0764
      24    H14     21.184616   17.733565   19.893931 H          1 MOL1         0.0764
      25    H15     21.137573   17.638117   21.663467 H          1 MOL1         0.0764
@<TRIPOS>BOND
    1     1     2    1
    2     1     3    2
    3     1     4    1
    4     4     5    1
    5     4     6    1
    6     4     7    1
    7     7     8    1
    8     7     9    1
    9     7    10    1
   10    10    11    1
   11    10    12    1
   12    10    13    1
   13    13    14    1
   14    13    15    1
   15    13    16    1
   16    16    17    1
   17    16    18    1
   18    16    19    1
   19    19    20    1
   20    19    21    1
   21    19    22    1
   22    22    23    1
   23    22    24    1
   24    22    25    1
@<TRIPOS>SUBSTRUCTURE
       1 MOL1            1 RESIDUE      1      MOL     
@<SCITEGIC>MOL_PROPERTY
VM2 Rank
SciTegic.value.IntegerValue
183

@<SCITEGIC>MOL_PROPERTY
Conf_Id
SciTegic.value.IntegerValue
547

@<SCITEGIC>MOL_PROPERTY
Probability
SciTegic.value.DoubleValue
0.00

@<SCITEGIC>MOL_PROPERTY
Sum Probability
SciTegic.value.DoubleValue
100.00

@<SCITEGIC>MOL_PROPERTY
Delta G
SciTegic.value.DoubleValue
6.593

@<SCITEGIC>MOL_PROPERTY
G
SciTegic.value.DoubleValue
-1.370

@<SCITEGIC>MOL_PROPERTY
E
SciTegic.value.DoubleValue
-26.477

@<SCITEGIC>MOL_PROPERTY
-TS
SciTegic.value.DoubleValue
25.107

@<SCITEGIC>MOL_PROPERTY
U+W
SciTegic.value.DoubleValue
-47.044

@<SCITEGIC>MOL_PROPERTY
U
SciTegic.value.DoubleValue
13.601

@<SCITEGIC>MOL_PROPERTY
W
SciTegic.value.DoubleValue
-60.645

@<SCITEGIC>MOL_PROPERTY
W(PB)
SciTegic.value.DoubleValue
-63.053

@<SCITEGIC>MOL_PROPERTY
W(SA)
SciTegic.value.DoubleValue
2.407

@<SCITEGIC>MOL_PROPERTY
Valence
SciTegic.value.DoubleValue
11.436

@<SCITEGIC>MOL_PROPERTY
Coulomb
SciTegic.value.DoubleValue
1.346

@<SCITEGIC>MOL_PROPERTY
VdW
SciTegic.value.DoubleValue
0.819

@<SCITEGIC>MOL_PROPERTY
VdW6
SciTegic.value.DoubleValue
-10.981

@<SCITEGIC>MOL_PROPERTY
VdW12
SciTegic.value.DoubleValue
11.799

@<SCITEGIC>MOL_PROPERTY
Bond
SciTegic.value.DoubleValue
0.269

@<SCITEGIC>MOL_PROPERTY
Angle
SciTegic.value.DoubleValue
3.574

@<SCITEGIC>MOL_PROPERTY
Pdih
SciTegic.value.DoubleValue
7.592

@<SCITEGIC>MOL_PROPERTY
Idih
SciTegic.value.DoubleValue
0.001

@<SCITEGIC>MOL_PROPERTY
Tether
SciTegic.value.DoubleValue
0.000

@<TRIPOS>MOLECULE
guest-8_vm2.mol2 : vm2 ligand conformer 184
          25          24           1
SMALL
USER_CHARGES
 
@<TRIPOS>ATOM
       1    C1      20.091578   19.829326   26.735713 C.2        1 MOL1         0.6168
       2    O1      21.073820   20.539380   26.826100 O.co2      1 MOL1        -0.6703
       3    O2      18.952806   20.237895   26.851293 O.co2      1 MOL1        -0.6703
       4    C2      20.303250   18.337528   26.492545 C.3        1 MOL1        -0.1963
       5    H1      19.392218   17.802130   26.786012 H          1 MOL1         0.0750
       6    H2      21.099064   18.004559   27.169118 H          1 MOL1         0.0750
       7    C3      20.684985   17.986162   25.031145 C.3        1 MOL1        -0.1860
       8    H3      21.585275   18.549249   24.753312 H          1 MOL1         0.0752
       9    H4      20.950095   16.921677   24.978884 H          1 MOL1         0.0752
      10    C4      19.536747   18.275631   24.033993 C.3        1 MOL1        -0.1858
      11    H5      19.278062   19.340927   24.065101 H          1 MOL1         0.0752
      12    H6      18.640411   17.732668   24.363048 H          1 MOL1         0.0752
      13    C5      19.865381   17.844401   22.582173 C.3        1 MOL1        -0.1858
      14    H7      20.227084   16.807385   22.603092 H          1 MOL1         0.0752
      15    H8      18.940987   17.823176   21.989229 H          1 MOL1         0.0752
      16    C6      20.917573   18.729757   21.862149 C.3        1 MOL1        -0.1858
      17    H9      21.520672   18.080929   21.212606 H          1 MOL1         0.0752
      18    H10     21.621406   19.165806   22.581749 H          1 MOL1         0.0752
      19    C7      20.317773   19.848590   20.974968 C.3        1 MOL1        -0.1834
      20    H11     21.138987   20.353186   20.447602 H          1 MOL1         0.0752
      21    H12     19.681734   19.402627   20.197957 H          1 MOL1         0.0752
      22    C8      19.509087   20.905329   21.755921 C.3        1 MOL1        -0.2849
      23    H13     18.588580   20.473775   22.168217 H          1 MOL1         0.0764
      24    H14     20.099455   21.320954   22.583048 H          1 MOL1         0.0764
      25    H15     19.219818   21.733140   21.095825 H          1 MOL1         0.0764
@<TRIPOS>BOND
    1     1     2    1
    2     1     3    2
    3     1     4    1
    4     4     5    1
    5     4     6    1
    6     4     7    1
    7     7     8    1
    8     7     9    1
    9     7    10    1
   10    10    11    1
   11    10    12    1
   12    10    13    1
   13    13    14    1
   14    13    15    1
   15    13    16    1
   16    16    17    1
   17    16    18    1
   18    16    19    1
   19    19    20    1
   20    19    21    1
   21    19    22    1
   22    22    23    1
   23    22    24    1
   24    22    25    1
@<TRIPOS>SUBSTRUCTURE
       1 MOL1            1 RESIDUE      1      MOL     
@<SCITEGIC>MOL_PROPERTY
VM2 Rank
SciTegic.value.IntegerValue
184

@<SCITEGIC>MOL_PROPERTY
Conf_Id
SciTegic.value.IntegerValue
572

@<SCITEGIC>MOL_PROPERTY
Probability
SciTegic.value.DoubleValue
0.00

@<SCITEGIC>MOL_PROPERTY
Sum Probability
SciTegic.value.DoubleValue
100.00

@<SCITEGIC>MOL_PROPERTY
Delta G
SciTegic.value.DoubleValue
6.641

@<SCITEGIC>MOL_PROPERTY
G
SciTegic.value.DoubleValue
-1.322

@<SCITEGIC>MOL_PROPERTY
E
SciTegic.value.DoubleValue
-26.452

@<SCITEGIC>MOL_PROPERTY
-TS
SciTegic.value.DoubleValue
25.131

@<SCITEGIC>MOL_PROPERTY
U+W
SciTegic.value.DoubleValue
-47.020

@<SCITEGIC>MOL_PROPERTY
U
SciTegic.value.DoubleValue
13.848

@<SCITEGIC>MOL_PROPERTY
W
SciTegic.value.DoubleValue
-60.868

@<SCITEGIC>MOL_PROPERTY
W(PB)
SciTegic.value.DoubleValue
-63.247

@<SCITEGIC>MOL_PROPERTY
W(SA)
SciTegic.value.DoubleValue
2.378

@<SCITEGIC>MOL_PROPERTY
Valence
SciTegic.value.DoubleValue
11.487

@<SCITEGIC>MOL_PROPERTY
Coulomb
SciTegic.value.DoubleValue
1.558

@<SCITEGIC>MOL_PROPERTY
VdW
SciTegic.value.DoubleValue
0.803

@<SCITEGIC>MOL_PROPERTY
VdW6
SciTegic.value.DoubleValue
-10.837

@<SCITEGIC>MOL_PROPERTY
VdW12
SciTegic.value.DoubleValue
11.640

@<SCITEGIC>MOL_PROPERTY
Bond
SciTegic.value.DoubleValue
0.263

@<SCITEGIC>MOL_PROPERTY
Angle
SciTegic.value.DoubleValue
3.374

@<SCITEGIC>MOL_PROPERTY
Pdih
SciTegic.value.DoubleValue
7.849

@<SCITEGIC>MOL_PROPERTY
Idih
SciTegic.value.DoubleValue
0.001

@<SCITEGIC>MOL_PROPERTY
Tether
SciTegic.value.DoubleValue
0.000

@<TRIPOS>MOLECULE
guest-8_vm2.mol2 : vm2 ligand conformer 185
          25          24           1
SMALL
USER_CHARGES
 
@<TRIPOS>ATOM
       1    C1      20.357933   18.980273   26.866767 C.2        1 MOL1         0.6168
       2    O1      21.547189   18.806865   26.686405 O.co2      1 MOL1        -0.6703
       3    O2      19.651500   18.206817   27.483396 O.co2      1 MOL1        -0.6703
       4    C2      19.720619   20.252958   26.316127 C.3        1 MOL1        -0.1963
       5    H1      20.516564   20.954956   26.043976 H          1 MOL1         0.0750
       6    H2      19.165118   20.719846   27.137759 H          1 MOL1         0.0750
       7    C3      18.760419   20.015848   25.118144 C.3        1 MOL1        -0.1860
       8    H3      17.934493   19.373728   25.454087 H          1 MOL1         0.0752
       9    H4      18.306106   20.971755   24.824637 H          1 MOL1         0.0752
      10    C4      19.422296   19.363538   23.878997 C.3        1 MOL1        -0.1858
      11    H5      18.630692   19.150350   23.149949 H          1 MOL1         0.0752
      12    H6      19.862781   18.396348   24.157155 H          1 MOL1         0.0752
      13    C5      20.497278   20.254097   23.211667 C.3        1 MOL1        -0.1858
      14    H7      20.042656   21.203410   22.897787 H          1 MOL1         0.0752
      15    H8      21.269076   20.507914   23.949284 H          1 MOL1         0.0752
      16    C6      21.203945   19.595486   21.999999 C.3        1 MOL1        -0.1858
      17    H9      21.741111   18.693592   22.324183 H          1 MOL1         0.0752
      18    H10     21.977269   20.292742   21.649857 H          1 MOL1         0.0752
      19    C7      20.274193   19.266983   20.805040 C.3        1 MOL1        -0.1834
      20    H11     19.402489   19.935823   20.804796 H          1 MOL1         0.0752
      21    H12     20.815691   19.471478   19.871104 H          1 MOL1         0.0752
      22    C8      19.817630   17.791137   20.779456 C.3        1 MOL1        -0.2849
      23    H13     20.680581   17.117614   20.697233 H          1 MOL1         0.0764
      24    H14     19.263279   17.519876   21.685192 H          1 MOL1         0.0764
      25    H15     19.163986   17.605953   19.917340 H          1 MOL1         0.0764
@<TRIPOS>BOND
    1     1     2    1
    2     1     3    2
    3     1     4    1
    4     4     5    1
    5     4     6    1
    6     4     7    1
    7     7     8    1
    8     7     9    1
    9     7    10    1
   10    10    11    1
   11    10    12    1
   12    10    13    1
   13    13    14    1
   14    13    15    1
   15    13    16    1
   16    16    17    1
   17    16    18    1
   18    16    19    1
   19    19    20    1
   20    19    21    1
   21    19    22    1
   22    22    23    1
   23    22    24    1
   24    22    25    1
@<TRIPOS>SUBSTRUCTURE
       1 MOL1            1 RESIDUE      1      MOL     
@<SCITEGIC>MOL_PROPERTY
VM2 Rank
SciTegic.value.IntegerValue
185

@<SCITEGIC>MOL_PROPERTY
Conf_Id
SciTegic.value.IntegerValue
220

@<SCITEGIC>MOL_PROPERTY
Probability
SciTegic.value.DoubleValue
0.00

@<SCITEGIC>MOL_PROPERTY
Sum Probability
SciTegic.value.DoubleValue
100.00

@<SCITEGIC>MOL_PROPERTY
Delta G
SciTegic.value.DoubleValue
6.657

@<SCITEGIC>MOL_PROPERTY
G
SciTegic.value.DoubleValue
-1.305

@<SCITEGIC>MOL_PROPERTY
E
SciTegic.value.DoubleValue
-26.412

@<SCITEGIC>MOL_PROPERTY
-TS
SciTegic.value.DoubleValue
25.107

@<SCITEGIC>MOL_PROPERTY
U+W
SciTegic.value.DoubleValue
-46.980

@<SCITEGIC>MOL_PROPERTY
U
SciTegic.value.DoubleValue
13.601

@<SCITEGIC>MOL_PROPERTY
W
SciTegic.value.DoubleValue
-60.580

@<SCITEGIC>MOL_PROPERTY
W(PB)
SciTegic.value.DoubleValue
-63.002

@<SCITEGIC>MOL_PROPERTY
W(SA)
SciTegic.value.DoubleValue
2.421

@<SCITEGIC>MOL_PROPERTY
Valence
SciTegic.value.DoubleValue
11.436

@<SCITEGIC>MOL_PROPERTY
Coulomb
SciTegic.value.DoubleValue
1.346

@<SCITEGIC>MOL_PROPERTY
VdW
SciTegic.value.DoubleValue
0.819

@<SCITEGIC>MOL_PROPERTY
VdW6
SciTegic.value.DoubleValue
-10.981

@<SCITEGIC>MOL_PROPERTY
VdW12
SciTegic.value.DoubleValue
11.799

@<SCITEGIC>MOL_PROPERTY
Bond
SciTegic.value.DoubleValue
0.269

@<SCITEGIC>MOL_PROPERTY
Angle
SciTegic.value.DoubleValue
3.573

@<SCITEGIC>MOL_PROPERTY
Pdih
SciTegic.value.DoubleValue
7.592

@<SCITEGIC>MOL_PROPERTY
Idih
SciTegic.value.DoubleValue
0.001

@<SCITEGIC>MOL_PROPERTY
Tether
SciTegic.value.DoubleValue
0.000

@<TRIPOS>MOLECULE
guest-8_vm2.mol2 : vm2 ligand conformer 186
          25          24           1
SMALL
USER_CHARGES
 
@<TRIPOS>ATOM
       1    C1      19.676370   19.127660   26.644582 C.2        1 MOL1         0.6168
       2    O1      19.825390   18.105567   27.285452 O.co2      1 MOL1        -0.6703
       3    O2      18.591840   19.550075   26.294867 O.co2      1 MOL1        -0.6703
       4    C2      20.918326   19.940633   26.289461 C.3        1 MOL1        -0.1963
       5    H1      21.487246   20.087239   27.214891 H          1 MOL1         0.0750
       6    H2      20.602806   20.936477   25.957924 H          1 MOL1         0.0750
       7    C3      21.831413   19.273058   25.224900 C.3        1 MOL1        -0.1860
       8    H3      22.725932   19.893117   25.077776 H          1 MOL1         0.0752
       9    H4      22.185850   18.309910   25.617336 H          1 MOL1         0.0752
      10    C4      21.146445   19.032699   23.857214 C.3        1 MOL1        -0.1858
      11    H5      20.286306   18.364905   23.996785 H          1 MOL1         0.0752
      12    H6      21.851664   18.506528   23.199829 H          1 MOL1         0.0752
      13    C5      20.684883   20.336732   23.165516 C.3        1 MOL1        -0.1858
      14    H7      19.860847   20.785166   23.736567 H          1 MOL1         0.0752
      15    H8      21.508801   21.062797   23.185263 H          1 MOL1         0.0752
      16    C6      20.234946   20.149514   21.694703 C.3        1 MOL1        -0.1858
      17    H9      21.071953   19.778816   21.087437 H          1 MOL1         0.0752
      18    H10     19.993715   21.143882   21.294931 H          1 MOL1         0.0752
      19    C7      18.992792   19.242319   21.509199 C.3        1 MOL1        -0.1834
      20    H11     18.352853   19.286786   22.401604 H          1 MOL1         0.0752
      21    H12     18.389840   19.638496   20.680529 H          1 MOL1         0.0752
      22    C8      19.350594   17.775741   21.180106 C.3        1 MOL1        -0.2849
      23    H13     19.929973   17.307054   21.983471 H          1 MOL1         0.0764
      24    H14     18.438903   17.181888   21.035463 H          1 MOL1         0.0764
      25    H15     19.940643   17.715348   20.256424 H          1 MOL1         0.0764
@<TRIPOS>BOND
    1     1     2    1
    2     1     3    2
    3     1     4    1
    4     4     5    1
    5     4     6    1
    6     4     7    1
    7     7     8    1
    8     7     9    1
    9     7    10    1
   10    10    11    1
   11    10    12    1
   12    10    13    1
   13    13    14    1
   14    13    15    1
   15    13    16    1
   16    16    17    1
   17    16    18    1
   18    16    19    1
   19    19    20    1
   20    19    21    1
   21    19    22    1
   22    22    23    1
   23    22    24    1
   24    22    25    1
@<TRIPOS>SUBSTRUCTURE
       1 MOL1            1 RESIDUE      1      MOL     
@<SCITEGIC>MOL_PROPERTY
VM2 Rank
SciTegic.value.IntegerValue
186

@<SCITEGIC>MOL_PROPERTY
Conf_Id
SciTegic.value.IntegerValue
550

@<SCITEGIC>MOL_PROPERTY
Probability
SciTegic.value.DoubleValue
0.00

@<SCITEGIC>MOL_PROPERTY
Sum Probability
SciTegic.value.DoubleValue
100.00

@<SCITEGIC>MOL_PROPERTY
Delta G
SciTegic.value.DoubleValue
6.706

@<SCITEGIC>MOL_PROPERTY
G
SciTegic.value.DoubleValue
-1.257

@<SCITEGIC>MOL_PROPERTY
E
SciTegic.value.DoubleValue
-26.500

@<SCITEGIC>MOL_PROPERTY
-TS
SciTegic.value.DoubleValue
25.243

@<SCITEGIC>MOL_PROPERTY
U+W
SciTegic.value.DoubleValue
-47.067

@<SCITEGIC>MOL_PROPERTY
U
SciTegic.value.DoubleValue
13.833

@<SCITEGIC>MOL_PROPERTY
W
SciTegic.value.DoubleValue
-60.900

@<SCITEGIC>MOL_PROPERTY
W(PB)
SciTegic.value.DoubleValue
-63.271

@<SCITEGIC>MOL_PROPERTY
W(SA)
SciTegic.value.DoubleValue
2.371

@<SCITEGIC>MOL_PROPERTY
Valence
SciTegic.value.DoubleValue
11.236

@<SCITEGIC>MOL_PROPERTY
Coulomb
SciTegic.value.DoubleValue
1.973

@<SCITEGIC>MOL_PROPERTY
VdW
SciTegic.value.DoubleValue
0.624

@<SCITEGIC>MOL_PROPERTY
VdW6
SciTegic.value.DoubleValue
-11.283

@<SCITEGIC>MOL_PROPERTY
VdW12
SciTegic.value.DoubleValue
11.907

@<SCITEGIC>MOL_PROPERTY
Bond
SciTegic.value.DoubleValue
0.259

@<SCITEGIC>MOL_PROPERTY
Angle
SciTegic.value.DoubleValue
3.439

@<SCITEGIC>MOL_PROPERTY
Pdih
SciTegic.value.DoubleValue
7.536

@<SCITEGIC>MOL_PROPERTY
Idih
SciTegic.value.DoubleValue
0.002

@<SCITEGIC>MOL_PROPERTY
Tether
SciTegic.value.DoubleValue
0.000

@<TRIPOS>MOLECULE
guest-8_vm2.mol2 : vm2 ligand conformer 187
          25          24           1
SMALL
USER_CHARGES
 
@<TRIPOS>ATOM
       1    C1      20.398764   19.808153   26.484200 C.2        1 MOL1         0.6168
       2    O1      21.298109   20.482123   26.022234 O.co2      1 MOL1        -0.6703
       3    O2      20.472091   19.236498   27.554656 O.co2      1 MOL1        -0.6703
       4    C2      19.087709   19.715724   25.706151 C.3        1 MOL1        -0.1963
       5    H1      19.147138   20.359965   24.822443 H          1 MOL1         0.0750
       6    H2      18.306619   20.142267   26.345814 H          1 MOL1         0.0750
       7    C3      18.683020   18.272214   25.303356 C.3        1 MOL1        -0.1860
       8    H3      18.583370   17.671142   26.217794 H          1 MOL1         0.0752
       9    H4      17.685189   18.293478   24.844942 H          1 MOL1         0.0752
      10    C4      19.667951   17.554372   24.345291 C.3        1 MOL1        -0.1858
      11    H5      19.331645   16.512841   24.250873 H          1 MOL1         0.0752
      12    H6      20.669206   17.502344   24.794603 H          1 MOL1         0.0752
      13    C5      19.739885   18.161342   22.920432 C.3        1 MOL1        -0.1858
      14    H7      19.844470   17.339391   22.199277 H          1 MOL1         0.0752
      15    H8      18.791876   18.659643   22.680806 H          1 MOL1         0.0752
      16    C6      20.932992   19.128638   22.721133 C.3        1 MOL1        -0.1858
      17    H9      21.861009   18.610847   22.998836 H          1 MOL1         0.0752
      18    H10     20.849863   19.987553   23.396988 H          1 MOL1         0.0752
      19    C7      21.072650   19.637500   21.267428 C.3        1 MOL1        -0.1834
      20    H11     22.007737   20.208151   21.182938 H          1 MOL1         0.0752
      21    H12     21.166748   18.784176   20.581752 H          1 MOL1         0.0752
      22    C8      19.899828   20.537436   20.821120 C.3        1 MOL1        -0.2849
      23    H13     19.767965   21.380897   21.511311 H          1 MOL1         0.0764
      24    H14     20.088679   20.945930   19.819976 H          1 MOL1         0.0764
      25    H15     18.957853   19.976737   20.778743 H          1 MOL1         0.0764
@<TRIPOS>BOND
    1     1     2    1
    2     1     3    2
    3     1     4    1
    4     4     5    1
    5     4     6    1
    6     4     7    1
    7     7     8    1
    8     7     9    1
    9     7    10    1
   10    10    11    1
   11    10    12    1
   12    10    13    1
   13    13    14    1
   14    13    15    1
   15    13    16    1
   16    16    17    1
   17    16    18    1
   18    16    19    1
   19    19    20    1
   20    19    21    1
   21    19    22    1
   22    22    23    1
   23    22    24    1
   24    22    25    1
@<TRIPOS>SUBSTRUCTURE
       1 MOL1            1 RESIDUE      1      MOL     
@<SCITEGIC>MOL_PROPERTY
VM2 Rank
SciTegic.value.IntegerValue
187

@<SCITEGIC>MOL_PROPERTY
Conf_Id
SciTegic.value.IntegerValue
851

@<SCITEGIC>MOL_PROPERTY
Probability
SciTegic.value.DoubleValue
0.00

@<SCITEGIC>MOL_PROPERTY
Sum Probability
SciTegic.value.DoubleValue
100.00

@<SCITEGIC>MOL_PROPERTY
Delta G
SciTegic.value.DoubleValue
6.826

@<SCITEGIC>MOL_PROPERTY
G
SciTegic.value.DoubleValue
-1.137

@<SCITEGIC>MOL_PROPERTY
E
SciTegic.value.DoubleValue
-26.350

@<SCITEGIC>MOL_PROPERTY
-TS
SciTegic.value.DoubleValue
25.213

@<SCITEGIC>MOL_PROPERTY
U+W
SciTegic.value.DoubleValue
-46.917

@<SCITEGIC>MOL_PROPERTY
U
SciTegic.value.DoubleValue
13.928

@<SCITEGIC>MOL_PROPERTY
W
SciTegic.value.DoubleValue
-60.845

@<SCITEGIC>MOL_PROPERTY
W(PB)
SciTegic.value.DoubleValue
-63.223

@<SCITEGIC>MOL_PROPERTY
W(SA)
SciTegic.value.DoubleValue
2.378

@<SCITEGIC>MOL_PROPERTY
Valence
SciTegic.value.DoubleValue
11.622

@<SCITEGIC>MOL_PROPERTY
Coulomb
SciTegic.value.DoubleValue
1.812

@<SCITEGIC>MOL_PROPERTY
VdW
SciTegic.value.DoubleValue
0.493

@<SCITEGIC>MOL_PROPERTY
VdW6
SciTegic.value.DoubleValue
-11.533

@<SCITEGIC>MOL_PROPERTY
VdW12
SciTegic.value.DoubleValue
12.026

@<SCITEGIC>MOL_PROPERTY
Bond
SciTegic.value.DoubleValue
0.265

@<SCITEGIC>MOL_PROPERTY
Angle
SciTegic.value.DoubleValue
3.635

@<SCITEGIC>MOL_PROPERTY
Pdih
SciTegic.value.DoubleValue
7.718

@<SCITEGIC>MOL_PROPERTY
Idih
SciTegic.value.DoubleValue
0.004

@<SCITEGIC>MOL_PROPERTY
Tether
SciTegic.value.DoubleValue
0.000

@<TRIPOS>MOLECULE
guest-8_vm2.mol2 : vm2 ligand conformer 188
          25          24           1
SMALL
USER_CHARGES
 
@<TRIPOS>ATOM
       1    C1      19.833038   19.771606   26.490844 C.2        1 MOL1         0.6168
       2    O1      19.858261   19.196729   27.561789 O.co2      1 MOL1        -0.6703
       3    O2      18.844320   20.324093   26.050771 O.co2      1 MOL1        -0.6703
       4    C2      21.126892   19.846966   25.682743 C.3        1 MOL1        -0.1963
       5    H1      21.861367   20.370950   26.304996 H          1 MOL1         0.0750
       6    H2      20.965084   20.477120   24.801701 H          1 MOL1         0.0750
       7    C3      21.703897   18.466712   25.268381 C.3        1 MOL1        -0.1860
       8    H3      22.679903   18.615109   24.787077 H          1 MOL1         0.0752
       9    H4      21.900896   17.884639   26.179312 H          1 MOL1         0.0752
      10    C4      20.797251   17.627179   24.332188 C.3        1 MOL1        -0.1858
      11    H5      19.821574   17.447852   24.804411 H          1 MOL1         0.0752
      12    H6      21.262036   16.637223   24.228424 H          1 MOL1         0.0752
      13    C5      20.615215   18.217860   22.910299 C.3        1 MOL1        -0.1858
      14    H7      21.485866   18.832997   22.649493 H          1 MOL1         0.0752
      15    H8      20.599951   17.388207   22.190544 H          1 MOL1         0.0752
      16    C6      19.303862   19.024267   22.740135 C.3        1 MOL1        -0.1858
      17    H9      19.292202   19.887962   23.414906 H          1 MOL1         0.0752
      18    H10     18.456418   18.392546   23.038813 H          1 MOL1         0.0752
      19    C7      19.066388   19.508508   21.290715 C.3        1 MOL1        -0.1834
      20    H11     19.066068   18.648921   20.606407 H          1 MOL1         0.0752
      21    H12     18.064342   19.954873   21.228837 H          1 MOL1         0.0752
      22    C8      20.103875   20.550079   20.818135 C.3        1 MOL1        -0.2849
      23    H13     21.108499   20.114205   20.752979 H          1 MOL1         0.0764
      24    H14     19.840997   20.929334   19.822203 H          1 MOL1         0.0764
      25    H15     20.143056   21.404693   21.506086 H          1 MOL1         0.0764
@<TRIPOS>BOND
    1     1     2    1
    2     1     3    2
    3     1     4    1
    4     4     5    1
    5     4     6    1
    6     4     7    1
    7     7     8    1
    8     7     9    1
    9     7    10    1
   10    10    11    1
   11    10    12    1
   12    10    13    1
   13    13    14    1
   14    13    15    1
   15    13    16    1
   16    16    17    1
   17    16    18    1
   18    16    19    1
   19    19    20    1
   20    19    21    1
   21    19    22    1
   22    22    23    1
   23    22    24    1
   24    22    25    1
@<TRIPOS>SUBSTRUCTURE
       1 MOL1            1 RESIDUE      1      MOL     
@<SCITEGIC>MOL_PROPERTY
VM2 Rank
SciTegic.value.IntegerValue
188

@<SCITEGIC>MOL_PROPERTY
Conf_Id
SciTegic.value.IntegerValue
519

@<SCITEGIC>MOL_PROPERTY
Probability
SciTegic.value.DoubleValue
0.00

@<SCITEGIC>MOL_PROPERTY
Sum Probability
SciTegic.value.DoubleValue
100.00

@<SCITEGIC>MOL_PROPERTY
Delta G
SciTegic.value.DoubleValue
6.856

@<SCITEGIC>MOL_PROPERTY
G
SciTegic.value.DoubleValue
-1.107

@<SCITEGIC>MOL_PROPERTY
E
SciTegic.value.DoubleValue
-26.319

@<SCITEGIC>MOL_PROPERTY
-TS
SciTegic.value.DoubleValue
25.213

@<SCITEGIC>MOL_PROPERTY
U+W
SciTegic.value.DoubleValue
-46.887

@<SCITEGIC>MOL_PROPERTY
U
SciTegic.value.DoubleValue
13.927

@<SCITEGIC>MOL_PROPERTY
W
SciTegic.value.DoubleValue
-60.814

@<SCITEGIC>MOL_PROPERTY
W(PB)
SciTegic.value.DoubleValue
-63.177

@<SCITEGIC>MOL_PROPERTY
W(SA)
SciTegic.value.DoubleValue
2.362

@<SCITEGIC>MOL_PROPERTY
Valence
SciTegic.value.DoubleValue
11.622

@<SCITEGIC>MOL_PROPERTY
Coulomb
SciTegic.value.DoubleValue
1.812

@<SCITEGIC>MOL_PROPERTY
VdW
SciTegic.value.DoubleValue
0.493

@<SCITEGIC>MOL_PROPERTY
VdW6
SciTegic.value.DoubleValue
-11.533

@<SCITEGIC>MOL_PROPERTY
VdW12
SciTegic.value.DoubleValue
12.026

@<SCITEGIC>MOL_PROPERTY
Bond
SciTegic.value.DoubleValue
0.265

@<SCITEGIC>MOL_PROPERTY
Angle
SciTegic.value.DoubleValue
3.636

@<SCITEGIC>MOL_PROPERTY
Pdih
SciTegic.value.DoubleValue
7.716

@<SCITEGIC>MOL_PROPERTY
Idih
SciTegic.value.DoubleValue
0.004

@<SCITEGIC>MOL_PROPERTY
Tether
SciTegic.value.DoubleValue
0.000

@<TRIPOS>MOLECULE
guest-8_vm2.mol2 : vm2 ligand conformer 189
          25          24           1
SMALL
USER_CHARGES
 
@<TRIPOS>ATOM
       1    C1      20.345901   19.895199   26.253484 C.2        1 MOL1         0.6168
       2    O1      19.384870   20.639417   26.275043 O.co2      1 MOL1        -0.6703
       3    O2      21.492852   20.283003   26.145444 O.co2      1 MOL1        -0.6703
       4    C2      20.108421   18.404168   26.486296 C.3        1 MOL1        -0.1963
       5    H1      19.635999   18.318593   27.471694 H          1 MOL1         0.0750
       6    H2      21.077048   17.894932   26.557672 H          1 MOL1         0.0750
       7    C3      19.206026   17.704069   25.431461 C.3        1 MOL1        -0.1860
       8    H3      18.786012   16.801083   25.894572 H          1 MOL1         0.0752
       9    H4      18.343377   18.339666   25.191927 H          1 MOL1         0.0752
      10    C4      19.940752   17.263789   24.138060 C.3        1 MOL1        -0.1858
      11    H5      19.242027   16.684719   23.519019 H          1 MOL1         0.0752
      12    H6      20.747449   16.569241   24.409143 H          1 MOL1         0.0752
      13    C5      20.537475   18.401568   23.273188 C.3        1 MOL1        -0.1858
      14    H7      21.300602   18.946806   23.842377 H          1 MOL1         0.0752
      15    H8      21.063688   17.939537   22.428521 H          1 MOL1         0.0752
      16    C6      19.475345   19.390673   22.733258 C.3        1 MOL1        -0.1858
      17    H9      18.947144   19.853554   23.576694 H          1 MOL1         0.0752
      18    H10     18.719926   18.844697   22.152345 H          1 MOL1         0.0752
      19    C7      20.076303   20.524182   21.869756 C.3        1 MOL1        -0.1834
      20    H11     19.284500   21.252056   21.645483 H          1 MOL1         0.0752
      21    H12     20.838385   21.064253   22.448842 H          1 MOL1         0.0752
      22    C8      20.685055   20.027932   20.540010 C.3        1 MOL1        -0.2849
      23    H13     19.949610   19.454287   19.961138 H          1 MOL1         0.0764
      24    H14     21.009543   20.878033   19.926113 H          1 MOL1         0.0764
      25    H15     21.561081   19.390643   20.712719 H          1 MOL1         0.0764
@<TRIPOS>BOND
    1     1     2    1
    2     1     3    2
    3     1     4    1
    4     4     5    1
    5     4     6    1
    6     4     7    1
    7     7     8    1
    8     7     9    1
    9     7    10    1
   10    10    11    1
   11    10    12    1
   12    10    13    1
   13    13    14    1
   14    13    15    1
   15    13    16    1
   16    16    17    1
   17    16    18    1
   18    16    19    1
   19    19    20    1
   20    19    21    1
   21    19    22    1
   22    22    23    1
   23    22    24    1
   24    22    25    1
@<TRIPOS>SUBSTRUCTURE
       1 MOL1            1 RESIDUE      1      MOL     
@<SCITEGIC>MOL_PROPERTY
VM2 Rank
SciTegic.value.IntegerValue
189

@<SCITEGIC>MOL_PROPERTY
Conf_Id
SciTegic.value.IntegerValue
1296

@<SCITEGIC>MOL_PROPERTY
Probability
SciTegic.value.DoubleValue
0.00

@<SCITEGIC>MOL_PROPERTY
Sum Probability
SciTegic.value.DoubleValue
100.00

@<SCITEGIC>MOL_PROPERTY
Delta G
SciTegic.value.DoubleValue
6.859

@<SCITEGIC>MOL_PROPERTY
G
SciTegic.value.DoubleValue
-1.103

@<SCITEGIC>MOL_PROPERTY
E
SciTegic.value.DoubleValue
-26.914

@<SCITEGIC>MOL_PROPERTY
-TS
SciTegic.value.DoubleValue
25.810

@<SCITEGIC>MOL_PROPERTY
U+W
SciTegic.value.DoubleValue
-47.481

@<SCITEGIC>MOL_PROPERTY
U
SciTegic.value.DoubleValue
13.610

@<SCITEGIC>MOL_PROPERTY
W
SciTegic.value.DoubleValue
-61.091

@<SCITEGIC>MOL_PROPERTY
W(PB)
SciTegic.value.DoubleValue
-63.445

@<SCITEGIC>MOL_PROPERTY
W(SA)
SciTegic.value.DoubleValue
2.354

@<SCITEGIC>MOL_PROPERTY
Valence
SciTegic.value.DoubleValue
10.665

@<SCITEGIC>MOL_PROPERTY
Coulomb
SciTegic.value.DoubleValue
2.595

@<SCITEGIC>MOL_PROPERTY
VdW
SciTegic.value.DoubleValue
0.350

@<SCITEGIC>MOL_PROPERTY
VdW6
SciTegic.value.DoubleValue
-12.152

@<SCITEGIC>MOL_PROPERTY
VdW12
SciTegic.value.DoubleValue
12.502

@<SCITEGIC>MOL_PROPERTY
Bond
SciTegic.value.DoubleValue
0.280

@<SCITEGIC>MOL_PROPERTY
Angle
SciTegic.value.DoubleValue
4.003

@<SCITEGIC>MOL_PROPERTY
Pdih
SciTegic.value.DoubleValue
6.364

@<SCITEGIC>MOL_PROPERTY
Idih
SciTegic.value.DoubleValue
0.017

@<SCITEGIC>MOL_PROPERTY
Tether
SciTegic.value.DoubleValue
0.000

@<TRIPOS>MOLECULE
guest-8_vm2.mol2 : vm2 ligand conformer 190
          25          24           1
SMALL
USER_CHARGES
 
@<TRIPOS>ATOM
       1    C1      20.322306   19.834398   26.554977 C.2        1 MOL1         0.6168
       2    O1      21.354043   20.470340   26.465315 O.co2      1 MOL1        -0.6703
       3    O2      19.254275   20.324117   26.865937 O.co2      1 MOL1        -0.6703
       4    C2      20.379936   18.331618   26.294552 C.3        1 MOL1        -0.1963
       5    H1      19.513074   17.859798   26.772657 H          1 MOL1         0.0750
       6    H2      21.271903   17.944618   26.801061 H          1 MOL1         0.0750
       7    C3      20.434474   17.956177   24.791120 C.3        1 MOL1        -0.1860
       8    H3      21.292113   18.461929   24.328814 H          1 MOL1         0.0752
       9    H4      20.616253   16.877162   24.697998 H          1 MOL1         0.0752
      10    C4      19.129325   18.318878   24.042713 C.3        1 MOL1        -0.1858
      11    H5      18.937686   19.397360   24.106590 H          1 MOL1         0.0752
      12    H6      18.284701   17.834532   24.551140 H          1 MOL1         0.0752
      13    C5      19.126634   17.872413   22.560880 C.3        1 MOL1        -0.1858
      14    H7      19.241528   16.780625   22.523666 H          1 MOL1         0.0752
      15    H8      18.137592   18.083911   22.132374 H          1 MOL1         0.0752
      16    C6      20.209969   18.514604   21.654190 C.3        1 MOL1        -0.1858
      17    H9      20.118170   18.050569   20.662758 H          1 MOL1         0.0752
      18    H10     21.216550   18.252986   22.005476 H          1 MOL1         0.0752
      19    C7      20.080473   20.048122   21.471799 C.3        1 MOL1        -0.1834
      20    H11     20.384982   20.303423   20.447455 H          1 MOL1         0.0752
      21    H12     19.029632   20.355387   21.563015 H          1 MOL1         0.0752
      22    C8      20.961565   20.863333   22.444518 C.3        1 MOL1        -0.2849
      23    H13     20.672492   20.705993   23.489958 H          1 MOL1         0.0764
      24    H14     22.018864   20.587655   22.340409 H          1 MOL1         0.0764
      25    H15     20.872373   21.936833   22.234431 H          1 MOL1         0.0764
@<TRIPOS>BOND
    1     1     2    1
    2     1     3    2
    3     1     4    1
    4     4     5    1
    5     4     6    1
    6     4     7    1
    7     7     8    1
    8     7     9    1
    9     7    10    1
   10    10    11    1
   11    10    12    1
   12    10    13    1
   13    13    14    1
   14    13    15    1
   15    13    16    1
   16    16    17    1
   17    16    18    1
   18    16    19    1
   19    19    20    1
   20    19    21    1
   21    19    22    1
   22    22    23    1
   23    22    24    1
   24    22    25    1
@<TRIPOS>SUBSTRUCTURE
       1 MOL1            1 RESIDUE      1      MOL     
@<SCITEGIC>MOL_PROPERTY
VM2 Rank
SciTegic.value.IntegerValue
190

@<SCITEGIC>MOL_PROPERTY
Conf_Id
SciTegic.value.IntegerValue
553

@<SCITEGIC>MOL_PROPERTY
Probability
SciTegic.value.DoubleValue
0.00

@<SCITEGIC>MOL_PROPERTY
Sum Probability
SciTegic.value.DoubleValue
100.00

@<SCITEGIC>MOL_PROPERTY
Delta G
SciTegic.value.DoubleValue
6.983

@<SCITEGIC>MOL_PROPERTY
G
SciTegic.value.DoubleValue
-0.979

@<SCITEGIC>MOL_PROPERTY
E
SciTegic.value.DoubleValue
-26.700

@<SCITEGIC>MOL_PROPERTY
-TS
SciTegic.value.DoubleValue
25.721

@<SCITEGIC>MOL_PROPERTY
U+W
SciTegic.value.DoubleValue
-47.268

@<SCITEGIC>MOL_PROPERTY
U
SciTegic.value.DoubleValue
13.894

@<SCITEGIC>MOL_PROPERTY
W
SciTegic.value.DoubleValue
-61.162

@<SCITEGIC>MOL_PROPERTY
W(PB)
SciTegic.value.DoubleValue
-63.483

@<SCITEGIC>MOL_PROPERTY
W(SA)
SciTegic.value.DoubleValue
2.321

@<SCITEGIC>MOL_PROPERTY
Valence
SciTegic.value.DoubleValue
11.359

@<SCITEGIC>MOL_PROPERTY
Coulomb
SciTegic.value.DoubleValue
2.378

@<SCITEGIC>MOL_PROPERTY
VdW
SciTegic.value.DoubleValue
0.157

@<SCITEGIC>MOL_PROPERTY
VdW6
SciTegic.value.DoubleValue
-11.937

@<SCITEGIC>MOL_PROPERTY
VdW12
SciTegic.value.DoubleValue
12.094

@<SCITEGIC>MOL_PROPERTY
Bond
SciTegic.value.DoubleValue
0.256

@<SCITEGIC>MOL_PROPERTY
Angle
SciTegic.value.DoubleValue
3.730

@<SCITEGIC>MOL_PROPERTY
Pdih
SciTegic.value.DoubleValue
7.371

@<SCITEGIC>MOL_PROPERTY
Idih
SciTegic.value.DoubleValue
0.001

@<SCITEGIC>MOL_PROPERTY
Tether
SciTegic.value.DoubleValue
0.000

@<TRIPOS>MOLECULE
guest-8_vm2.mol2 : vm2 ligand conformer 191
          25          24           1
SMALL
USER_CHARGES
 
@<TRIPOS>ATOM
       1    C1      19.975452   19.889553   26.447541 C.2        1 MOL1         0.6168
       2    O1      20.899767   20.269275   27.139837 O.co2      1 MOL1        -0.6703
       3    O2      19.164600   20.638056   25.938723 O.co2      1 MOL1        -0.6703
       4    C2      19.802275   18.387158   26.240360 C.3        1 MOL1        -0.1963
       5    H1      18.822709   18.206351   25.783690 H          1 MOL1         0.0750
       6    H2      19.771448   17.924323   27.233483 H          1 MOL1         0.0750
       7    C3      20.929548   17.725824   25.400748 C.3        1 MOL1        -0.1860
       8    H3      21.885588   17.864875   25.924174 H          1 MOL1         0.0752
       9    H4      20.758256   16.641862   25.356634 H          1 MOL1         0.0752
      10    C4      21.064928   18.281071   23.961693 C.3        1 MOL1        -0.1858
      11    H5      21.941101   17.813395   23.492699 H          1 MOL1         0.0752
      12    H6      21.279735   19.355502   24.004078 H          1 MOL1         0.0752
      13    C5      19.820457   18.011515   23.079279 C.3        1 MOL1        -0.1858
      14    H7      19.617448   16.932139   23.093751 H          1 MOL1         0.0752
      15    H8      18.932068   18.498819   23.501812 H          1 MOL1         0.0752
      16    C6      20.005619   18.456247   21.605694 C.3        1 MOL1        -0.1858
      17    H9      19.478087   17.737719   20.963672 H          1 MOL1         0.0752
      18    H10     21.063633   18.392406   21.317408 H          1 MOL1         0.0752
      19    C7      19.450863   19.865250   21.280225 C.3        1 MOL1        -0.1834
      20    H11     19.568249   20.045924   20.202898 H          1 MOL1         0.0752
      21    H12     18.370831   19.890595   21.480479 H          1 MOL1         0.0752
      22    C8      20.139489   21.010051   22.051901 C.3        1 MOL1        -0.2849
      23    H13     19.901037   20.963905   23.122542 H          1 MOL1         0.0764
      24    H14     21.229882   20.965762   21.934445 H          1 MOL1         0.0764
      25    H15     19.797063   21.984301   21.680278 H          1 MOL1         0.0764
@<TRIPOS>BOND
    1     1     2    1
    2     1     3    2
    3     1     4    1
    4     4     5    1
    5     4     6    1
    6     4     7    1
    7     7     8    1
    8     7     9    1
    9     7    10    1
   10    10    11    1
   11    10    12    1
   12    10    13    1
   13    13    14    1
   14    13    15    1
   15    13    16    1
   16    16    17    1
   17    16    18    1
   18    16    19    1
   19    19    20    1
   20    19    21    1
   21    19    22    1
   22    22    23    1
   23    22    24    1
   24    22    25    1
@<TRIPOS>SUBSTRUCTURE
       1 MOL1            1 RESIDUE      1      MOL     
@<SCITEGIC>MOL_PROPERTY
VM2 Rank
SciTegic.value.IntegerValue
191

@<SCITEGIC>MOL_PROPERTY
Conf_Id
SciTegic.value.IntegerValue
1092

@<SCITEGIC>MOL_PROPERTY
Probability
SciTegic.value.DoubleValue
0.00

@<SCITEGIC>MOL_PROPERTY
Sum Probability
SciTegic.value.DoubleValue
100.00

@<SCITEGIC>MOL_PROPERTY
Delta G
SciTegic.value.DoubleValue
7.124

@<SCITEGIC>MOL_PROPERTY
G
SciTegic.value.DoubleValue
-0.839

@<SCITEGIC>MOL_PROPERTY
E
SciTegic.value.DoubleValue
-26.244

@<SCITEGIC>MOL_PROPERTY
-TS
SciTegic.value.DoubleValue
25.406

@<SCITEGIC>MOL_PROPERTY
U+W
SciTegic.value.DoubleValue
-46.812

@<SCITEGIC>MOL_PROPERTY
U
SciTegic.value.DoubleValue
14.340

@<SCITEGIC>MOL_PROPERTY
W
SciTegic.value.DoubleValue
-61.152

@<SCITEGIC>MOL_PROPERTY
W(PB)
SciTegic.value.DoubleValue
-63.489

@<SCITEGIC>MOL_PROPERTY
W(SA)
SciTegic.value.DoubleValue
2.337

@<SCITEGIC>MOL_PROPERTY
Valence
SciTegic.value.DoubleValue
11.265

@<SCITEGIC>MOL_PROPERTY
Coulomb
SciTegic.value.DoubleValue
2.677

@<SCITEGIC>MOL_PROPERTY
VdW
SciTegic.value.DoubleValue
0.398

@<SCITEGIC>MOL_PROPERTY
VdW6
SciTegic.value.DoubleValue
-11.679

@<SCITEGIC>MOL_PROPERTY
VdW12
SciTegic.value.DoubleValue
12.077

@<SCITEGIC>MOL_PROPERTY
Bond
SciTegic.value.DoubleValue
0.271

@<SCITEGIC>MOL_PROPERTY
Angle
SciTegic.value.DoubleValue
3.497

@<SCITEGIC>MOL_PROPERTY
Pdih
SciTegic.value.DoubleValue
7.495

@<SCITEGIC>MOL_PROPERTY
Idih
SciTegic.value.DoubleValue
0.002

@<SCITEGIC>MOL_PROPERTY
Tether
SciTegic.value.DoubleValue
0.000

@<TRIPOS>MOLECULE
guest-8_vm2.mol2 : vm2 ligand conformer 192
          25          24           1
SMALL
USER_CHARGES
 
@<TRIPOS>ATOM
       1    C1      19.921123   19.695265   27.087312 C.2        1 MOL1         0.6168
       2    O1      20.944424   20.034737   27.648028 O.co2      1 MOL1        -0.6703
       3    O2      18.881139   19.459036   27.669928 O.co2      1 MOL1        -0.6703
       4    C2      19.949345   19.535061   25.571650 C.3        1 MOL1        -0.1963
       5    H1      20.650038   20.276436   25.171111 H          1 MOL1         0.0750
       6    H2      18.953295   19.781031   25.184931 H          1 MOL1         0.0750
       7    C3      20.358674   18.108174   25.126148 C.3        1 MOL1        -0.1860
       8    H3      21.374870   17.893752   25.484751 H          1 MOL1         0.0752
       9    H4      19.698532   17.382107   25.620469 H          1 MOL1         0.0752
      10    C4      20.288242   17.877870   23.595532 C.3        1 MOL1        -0.1858
      11    H5      19.256587   18.015076   23.247884 H          1 MOL1         0.0752
      12    H6      20.532256   16.824055   23.404631 H          1 MOL1         0.0752
      13    C5      21.265580   18.758103   22.772385 C.3        1 MOL1        -0.1858
      14    H7      22.142962   18.991856   23.390650 H          1 MOL1         0.0752
      15    H8      21.652454   18.176129   21.924886 H          1 MOL1         0.0752
      16    C6      20.647446   20.077160   22.237045 C.3        1 MOL1        -0.1858
      17    H9      21.429192   20.848746   22.243076 H          1 MOL1         0.0752
      18    H10     19.861574   20.440027   22.911046 H          1 MOL1         0.0752
      19    C7      20.092132   19.981393   20.794483 C.3        1 MOL1        -0.1834
      20    H11     19.769624   20.982161   20.475810 H          1 MOL1         0.0752
      21    H12     20.897640   19.685106   20.108513 H          1 MOL1         0.0752
      22    C8      18.904896   19.007201   20.643490 C.3        1 MOL1        -0.2849
      23    H13     18.094366   19.265110   21.337339 H          1 MOL1         0.0764
      24    H14     18.502460   19.046786   19.623104 H          1 MOL1         0.0764
      25    H15     19.213647   17.972635   20.839299 H          1 MOL1         0.0764
@<TRIPOS>BOND
    1     1     2    1
    2     1     3    2
    3     1     4    1
    4     4     5    1
    5     4     6    1
    6     4     7    1
    7     7     8    1
    8     7     9    1
    9     7    10    1
   10    10    11    1
   11    10    12    1
   12    10    13    1
   13    13    14    1
   14    13    15    1
   15    13    16    1
   16    16    17    1
   17    16    18    1
   18    16    19    1
   19    19    20    1
   20    19    21    1
   21    19    22    1
   22    22    23    1
   23    22    24    1
   24    22    25    1
@<TRIPOS>SUBSTRUCTURE
       1 MOL1            1 RESIDUE      1      MOL     
@<SCITEGIC>MOL_PROPERTY
VM2 Rank
SciTegic.value.IntegerValue
192

@<SCITEGIC>MOL_PROPERTY
Conf_Id
SciTegic.value.IntegerValue
6

@<SCITEGIC>MOL_PROPERTY
Probability
SciTegic.value.DoubleValue
0.00

@<SCITEGIC>MOL_PROPERTY
Sum Probability
SciTegic.value.DoubleValue
100.00

@<SCITEGIC>MOL_PROPERTY
Delta G
SciTegic.value.DoubleValue
7.264

@<SCITEGIC>MOL_PROPERTY
G
SciTegic.value.DoubleValue
-0.698

@<SCITEGIC>MOL_PROPERTY
E
SciTegic.value.DoubleValue
-25.926

@<SCITEGIC>MOL_PROPERTY
-TS
SciTegic.value.DoubleValue
25.227

@<SCITEGIC>MOL_PROPERTY
U+W
SciTegic.value.DoubleValue
-46.493

@<SCITEGIC>MOL_PROPERTY
U
SciTegic.value.DoubleValue
13.064

@<SCITEGIC>MOL_PROPERTY
W
SciTegic.value.DoubleValue
-59.557

@<SCITEGIC>MOL_PROPERTY
W(PB)
SciTegic.value.DoubleValue
-61.926

@<SCITEGIC>MOL_PROPERTY
W(SA)
SciTegic.value.DoubleValue
2.369

@<SCITEGIC>MOL_PROPERTY
Valence
SciTegic.value.DoubleValue
13.064

@<SCITEGIC>MOL_PROPERTY
Coulomb
SciTegic.value.DoubleValue
-1.007

@<SCITEGIC>MOL_PROPERTY
VdW
SciTegic.value.DoubleValue
1.008

@<SCITEGIC>MOL_PROPERTY
VdW6
SciTegic.value.DoubleValue
-10.968

@<SCITEGIC>MOL_PROPERTY
VdW12
SciTegic.value.DoubleValue
11.976

@<SCITEGIC>MOL_PROPERTY
Bond
SciTegic.value.DoubleValue
0.280

@<SCITEGIC>MOL_PROPERTY
Angle
SciTegic.value.DoubleValue
3.439

@<SCITEGIC>MOL_PROPERTY
Pdih
SciTegic.value.DoubleValue
9.344

@<SCITEGIC>MOL_PROPERTY
Idih
SciTegic.value.DoubleValue
0.001

@<SCITEGIC>MOL_PROPERTY
Tether
SciTegic.value.DoubleValue
0.000

@<TRIPOS>MOLECULE
guest-8_vm2.mol2 : vm2 ligand conformer 193
          25          24           1
SMALL
USER_CHARGES
 
@<TRIPOS>ATOM
       1    C1      20.492424   19.055491   26.528482 C.2        1 MOL1         0.6168
       2    O1      21.644078   19.442172   26.483998 O.co2      1 MOL1        -0.6703
       3    O2      20.175491   17.927919   26.853650 O.co2      1 MOL1        -0.6703
       4    C2      19.381199   20.069874   26.266791 C.3        1 MOL1        -0.1963
       5    H1      19.524955   20.878391   26.992868 H          1 MOL1         0.0750
       6    H2      18.414400   19.607802   26.499960 H          1 MOL1         0.0750
       7    C3      19.359443   20.675519   24.835155 C.3        1 MOL1        -0.1860
       8    H3      18.806752   21.623465   24.880311 H          1 MOL1         0.0752
       9    H4      20.377896   20.941132   24.522084 H          1 MOL1         0.0752
      10    C4      18.671823   19.786304   23.766473 C.3        1 MOL1        -0.1858
      11    H5      18.549905   20.373102   22.846649 H          1 MOL1         0.0752
      12    H6      17.652734   19.551275   24.101927 H          1 MOL1         0.0752
      13    C5      19.399324   18.461089   23.422124 C.3        1 MOL1        -0.1858
      14    H7      19.402036   17.807940   24.303608 H          1 MOL1         0.0752
      15    H8      18.810319   17.923556   22.667814 H          1 MOL1         0.0752
      16    C6      20.855354   18.619250   22.909809 C.3        1 MOL1        -0.1858
      17    H9      21.258935   17.621727   22.690253 H          1 MOL1         0.0752
      18    H10     21.482575   19.020106   23.716804 H          1 MOL1         0.0752
      19    C7      21.020302   19.512497   21.655558 C.3        1 MOL1        -0.1834
      20    H11     20.701224   20.539118   21.878833 H          1 MOL1         0.0752
      21    H12     22.088800   19.573447   21.407711 H          1 MOL1         0.0752
      22    C8      20.253563   18.983884   20.423959 C.3        1 MOL1        -0.2849
      23    H13     20.469520   19.601355   19.542604 H          1 MOL1         0.0764
      24    H14     20.544908   17.950908   20.193758 H          1 MOL1         0.0764
      25    H15     19.169158   19.007413   20.589443 H          1 MOL1         0.0764
@<TRIPOS>BOND
    1     1     2    1
    2     1     3    2
    3     1     4    1
    4     4     5    1
    5     4     6    1
    6     4     7    1
    7     7     8    1
    8     7     9    1
    9     7    10    1
   10    10    11    1
   11    10    12    1
   12    10    13    1
   13    13    14    1
   14    13    15    1
   15    13    16    1
   16    16    17    1
   17    16    18    1
   18    16    19    1
   19    19    20    1
   20    19    21    1
   21    19    22    1
   22    22    23    1
   23    22    24    1
   24    22    25    1
@<TRIPOS>SUBSTRUCTURE
       1 MOL1            1 RESIDUE      1      MOL     
@<SCITEGIC>MOL_PROPERTY
VM2 Rank
SciTegic.value.IntegerValue
193

@<SCITEGIC>MOL_PROPERTY
Conf_Id
SciTegic.value.IntegerValue
235

@<SCITEGIC>MOL_PROPERTY
Probability
SciTegic.value.DoubleValue
0.00

@<SCITEGIC>MOL_PROPERTY
Sum Probability
SciTegic.value.DoubleValue
100.00

@<SCITEGIC>MOL_PROPERTY
Delta G
SciTegic.value.DoubleValue
7.279

@<SCITEGIC>MOL_PROPERTY
G
SciTegic.value.DoubleValue
-0.683

@<SCITEGIC>MOL_PROPERTY
E
SciTegic.value.DoubleValue
-26.968

@<SCITEGIC>MOL_PROPERTY
-TS
SciTegic.value.DoubleValue
26.285

@<SCITEGIC>MOL_PROPERTY
U+W
SciTegic.value.DoubleValue
-47.536

@<SCITEGIC>MOL_PROPERTY
U
SciTegic.value.DoubleValue
13.324

@<SCITEGIC>MOL_PROPERTY
W
SciTegic.value.DoubleValue
-60.860

@<SCITEGIC>MOL_PROPERTY
W(PB)
SciTegic.value.DoubleValue
-63.186

@<SCITEGIC>MOL_PROPERTY
W(SA)
SciTegic.value.DoubleValue
2.325

@<SCITEGIC>MOL_PROPERTY
Valence
SciTegic.value.DoubleValue
10.989

@<SCITEGIC>MOL_PROPERTY
Coulomb
SciTegic.value.DoubleValue
2.085

@<SCITEGIC>MOL_PROPERTY
VdW
SciTegic.value.DoubleValue
0.250

@<SCITEGIC>MOL_PROPERTY
VdW6
SciTegic.value.DoubleValue
-13.144

@<SCITEGIC>MOL_PROPERTY
VdW12
SciTegic.value.DoubleValue
13.394

@<SCITEGIC>MOL_PROPERTY
Bond
SciTegic.value.DoubleValue
0.321

@<SCITEGIC>MOL_PROPERTY
Angle
SciTegic.value.DoubleValue
4.359

@<SCITEGIC>MOL_PROPERTY
Pdih
SciTegic.value.DoubleValue
6.292

@<SCITEGIC>MOL_PROPERTY
Idih
SciTegic.value.DoubleValue
0.016

@<SCITEGIC>MOL_PROPERTY
Tether
SciTegic.value.DoubleValue
0.000

@<TRIPOS>MOLECULE
guest-8_vm2.mol2 : vm2 ligand conformer 194
          25          24           1
SMALL
USER_CHARGES
 
@<TRIPOS>ATOM
       1    C1      20.181821   18.895468   27.106285 C.2        1 MOL1         0.6168
       2    O1      21.200867   19.247980   27.666706 O.co2      1 MOL1        -0.6703
       3    O2      19.194262   18.498354   27.692667 O.co2      1 MOL1        -0.6703
       4    C2      20.131495   18.976411   25.584903 C.3        1 MOL1        -0.1963
       5    H1      19.476992   18.174645   25.223009 H          1 MOL1         0.0750
       6    H2      21.139949   18.773709   25.206783 H          1 MOL1         0.0750
       7    C3      19.627986   20.349888   25.072977 C.3        1 MOL1        -0.1860
       8    H3      18.660029   20.568171   25.544914 H          1 MOL1         0.0752
       9    H4      20.317771   21.136855   25.407804 H          1 MOL1         0.0752
      10    C4      19.456776   20.428632   23.535033 C.3        1 MOL1        -0.1858
      11    H5      19.035877   21.414582   23.295743 H          1 MOL1         0.0752
      12    H6      18.708877   19.695332   23.208052 H          1 MOL1         0.0752
      13    C5      20.776428   20.258686   22.736784 C.3        1 MOL1        -0.1858
      14    H7      20.758061   20.919869   21.859790 H          1 MOL1         0.0752
      15    H8      21.614401   20.613354   23.352173 H          1 MOL1         0.0752
      16    C6      21.061402   18.807185   22.267184 C.3        1 MOL1        -0.1858
      17    H9      20.630713   18.080365   22.967030 H          1 MOL1         0.0752
      18    H10     22.147445   18.645241   22.295383 H          1 MOL1         0.0752
      19    C7      20.576481   18.495549   20.829734 C.3        1 MOL1        -0.1834
      20    H11     21.062361   19.179746   20.120524 H          1 MOL1         0.0752
      21    H12     20.909874   17.484348   20.558765 H          1 MOL1         0.0752
      22    C8      19.045482   18.575847   20.653727 C.3        1 MOL1        -0.2849
      23    H13     18.682768   19.600940   20.800752 H          1 MOL1         0.0764
      24    H14     18.757912   18.263179   19.641675 H          1 MOL1         0.0764
      25    H15     18.532830   17.919957   21.369200 H          1 MOL1         0.0764
@<TRIPOS>BOND
    1     1     2    1
    2     1     3    2
    3     1     4    1
    4     4     5    1
    5     4     6    1
    6     4     7    1
    7     7     8    1
    8     7     9    1
    9     7    10    1
   10    10    11    1
   11    10    12    1
   12    10    13    1
   13    13    14    1
   14    13    15    1
   15    13    16    1
   16    16    17    1
   17    16    18    1
   18    16    19    1
   19    19    20    1
   20    19    21    1
   21    19    22    1
   22    22    23    1
   23    22    24    1
   24    22    25    1
@<TRIPOS>SUBSTRUCTURE
       1 MOL1            1 RESIDUE      1      MOL     
@<SCITEGIC>MOL_PROPERTY
VM2 Rank
SciTegic.value.IntegerValue
194

@<SCITEGIC>MOL_PROPERTY
Conf_Id
SciTegic.value.IntegerValue
5

@<SCITEGIC>MOL_PROPERTY
Probability
SciTegic.value.DoubleValue
0.00

@<SCITEGIC>MOL_PROPERTY
Sum Probability
SciTegic.value.DoubleValue
100.00

@<SCITEGIC>MOL_PROPERTY
Delta G
SciTegic.value.DoubleValue
7.289

@<SCITEGIC>MOL_PROPERTY
G
SciTegic.value.DoubleValue
-0.673

@<SCITEGIC>MOL_PROPERTY
E
SciTegic.value.DoubleValue
-25.900

@<SCITEGIC>MOL_PROPERTY
-TS
SciTegic.value.DoubleValue
25.227

@<SCITEGIC>MOL_PROPERTY
U+W
SciTegic.value.DoubleValue
-46.468

@<SCITEGIC>MOL_PROPERTY
U
SciTegic.value.DoubleValue
13.064

@<SCITEGIC>MOL_PROPERTY
W
SciTegic.value.DoubleValue
-59.532

@<SCITEGIC>MOL_PROPERTY
W(PB)
SciTegic.value.DoubleValue
-61.933

@<SCITEGIC>MOL_PROPERTY
W(SA)
SciTegic.value.DoubleValue
2.401

@<SCITEGIC>MOL_PROPERTY
Valence
SciTegic.value.DoubleValue
13.064

@<SCITEGIC>MOL_PROPERTY
Coulomb
SciTegic.value.DoubleValue
-1.008

@<SCITEGIC>MOL_PROPERTY
VdW
SciTegic.value.DoubleValue
1.008

@<SCITEGIC>MOL_PROPERTY
VdW6
SciTegic.value.DoubleValue
-10.968

@<SCITEGIC>MOL_PROPERTY
VdW12
SciTegic.value.DoubleValue
11.977

@<SCITEGIC>MOL_PROPERTY
Bond
SciTegic.value.DoubleValue
0.280

@<SCITEGIC>MOL_PROPERTY
Angle
SciTegic.value.DoubleValue
3.438

@<SCITEGIC>MOL_PROPERTY
Pdih
SciTegic.value.DoubleValue
9.345

@<SCITEGIC>MOL_PROPERTY
Idih
SciTegic.value.DoubleValue
0.001

@<SCITEGIC>MOL_PROPERTY
Tether
SciTegic.value.DoubleValue
0.000

@<TRIPOS>MOLECULE
guest-8_vm2.mol2 : vm2 ligand conformer 195
          25          24           1
SMALL
USER_CHARGES
 
@<TRIPOS>ATOM
       1    C1      20.577645   19.563439   27.022800 C.2        1 MOL1         0.6168
       2    O1      21.660404   20.112696   26.972345 O.co2      1 MOL1        -0.6703
       3    O2      19.740151   19.802568   27.870287 O.co2      1 MOL1        -0.6703
       4    C2      20.244590   18.528340   25.954249 C.3        1 MOL1        -0.1963
       5    H1      19.616694   17.755115   26.412800 H          1 MOL1         0.0750
       6    H2      21.179337   18.046068   25.644013 H          1 MOL1         0.0750
       7    C3      19.528011   19.141155   24.726045 C.3        1 MOL1        -0.1860
       8    H3      18.600764   19.630024   25.055232 H          1 MOL1         0.0752
       9    H4      20.160458   19.927859   24.297752 H          1 MOL1         0.0752
      10    C4      19.197533   18.069293   23.660702 C.3        1 MOL1        -0.1858
      11    H5      18.518592   17.335642   24.116445 H          1 MOL1         0.0752
      12    H6      20.099670   17.511276   23.376995 H          1 MOL1         0.0752
      13    C5      18.513994   18.651638   22.398842 C.3        1 MOL1        -0.1858
      14    H7      17.775002   17.917390   22.050127 H          1 MOL1         0.0752
      15    H8      17.936841   19.549569   22.658410 H          1 MOL1         0.0752
      16    C6      19.459059   18.953014   21.205305 C.3        1 MOL1        -0.1858
      17    H9      18.824947   19.228205   20.351478 H          1 MOL1         0.0752
      18    H10     19.983299   18.037349   20.899527 H          1 MOL1         0.0752
      19    C7      20.473987   20.101353   21.426848 C.3        1 MOL1        -0.1834
      20    H11     20.617976   20.627812   20.473273 H          1 MOL1         0.0752
      21    H12     20.063306   20.844980   22.122792 H          1 MOL1         0.0752
      22    C8      21.857626   19.610504   21.908577 C.3        1 MOL1        -0.2849
      23    H13     22.305755   18.926704   21.176155 H          1 MOL1         0.0764
      24    H14     22.541804   20.458793   22.038723 H          1 MOL1         0.0764
      25    H15     21.793582   19.083439   22.866954 H          1 MOL1         0.0764
@<TRIPOS>BOND
    1     1     2    1
    2     1     3    2
    3     1     4    1
    4     4     5    1
    5     4     6    1
    6     4     7    1
    7     7     8    1
    8     7     9    1
    9     7    10    1
   10    10    11    1
   11    10    12    1
   12    10    13    1
   13    13    14    1
   14    13    15    1
   15    13    16    1
   16    16    17    1
   17    16    18    1
   18    16    19    1
   19    19    20    1
   20    19    21    1
   21    19    22    1
   22    22    23    1
   23    22    24    1
   24    22    25    1
@<TRIPOS>SUBSTRUCTURE
       1 MOL1            1 RESIDUE      1      MOL     
@<SCITEGIC>MOL_PROPERTY
VM2 Rank
SciTegic.value.IntegerValue
195

@<SCITEGIC>MOL_PROPERTY
Conf_Id
SciTegic.value.IntegerValue
251

@<SCITEGIC>MOL_PROPERTY
Probability
SciTegic.value.DoubleValue
0.00

@<SCITEGIC>MOL_PROPERTY
Sum Probability
SciTegic.value.DoubleValue
100.00

@<SCITEGIC>MOL_PROPERTY
Delta G
SciTegic.value.DoubleValue
7.313

@<SCITEGIC>MOL_PROPERTY
G
SciTegic.value.DoubleValue
-0.650

@<SCITEGIC>MOL_PROPERTY
E
SciTegic.value.DoubleValue
-25.904

@<SCITEGIC>MOL_PROPERTY
-TS
SciTegic.value.DoubleValue
25.254

@<SCITEGIC>MOL_PROPERTY
U+W
SciTegic.value.DoubleValue
-46.472

@<SCITEGIC>MOL_PROPERTY
U
SciTegic.value.DoubleValue
13.593

@<SCITEGIC>MOL_PROPERTY
W
SciTegic.value.DoubleValue
-60.064

@<SCITEGIC>MOL_PROPERTY
W(PB)
SciTegic.value.DoubleValue
-62.446

@<SCITEGIC>MOL_PROPERTY
W(SA)
SciTegic.value.DoubleValue
2.382

@<SCITEGIC>MOL_PROPERTY
Valence
SciTegic.value.DoubleValue
13.121

@<SCITEGIC>MOL_PROPERTY
Coulomb
SciTegic.value.DoubleValue
-0.198

@<SCITEGIC>MOL_PROPERTY
VdW
SciTegic.value.DoubleValue
0.669

@<SCITEGIC>MOL_PROPERTY
VdW6
SciTegic.value.DoubleValue
-10.627

@<SCITEGIC>MOL_PROPERTY
VdW12
SciTegic.value.DoubleValue
11.296

@<SCITEGIC>MOL_PROPERTY
Bond
SciTegic.value.DoubleValue
0.238

@<SCITEGIC>MOL_PROPERTY
Angle
SciTegic.value.DoubleValue
3.709

@<SCITEGIC>MOL_PROPERTY
Pdih
SciTegic.value.DoubleValue
9.174

@<SCITEGIC>MOL_PROPERTY
Idih
SciTegic.value.DoubleValue
0.000

@<SCITEGIC>MOL_PROPERTY
Tether
SciTegic.value.DoubleValue
0.000

@<TRIPOS>MOLECULE
guest-8_vm2.mol2 : vm2 ligand conformer 196
          25          24           1
SMALL
USER_CHARGES
 
@<TRIPOS>ATOM
       1    C1      20.130374   19.718534   26.518838 C.2        1 MOL1         0.6168
       2    O1      21.078896   20.477243   26.469096 O.co2      1 MOL1        -0.6703
       3    O2      19.006672   20.068489   26.822853 O.co2      1 MOL1        -0.6703
       4    C2      20.385952   18.229856   26.293475 C.3        1 MOL1        -0.1963
       5    H1      19.471742   17.671544   26.528184 H          1 MOL1         0.0750
       6    H2      21.135000   17.930134   27.035530 H          1 MOL1         0.0750
       7    C3      20.900898   17.852257   24.876044 C.3        1 MOL1        -0.1860
       8    H3      21.678917   18.558248   24.556559 H          1 MOL1         0.0752
       9    H4      21.398678   16.876042   24.949042 H          1 MOL1         0.0752
      10    C4      19.794109   17.730751   23.796291 C.3        1 MOL1        -0.1858
      11    H5      19.041176   17.008222   24.138860 H          1 MOL1         0.0752
      12    H6      20.232848   17.290470   22.891341 H          1 MOL1         0.0752
      13    C5      19.077241   19.051233   23.413586 C.3        1 MOL1        -0.1858
      14    H7      18.315747   18.829559   22.654744 H          1 MOL1         0.0752
      15    H8      18.518691   19.426284   24.280179 H          1 MOL1         0.0752
      16    C6      20.003989   20.178832   22.887128 C.3        1 MOL1        -0.1858
      17    H9      20.670598   20.507675   23.695106 H          1 MOL1         0.0752
      18    H10     19.386003   21.052561   22.640498 H          1 MOL1         0.0752
      19    C7      20.859618   19.806698   21.651141 C.3        1 MOL1        -0.1834
      20    H11     21.491801   20.666840   21.391658 H          1 MOL1         0.0752
      21    H12     21.547737   18.988390   21.901096 H          1 MOL1         0.0752
      22    C8      20.015251   19.420108   20.417548 C.3        1 MOL1        -0.2849
      23    H13     19.446514   18.499079   20.596757 H          1 MOL1         0.0764
      24    H14     19.306869   20.218369   20.160862 H          1 MOL1         0.0764
      25    H15     20.662035   19.248286   19.547579 H          1 MOL1         0.0764
@<TRIPOS>BOND
    1     1     2    1
    2     1     3    2
    3     1     4    1
    4     4     5    1
    5     4     6    1
    6     4     7    1
    7     7     8    1
    8     7     9    1
    9     7    10    1
   10    10    11    1
   11    10    12    1
   12    10    13    1
   13    13    14    1
   14    13    15    1
   15    13    16    1
   16    16    17    1
   17    16    18    1
   18    16    19    1
   19    19    20    1
   20    19    21    1
   21    19    22    1
   22    22    23    1
   23    22    24    1
   24    22    25    1
@<TRIPOS>SUBSTRUCTURE
       1 MOL1            1 RESIDUE      1      MOL     
@<SCITEGIC>MOL_PROPERTY
VM2 Rank
SciTegic.value.IntegerValue
196

@<SCITEGIC>MOL_PROPERTY
Conf_Id
SciTegic.value.IntegerValue
812

@<SCITEGIC>MOL_PROPERTY
Probability
SciTegic.value.DoubleValue
0.00

@<SCITEGIC>MOL_PROPERTY
Sum Probability
SciTegic.value.DoubleValue
100.00

@<SCITEGIC>MOL_PROPERTY
Delta G
SciTegic.value.DoubleValue
7.360

@<SCITEGIC>MOL_PROPERTY
G
SciTegic.value.DoubleValue
-0.603

@<SCITEGIC>MOL_PROPERTY
E
SciTegic.value.DoubleValue
-26.888

@<SCITEGIC>MOL_PROPERTY
-TS
SciTegic.value.DoubleValue
26.285

@<SCITEGIC>MOL_PROPERTY
U+W
SciTegic.value.DoubleValue
-47.455

@<SCITEGIC>MOL_PROPERTY
U
SciTegic.value.DoubleValue
13.323

@<SCITEGIC>MOL_PROPERTY
W
SciTegic.value.DoubleValue
-60.779

@<SCITEGIC>MOL_PROPERTY
W(PB)
SciTegic.value.DoubleValue
-63.096

@<SCITEGIC>MOL_PROPERTY
W(SA)
SciTegic.value.DoubleValue
2.317

@<SCITEGIC>MOL_PROPERTY
Valence
SciTegic.value.DoubleValue
10.989

@<SCITEGIC>MOL_PROPERTY
Coulomb
SciTegic.value.DoubleValue
2.084

@<SCITEGIC>MOL_PROPERTY
VdW
SciTegic.value.DoubleValue
0.250

@<SCITEGIC>MOL_PROPERTY
VdW6
SciTegic.value.DoubleValue
-13.143

@<SCITEGIC>MOL_PROPERTY
VdW12
SciTegic.value.DoubleValue
13.393

@<SCITEGIC>MOL_PROPERTY
Bond
SciTegic.value.DoubleValue
0.321

@<SCITEGIC>MOL_PROPERTY
Angle
SciTegic.value.DoubleValue
4.360

@<SCITEGIC>MOL_PROPERTY
Pdih
SciTegic.value.DoubleValue
6.292

@<SCITEGIC>MOL_PROPERTY
Idih
SciTegic.value.DoubleValue
0.016

@<SCITEGIC>MOL_PROPERTY
Tether
SciTegic.value.DoubleValue
0.000

@<TRIPOS>MOLECULE
guest-8_vm2.mol2 : vm2 ligand conformer 197
          25          24           1
SMALL
USER_CHARGES
 
@<TRIPOS>ATOM
       1    C1      19.453219   19.309109   26.597514 C.2        1 MOL1         0.6168
       2    O1      19.795600   19.140078   27.751316 O.co2      1 MOL1        -0.6703
       3    O2      18.493994   19.979827   26.271212 O.co2      1 MOL1        -0.6703
       4    C2      20.288372   18.662957   25.498190 C.3        1 MOL1        -0.1963
       5    H1      19.610347   18.374009   24.689667 H          1 MOL1         0.0750
       6    H2      20.718572   17.737341   25.898594 H          1 MOL1         0.0750
       7    C3      21.417353   19.592201   24.978947 C.3        1 MOL1        -0.1860
       8    H3      21.002238   20.553799   24.648469 H          1 MOL1         0.0752
       9    H4      22.076662   19.823687   25.826915 H          1 MOL1         0.0752
      10    C4      22.269123   18.958507   23.851016 C.3        1 MOL1        -0.1858
      11    H5      22.316857   17.868319   23.977544 H          1 MOL1         0.0752
      12    H6      23.301380   19.314595   23.971794 H          1 MOL1         0.0752
      13    C5      21.830484   19.308018   22.404153 C.3        1 MOL1        -0.1858
      14    H7      21.852259   20.396358   22.256429 H          1 MOL1         0.0752
      15    H8      22.595313   18.903935   21.726942 H          1 MOL1         0.0752
      16    C6      20.460853   18.734517   21.963051 C.3        1 MOL1        -0.1858
      17    H9      20.251249   17.800305   22.500399 H          1 MOL1         0.0752
      18    H10     20.525150   18.463043   20.900492 H          1 MOL1         0.0752
      19    C7      19.294236   19.736053   22.128180 C.3        1 MOL1        -0.1834
      20    H11     19.219903   20.076750   23.168082 H          1 MOL1         0.0752
      21    H12     19.488936   20.629800   21.519703 H          1 MOL1         0.0752
      22    C8      17.949766   19.112733   21.702421 C.3        1 MOL1        -0.2849
      23    H13     17.134079   19.838276   21.817254 H          1 MOL1         0.0764
      24    H14     17.977665   18.796366   20.651556 H          1 MOL1         0.0764
      25    H15     17.712129   18.236182   22.319250 H          1 MOL1         0.0764
@<TRIPOS>BOND
    1     1     2    1
    2     1     3    2
    3     1     4    1
    4     4     5    1
    5     4     6    1
    6     4     7    1
    7     7     8    1
    8     7     9    1
    9     7    10    1
   10    10    11    1
   11    10    12    1
   12    10    13    1
   13    13    14    1
   14    13    15    1
   15    13    16    1
   16    16    17    1
   17    16    18    1
   18    16    19    1
   19    19    20    1
   20    19    21    1
   21    19    22    1
   22    22    23    1
   23    22    24    1
   24    22    25    1
@<TRIPOS>SUBSTRUCTURE
       1 MOL1            1 RESIDUE      1      MOL     
@<SCITEGIC>MOL_PROPERTY
VM2 Rank
SciTegic.value.IntegerValue
197

@<SCITEGIC>MOL_PROPERTY
Conf_Id
SciTegic.value.IntegerValue
1065

@<SCITEGIC>MOL_PROPERTY
Probability
SciTegic.value.DoubleValue
0.00

@<SCITEGIC>MOL_PROPERTY
Sum Probability
SciTegic.value.DoubleValue
100.00

@<SCITEGIC>MOL_PROPERTY
Delta G
SciTegic.value.DoubleValue
7.446

@<SCITEGIC>MOL_PROPERTY
G
SciTegic.value.DoubleValue
-0.517

@<SCITEGIC>MOL_PROPERTY
E
SciTegic.value.DoubleValue
-25.853

@<SCITEGIC>MOL_PROPERTY
-TS
SciTegic.value.DoubleValue
25.336

@<SCITEGIC>MOL_PROPERTY
U+W
SciTegic.value.DoubleValue
-46.420

@<SCITEGIC>MOL_PROPERTY
U
SciTegic.value.DoubleValue
13.989

@<SCITEGIC>MOL_PROPERTY
W
SciTegic.value.DoubleValue
-60.409

@<SCITEGIC>MOL_PROPERTY
W(PB)
SciTegic.value.DoubleValue
-62.777

@<SCITEGIC>MOL_PROPERTY
W(SA)
SciTegic.value.DoubleValue
2.367

@<SCITEGIC>MOL_PROPERTY
Valence
SciTegic.value.DoubleValue
13.108

@<SCITEGIC>MOL_PROPERTY
Coulomb
SciTegic.value.DoubleValue
0.471

@<SCITEGIC>MOL_PROPERTY
VdW
SciTegic.value.DoubleValue
0.410

@<SCITEGIC>MOL_PROPERTY
VdW6
SciTegic.value.DoubleValue
-11.098

@<SCITEGIC>MOL_PROPERTY
VdW12
SciTegic.value.DoubleValue
11.508

@<SCITEGIC>MOL_PROPERTY
Bond
SciTegic.value.DoubleValue
0.254

@<SCITEGIC>MOL_PROPERTY
Angle
SciTegic.value.DoubleValue
3.732

@<SCITEGIC>MOL_PROPERTY
Pdih
SciTegic.value.DoubleValue
9.121

@<SCITEGIC>MOL_PROPERTY
Idih
SciTegic.value.DoubleValue
0.001

@<SCITEGIC>MOL_PROPERTY
Tether
SciTegic.value.DoubleValue
0.000

@<TRIPOS>MOLECULE
guest-8_vm2.mol2 : vm2 ligand conformer 198
          25          24           1
SMALL
USER_CHARGES
 
@<TRIPOS>ATOM
       1    C1      19.773718   18.688952   26.271169 C.2        1 MOL1         0.6168
       2    O1      20.608767   18.191775   27.001770 O.co2      1 MOL1        -0.6703
       3    O2      18.876148   18.055324   25.752199 O.co2      1 MOL1        -0.6703
       4    C2      19.814544   20.199787   26.047572 C.3        1 MOL1        -0.1963
       5    H1      19.596245   20.670137   27.013065 H          1 MOL1         0.0750
       6    H2      18.998500   20.483236   25.373798 H          1 MOL1         0.0750
       7    C3      21.170603   20.736641   25.514498 C.3        1 MOL1        -0.1860
       8    H3      21.140735   21.834386   25.496402 H          1 MOL1         0.0752
       9    H4      21.959499   20.467024   26.230289 H          1 MOL1         0.0752
      10    C4      21.573956   20.215161   24.111853 C.3        1 MOL1        -0.1858
      11    H5      21.638001   19.119888   24.124376 H          1 MOL1         0.0752
      12    H6      22.594113   20.568764   23.909738 H          1 MOL1         0.0752
      13    C5      20.659754   20.710531   22.959304 C.3        1 MOL1        -0.1858
      14    H7      20.177143   21.652382   23.253296 H          1 MOL1         0.0752
      15    H8      21.284837   20.958522   22.090659 H          1 MOL1         0.0752
      16    C6      19.577642   19.698657   22.506989 C.3        1 MOL1        -0.1858
      17    H9      18.863690   20.221358   21.856235 H          1 MOL1         0.0752
      18    H10     19.003317   19.342730   23.370816 H          1 MOL1         0.0752
      19    C7      20.157035   18.490532   21.735729 C.3        1 MOL1        -0.1834
      20    H11     20.739454   18.845117   20.874318 H          1 MOL1         0.0752
      21    H12     20.846450   17.925401   22.376096 H          1 MOL1         0.0752
      22    C8      19.040834   17.546641   21.244918 C.3        1 MOL1        -0.2849
      23    H13     18.461591   17.154136   22.091304 H          1 MOL1         0.0764
      24    H14     18.351023   18.070131   20.570152 H          1 MOL1         0.0764
      25    H15     19.466491   16.693762   20.700567 H          1 MOL1         0.0764
@<TRIPOS>BOND
    1     1     2    1
    2     1     3    2
    3     1     4    1
    4     4     5    1
    5     4     6    1
    6     4     7    1
    7     7     8    1
    8     7     9    1
    9     7    10    1
   10    10    11    1
   11    10    12    1
   12    10    13    1
   13    13    14    1
   14    13    15    1
   15    13    16    1
   16    16    17    1
   17    16    18    1
   18    16    19    1
   19    19    20    1
   20    19    21    1
   21    19    22    1
   22    22    23    1
   23    22    24    1
   24    22    25    1
@<TRIPOS>SUBSTRUCTURE
       1 MOL1            1 RESIDUE      1      MOL     
@<SCITEGIC>MOL_PROPERTY
VM2 Rank
SciTegic.value.IntegerValue
198

@<SCITEGIC>MOL_PROPERTY
Conf_Id
SciTegic.value.IntegerValue
539

@<SCITEGIC>MOL_PROPERTY
Probability
SciTegic.value.DoubleValue
0.00

@<SCITEGIC>MOL_PROPERTY
Sum Probability
SciTegic.value.DoubleValue
100.00

@<SCITEGIC>MOL_PROPERTY
Delta G
SciTegic.value.DoubleValue
7.547

@<SCITEGIC>MOL_PROPERTY
G
SciTegic.value.DoubleValue
-0.416

@<SCITEGIC>MOL_PROPERTY
E
SciTegic.value.DoubleValue
-25.618

@<SCITEGIC>MOL_PROPERTY
-TS
SciTegic.value.DoubleValue
25.202

@<SCITEGIC>MOL_PROPERTY
U+W
SciTegic.value.DoubleValue
-46.185

@<SCITEGIC>MOL_PROPERTY
U
SciTegic.value.DoubleValue
15.106

@<SCITEGIC>MOL_PROPERTY
W
SciTegic.value.DoubleValue
-61.292

@<SCITEGIC>MOL_PROPERTY
W(PB)
SciTegic.value.DoubleValue
-63.639

@<SCITEGIC>MOL_PROPERTY
W(SA)
SciTegic.value.DoubleValue
2.348

@<SCITEGIC>MOL_PROPERTY
Valence
SciTegic.value.DoubleValue
11.933

@<SCITEGIC>MOL_PROPERTY
Coulomb
SciTegic.value.DoubleValue
2.761

@<SCITEGIC>MOL_PROPERTY
VdW
SciTegic.value.DoubleValue
0.412

@<SCITEGIC>MOL_PROPERTY
VdW6
SciTegic.value.DoubleValue
-11.606

@<SCITEGIC>MOL_PROPERTY
VdW12
SciTegic.value.DoubleValue
12.018

@<SCITEGIC>MOL_PROPERTY
Bond
SciTegic.value.DoubleValue
0.273

@<SCITEGIC>MOL_PROPERTY
Angle
SciTegic.value.DoubleValue
3.594

@<SCITEGIC>MOL_PROPERTY
Pdih
SciTegic.value.DoubleValue
8.060

@<SCITEGIC>MOL_PROPERTY
Idih
SciTegic.value.DoubleValue
0.006

@<SCITEGIC>MOL_PROPERTY
Tether
SciTegic.value.DoubleValue
0.000

@<TRIPOS>MOLECULE
guest-8_vm2.mol2 : vm2 ligand conformer 199
          25          24           1
SMALL
USER_CHARGES
 
@<TRIPOS>ATOM
       1    C1      20.082081   19.029006   26.880558 C.2        1 MOL1         0.6168
       2    O1      20.474025   17.883795   26.990832 O.co2      1 MOL1        -0.6703
       3    O2      18.994411   19.405947   27.271083 O.co2      1 MOL1        -0.6703
       4    C2      21.032933   20.060361   26.276430 C.3        1 MOL1        -0.1963
       5    H1      21.983645   19.570395   26.033876 H          1 MOL1         0.0750
       6    H2      21.247315   20.783155   27.072099 H          1 MOL1         0.0750
       7    C3      20.486628   20.822232   25.035896 C.3        1 MOL1        -0.1860
       8    H3      19.441251   21.115934   25.204604 H          1 MOL1         0.0752
       9    H4      21.051297   21.759612   24.941627 H          1 MOL1         0.0752
      10    C4      20.615818   20.060677   23.692934 C.3        1 MOL1        -0.1858
      11    H5      21.658129   19.749460   23.540834 H          1 MOL1         0.0752
      12    H6      20.379036   20.768661   22.889106 H          1 MOL1         0.0752
      13    C5      19.679747   18.835501   23.568743 C.3        1 MOL1        -0.1858
      14    H7      19.897749   18.126173   24.375725 H          1 MOL1         0.0752
      15    H8      18.638142   19.154613   23.709483 H          1 MOL1         0.0752
      16    C6      19.809327   18.070331   22.227320 C.3        1 MOL1        -0.1858
      17    H9      19.145023   17.196989   22.280413 H          1 MOL1         0.0752
      18    H10     20.825184   17.665293   22.123058 H          1 MOL1         0.0752
      19    C7      19.426428   18.891562   20.970647 C.3        1 MOL1        -0.1834
      20    H11     18.887855   18.236332   20.272151 H          1 MOL1         0.0752
      21    H12     18.725061   19.693908   21.238164 H          1 MOL1         0.0752
      22    C8      20.651602   19.474588   20.231557 C.3        1 MOL1        -0.2849
      23    H13     21.316399   18.672234   19.886063 H          1 MOL1         0.0764
      24    H14     20.332616   20.048281   19.351826 H          1 MOL1         0.0764
      25    H15     21.235692   20.142988   20.874538 H          1 MOL1         0.0764
@<TRIPOS>BOND
    1     1     2    1
    2     1     3    2
    3     1     4    1
    4     4     5    1
    5     4     6    1
    6     4     7    1
    7     7     8    1
    8     7     9    1
    9     7    10    1
   10    10    11    1
   11    10    12    1
   12    10    13    1
   13    13    14    1
   14    13    15    1
   15    13    16    1
   16    16    17    1
   17    16    18    1
   18    16    19    1
   19    19    20    1
   20    19    21    1
   21    19    22    1
   22    22    23    1
   23    22    24    1
   24    22    25    1
@<TRIPOS>SUBSTRUCTURE
       1 MOL1            1 RESIDUE      1      MOL     
@<SCITEGIC>MOL_PROPERTY
VM2 Rank
SciTegic.value.IntegerValue
199

@<SCITEGIC>MOL_PROPERTY
Conf_Id
SciTegic.value.IntegerValue
85

@<SCITEGIC>MOL_PROPERTY
Probability
SciTegic.value.DoubleValue
0.00

@<SCITEGIC>MOL_PROPERTY
Sum Probability
SciTegic.value.DoubleValue
100.00

@<SCITEGIC>MOL_PROPERTY
Delta G
SciTegic.value.DoubleValue
7.650

@<SCITEGIC>MOL_PROPERTY
G
SciTegic.value.DoubleValue
-0.312

@<SCITEGIC>MOL_PROPERTY
E
SciTegic.value.DoubleValue
-25.489

@<SCITEGIC>MOL_PROPERTY
-TS
SciTegic.value.DoubleValue
25.177

@<SCITEGIC>MOL_PROPERTY
U+W
SciTegic.value.DoubleValue
-46.057

@<SCITEGIC>MOL_PROPERTY
U
SciTegic.value.DoubleValue
14.423

@<SCITEGIC>MOL_PROPERTY
W
SciTegic.value.DoubleValue
-60.479

@<SCITEGIC>MOL_PROPERTY
W(PB)
SciTegic.value.DoubleValue
-62.879

@<SCITEGIC>MOL_PROPERTY
W(SA)
SciTegic.value.DoubleValue
2.400

@<SCITEGIC>MOL_PROPERTY
Valence
SciTegic.value.DoubleValue
12.698

@<SCITEGIC>MOL_PROPERTY
Coulomb
SciTegic.value.DoubleValue
0.771

@<SCITEGIC>MOL_PROPERTY
VdW
SciTegic.value.DoubleValue
0.953

@<SCITEGIC>MOL_PROPERTY
VdW6
SciTegic.value.DoubleValue
-11.273

@<SCITEGIC>MOL_PROPERTY
VdW12
SciTegic.value.DoubleValue
12.226

@<SCITEGIC>MOL_PROPERTY
Bond
SciTegic.value.DoubleValue
0.285

@<SCITEGIC>MOL_PROPERTY
Angle
SciTegic.value.DoubleValue
4.019

@<SCITEGIC>MOL_PROPERTY
Pdih
SciTegic.value.DoubleValue
8.388

@<SCITEGIC>MOL_PROPERTY
Idih
SciTegic.value.DoubleValue
0.006

@<SCITEGIC>MOL_PROPERTY
Tether
SciTegic.value.DoubleValue
0.000

@<TRIPOS>MOLECULE
guest-8_vm2.mol2 : vm2 ligand conformer 200
          25          24           1
SMALL
USER_CHARGES
 
@<TRIPOS>ATOM
       1    C1      19.732050   19.012522   26.607705 C.2        1 MOL1         0.6168
       2    O1      20.354269   19.006323   27.651955 O.co2      1 MOL1        -0.6703
       3    O2      18.630290   19.510739   26.485104 O.co2      1 MOL1        -0.6703
       4    C2      20.359066   18.332478   25.394058 C.3        1 MOL1        -0.1963
       5    H1      19.576377   18.166578   24.645764 H          1 MOL1         0.0750
       6    H2      20.698849   17.340899   25.714482 H          1 MOL1         0.0750
       7    C3      21.553590   19.112040   24.778481 C.3        1 MOL1        -0.1860
       8    H3      22.329731   19.225120   25.547828 H          1 MOL1         0.0752
       9    H4      22.012369   18.517626   23.979046 H          1 MOL1         0.0752
      10    C4      21.187139   20.516532   24.238042 C.3        1 MOL1        -0.1858
      11    H5      22.101844   21.004241   23.874849 H          1 MOL1         0.0752
      12    H6      20.833520   21.133935   25.075161 H          1 MOL1         0.0752
      13    C5      20.117923   20.555993   23.114461 C.3        1 MOL1        -0.1858
      14    H7      19.166986   20.147492   23.476033 H          1 MOL1         0.0752
      15    H8      19.912846   21.614494   22.905026 H          1 MOL1         0.0752
      16    C6      20.549059   19.890790   21.779031 C.3        1 MOL1        -0.1858
      17    H9      21.636059   19.990913   21.657437 H          1 MOL1         0.0752
      18    H10     20.105875   20.456715   20.948350 H          1 MOL1         0.0752
      19    C7      20.147397   18.403809   21.610812 C.3        1 MOL1        -0.1834
      20    H11     20.626452   18.016446   20.701230 H          1 MOL1         0.0752
      21    H12     20.536100   17.799450   22.437959 H          1 MOL1         0.0752
      22    C8      18.622218   18.192773   21.486352 C.3        1 MOL1        -0.2849
      23    H13     18.207952   18.793986   20.666691 H          1 MOL1         0.0764
      24    H14     18.397326   17.138796   21.278266 H          1 MOL1         0.0764
      25    H15     18.099549   18.466266   22.410942 H          1 MOL1         0.0764
@<TRIPOS>BOND
    1     1     2    1
    2     1     3    2
    3     1     4    1
    4     4     5    1
    5     4     6    1
    6     4     7    1
    7     7     8    1
    8     7     9    1
    9     7    10    1
   10    10    11    1
   11    10    12    1
   12    10    13    1
   13    13    14    1
   14    13    15    1
   15    13    16    1
   16    16    17    1
   17    16    18    1
   18    16    19    1
   19    19    20    1
   20    19    21    1
   21    19    22    1
   22    22    23    1
   23    22    24    1
   24    22    25    1
@<TRIPOS>SUBSTRUCTURE
       1 MOL1            1 RESIDUE      1      MOL     
@<SCITEGIC>MOL_PROPERTY
VM2 Rank
SciTegic.value.IntegerValue
200

@<SCITEGIC>MOL_PROPERTY
Conf_Id
SciTegic.value.IntegerValue
552

@<SCITEGIC>MOL_PROPERTY
Probability
SciTegic.value.DoubleValue
0.00

@<SCITEGIC>MOL_PROPERTY
Sum Probability
SciTegic.value.DoubleValue
100.00

@<SCITEGIC>MOL_PROPERTY
Delta G
SciTegic.value.DoubleValue
7.724

@<SCITEGIC>MOL_PROPERTY
G
SciTegic.value.DoubleValue
-0.239

@<SCITEGIC>MOL_PROPERTY
E
SciTegic.value.DoubleValue
-26.056

@<SCITEGIC>MOL_PROPERTY
-TS
SciTegic.value.DoubleValue
25.817

@<SCITEGIC>MOL_PROPERTY
U+W
SciTegic.value.DoubleValue
-46.624

@<SCITEGIC>MOL_PROPERTY
U
SciTegic.value.DoubleValue
14.175

@<SCITEGIC>MOL_PROPERTY
W
SciTegic.value.DoubleValue
-60.798

@<SCITEGIC>MOL_PROPERTY
W(PB)
SciTegic.value.DoubleValue
-63.135

@<SCITEGIC>MOL_PROPERTY
W(SA)
SciTegic.value.DoubleValue
2.337

@<SCITEGIC>MOL_PROPERTY
Valence
SciTegic.value.DoubleValue
12.070

@<SCITEGIC>MOL_PROPERTY
Coulomb
SciTegic.value.DoubleValue
1.751

@<SCITEGIC>MOL_PROPERTY
VdW
SciTegic.value.DoubleValue
0.353

@<SCITEGIC>MOL_PROPERTY
VdW6
SciTegic.value.DoubleValue
-12.458

@<SCITEGIC>MOL_PROPERTY
VdW12
SciTegic.value.DoubleValue
12.811

@<SCITEGIC>MOL_PROPERTY
Bond
SciTegic.value.DoubleValue
0.325

@<SCITEGIC>MOL_PROPERTY
Angle
SciTegic.value.DoubleValue
4.280

@<SCITEGIC>MOL_PROPERTY
Pdih
SciTegic.value.DoubleValue
7.464

@<SCITEGIC>MOL_PROPERTY
Idih
SciTegic.value.DoubleValue
0.001

@<SCITEGIC>MOL_PROPERTY
Tether
SciTegic.value.DoubleValue
0.000

@<TRIPOS>MOLECULE
guest-8_vm2.mol2 : vm2 ligand conformer 201
          25          24           1
SMALL
USER_CHARGES
 
@<TRIPOS>ATOM
       1    C1      19.746346   19.631978   26.529131 C.2        1 MOL1         0.6168
       2    O1      20.653294   20.151656   27.149754 O.co2      1 MOL1        -0.6703
       3    O2      18.716271   20.208049   26.238833 O.co2      1 MOL1        -0.6703
       4    C2      19.876287   18.156957   26.154358 C.3        1 MOL1        -0.1963
       5    H1      18.959648   17.837304   25.644035 H          1 MOL1         0.0750
       6    H2      19.919557   17.602008   27.098583 H          1 MOL1         0.0750
       7    C3      21.122727   17.796177   25.297927 C.3        1 MOL1        -0.1860
       8    H3      22.013851   18.296776   25.701404 H          1 MOL1         0.0752
       9    H4      21.306831   16.718794   25.406204 H          1 MOL1         0.0752
      10    C4      20.979333   18.099578   23.785821 C.3        1 MOL1        -0.1858
      11    H5      20.087047   17.594869   23.397430 H          1 MOL1         0.0752
      12    H6      21.835205   17.647687   23.266431 H          1 MOL1         0.0752
      13    C5      20.939103   19.610693   23.448296 C.3        1 MOL1        -0.1858
      14    H7      20.054737   20.085543   23.890721 H          1 MOL1         0.0752
      15    H8      21.811103   20.089436   23.914316 H          1 MOL1         0.0752
      16    C6      20.973311   19.901436   21.925705 C.3        1 MOL1        -0.1858
      17    H9      21.524104   19.111512   21.397353 H          1 MOL1         0.0752
      18    H10     21.550323   20.822852   21.768160 H          1 MOL1         0.0752
      19    C7      19.583380   20.106840   21.273789 C.3        1 MOL1        -0.1834
      20    H11     19.079188   20.962098   21.744609 H          1 MOL1         0.0752
      21    H12     19.729968   20.378738   20.219426 H          1 MOL1         0.0752
      22    C8      18.662947   18.870636   21.342386 C.3        1 MOL1        -0.2849
      23    H13     18.347263   18.671195   22.374041 H          1 MOL1         0.0764
      24    H14     17.756176   19.033686   20.745838 H          1 MOL1         0.0764
      25    H15     19.170142   17.978697   20.952389 H          1 MOL1         0.0764
@<TRIPOS>BOND
    1     1     2    1
    2     1     3    2
    3     1     4    1
    4     4     5    1
    5     4     6    1
    6     4     7    1
    7     7     8    1
    8     7     9    1
    9     7    10    1
   10    10    11    1
   11    10    12    1
   12    10    13    1
   13    13    14    1
   14    13    15    1
   15    13    16    1
   16    16    17    1
   17    16    18    1
   18    16    19    1
   19    19    20    1
   20    19    21    1
   21    19    22    1
   22    22    23    1
   23    22    24    1
   24    22    25    1
@<TRIPOS>SUBSTRUCTURE
       1 MOL1            1 RESIDUE      1      MOL     
@<SCITEGIC>MOL_PROPERTY
VM2 Rank
SciTegic.value.IntegerValue
201

@<SCITEGIC>MOL_PROPERTY
Conf_Id
SciTegic.value.IntegerValue
428

@<SCITEGIC>MOL_PROPERTY
Probability
SciTegic.value.DoubleValue
0.00

@<SCITEGIC>MOL_PROPERTY
Sum Probability
SciTegic.value.DoubleValue
100.00

@<SCITEGIC>MOL_PROPERTY
Delta G
SciTegic.value.DoubleValue
7.741

@<SCITEGIC>MOL_PROPERTY
G
SciTegic.value.DoubleValue
-0.221

@<SCITEGIC>MOL_PROPERTY
E
SciTegic.value.DoubleValue
-25.443

@<SCITEGIC>MOL_PROPERTY
-TS
SciTegic.value.DoubleValue
25.221

@<SCITEGIC>MOL_PROPERTY
U+W
SciTegic.value.DoubleValue
-46.010

@<SCITEGIC>MOL_PROPERTY
U
SciTegic.value.DoubleValue
15.042

@<SCITEGIC>MOL_PROPERTY
W
SciTegic.value.DoubleValue
-61.052

@<SCITEGIC>MOL_PROPERTY
W(PB)
SciTegic.value.DoubleValue
-63.403

@<SCITEGIC>MOL_PROPERTY
W(SA)
SciTegic.value.DoubleValue
2.351

@<SCITEGIC>MOL_PROPERTY
Valence
SciTegic.value.DoubleValue
12.413

@<SCITEGIC>MOL_PROPERTY
Coulomb
SciTegic.value.DoubleValue
1.927

@<SCITEGIC>MOL_PROPERTY
VdW
SciTegic.value.DoubleValue
0.702

@<SCITEGIC>MOL_PROPERTY
VdW6
SciTegic.value.DoubleValue
-11.648

@<SCITEGIC>MOL_PROPERTY
VdW12
SciTegic.value.DoubleValue
12.350

@<SCITEGIC>MOL_PROPERTY
Bond
SciTegic.value.DoubleValue
0.287

@<SCITEGIC>MOL_PROPERTY
Angle
SciTegic.value.DoubleValue
3.936

@<SCITEGIC>MOL_PROPERTY
Pdih
SciTegic.value.DoubleValue
8.183

@<SCITEGIC>MOL_PROPERTY
Idih
SciTegic.value.DoubleValue
0.007

@<SCITEGIC>MOL_PROPERTY
Tether
SciTegic.value.DoubleValue
0.000

@<TRIPOS>MOLECULE
guest-8_vm2.mol2 : vm2 ligand conformer 202
          25          24           1
SMALL
USER_CHARGES
 
@<TRIPOS>ATOM
       1    C1      20.503620   19.680131   26.521094 C.2        1 MOL1         0.6168
       2    O1      21.444896   20.382632   26.208561 O.co2      1 MOL1        -0.6703
       3    O2      19.552303   20.080403   27.163410 O.co2      1 MOL1        -0.6703
       4    C2      20.554346   18.200280   26.146239 C.3        1 MOL1        -0.1963
       5    H1      20.604249   17.645120   27.090011 H          1 MOL1         0.0750
       6    H2      21.492152   17.999832   25.614094 H          1 MOL1         0.0750
       7    C3      19.344531   17.682682   25.318176 C.3        1 MOL1        -0.1860
       8    H3      19.301634   16.590755   25.428751 H          1 MOL1         0.0752
       9    H4      18.406494   18.066219   25.743006 H          1 MOL1         0.0752
      10    C4      19.413096   18.000108   23.803709 C.3        1 MOL1        -0.1858
      11    H5      18.609271   17.443140   23.303572 H          1 MOL1         0.0752
      12    H6      20.352675   17.611717   23.393723 H          1 MOL1         0.0752
      13    C5      19.254325   19.503834   23.468144 C.3        1 MOL1        -0.1858
      14    H7      18.340297   19.869298   23.955737 H          1 MOL1         0.0752
      15    H8      20.082075   20.086927   23.890247 H          1 MOL1         0.0752
      16    C6      19.147318   19.786223   21.947358 C.3        1 MOL1        -0.1858
      17    H9      18.455366   20.627549   21.805430 H          1 MOL1         0.0752
      18    H10     18.687737   18.932689   21.430861 H          1 MOL1         0.0752
      19    C7      20.484299   20.164132   21.262694 C.3        1 MOL1        -0.1834
      20    H11     20.279332   20.414370   20.212710 H          1 MOL1         0.0752
      21    H12     20.888131   21.076484   21.722998 H          1 MOL1         0.0752
      22    C8      21.554267   19.053575   21.306614 C.3        1 MOL1        -0.2849
      23    H13     21.153970   18.104497   20.927251 H          1 MOL1         0.0764
      24    H14     22.418609   19.328714   20.688636 H          1 MOL1         0.0764
      25    H15     21.917446   18.896571   22.329935 H          1 MOL1         0.0764
@<TRIPOS>BOND
    1     1     2    1
    2     1     3    2
    3     1     4    1
    4     4     5    1
    5     4     6    1
    6     4     7    1
    7     7     8    1
    8     7     9    1
    9     7    10    1
   10    10    11    1
   11    10    12    1
   12    10    13    1
   13    13    14    1
   14    13    15    1
   15    13    16    1
   16    16    17    1
   17    16    18    1
   18    16    19    1
   19    19    20    1
   20    19    21    1
   21    19    22    1
   22    22    23    1
   23    22    24    1
   24    22    25    1
@<TRIPOS>SUBSTRUCTURE
       1 MOL1            1 RESIDUE      1      MOL     
@<SCITEGIC>MOL_PROPERTY
VM2 Rank
SciTegic.value.IntegerValue
202

@<SCITEGIC>MOL_PROPERTY
Conf_Id
SciTegic.value.IntegerValue
719

@<SCITEGIC>MOL_PROPERTY
Probability
SciTegic.value.DoubleValue
0.00

@<SCITEGIC>MOL_PROPERTY
Sum Probability
SciTegic.value.DoubleValue
100.00

@<SCITEGIC>MOL_PROPERTY
Delta G
SciTegic.value.DoubleValue
7.743

@<SCITEGIC>MOL_PROPERTY
G
SciTegic.value.DoubleValue
-0.219

@<SCITEGIC>MOL_PROPERTY
E
SciTegic.value.DoubleValue
-25.441

@<SCITEGIC>MOL_PROPERTY
-TS
SciTegic.value.DoubleValue
25.223

@<SCITEGIC>MOL_PROPERTY
U+W
SciTegic.value.DoubleValue
-46.009

@<SCITEGIC>MOL_PROPERTY
U
SciTegic.value.DoubleValue
15.039

@<SCITEGIC>MOL_PROPERTY
W
SciTegic.value.DoubleValue
-61.048

@<SCITEGIC>MOL_PROPERTY
W(PB)
SciTegic.value.DoubleValue
-63.409

@<SCITEGIC>MOL_PROPERTY
W(SA)
SciTegic.value.DoubleValue
2.361

@<SCITEGIC>MOL_PROPERTY
Valence
SciTegic.value.DoubleValue
12.413

@<SCITEGIC>MOL_PROPERTY
Coulomb
SciTegic.value.DoubleValue
1.923

@<SCITEGIC>MOL_PROPERTY
VdW
SciTegic.value.DoubleValue
0.703

@<SCITEGIC>MOL_PROPERTY
VdW6
SciTegic.value.DoubleValue
-11.648

@<SCITEGIC>MOL_PROPERTY
VdW12
SciTegic.value.DoubleValue
12.352

@<SCITEGIC>MOL_PROPERTY
Bond
SciTegic.value.DoubleValue
0.287

@<SCITEGIC>MOL_PROPERTY
Angle
SciTegic.value.DoubleValue
3.936

@<SCITEGIC>MOL_PROPERTY
Pdih
SciTegic.value.DoubleValue
8.182

@<SCITEGIC>MOL_PROPERTY
Idih
SciTegic.value.DoubleValue
0.007

@<SCITEGIC>MOL_PROPERTY
Tether
SciTegic.value.DoubleValue
0.000

@<TRIPOS>MOLECULE
guest-8_vm2.mol2 : vm2 ligand conformer 203
          25          24           1
SMALL
USER_CHARGES
 
@<TRIPOS>ATOM
       1    C1      19.811990   19.168204   26.759641 C.2        1 MOL1         0.6168
       2    O1      19.745800   17.976915   26.991523 O.co2      1 MOL1        -0.6703
       3    O2      18.869607   19.927229   26.875691 O.co2      1 MOL1        -0.6703
       4    C2      21.168887   19.751500   26.369573 C.3        1 MOL1        -0.1963
       5    H1      21.915310   18.948007   26.367691 H          1 MOL1         0.0750
       6    H2      21.451146   20.440136   27.174279 H          1 MOL1         0.0750
       7    C3      21.197134   20.516127   25.016209 C.3        1 MOL1        -0.1860
       8    H3      20.319734   21.173240   24.939151 H          1 MOL1         0.0752
       9    H4      22.072130   21.179986   25.019270 H          1 MOL1         0.0752
      10    C4      21.294147   19.613417   23.761357 C.3        1 MOL1        -0.1858
      11    H5      22.183765   18.973509   23.836335 H          1 MOL1         0.0752
      12    H6      21.459246   20.258822   22.890482 H          1 MOL1         0.0752
      13    C5      20.044389   18.731354   23.522703 C.3        1 MOL1        -0.1858
      14    H7      20.003391   17.967008   24.309013 H          1 MOL1         0.0752
      15    H8      19.127718   19.328177   23.624945 H          1 MOL1         0.0752
      16    C6      20.059672   18.008157   22.151851 C.3        1 MOL1        -0.1858
      17    H9      19.619658   17.010687   22.287170 H          1 MOL1         0.0752
      18    H10     21.093751   17.836305   21.823207 H          1 MOL1         0.0752
      19    C7      19.257344   18.724148   21.037084 C.3        1 MOL1        -0.1834
      20    H11     19.262152   18.089407   20.140312 H          1 MOL1         0.0752
      21    H12     18.205998   18.816133   21.342789 H          1 MOL1         0.0752
      22    C8      19.804030   20.116947   20.660369 C.3        1 MOL1        -0.2849
      23    H13     20.867925   20.063849   20.395422 H          1 MOL1         0.0764
      24    H14     19.259981   20.522626   19.797721 H          1 MOL1         0.0764
      25    H15     19.685883   20.825772   21.489597 H          1 MOL1         0.0764
@<TRIPOS>BOND
    1     1     2    1
    2     1     3    2
    3     1     4    1
    4     4     5    1
    5     4     6    1
    6     4     7    1
    7     7     8    1
    8     7     9    1
    9     7    10    1
   10    10    11    1
   11    10    12    1
   12    10    13    1
   13    13    14    1
   14    13    15    1
   15    13    16    1
   16    16    17    1
   17    16    18    1
   18    16    19    1
   19    19    20    1
   20    19    21    1
   21    19    22    1
   22    22    23    1
   23    22    24    1
   24    22    25    1
@<TRIPOS>SUBSTRUCTURE
       1 MOL1            1 RESIDUE      1      MOL     
@<SCITEGIC>MOL_PROPERTY
VM2 Rank
SciTegic.value.IntegerValue
203

@<SCITEGIC>MOL_PROPERTY
Conf_Id
SciTegic.value.IntegerValue
1109

@<SCITEGIC>MOL_PROPERTY
Probability
SciTegic.value.DoubleValue
0.00

@<SCITEGIC>MOL_PROPERTY
Sum Probability
SciTegic.value.DoubleValue
100.00

@<SCITEGIC>MOL_PROPERTY
Delta G
SciTegic.value.DoubleValue
7.754

@<SCITEGIC>MOL_PROPERTY
G
SciTegic.value.DoubleValue
-0.208

@<SCITEGIC>MOL_PROPERTY
E
SciTegic.value.DoubleValue
-25.654

@<SCITEGIC>MOL_PROPERTY
-TS
SciTegic.value.DoubleValue
25.446

@<SCITEGIC>MOL_PROPERTY
U+W
SciTegic.value.DoubleValue
-46.222

@<SCITEGIC>MOL_PROPERTY
U
SciTegic.value.DoubleValue
14.482

@<SCITEGIC>MOL_PROPERTY
W
SciTegic.value.DoubleValue
-60.703

@<SCITEGIC>MOL_PROPERTY
W(PB)
SciTegic.value.DoubleValue
-63.082

@<SCITEGIC>MOL_PROPERTY
W(SA)
SciTegic.value.DoubleValue
2.379

@<SCITEGIC>MOL_PROPERTY
Valence
SciTegic.value.DoubleValue
12.477

@<SCITEGIC>MOL_PROPERTY
Coulomb
SciTegic.value.DoubleValue
1.221

@<SCITEGIC>MOL_PROPERTY
VdW
SciTegic.value.DoubleValue
0.784

@<SCITEGIC>MOL_PROPERTY
VdW6
SciTegic.value.DoubleValue
-11.566

@<SCITEGIC>MOL_PROPERTY
VdW12
SciTegic.value.DoubleValue
12.350

@<SCITEGIC>MOL_PROPERTY
Bond
SciTegic.value.DoubleValue
0.279

@<SCITEGIC>MOL_PROPERTY
Angle
SciTegic.value.DoubleValue
3.852

@<SCITEGIC>MOL_PROPERTY
Pdih
SciTegic.value.DoubleValue
8.338

@<SCITEGIC>MOL_PROPERTY
Idih
SciTegic.value.DoubleValue
0.007

@<SCITEGIC>MOL_PROPERTY
Tether
SciTegic.value.DoubleValue
0.000

@<TRIPOS>MOLECULE
guest-8_vm2.mol2 : vm2 ligand conformer 204
          25          24           1
SMALL
USER_CHARGES
 
@<TRIPOS>ATOM
       1    C1      20.128451   19.662390   26.747031 C.2        1 MOL1         0.6168
       2    O1      21.187489   20.228787   26.933999 O.co2      1 MOL1        -0.6703
       3    O2      19.047387   20.204718   26.868893 O.co2      1 MOL1        -0.6703
       4    C2      20.158309   18.172707   26.410136 C.3        1 MOL1        -0.1963
       5    H1      19.670214   17.657916   27.245717 H          1 MOL1         0.0750
       6    H2      21.200306   17.830938   26.396381 H          1 MOL1         0.0750
       7    C3      19.444530   17.778253   25.086517 C.3        1 MOL1        -0.1860
       8    H3      19.208655   16.706600   25.134050 H          1 MOL1         0.0752
       9    H4      18.478646   18.297137   25.013083 H          1 MOL1         0.0752
      10    C4      20.275285   18.022025   23.802238 C.3        1 MOL1        -0.1858
      11    H5      19.738462   17.570466   22.959540 H          1 MOL1         0.0752
      12    H6      21.230743   17.485010   23.874627 H          1 MOL1         0.0752
      13    C5      20.546343   19.516538   23.502486 C.3        1 MOL1        -0.1858
      14    H7      19.622720   20.102540   23.604755 H          1 MOL1         0.0752
      15    H8      21.241004   19.902205   24.259385 H          1 MOL1         0.0752
      16    C6      21.177469   19.755170   22.107056 C.3        1 MOL1        -0.1858
      17    H9      21.759464   18.876604   21.796789 H          1 MOL1         0.0752
      18    H10     21.901337   20.576762   22.195762 H          1 MOL1         0.0752
      19    C7      20.165555   20.143047   21.000411 C.3        1 MOL1        -0.1834
      20    H11     19.648188   21.069800   21.284497 H          1 MOL1         0.0752
      21    H12     20.722978   20.371605   20.081629 H          1 MOL1         0.0752
      22    C8      19.122183   19.050365   20.687232 C.3        1 MOL1        -0.2849
      23    H13     18.506043   19.342856   19.827263 H          1 MOL1         0.0764
      24    H14     19.610469   18.097428   20.445616 H          1 MOL1         0.0764
      25    H15     18.448408   18.891236   21.538532 H          1 MOL1         0.0764
@<TRIPOS>BOND
    1     1     2    1
    2     1     3    2
    3     1     4    1
    4     4     5    1
    5     4     6    1
    6     4     7    1
    7     7     8    1
    8     7     9    1
    9     7    10    1
   10    10    11    1
   11    10    12    1
   12    10    13    1
   13    13    14    1
   14    13    15    1
   15    13    16    1
   16    16    17    1
   17    16    18    1
   18    16    19    1
   19    19    20    1
   20    19    21    1
   21    19    22    1
   22    22    23    1
   23    22    24    1
   24    22    25    1
@<TRIPOS>SUBSTRUCTURE
       1 MOL1            1 RESIDUE      1      MOL     
@<SCITEGIC>MOL_PROPERTY
VM2 Rank
SciTegic.value.IntegerValue
204

@<SCITEGIC>MOL_PROPERTY
Conf_Id
SciTegic.value.IntegerValue
389

@<SCITEGIC>MOL_PROPERTY
Probability
SciTegic.value.DoubleValue
0.00

@<SCITEGIC>MOL_PROPERTY
Sum Probability
SciTegic.value.DoubleValue
100.00

@<SCITEGIC>MOL_PROPERTY
Delta G
SciTegic.value.DoubleValue
7.779

@<SCITEGIC>MOL_PROPERTY
G
SciTegic.value.DoubleValue
-0.183

@<SCITEGIC>MOL_PROPERTY
E
SciTegic.value.DoubleValue
-25.628

@<SCITEGIC>MOL_PROPERTY
-TS
SciTegic.value.DoubleValue
25.445

@<SCITEGIC>MOL_PROPERTY
U+W
SciTegic.value.DoubleValue
-46.196

@<SCITEGIC>MOL_PROPERTY
U
SciTegic.value.DoubleValue
14.480

@<SCITEGIC>MOL_PROPERTY
W
SciTegic.value.DoubleValue
-60.676

@<SCITEGIC>MOL_PROPERTY
W(PB)
SciTegic.value.DoubleValue
-63.040

@<SCITEGIC>MOL_PROPERTY
W(SA)
SciTegic.value.DoubleValue
2.363

@<SCITEGIC>MOL_PROPERTY
Valence
SciTegic.value.DoubleValue
12.477

@<SCITEGIC>MOL_PROPERTY
Coulomb
SciTegic.value.DoubleValue
1.220

@<SCITEGIC>MOL_PROPERTY
VdW
SciTegic.value.DoubleValue
0.784

@<SCITEGIC>MOL_PROPERTY
VdW6
SciTegic.value.DoubleValue
-11.565

@<SCITEGIC>MOL_PROPERTY
VdW12
SciTegic.value.DoubleValue
12.349

@<SCITEGIC>MOL_PROPERTY
Bond
SciTegic.value.DoubleValue
0.279

@<SCITEGIC>MOL_PROPERTY
Angle
SciTegic.value.DoubleValue
3.853

@<SCITEGIC>MOL_PROPERTY
Pdih
SciTegic.value.DoubleValue
8.338

@<SCITEGIC>MOL_PROPERTY
Idih
SciTegic.value.DoubleValue
0.007

@<SCITEGIC>MOL_PROPERTY
Tether
SciTegic.value.DoubleValue
0.000

@<TRIPOS>MOLECULE
guest-8_vm2.mol2 : vm2 ligand conformer 205
          25          24           1
SMALL
USER_CHARGES
 
@<TRIPOS>ATOM
       1    C1      20.150267   18.507462   26.015855 C.2        1 MOL1         0.6168
       2    O1      21.150214   17.834361   25.858760 O.co2      1 MOL1        -0.6703
       3    O2      19.022172   18.056732   25.968011 O.co2      1 MOL1        -0.6703
       4    C2      20.324551   19.971237   26.417378 C.3        1 MOL1        -0.1963
       5    H1      21.393543   20.182627   26.540637 H          1 MOL1         0.0750
       6    H2      19.868629   20.073956   27.408884 H          1 MOL1         0.0750
       7    C3      19.676599   21.006087   25.454742 C.3        1 MOL1        -0.1860
       8    H3      18.677248   20.665572   25.152857 H          1 MOL1         0.0752
       9    H4      19.514237   21.934285   26.018946 H          1 MOL1         0.0752
      10    C4      20.534117   21.361049   24.211841 C.3        1 MOL1        -0.1858
      11    H5      21.505552   21.747610   24.548729 H          1 MOL1         0.0752
      12    H6      20.049935   22.190160   23.678109 H          1 MOL1         0.0752
      13    C5      20.778397   20.206191   23.209892 C.3        1 MOL1        -0.1858
      14    H7      21.423342   20.579097   22.402965 H          1 MOL1         0.0752
      15    H8      21.341786   19.404334   23.701587 H          1 MOL1         0.0752
      16    C6      19.475580   19.644963   22.589521 C.3        1 MOL1        -0.1858
      17    H9      18.884463   20.476652   22.183201 H          1 MOL1         0.0752
      18    H10     18.860876   19.174709   23.368382 H          1 MOL1         0.0752
      19    C7      19.728733   18.618848   21.460752 C.3        1 MOL1        -0.1834
      20    H11     18.766044   18.355377   21.001597 H          1 MOL1         0.0752
      21    H12     20.336107   19.078030   20.668726 H          1 MOL1         0.0752
      22    C8      20.412369   17.327070   21.959249 C.3        1 MOL1        -0.2849
      23    H13     19.842412   16.874733   22.781928 H          1 MOL1         0.0764
      24    H14     20.483501   16.590289   21.148910 H          1 MOL1         0.0764
      25    H15     21.429278   17.526143   22.320028 H          1 MOL1         0.0764
@<TRIPOS>BOND
    1     1     2    1
    2     1     3    2
    3     1     4    1
    4     4     5    1
    5     4     6    1
    6     4     7    1
    7     7     8    1
    8     7     9    1
    9     7    10    1
   10    10    11    1
   11    10    12    1
   12    10    13    1
   13    13    14    1
   14    13    15    1
   15    13    16    1
   16    16    17    1
   17    16    18    1
   18    16    19    1
   19    19    20    1
   20    19    21    1
   21    19    22    1
   22    22    23    1
   23    22    24    1
   24    22    25    1
@<TRIPOS>SUBSTRUCTURE
       1 MOL1            1 RESIDUE      1      MOL     
@<SCITEGIC>MOL_PROPERTY
VM2 Rank
SciTegic.value.IntegerValue
205

@<SCITEGIC>MOL_PROPERTY
Conf_Id
SciTegic.value.IntegerValue
236

@<SCITEGIC>MOL_PROPERTY
Probability
SciTegic.value.DoubleValue
0.00

@<SCITEGIC>MOL_PROPERTY
Sum Probability
SciTegic.value.DoubleValue
100.00

@<SCITEGIC>MOL_PROPERTY
Delta G
SciTegic.value.DoubleValue
7.891

@<SCITEGIC>MOL_PROPERTY
G
SciTegic.value.DoubleValue
-0.071

@<SCITEGIC>MOL_PROPERTY
E
SciTegic.value.DoubleValue
-25.961

@<SCITEGIC>MOL_PROPERTY
-TS
SciTegic.value.DoubleValue
25.890

@<SCITEGIC>MOL_PROPERTY
U+W
SciTegic.value.DoubleValue
-46.529

@<SCITEGIC>MOL_PROPERTY
U
SciTegic.value.DoubleValue
14.294

@<SCITEGIC>MOL_PROPERTY
W
SciTegic.value.DoubleValue
-60.823

@<SCITEGIC>MOL_PROPERTY
W(PB)
SciTegic.value.DoubleValue
-63.131

@<SCITEGIC>MOL_PROPERTY
W(SA)
SciTegic.value.DoubleValue
2.308

@<SCITEGIC>MOL_PROPERTY
Valence
SciTegic.value.DoubleValue
10.557

@<SCITEGIC>MOL_PROPERTY
Coulomb
SciTegic.value.DoubleValue
3.764

@<SCITEGIC>MOL_PROPERTY
VdW
SciTegic.value.DoubleValue
-0.028

@<SCITEGIC>MOL_PROPERTY
VdW6
SciTegic.value.DoubleValue
-12.698

@<SCITEGIC>MOL_PROPERTY
VdW12
SciTegic.value.DoubleValue
12.670

@<SCITEGIC>MOL_PROPERTY
Bond
SciTegic.value.DoubleValue
0.274

@<SCITEGIC>MOL_PROPERTY
Angle
SciTegic.value.DoubleValue
3.852

@<SCITEGIC>MOL_PROPERTY
Pdih
SciTegic.value.DoubleValue
6.410

@<SCITEGIC>MOL_PROPERTY
Idih
SciTegic.value.DoubleValue
0.022

@<SCITEGIC>MOL_PROPERTY
Tether
SciTegic.value.DoubleValue
0.000

@<TRIPOS>MOLECULE
guest-8_vm2.mol2 : vm2 ligand conformer 206
          25          24           1
SMALL
USER_CHARGES
 
@<TRIPOS>ATOM
       1    C1      20.600353   19.323414   26.615560 C.2        1 MOL1         0.6168
       2    O1      21.660743   19.874153   26.392800 O.co2      1 MOL1        -0.6703
       3    O2      20.507607   18.214140   27.103623 O.co2      1 MOL1        -0.6703
       4    C2      19.315717   20.087909   26.310850 C.3        1 MOL1        -0.1963
       5    H1      19.416072   21.075067   26.776945 H          1 MOL1         0.0750
       6    H2      18.481461   19.587192   26.816736 H          1 MOL1         0.0750
       7    C3      18.997688   20.268529   24.800258 C.3        1 MOL1        -0.1860
       8    H3      18.180681   20.997593   24.715879 H          1 MOL1         0.0752
       9    H4      19.860174   20.718260   24.292572 H          1 MOL1         0.0752
      10    C4      18.551512   18.965459   24.086261 C.3        1 MOL1        -0.1858
      11    H5      17.909797   19.221134   23.232107 H          1 MOL1         0.0752
      12    H6      17.913248   18.389667   24.770269 H          1 MOL1         0.0752
      13    C5      19.712015   18.061421   23.592649 C.3        1 MOL1        -0.1858
      14    H7      20.598984   18.179987   24.226715 H          1 MOL1         0.0752
      15    H8      19.401919   17.014203   23.709362 H          1 MOL1         0.0752
      16    C6      20.101724   18.272908   22.108029 C.3        1 MOL1        -0.1858
      17    H9      19.231354   18.071779   21.468698 H          1 MOL1         0.0752
      18    H10     20.860195   17.524680   21.840381 H          1 MOL1         0.0752
      19    C7      20.655634   19.680406   21.796442 C.3        1 MOL1        -0.1834
      20    H11     19.875007   20.434157   21.963579 H          1 MOL1         0.0752
      21    H12     21.482794   19.912801   22.481540 H          1 MOL1         0.0752
      22    C8      21.150007   19.785660   20.339528 C.3        1 MOL1        -0.2849
      23    H13     20.334700   19.582587   19.632887 H          1 MOL1         0.0764
      24    H14     21.534207   20.793112   20.133572 H          1 MOL1         0.0764
      25    H15     21.958559   19.068705   20.145884 H          1 MOL1         0.0764
@<TRIPOS>BOND
    1     1     2    1
    2     1     3    2
    3     1     4    1
    4     4     5    1
    5     4     6    1
    6     4     7    1
    7     7     8    1
    8     7     9    1
    9     7    10    1
   10    10    11    1
   11    10    12    1
   12    10    13    1
   13    13    14    1
   14    13    15    1
   15    13    16    1
   16    16    17    1
   17    16    18    1
   18    16    19    1
   19    19    20    1
   20    19    21    1
   21    19    22    1
   22    22    23    1
   23    22    24    1
   24    22    25    1
@<TRIPOS>SUBSTRUCTURE
       1 MOL1            1 RESIDUE      1      MOL     
@<SCITEGIC>MOL_PROPERTY
VM2 Rank
SciTegic.value.IntegerValue
206

@<SCITEGIC>MOL_PROPERTY
Conf_Id
SciTegic.value.IntegerValue
370

@<SCITEGIC>MOL_PROPERTY
Probability
SciTegic.value.DoubleValue
0.00

@<SCITEGIC>MOL_PROPERTY
Sum Probability
SciTegic.value.DoubleValue
100.00

@<SCITEGIC>MOL_PROPERTY
Delta G
SciTegic.value.DoubleValue
7.920

@<SCITEGIC>MOL_PROPERTY
G
SciTegic.value.DoubleValue
-0.043

@<SCITEGIC>MOL_PROPERTY
E
SciTegic.value.DoubleValue
-25.284

@<SCITEGIC>MOL_PROPERTY
-TS
SciTegic.value.DoubleValue
25.242

@<SCITEGIC>MOL_PROPERTY
U+W
SciTegic.value.DoubleValue
-45.852

@<SCITEGIC>MOL_PROPERTY
U
SciTegic.value.DoubleValue
14.998

@<SCITEGIC>MOL_PROPERTY
W
SciTegic.value.DoubleValue
-60.848

@<SCITEGIC>MOL_PROPERTY
W(PB)
SciTegic.value.DoubleValue
-63.214

@<SCITEGIC>MOL_PROPERTY
W(SA)
SciTegic.value.DoubleValue
2.366

@<SCITEGIC>MOL_PROPERTY
Valence
SciTegic.value.DoubleValue
12.645

@<SCITEGIC>MOL_PROPERTY
Coulomb
SciTegic.value.DoubleValue
1.771

@<SCITEGIC>MOL_PROPERTY
VdW
SciTegic.value.DoubleValue
0.582

@<SCITEGIC>MOL_PROPERTY
VdW6
SciTegic.value.DoubleValue
-11.471

@<SCITEGIC>MOL_PROPERTY
VdW12
SciTegic.value.DoubleValue
12.053

@<SCITEGIC>MOL_PROPERTY
Bond
SciTegic.value.DoubleValue
0.285

@<SCITEGIC>MOL_PROPERTY
Angle
SciTegic.value.DoubleValue
3.669

@<SCITEGIC>MOL_PROPERTY
Pdih
SciTegic.value.DoubleValue
8.687

@<SCITEGIC>MOL_PROPERTY
Idih
SciTegic.value.DoubleValue
0.004

@<SCITEGIC>MOL_PROPERTY
Tether
SciTegic.value.DoubleValue
0.000

@<TRIPOS>MOLECULE
guest-8_vm2.mol2 : vm2 ligand conformer 207
          25          24           1
SMALL
USER_CHARGES
 
@<TRIPOS>ATOM
       1    C1      20.546618   19.738429   26.480494 C.2        1 MOL1         0.6168
       2    O1      21.513723   20.283780   25.986558 O.co2      1 MOL1        -0.6703
       3    O2      20.560519   19.207971   27.574211 O.co2      1 MOL1        -0.6703
       4    C2      19.232723   19.746943   25.703138 C.3        1 MOL1        -0.1963
       5    H1      19.311763   20.478794   24.893644 H          1 MOL1         0.0750
       6    H2      18.458471   20.117996   26.384542 H          1 MOL1         0.0750
       7    C3      18.811105   18.354043   25.159346 C.3        1 MOL1        -0.1860
       8    H3      18.795553   17.652017   26.004601 H          1 MOL1         0.0752
       9    H4      17.778820   18.398773   24.787288 H          1 MOL1         0.0752
      10    C4      19.741822   17.783228   24.056897 C.3        1 MOL1        -0.1858
      11    H5      19.782644   16.693203   24.186089 H          1 MOL1         0.0752
      12    H6      20.773628   18.131273   24.196901 H          1 MOL1         0.0752
      13    C5      19.264385   18.053903   22.605773 C.3        1 MOL1        -0.1858
      14    H7      19.889198   17.472881   21.915258 H          1 MOL1         0.0752
      15    H8      18.248894   17.652236   22.488305 H          1 MOL1         0.0752
      16    C6      19.262835   19.538139   22.159148 C.3        1 MOL1        -0.1858
      17    H9      18.556245   20.103352   22.779428 H          1 MOL1         0.0752
      18    H10     18.865617   19.593927   21.136663 H          1 MOL1         0.0752
      19    C7      20.646313   20.234346   22.189549 C.3        1 MOL1        -0.1834
      20    H11     20.513821   21.288750   21.911522 H          1 MOL1         0.0752
      21    H12     21.050072   20.237624   23.210527 H          1 MOL1         0.0752
      22    C8      21.672959   19.593218   21.230886 C.3        1 MOL1        -0.2849
      23    H13     22.603448   20.175266   21.220387 H          1 MOL1         0.0764
      24    H14     21.923895   18.571527   21.542305 H          1 MOL1         0.0764
      25    H15     21.284246   19.556599   20.205011 H          1 MOL1         0.0764
@<TRIPOS>BOND
    1     1     2    1
    2     1     3    2
    3     1     4    1
    4     4     5    1
    5     4     6    1
    6     4     7    1
    7     7     8    1
    8     7     9    1
    9     7    10    1
   10    10    11    1
   11    10    12    1
   12    10    13    1
   13    13    14    1
   14    13    15    1
   15    13    16    1
   16    16    17    1
   17    16    18    1
   18    16    19    1
   19    19    20    1
   20    19    21    1
   21    19    22    1
   22    22    23    1
   23    22    24    1
   24    22    25    1
@<TRIPOS>SUBSTRUCTURE
       1 MOL1            1 RESIDUE      1      MOL     
@<SCITEGIC>MOL_PROPERTY
VM2 Rank
SciTegic.value.IntegerValue
207

@<SCITEGIC>MOL_PROPERTY
Conf_Id
SciTegic.value.IntegerValue
795

@<SCITEGIC>MOL_PROPERTY
Probability
SciTegic.value.DoubleValue
0.00

@<SCITEGIC>MOL_PROPERTY
Sum Probability
SciTegic.value.DoubleValue
100.00

@<SCITEGIC>MOL_PROPERTY
Delta G
SciTegic.value.DoubleValue
7.955

@<SCITEGIC>MOL_PROPERTY
G
SciTegic.value.DoubleValue
-0.007

@<SCITEGIC>MOL_PROPERTY
E
SciTegic.value.DoubleValue
-26.051

@<SCITEGIC>MOL_PROPERTY
-TS
SciTegic.value.DoubleValue
26.044

@<SCITEGIC>MOL_PROPERTY
U+W
SciTegic.value.DoubleValue
-46.619

@<SCITEGIC>MOL_PROPERTY
U
SciTegic.value.DoubleValue
14.321

@<SCITEGIC>MOL_PROPERTY
W
SciTegic.value.DoubleValue
-60.940

@<SCITEGIC>MOL_PROPERTY
W(PB)
SciTegic.value.DoubleValue
-63.291

@<SCITEGIC>MOL_PROPERTY
W(SA)
SciTegic.value.DoubleValue
2.351

@<SCITEGIC>MOL_PROPERTY
Valence
SciTegic.value.DoubleValue
12.007

@<SCITEGIC>MOL_PROPERTY
Coulomb
SciTegic.value.DoubleValue
1.983

@<SCITEGIC>MOL_PROPERTY
VdW
SciTegic.value.DoubleValue
0.331

@<SCITEGIC>MOL_PROPERTY
VdW6
SciTegic.value.DoubleValue
-12.568

@<SCITEGIC>MOL_PROPERTY
VdW12
SciTegic.value.DoubleValue
12.899

@<SCITEGIC>MOL_PROPERTY
Bond
SciTegic.value.DoubleValue
0.318

@<SCITEGIC>MOL_PROPERTY
Angle
SciTegic.value.DoubleValue
4.087

@<SCITEGIC>MOL_PROPERTY
Pdih
SciTegic.value.DoubleValue
7.600

@<SCITEGIC>MOL_PROPERTY
Idih
SciTegic.value.DoubleValue
0.002

@<SCITEGIC>MOL_PROPERTY
Tether
SciTegic.value.DoubleValue
0.000

@<TRIPOS>MOLECULE
guest-8_vm2.mol2 : vm2 ligand conformer 208
          25          24           1
SMALL
USER_CHARGES
 
@<TRIPOS>ATOM
       1    C1      20.308792   19.740468   26.606949 C.2        1 MOL1         0.6168
       2    O1      21.195114   20.540485   26.379424 O.co2      1 MOL1        -0.6703
       3    O2      19.225878   20.048068   27.065179 O.co2      1 MOL1        -0.6703
       4    C2      20.590636   18.263376   26.349360 C.3        1 MOL1        -0.1963
       5    H1      19.823636   17.666419   26.857274 H          1 MOL1         0.0750
       6    H2      21.542682   18.031774   26.841058 H          1 MOL1         0.0750
       7    C3      20.680580   17.860158   24.851035 C.3        1 MOL1        -0.1860
       8    H3      21.409618   18.500930   24.339364 H          1 MOL1         0.0752
       9    H4      21.085409   16.840354   24.803395 H          1 MOL1         0.0752
      10    C4      19.317930   17.868945   24.109444 C.3        1 MOL1        -0.1858
      11    H5      18.544184   17.487208   24.789428 H          1 MOL1         0.0752
      12    H6      19.353822   17.154449   23.275804 H          1 MOL1         0.0752
      13    C5      18.878751   19.254972   23.567455 C.3        1 MOL1        -0.1858
      14    H7      17.786732   19.327309   23.660774 H          1 MOL1         0.0752
      15    H8      19.283129   20.064763   24.186756 H          1 MOL1         0.0752
      16    C6      19.240580   19.505761   22.081899 C.3        1 MOL1        -0.1858
      17    H9      18.804802   20.467316   21.778147 H          1 MOL1         0.0752
      18    H10     18.764531   18.739795   21.454671 H          1 MOL1         0.0752
      19    C7      20.758559   19.532790   21.799126 C.3        1 MOL1        -0.1834
      20    H11     21.248174   20.248818   22.473766 H          1 MOL1         0.0752
      21    H12     21.193871   18.545702   22.003125 H          1 MOL1         0.0752
      22    C8      21.056181   19.918978   20.336129 C.3        1 MOL1        -0.2849
      23    H13     20.598608   19.203352   19.640563 H          1 MOL1         0.0764
      24    H14     20.665516   20.918853   20.106106 H          1 MOL1         0.0764
      25    H15     22.138148   19.927312   20.151024 H          1 MOL1         0.0764
@<TRIPOS>BOND
    1     1     2    1
    2     1     3    2
    3     1     4    1
    4     4     5    1
    5     4     6    1
    6     4     7    1
    7     7     8    1
    8     7     9    1
    9     7    10    1
   10    10    11    1
   11    10    12    1
   12    10    13    1
   13    13    14    1
   14    13    15    1
   15    13    16    1
   16    16    17    1
   17    16    18    1
   18    16    19    1
   19    19    20    1
   20    19    21    1
   21    19    22    1
   22    22    23    1
   23    22    24    1
   24    22    25    1
@<TRIPOS>SUBSTRUCTURE
       1 MOL1            1 RESIDUE      1      MOL     
@<SCITEGIC>MOL_PROPERTY
VM2 Rank
SciTegic.value.IntegerValue
208

@<SCITEGIC>MOL_PROPERTY
Conf_Id
SciTegic.value.IntegerValue
497

@<SCITEGIC>MOL_PROPERTY
Probability
SciTegic.value.DoubleValue
0.00

@<SCITEGIC>MOL_PROPERTY
Sum Probability
SciTegic.value.DoubleValue
100.00

@<SCITEGIC>MOL_PROPERTY
Delta G
SciTegic.value.DoubleValue
7.976

@<SCITEGIC>MOL_PROPERTY
G
SciTegic.value.DoubleValue
0.014

@<SCITEGIC>MOL_PROPERTY
E
SciTegic.value.DoubleValue
-25.228

@<SCITEGIC>MOL_PROPERTY
-TS
SciTegic.value.DoubleValue
25.241

@<SCITEGIC>MOL_PROPERTY
U+W
SciTegic.value.DoubleValue
-45.795

@<SCITEGIC>MOL_PROPERTY
U
SciTegic.value.DoubleValue
14.996

@<SCITEGIC>MOL_PROPERTY
W
SciTegic.value.DoubleValue
-60.792

@<SCITEGIC>MOL_PROPERTY
W(PB)
SciTegic.value.DoubleValue
-63.171

@<SCITEGIC>MOL_PROPERTY
W(SA)
SciTegic.value.DoubleValue
2.379

@<SCITEGIC>MOL_PROPERTY
Valence
SciTegic.value.DoubleValue
12.645

@<SCITEGIC>MOL_PROPERTY
Coulomb
SciTegic.value.DoubleValue
1.769

@<SCITEGIC>MOL_PROPERTY
VdW
SciTegic.value.DoubleValue
0.582

@<SCITEGIC>MOL_PROPERTY
VdW6
SciTegic.value.DoubleValue
-11.471

@<SCITEGIC>MOL_PROPERTY
VdW12
SciTegic.value.DoubleValue
12.053

@<SCITEGIC>MOL_PROPERTY
Bond
SciTegic.value.DoubleValue
0.285

@<SCITEGIC>MOL_PROPERTY
Angle
SciTegic.value.DoubleValue
3.668

@<SCITEGIC>MOL_PROPERTY
Pdih
SciTegic.value.DoubleValue
8.689

@<SCITEGIC>MOL_PROPERTY
Idih
SciTegic.value.DoubleValue
0.003

@<SCITEGIC>MOL_PROPERTY
Tether
SciTegic.value.DoubleValue
0.000

@<TRIPOS>MOLECULE
guest-8_vm2.mol2 : vm2 ligand conformer 209
          25          24           1
SMALL
USER_CHARGES
 
@<TRIPOS>ATOM
       1    C1      19.883199   19.894837   26.688193 C.2        1 MOL1         0.6168
       2    O1      20.048251   19.508012   27.828428 O.co2      1 MOL1        -0.6703
       3    O2      19.013467   20.678227   26.361993 O.co2      1 MOL1        -0.6703
       4    C2      20.806282   19.351112   25.603935 C.3        1 MOL1        -0.1963
       5    H1      21.790884   19.175845   26.053337 H          1 MOL1         0.0750
       6    H2      20.935754   20.134190   24.851037 H          1 MOL1         0.0750
       7    C3      20.273711   18.041779   24.964242 C.3        1 MOL1        -0.1860
       8    H3      20.201205   17.286074   25.758572 H          1 MOL1         0.0752
       9    H4      19.251115   18.185118   24.589972 H          1 MOL1         0.0752
      10    C4      21.184332   17.490240   23.839199 C.3        1 MOL1        -0.1858
      11    H5      21.143303   16.393315   23.883729 H          1 MOL1         0.0752
      12    H6      22.232758   17.754115   24.033984 H          1 MOL1         0.0752
      13    C5      20.788250   17.905364   22.397393 C.3        1 MOL1        -0.1858
      14    H7      21.429116   17.337467   21.709352 H          1 MOL1         0.0752
      15    H8      19.764760   17.573391   22.183913 H          1 MOL1         0.0752
      16    C6      20.960804   19.410533   22.064176 C.3        1 MOL1        -0.1858
      17    H9      21.294222   19.504794   21.021746 H          1 MOL1         0.0752
      18    H10     21.775666   19.828211   22.669812 H          1 MOL1         0.0752
      19    C7      19.681609   20.267196   22.239075 C.3        1 MOL1        -0.1834
      20    H11     19.245145   20.114844   23.233778 H          1 MOL1         0.0752
      21    H12     19.960818   21.328322   22.185986 H          1 MOL1         0.0752
      22    C8      18.613096   19.986700   21.159366 C.3        1 MOL1        -0.2849
      23    H13     17.756888   20.662205   21.283540 H          1 MOL1         0.0764
      24    H14     19.021610   20.142192   20.152445 H          1 MOL1         0.0764
      25    H15     18.236644   18.958473   21.221601 H          1 MOL1         0.0764
@<TRIPOS>BOND
    1     1     2    1
    2     1     3    2
    3     1     4    1
    4     4     5    1
    5     4     6    1
    6     4     7    1
    7     7     8    1
    8     7     9    1
    9     7    10    1
   10    10    11    1
   11    10    12    1
   12    10    13    1
   13    13    14    1
   14    13    15    1
   15    13    16    1
   16    16    17    1
   17    16    18    1
   18    16    19    1
   19    19    20    1
   20    19    21    1
   21    19    22    1
   22    22    23    1
   23    22    24    1
   24    22    25    1
@<TRIPOS>SUBSTRUCTURE
       1 MOL1            1 RESIDUE      1      MOL     
@<SCITEGIC>MOL_PROPERTY
VM2 Rank
SciTegic.value.IntegerValue
209

@<SCITEGIC>MOL_PROPERTY
Conf_Id
SciTegic.value.IntegerValue
1080

@<SCITEGIC>MOL_PROPERTY
Probability
SciTegic.value.DoubleValue
0.00

@<SCITEGIC>MOL_PROPERTY
Sum Probability
SciTegic.value.DoubleValue
100.00

@<SCITEGIC>MOL_PROPERTY
Delta G
SciTegic.value.DoubleValue
8.271

@<SCITEGIC>MOL_PROPERTY
G
SciTegic.value.DoubleValue
0.309

@<SCITEGIC>MOL_PROPERTY
E
SciTegic.value.DoubleValue
-25.090

@<SCITEGIC>MOL_PROPERTY
-TS
SciTegic.value.DoubleValue
25.399

@<SCITEGIC>MOL_PROPERTY
U+W
SciTegic.value.DoubleValue
-45.658

@<SCITEGIC>MOL_PROPERTY
U
SciTegic.value.DoubleValue
14.721

@<SCITEGIC>MOL_PROPERTY
W
SciTegic.value.DoubleValue
-60.379

@<SCITEGIC>MOL_PROPERTY
W(PB)
SciTegic.value.DoubleValue
-62.728

@<SCITEGIC>MOL_PROPERTY
W(SA)
SciTegic.value.DoubleValue
2.349

@<SCITEGIC>MOL_PROPERTY
Valence
SciTegic.value.DoubleValue
13.814

@<SCITEGIC>MOL_PROPERTY
Coulomb
SciTegic.value.DoubleValue
0.250

@<SCITEGIC>MOL_PROPERTY
VdW
SciTegic.value.DoubleValue
0.657

@<SCITEGIC>MOL_PROPERTY
VdW6
SciTegic.value.DoubleValue
-11.450

@<SCITEGIC>MOL_PROPERTY
VdW12
SciTegic.value.DoubleValue
12.108

@<SCITEGIC>MOL_PROPERTY
Bond
SciTegic.value.DoubleValue
0.297

@<SCITEGIC>MOL_PROPERTY
Angle
SciTegic.value.DoubleValue
3.965

@<SCITEGIC>MOL_PROPERTY
Pdih
SciTegic.value.DoubleValue
9.552

@<SCITEGIC>MOL_PROPERTY
Idih
SciTegic.value.DoubleValue
0.001

@<SCITEGIC>MOL_PROPERTY
Tether
SciTegic.value.DoubleValue
0.000

@<TRIPOS>MOLECULE
guest-8_vm2.mol2 : vm2 ligand conformer 210
          25          24           1
SMALL
USER_CHARGES
 
@<TRIPOS>ATOM
       1    C1      19.882491   19.849022   26.563092 C.2        1 MOL1         0.6168
       2    O1      20.472042   19.800177   27.624960 O.co2      1 MOL1        -0.6703
       3    O2      18.672746   19.788945   26.462989 O.co2      1 MOL1        -0.6703
       4    C2      20.707564   20.018699   25.290401 C.3        1 MOL1        -0.1963
       5    H1      21.423670   20.827970   25.474098 H          1 MOL1         0.0750
       6    H2      20.042103   20.365027   24.493960 H          1 MOL1         0.0750
       7    C3      21.477674   18.738435   24.862076 C.3        1 MOL1        -0.1860
       8    H3      22.199589   18.978614   24.070690 H          1 MOL1         0.0752
       9    H4      22.076515   18.403726   25.720490 H          1 MOL1         0.0752
      10    C4      20.568788   17.567951   24.406245 C.3        1 MOL1        -0.1858
      11    H5      19.616060   17.585770   24.952736 H          1 MOL1         0.0752
      12    H6      21.059218   16.630789   24.702822 H          1 MOL1         0.0752
      13    C5      20.301809   17.481615   22.880083 C.3        1 MOL1        -0.1858
      14    H7      21.251338   17.389527   22.335420 H          1 MOL1         0.0752
      15    H8      19.765302   16.540539   22.697445 H          1 MOL1         0.0752
      16    C6      19.450982   18.631493   22.286216 C.3        1 MOL1        -0.1858
      17    H9      18.775908   19.035827   23.052422 H          1 MOL1         0.0752
      18    H10     18.802813   18.215532   21.502855 H          1 MOL1         0.0752
      19    C7      20.301459   19.756974   21.653176 C.3        1 MOL1        -0.1834
      20    H11     21.011541   20.161523   22.384003 H          1 MOL1         0.0752
      21    H12     20.901106   19.344539   20.830151 H          1 MOL1         0.0752
      22    C8      19.417444   20.900690   21.116761 C.3        1 MOL1        -0.2849
      23    H13     20.034932   21.687212   20.663967 H          1 MOL1         0.0764
      24    H14     18.720924   20.533450   20.351757 H          1 MOL1         0.0764
      25    H15     18.830309   21.354306   21.926011 H          1 MOL1         0.0764
@<TRIPOS>BOND
    1     1     2    1
    2     1     3    2
    3     1     4    1
    4     4     5    1
    5     4     6    1
    6     4     7    1
    7     7     8    1
    8     7     9    1
    9     7    10    1
   10    10    11    1
   11    10    12    1
   12    10    13    1
   13    13    14    1
   14    13    15    1
   15    13    16    1
   16    16    17    1
   17    16    18    1
   18    16    19    1
   19    19    20    1
   20    19    21    1
   21    19    22    1
   22    22    23    1
   23    22    24    1
   24    22    25    1
@<TRIPOS>SUBSTRUCTURE
       1 MOL1            1 RESIDUE      1      MOL     
@<SCITEGIC>MOL_PROPERTY
VM2 Rank
SciTegic.value.IntegerValue
210

@<SCITEGIC>MOL_PROPERTY
Conf_Id
SciTegic.value.IntegerValue
816

@<SCITEGIC>MOL_PROPERTY
Probability
SciTegic.value.DoubleValue
0.00

@<SCITEGIC>MOL_PROPERTY
Sum Probability
SciTegic.value.DoubleValue
100.00

@<SCITEGIC>MOL_PROPERTY
Delta G
SciTegic.value.DoubleValue
8.589

@<SCITEGIC>MOL_PROPERTY
G
SciTegic.value.DoubleValue
0.627

@<SCITEGIC>MOL_PROPERTY
E
SciTegic.value.DoubleValue
-25.038

@<SCITEGIC>MOL_PROPERTY
-TS
SciTegic.value.DoubleValue
25.665

@<SCITEGIC>MOL_PROPERTY
U+W
SciTegic.value.DoubleValue
-45.606

@<SCITEGIC>MOL_PROPERTY
U
SciTegic.value.DoubleValue
15.110

@<SCITEGIC>MOL_PROPERTY
W
SciTegic.value.DoubleValue
-60.715

@<SCITEGIC>MOL_PROPERTY
W(PB)
SciTegic.value.DoubleValue
-63.079

@<SCITEGIC>MOL_PROPERTY
W(SA)
SciTegic.value.DoubleValue
2.364

@<SCITEGIC>MOL_PROPERTY
Valence
SciTegic.value.DoubleValue
13.452

@<SCITEGIC>MOL_PROPERTY
Coulomb
SciTegic.value.DoubleValue
1.187

@<SCITEGIC>MOL_PROPERTY
VdW
SciTegic.value.DoubleValue
0.471

@<SCITEGIC>MOL_PROPERTY
VdW6
SciTegic.value.DoubleValue
-11.724

@<SCITEGIC>MOL_PROPERTY
VdW12
SciTegic.value.DoubleValue
12.194

@<SCITEGIC>MOL_PROPERTY
Bond
SciTegic.value.DoubleValue
0.286

@<SCITEGIC>MOL_PROPERTY
Angle
SciTegic.value.DoubleValue
3.937

@<SCITEGIC>MOL_PROPERTY
Pdih
SciTegic.value.DoubleValue
9.228

@<SCITEGIC>MOL_PROPERTY
Idih
SciTegic.value.DoubleValue
0.001

@<SCITEGIC>MOL_PROPERTY
Tether
SciTegic.value.DoubleValue
0.000

@<TRIPOS>MOLECULE
guest-8_vm2.mol2 : vm2 ligand conformer 211
          25          24           1
SMALL
USER_CHARGES
 
@<TRIPOS>ATOM
       1    C1      20.549700   19.904148   26.025777 C.2        1 MOL1         0.6168
       2    O1      21.557597   20.417499   25.581428 O.co2      1 MOL1        -0.6703
       3    O2      19.601504   20.543545   26.438918 O.co2      1 MOL1        -0.6703
       4    C2      20.535211   18.382971   26.185508 C.3        1 MOL1        -0.1963
       5    H1      20.746356   18.188314   27.243157 H          1 MOL1         0.0750
       6    H2      21.370294   17.956676   25.616945 H          1 MOL1         0.0750
       7    C3      19.205332   17.674128   25.800214 C.3        1 MOL1        -0.1860
       8    H3      19.165504   16.716942   26.337403 H          1 MOL1         0.0752
       9    H4      18.349368   18.256868   26.167751 H          1 MOL1         0.0752
      10    C4      19.026869   17.369123   24.290652 C.3        1 MOL1        -0.1858
      11    H5      18.097434   16.794242   24.178371 H          1 MOL1         0.0752
      12    H6      19.829536   16.703707   23.944350 H          1 MOL1         0.0752
      13    C5      18.930524   18.617274   23.378852 C.3        1 MOL1        -0.1858
      14    H7      18.147224   18.444769   22.628226 H          1 MOL1         0.0752
      15    H8      18.605584   19.489654   23.962270 H          1 MOL1         0.0752
      16    C6      20.251427   18.924377   22.636649 C.3        1 MOL1        -0.1858
      17    H9      20.514922   18.073898   21.993352 H          1 MOL1         0.0752
      18    H10     21.070580   19.039983   23.356873 H          1 MOL1         0.0752
      19    C7      20.140618   20.202628   21.779681 C.3        1 MOL1        -0.1834
      20    H11     19.320768   20.095403   21.056117 H          1 MOL1         0.0752
      21    H12     19.889833   21.056231   22.424995 H          1 MOL1         0.0752
      22    C8      21.454218   20.498307   21.028322 C.3        1 MOL1        -0.2849
      23    H13     21.358812   21.411213   20.426308 H          1 MOL1         0.0764
      24    H14     22.283671   20.642025   21.733388 H          1 MOL1         0.0764
      25    H15     21.715938   19.672444   20.354024 H          1 MOL1         0.0764
@<TRIPOS>BOND
    1     1     2    1
    2     1     3    2
    3     1     4    1
    4     4     5    1
    5     4     6    1
    6     4     7    1
    7     7     8    1
    8     7     9    1
    9     7    10    1
   10    10    11    1
   11    10    12    1
   12    10    13    1
   13    13    14    1
   14    13    15    1
   15    13    16    1
   16    16    17    1
   17    16    18    1
   18    16    19    1
   19    19    20    1
   20    19    21    1
   21    19    22    1
   22    22    23    1
   23    22    24    1
   24    22    25    1
@<TRIPOS>SUBSTRUCTURE
       1 MOL1            1 RESIDUE      1      MOL     
@<SCITEGIC>MOL_PROPERTY
VM2 Rank
SciTegic.value.IntegerValue
211

@<SCITEGIC>MOL_PROPERTY
Conf_Id
SciTegic.value.IntegerValue
805

@<SCITEGIC>MOL_PROPERTY
Probability
SciTegic.value.DoubleValue
0.00

@<SCITEGIC>MOL_PROPERTY
Sum Probability
SciTegic.value.DoubleValue
100.00

@<SCITEGIC>MOL_PROPERTY
Delta G
SciTegic.value.DoubleValue
8.700

@<SCITEGIC>MOL_PROPERTY
G
SciTegic.value.DoubleValue
0.737

@<SCITEGIC>MOL_PROPERTY
E
SciTegic.value.DoubleValue
-24.793

@<SCITEGIC>MOL_PROPERTY
-TS
SciTegic.value.DoubleValue
25.530

@<SCITEGIC>MOL_PROPERTY
U+W
SciTegic.value.DoubleValue
-45.360

@<SCITEGIC>MOL_PROPERTY
U
SciTegic.value.DoubleValue
15.897

@<SCITEGIC>MOL_PROPERTY
W
SciTegic.value.DoubleValue
-61.258

@<SCITEGIC>MOL_PROPERTY
W(PB)
SciTegic.value.DoubleValue
-63.625

@<SCITEGIC>MOL_PROPERTY
W(SA)
SciTegic.value.DoubleValue
2.368

@<SCITEGIC>MOL_PROPERTY
Valence
SciTegic.value.DoubleValue
12.566

@<SCITEGIC>MOL_PROPERTY
Coulomb
SciTegic.value.DoubleValue
3.123

@<SCITEGIC>MOL_PROPERTY
VdW
SciTegic.value.DoubleValue
0.208

@<SCITEGIC>MOL_PROPERTY
VdW6
SciTegic.value.DoubleValue
-11.860

@<SCITEGIC>MOL_PROPERTY
VdW12
SciTegic.value.DoubleValue
12.068

@<SCITEGIC>MOL_PROPERTY
Bond
SciTegic.value.DoubleValue
0.250

@<SCITEGIC>MOL_PROPERTY
Angle
SciTegic.value.DoubleValue
3.828

@<SCITEGIC>MOL_PROPERTY
Pdih
SciTegic.value.DoubleValue
8.467

@<SCITEGIC>MOL_PROPERTY
Idih
SciTegic.value.DoubleValue
0.021

@<SCITEGIC>MOL_PROPERTY
Tether
SciTegic.value.DoubleValue
0.000

@<TRIPOS>MOLECULE
guest-8_vm2.mol2 : vm2 ligand conformer 212
          25          24           1
SMALL
USER_CHARGES
 
@<TRIPOS>ATOM
       1    C1      19.406919   18.984096   26.030178 C.2        1 MOL1         0.6168
       2    O1      18.688170   18.107374   25.592470 O.co2      1 MOL1        -0.6703
       3    O2      18.986661   20.048654   26.440897 O.co2      1 MOL1        -0.6703
       4    C2      20.896855   18.674085   26.184124 C.3        1 MOL1        -0.1963
       5    H1      21.132395   17.765126   25.617845 H          1 MOL1         0.0750
       6    H2      21.046869   18.430189   27.242002 H          1 MOL1         0.0750
       7    C3      21.871480   19.820507   25.790019 C.3        1 MOL1        -0.1860
       8    H3      21.486644   20.782516   26.155784 H          1 MOL1         0.0752
       9    H4      22.817590   19.657035   26.323420 H          1 MOL1         0.0752
      10    C4      22.200526   19.924126   24.278513 C.3        1 MOL1        -0.1858
      11    H5      22.677663   18.996634   23.933436 H          1 MOL1         0.0752
      12    H6      22.960017   20.708997   24.159787 H          1 MOL1         0.0752
      13    C5      20.997483   20.281303   23.370955 C.3        1 MOL1        -0.1858
      14    H7      20.217310   20.787186   23.956123 H          1 MOL1         0.0752
      15    H8      21.329733   21.006898   22.616052 H          1 MOL1         0.0752
      16    C6      20.412014   19.053652   22.636058 C.3        1 MOL1        -0.1858
      17    H9      20.127607   18.280745   23.360507 H          1 MOL1         0.0752
      18    H10     21.183612   18.612285   21.990762 H          1 MOL1         0.0752
      19    C7      19.182857   19.431593   21.783450 C.3        1 MOL1        -0.1834
      20    H11     18.405516   19.861237   22.430835 H          1 MOL1         0.0752
      21    H12     19.459214   20.206948   21.055682 H          1 MOL1         0.0752
      22    C8      18.610034   18.208612   21.039335 C.3        1 MOL1        -0.2849
      23    H13     18.295842   17.431617   21.748791 H          1 MOL1         0.0764
      24    H14     17.735738   18.494485   20.440331 H          1 MOL1         0.0764
      25    H15     19.357813   17.774071   20.363150 H          1 MOL1         0.0764
@<TRIPOS>BOND
    1     1     2    1
    2     1     3    2
    3     1     4    1
    4     4     5    1
    5     4     6    1
    6     4     7    1
    7     7     8    1
    8     7     9    1
    9     7    10    1
   10    10    11    1
   11    10    12    1
   12    10    13    1
   13    13    14    1
   14    13    15    1
   15    13    16    1
   16    16    17    1
   17    16    18    1
   18    16    19    1
   19    19    20    1
   20    19    21    1
   21    19    22    1
   22    22    23    1
   23    22    24    1
   24    22    25    1
@<TRIPOS>SUBSTRUCTURE
       1 MOL1            1 RESIDUE      1      MOL     
@<SCITEGIC>MOL_PROPERTY
VM2 Rank
SciTegic.value.IntegerValue
212

@<SCITEGIC>MOL_PROPERTY
Conf_Id
SciTegic.value.IntegerValue
661

@<SCITEGIC>MOL_PROPERTY
Probability
SciTegic.value.DoubleValue
0.00

@<SCITEGIC>MOL_PROPERTY
Sum Probability
SciTegic.value.DoubleValue
100.00

@<SCITEGIC>MOL_PROPERTY
Delta G
SciTegic.value.DoubleValue
8.759

@<SCITEGIC>MOL_PROPERTY
G
SciTegic.value.DoubleValue
0.796

@<SCITEGIC>MOL_PROPERTY
E
SciTegic.value.DoubleValue
-24.735

@<SCITEGIC>MOL_PROPERTY
-TS
SciTegic.value.DoubleValue
25.531

@<SCITEGIC>MOL_PROPERTY
U+W
SciTegic.value.DoubleValue
-45.302

@<SCITEGIC>MOL_PROPERTY
U
SciTegic.value.DoubleValue
15.899

@<SCITEGIC>MOL_PROPERTY
W
SciTegic.value.DoubleValue
-61.201

@<SCITEGIC>MOL_PROPERTY
W(PB)
SciTegic.value.DoubleValue
-63.554

@<SCITEGIC>MOL_PROPERTY
W(SA)
SciTegic.value.DoubleValue
2.353

@<SCITEGIC>MOL_PROPERTY
Valence
SciTegic.value.DoubleValue
12.566

@<SCITEGIC>MOL_PROPERTY
Coulomb
SciTegic.value.DoubleValue
3.124

@<SCITEGIC>MOL_PROPERTY
VdW
SciTegic.value.DoubleValue
0.208

@<SCITEGIC>MOL_PROPERTY
VdW6
SciTegic.value.DoubleValue
-11.861

@<SCITEGIC>MOL_PROPERTY
VdW12
SciTegic.value.DoubleValue
12.069

@<SCITEGIC>MOL_PROPERTY
Bond
SciTegic.value.DoubleValue
0.251

@<SCITEGIC>MOL_PROPERTY
Angle
SciTegic.value.DoubleValue
3.828

@<SCITEGIC>MOL_PROPERTY
Pdih
SciTegic.value.DoubleValue
8.466

@<SCITEGIC>MOL_PROPERTY
Idih
SciTegic.value.DoubleValue
0.022

@<SCITEGIC>MOL_PROPERTY
Tether
SciTegic.value.DoubleValue
0.000

@<TRIPOS>MOLECULE
guest-8_vm2.mol2 : vm2 ligand conformer 213
          25          24           1
SMALL
USER_CHARGES
 
@<TRIPOS>ATOM
       1    C1      20.605540   19.710880   26.311121 C.2        1 MOL1         0.6168
       2    O1      21.610544   20.284160   25.939362 O.co2      1 MOL1        -0.6703
       3    O2      19.741298   20.244691   26.979354 O.co2      1 MOL1        -0.6703
       4    C2      20.482950   18.215564   26.015853 C.3        1 MOL1        -0.1963
       5    H1      20.702803   17.701227   26.958322 H          1 MOL1         0.0750
       6    H2      21.270504   17.925425   25.310087 H          1 MOL1         0.0750
       7    C3      19.095007   17.743026   25.496614 C.3        1 MOL1        -0.1860
       8    H3      18.997709   16.672109   25.720257 H          1 MOL1         0.0752
       9    H4      18.293641   18.239355   26.061283 H          1 MOL1         0.0752
      10    C4      18.861953   17.925392   23.974903 C.3        1 MOL1        -0.1858
      11    H5      17.897078   17.461276   23.729296 H          1 MOL1         0.0752
      12    H6      19.614999   17.354533   23.417107 H          1 MOL1         0.0752
      13    C5      18.820173   19.399863   23.496119 C.3        1 MOL1        -0.1858
      14    H7      17.988274   19.525448   22.789872 H          1 MOL1         0.0752
      15    H8      18.586348   20.057300   24.344449 H          1 MOL1         0.0752
      16    C6      20.123461   19.880062   22.811622 C.3        1 MOL1        -0.1858
      17    H9      20.990737   19.628465   23.434817 H          1 MOL1         0.0752
      18    H10     20.099385   20.976104   22.743995 H          1 MOL1         0.0752
      19    C7      20.314038   19.296745   21.392541 C.3        1 MOL1        -0.1834
      20    H11     20.362089   18.200922   21.433958 H          1 MOL1         0.0752
      21    H12     19.447254   19.553238   20.768073 H          1 MOL1         0.0752
      22    C8      21.598036   19.833616   20.728512 C.3        1 MOL1        -0.2849
      23    H13     21.719246   19.411429   19.722507 H          1 MOL1         0.0764
      24    H14     21.564771   20.927044   20.635760 H          1 MOL1         0.0764
      25    H15     22.485064   19.566532   21.317816 H          1 MOL1         0.0764
@<TRIPOS>BOND
    1     1     2    1
    2     1     3    2
    3     1     4    1
    4     4     5    1
    5     4     6    1
    6     4     7    1
    7     7     8    1
    8     7     9    1
    9     7    10    1
   10    10    11    1
   11    10    12    1
   12    10    13    1
   13    13    14    1
   14    13    15    1
   15    13    16    1
   16    16    17    1
   17    16    18    1
   18    16    19    1
   19    19    20    1
   20    19    21    1
   21    19    22    1
   22    22    23    1
   23    22    24    1
   24    22    25    1
@<TRIPOS>SUBSTRUCTURE
       1 MOL1            1 RESIDUE      1      MOL     
@<SCITEGIC>MOL_PROPERTY
VM2 Rank
SciTegic.value.IntegerValue
213

@<SCITEGIC>MOL_PROPERTY
Conf_Id
SciTegic.value.IntegerValue
1321

@<SCITEGIC>MOL_PROPERTY
Probability
SciTegic.value.DoubleValue
0.00

@<SCITEGIC>MOL_PROPERTY
Sum Probability
SciTegic.value.DoubleValue
100.00

@<SCITEGIC>MOL_PROPERTY
Delta G
SciTegic.value.DoubleValue
8.875

@<SCITEGIC>MOL_PROPERTY
G
SciTegic.value.DoubleValue
0.913

@<SCITEGIC>MOL_PROPERTY
E
SciTegic.value.DoubleValue
-24.675

@<SCITEGIC>MOL_PROPERTY
-TS
SciTegic.value.DoubleValue
25.588

@<SCITEGIC>MOL_PROPERTY
U+W
SciTegic.value.DoubleValue
-45.243

@<SCITEGIC>MOL_PROPERTY
U
SciTegic.value.DoubleValue
15.873

@<SCITEGIC>MOL_PROPERTY
W
SciTegic.value.DoubleValue
-61.116

@<SCITEGIC>MOL_PROPERTY
W(PB)
SciTegic.value.DoubleValue
-63.490

@<SCITEGIC>MOL_PROPERTY
W(SA)
SciTegic.value.DoubleValue
2.374

@<SCITEGIC>MOL_PROPERTY
Valence
SciTegic.value.DoubleValue
13.259

@<SCITEGIC>MOL_PROPERTY
Coulomb
SciTegic.value.DoubleValue
2.064

@<SCITEGIC>MOL_PROPERTY
VdW
SciTegic.value.DoubleValue
0.550

@<SCITEGIC>MOL_PROPERTY
VdW6
SciTegic.value.DoubleValue
-12.090

@<SCITEGIC>MOL_PROPERTY
VdW12
SciTegic.value.DoubleValue
12.639

@<SCITEGIC>MOL_PROPERTY
Bond
SciTegic.value.DoubleValue
0.288

@<SCITEGIC>MOL_PROPERTY
Angle
SciTegic.value.DoubleValue
3.907

@<SCITEGIC>MOL_PROPERTY
Pdih
SciTegic.value.DoubleValue
9.048

@<SCITEGIC>MOL_PROPERTY
Idih
SciTegic.value.DoubleValue
0.017

@<SCITEGIC>MOL_PROPERTY
Tether
SciTegic.value.DoubleValue
0.000

@<TRIPOS>MOLECULE
guest-8_vm2.mol2 : vm2 ligand conformer 214
          25          24           1
SMALL
USER_CHARGES
 
@<TRIPOS>ATOM
       1    C1      19.581139   19.101338   26.300079 C.2        1 MOL1         0.6168
       2    O1      19.899949   18.102428   26.915647 O.co2      1 MOL1        -0.6703
       3    O2      18.445490   19.326673   25.931081 O.co2      1 MOL1        -0.6703
       4    C2      20.649040   20.162138   26.038933 C.3        1 MOL1        -0.1963
       5    H1      20.943920   20.563960   27.014963 H          1 MOL1         0.0750
       6    H2      20.200436   20.995857   25.489713 H          1 MOL1         0.0750
       7    C3      21.912788   19.642551   25.302000 C.3        1 MOL1        -0.1860
       8    H3      22.632960   20.465324   25.199506 H          1 MOL1         0.0752
       9    H4      22.399393   18.892866   25.941162 H          1 MOL1         0.0752
      10    C4      21.661802   19.006261   23.910362 C.3        1 MOL1        -0.1858
      11    H5      20.976229   18.155202   23.999461 H          1 MOL1         0.0752
      12    H6      22.615486   18.573118   23.579656 H          1 MOL1         0.0752
      13    C5      21.194473   19.994908   22.807828 C.3        1 MOL1        -0.1858
      14    H7      21.643988   20.980255   22.989748 H          1 MOL1         0.0752
      15    H8      21.609217   19.663634   21.846986 H          1 MOL1         0.0752
      16    C6      19.658672   20.157783   22.642693 C.3        1 MOL1        -0.1858
      17    H9      19.475488   20.897184   21.851538 H          1 MOL1         0.0752
      18    H10     19.226742   20.588593   23.552515 H          1 MOL1         0.0752
      19    C7      18.878251   18.865543   22.293566 C.3        1 MOL1        -0.1834
      20    H11     18.917663   18.159613   23.133487 H          1 MOL1         0.0752
      21    H12     17.817406   19.123941   22.172612 H          1 MOL1         0.0752
      22    C8      19.371397   18.174378   21.003811 C.3        1 MOL1        -0.2849
      23    H13     20.390678   17.786640   21.125248 H          1 MOL1         0.0764
      24    H14     18.721603   17.327112   20.749667 H          1 MOL1         0.0764
      25    H15     19.365278   18.872580   20.156835 H          1 MOL1         0.0764
@<TRIPOS>BOND
    1     1     2    1
    2     1     3    2
    3     1     4    1
    4     4     5    1
    5     4     6    1
    6     4     7    1
    7     7     8    1
    8     7     9    1
    9     7    10    1
   10    10    11    1
   11    10    12    1
   12    10    13    1
   13    13    14    1
   14    13    15    1
   15    13    16    1
   16    16    17    1
   17    16    18    1
   18    16    19    1
   19    19    20    1
   20    19    21    1
   21    19    22    1
   22    22    23    1
   23    22    24    1
   24    22    25    1
@<TRIPOS>SUBSTRUCTURE
       1 MOL1            1 RESIDUE      1      MOL     
@<SCITEGIC>MOL_PROPERTY
VM2 Rank
SciTegic.value.IntegerValue
214

@<SCITEGIC>MOL_PROPERTY
Conf_Id
SciTegic.value.IntegerValue
556

@<SCITEGIC>MOL_PROPERTY
Probability
SciTegic.value.DoubleValue
0.00

@<SCITEGIC>MOL_PROPERTY
Sum Probability
SciTegic.value.DoubleValue
100.00

@<SCITEGIC>MOL_PROPERTY
Delta G
SciTegic.value.DoubleValue
9.028

@<SCITEGIC>MOL_PROPERTY
G
SciTegic.value.DoubleValue
1.066

@<SCITEGIC>MOL_PROPERTY
E
SciTegic.value.DoubleValue
-24.547

@<SCITEGIC>MOL_PROPERTY
-TS
SciTegic.value.DoubleValue
25.613

@<SCITEGIC>MOL_PROPERTY
U+W
SciTegic.value.DoubleValue
-45.114

@<SCITEGIC>MOL_PROPERTY
U
SciTegic.value.DoubleValue
15.840

@<SCITEGIC>MOL_PROPERTY
W
SciTegic.value.DoubleValue
-60.954

@<SCITEGIC>MOL_PROPERTY
W(PB)
SciTegic.value.DoubleValue
-63.258

@<SCITEGIC>MOL_PROPERTY
W(SA)
SciTegic.value.DoubleValue
2.304

@<SCITEGIC>MOL_PROPERTY
Valence
SciTegic.value.DoubleValue
12.341

@<SCITEGIC>MOL_PROPERTY
Coulomb
SciTegic.value.DoubleValue
3.290

@<SCITEGIC>MOL_PROPERTY
VdW
SciTegic.value.DoubleValue
0.209

@<SCITEGIC>MOL_PROPERTY
VdW6
SciTegic.value.DoubleValue
-12.905

@<SCITEGIC>MOL_PROPERTY
VdW12
SciTegic.value.DoubleValue
13.114

@<SCITEGIC>MOL_PROPERTY
Bond
SciTegic.value.DoubleValue
0.344

@<SCITEGIC>MOL_PROPERTY
Angle
SciTegic.value.DoubleValue
4.718

@<SCITEGIC>MOL_PROPERTY
Pdih
SciTegic.value.DoubleValue
7.272

@<SCITEGIC>MOL_PROPERTY
Idih
SciTegic.value.DoubleValue
0.007

@<SCITEGIC>MOL_PROPERTY
Tether
SciTegic.value.DoubleValue
0.000

@<TRIPOS>MOLECULE
guest-8_vm2.mol2 : vm2 ligand conformer 215
          25          24           1
SMALL
USER_CHARGES
 
@<TRIPOS>ATOM
       1    C1      19.970793   19.832482   26.537197 C.2        1 MOL1         0.6168
       2    O1      21.074580   20.228546   26.856594 O.co2      1 MOL1        -0.6703
       3    O2      18.995006   20.552160   26.454823 O.co2      1 MOL1        -0.6703
       4    C2      19.789105   18.342259   26.262142 C.3        1 MOL1        -0.1963
       5    H1      18.855812   18.030916   26.745894 H          1 MOL1         0.0750
       6    H2      20.600699   17.793924   26.755370 H          1 MOL1         0.0750
       7    C3      19.735642   17.981425   24.754928 C.3        1 MOL1        -0.1860
       8    H3      19.454136   16.924732   24.653840 H          1 MOL1         0.0752
       9    H4      18.939219   18.562117   24.274351 H          1 MOL1         0.0752
      10    C4      21.089198   18.214634   24.040392 C.3        1 MOL1        -0.1858
      11    H5      21.847548   17.597316   24.540947 H          1 MOL1         0.0752
      12    H6      21.421181   19.254647   24.159794 H          1 MOL1         0.0752
      13    C5      21.063484   17.834908   22.538845 C.3        1 MOL1        -0.1858
      14    H7      22.043848   17.408906   22.285454 H          1 MOL1         0.0752
      15    H8      20.338038   17.029312   22.361700 H          1 MOL1         0.0752
      16    C6      20.806194   19.007850   21.555983 C.3        1 MOL1        -0.1858
      17    H9      20.947733   18.616277   20.539392 H          1 MOL1         0.0752
      18    H10     21.575797   19.781317   21.683527 H          1 MOL1         0.0752
      19    C7      19.395029   19.641266   21.624560 C.3        1 MOL1        -0.1834
      20    H11     19.095220   19.936860   20.609726 H          1 MOL1         0.0752
      21    H12     18.657519   18.896563   21.952246 H          1 MOL1         0.0752
      22    C8      19.333969   20.898470   22.520537 C.3        1 MOL1        -0.2849
      23    H13     20.009680   21.678155   22.146123 H          1 MOL1         0.0764
      24    H14     18.317565   21.312284   22.533801 H          1 MOL1         0.0764
      25    H15     19.616714   20.677085   23.556137 H          1 MOL1         0.0764
@<TRIPOS>BOND
    1     1     2    1
    2     1     3    2
    3     1     4    1
    4     4     5    1
    5     4     6    1
    6     4     7    1
    7     7     8    1
    8     7     9    1
    9     7    10    1
   10    10    11    1
   11    10    12    1
   12    10    13    1
   13    13    14    1
   14    13    15    1
   15    13    16    1
   16    16    17    1
   17    16    18    1
   18    16    19    1
   19    19    20    1
   20    19    21    1
   21    19    22    1
   22    22    23    1
   23    22    24    1
   24    22    25    1
@<TRIPOS>SUBSTRUCTURE
       1 MOL1            1 RESIDUE      1      MOL     
@<SCITEGIC>MOL_PROPERTY
VM2 Rank
SciTegic.value.IntegerValue
215

@<SCITEGIC>MOL_PROPERTY
Conf_Id
SciTegic.value.IntegerValue
750

@<SCITEGIC>MOL_PROPERTY
Probability
SciTegic.value.DoubleValue
0.00

@<SCITEGIC>MOL_PROPERTY
Sum Probability
SciTegic.value.DoubleValue
100.00

@<SCITEGIC>MOL_PROPERTY
Delta G
SciTegic.value.DoubleValue
9.364

@<SCITEGIC>MOL_PROPERTY
G
SciTegic.value.DoubleValue
1.402

@<SCITEGIC>MOL_PROPERTY
E
SciTegic.value.DoubleValue
-24.454

@<SCITEGIC>MOL_PROPERTY
-TS
SciTegic.value.DoubleValue
25.856

@<SCITEGIC>MOL_PROPERTY
U+W
SciTegic.value.DoubleValue
-45.022

@<SCITEGIC>MOL_PROPERTY
U
SciTegic.value.DoubleValue
16.130

@<SCITEGIC>MOL_PROPERTY
W
SciTegic.value.DoubleValue
-61.151

@<SCITEGIC>MOL_PROPERTY
W(PB)
SciTegic.value.DoubleValue
-63.489

@<SCITEGIC>MOL_PROPERTY
W(SA)
SciTegic.value.DoubleValue
2.338

@<SCITEGIC>MOL_PROPERTY
Valence
SciTegic.value.DoubleValue
13.421

@<SCITEGIC>MOL_PROPERTY
Coulomb
SciTegic.value.DoubleValue
2.540

@<SCITEGIC>MOL_PROPERTY
VdW
SciTegic.value.DoubleValue
0.169

@<SCITEGIC>MOL_PROPERTY
VdW6
SciTegic.value.DoubleValue
-12.055

@<SCITEGIC>MOL_PROPERTY
VdW12
SciTegic.value.DoubleValue
12.224

@<SCITEGIC>MOL_PROPERTY
Bond
SciTegic.value.DoubleValue
0.261

@<SCITEGIC>MOL_PROPERTY
Angle
SciTegic.value.DoubleValue
3.880

@<SCITEGIC>MOL_PROPERTY
Pdih
SciTegic.value.DoubleValue
9.278

@<SCITEGIC>MOL_PROPERTY
Idih
SciTegic.value.DoubleValue
0.002

@<SCITEGIC>MOL_PROPERTY
Tether
SciTegic.value.DoubleValue
0.000

@<TRIPOS>MOLECULE
guest-8_vm2.mol2 : vm2 ligand conformer 216
          25          24           1
SMALL
USER_CHARGES
 
@<TRIPOS>ATOM
       1    C1      20.251480   19.976076   26.089784 C.2        1 MOL1         0.6168
       2    O1      21.241160   20.641133   25.853998 O.co2      1 MOL1        -0.6703
       3    O2      19.147912   20.454251   26.266006 O.co2      1 MOL1        -0.6703
       4    C2      20.435328   18.478090   26.320188 C.3        1 MOL1        -0.1963
       5    H1      19.533854   18.078967   26.800329 H          1 MOL1         0.0750
       6    H2      21.246842   18.377039   27.050345 H          1 MOL1         0.0750
       7    C3      20.791331   17.645213   25.056018 C.3        1 MOL1        -0.1860
       8    H3      21.532740   18.170088   24.442580 H          1 MOL1         0.0752
       9    H4      21.293150   16.729686   25.397035 H          1 MOL1         0.0752
      10    C4      19.571756   17.206897   24.205976 C.3        1 MOL1        -0.1858
      11    H5      18.854852   16.700479   24.866503 H          1 MOL1         0.0752
      12    H6      19.899676   16.442378   23.488593 H          1 MOL1         0.0752
      13    C5      18.821744   18.320904   23.430279 C.3        1 MOL1        -0.1858
      14    H7      17.888489   17.876036   23.059137 H          1 MOL1         0.0752
      15    H8      18.506927   19.128308   24.102256 H          1 MOL1         0.0752
      16    C6      19.579742   18.889371   22.202620 C.3        1 MOL1        -0.1858
      17    H9      18.839178   19.130939   21.427956 H          1 MOL1         0.0752
      18    H10     20.233023   18.119949   21.769531 H          1 MOL1         0.0752
      19    C7      20.389285   20.171240   22.501033 C.3        1 MOL1        -0.1834
      20    H11     19.734034   20.926068   22.957631 H          1 MOL1         0.0752
      21    H12     21.182301   19.965085   23.228100 H          1 MOL1         0.0752
      22    C8      21.023260   20.750824   21.220098 C.3        1 MOL1        -0.2849
      23    H13     20.252759   21.013178   20.483429 H          1 MOL1         0.0764
      24    H14     21.595628   21.658864   21.450013 H          1 MOL1         0.0764
      25    H15     21.707268   20.026509   20.758889 H          1 MOL1         0.0764
@<TRIPOS>BOND
    1     1     2    1
    2     1     3    2
    3     1     4    1
    4     4     5    1
    5     4     6    1
    6     4     7    1
    7     7     8    1
    8     7     9    1
    9     7    10    1
   10    10    11    1
   11    10    12    1
   12    10    13    1
   13    13    14    1
   14    13    15    1
   15    13    16    1
   16    16    17    1
   17    16    18    1
   18    16    19    1
   19    19    20    1
   20    19    21    1
   21    19    22    1
   22    22    23    1
   23    22    24    1
   24    22    25    1
@<TRIPOS>SUBSTRUCTURE
       1 MOL1            1 RESIDUE      1      MOL     
@<SCITEGIC>MOL_PROPERTY
VM2 Rank
SciTegic.value.IntegerValue
216

@<SCITEGIC>MOL_PROPERTY
Conf_Id
SciTegic.value.IntegerValue
232

@<SCITEGIC>MOL_PROPERTY
Probability
SciTegic.value.DoubleValue
0.00

@<SCITEGIC>MOL_PROPERTY
Sum Probability
SciTegic.value.DoubleValue
100.00

@<SCITEGIC>MOL_PROPERTY
Delta G
SciTegic.value.DoubleValue
9.431

@<SCITEGIC>MOL_PROPERTY
G
SciTegic.value.DoubleValue
1.469

@<SCITEGIC>MOL_PROPERTY
E
SciTegic.value.DoubleValue
-24.052

@<SCITEGIC>MOL_PROPERTY
-TS
SciTegic.value.DoubleValue
25.521

@<SCITEGIC>MOL_PROPERTY
U+W
SciTegic.value.DoubleValue
-44.620

@<SCITEGIC>MOL_PROPERTY
U
SciTegic.value.DoubleValue
16.564

@<SCITEGIC>MOL_PROPERTY
W
SciTegic.value.DoubleValue
-61.184

@<SCITEGIC>MOL_PROPERTY
W(PB)
SciTegic.value.DoubleValue
-63.523

@<SCITEGIC>MOL_PROPERTY
W(SA)
SciTegic.value.DoubleValue
2.339

@<SCITEGIC>MOL_PROPERTY
Valence
SciTegic.value.DoubleValue
13.506

@<SCITEGIC>MOL_PROPERTY
Coulomb
SciTegic.value.DoubleValue
3.140

@<SCITEGIC>MOL_PROPERTY
VdW
SciTegic.value.DoubleValue
-0.081

@<SCITEGIC>MOL_PROPERTY
VdW6
SciTegic.value.DoubleValue
-12.474

@<SCITEGIC>MOL_PROPERTY
VdW12
SciTegic.value.DoubleValue
12.394

@<SCITEGIC>MOL_PROPERTY
Bond
SciTegic.value.DoubleValue
0.291

@<SCITEGIC>MOL_PROPERTY
Angle
SciTegic.value.DoubleValue
4.744

@<SCITEGIC>MOL_PROPERTY
Pdih
SciTegic.value.DoubleValue
8.442

@<SCITEGIC>MOL_PROPERTY
Idih
SciTegic.value.DoubleValue
0.029

@<SCITEGIC>MOL_PROPERTY
Tether
SciTegic.value.DoubleValue
0.000

@<TRIPOS>MOLECULE
guest-8_vm2.mol2 : vm2 ligand conformer 217
          25          24           1
SMALL
USER_CHARGES
 
@<TRIPOS>ATOM
       1    C1      19.976733   19.953336   26.135098 C.2        1 MOL1         0.6168
       2    O1      19.054844   20.696396   25.861247 O.co2      1 MOL1        -0.6703
       3    O2      21.098764   20.347123   26.389067 O.co2      1 MOL1        -0.6703
       4    C2      19.671457   18.462455   26.288459 C.3        1 MOL1        -0.1963
       5    H1      18.669235   18.260208   25.892339 H          1 MOL1         0.0750
       6    H2      19.624625   18.272740   27.366853 H          1 MOL1         0.0750
       7    C3      20.707272   17.491907   25.652467 C.3        1 MOL1        -0.1860
       8    H3      21.726996   17.846647   25.856678 H          1 MOL1         0.0752
       9    H4      20.621143   16.523938   26.164288 H          1 MOL1         0.0752
      10    C4      20.533266   17.233687   24.133519 C.3        1 MOL1        -0.1858
      11    H5      19.548137   16.788529   23.937692 H          1 MOL1         0.0752
      12    H6      21.266264   16.468560   23.843308 H          1 MOL1         0.0752
      13    C5      20.752970   18.473453   23.231650 C.3        1 MOL1        -0.1858
      14    H7      21.371109   19.217050   23.752908 H          1 MOL1         0.0752
      15    H8      21.328120   18.162483   22.349806 H          1 MOL1         0.0752
      16    C6      19.425878   19.111606   22.754222 C.3        1 MOL1        -0.1858
      17    H9      18.771306   19.287326   23.616554 H          1 MOL1         0.0752
      18    H10     18.891948   18.406411   22.103076 H          1 MOL1         0.0752
      19    C7      19.624165   20.453069   22.011677 C.3        1 MOL1        -0.1834
      20    H11     18.637644   20.885947   21.796400 H          1 MOL1         0.0752
      21    H12     20.137070   21.165886   22.672610 H          1 MOL1         0.0752
      22    C8      20.407652   20.310969   20.688592 C.3        1 MOL1        -0.2849
      23    H13     19.927790   19.580356   20.024546 H          1 MOL1         0.0764
      24    H14     20.447727   21.272654   20.160995 H          1 MOL1         0.0764
      25    H15     21.440458   19.987289   20.868538 H          1 MOL1         0.0764
@<TRIPOS>BOND
    1     1     2    1
    2     1     3    2
    3     1     4    1
    4     4     5    1
    5     4     6    1
    6     4     7    1
    7     7     8    1
    8     7     9    1
    9     7    10    1
   10    10    11    1
   11    10    12    1
   12    10    13    1
   13    13    14    1
   14    13    15    1
   15    13    16    1
   16    16    17    1
   17    16    18    1
   18    16    19    1
   19    19    20    1
   20    19    21    1
   21    19    22    1
   22    22    23    1
   23    22    24    1
   24    22    25    1
@<TRIPOS>SUBSTRUCTURE
       1 MOL1            1 RESIDUE      1      MOL     
@<SCITEGIC>MOL_PROPERTY
VM2 Rank
SciTegic.value.IntegerValue
217

@<SCITEGIC>MOL_PROPERTY
Conf_Id
SciTegic.value.IntegerValue
1264

@<SCITEGIC>MOL_PROPERTY
Probability
SciTegic.value.DoubleValue
0.00

@<SCITEGIC>MOL_PROPERTY
Sum Probability
SciTegic.value.DoubleValue
100.00

@<SCITEGIC>MOL_PROPERTY
Delta G
SciTegic.value.DoubleValue
9.545

@<SCITEGIC>MOL_PROPERTY
G
SciTegic.value.DoubleValue
1.583

@<SCITEGIC>MOL_PROPERTY
E
SciTegic.value.DoubleValue
-24.137

@<SCITEGIC>MOL_PROPERTY
-TS
SciTegic.value.DoubleValue
25.720

@<SCITEGIC>MOL_PROPERTY
U+W
SciTegic.value.DoubleValue
-44.705

@<SCITEGIC>MOL_PROPERTY
U
SciTegic.value.DoubleValue
16.285

@<SCITEGIC>MOL_PROPERTY
W
SciTegic.value.DoubleValue
-60.990

@<SCITEGIC>MOL_PROPERTY
W(PB)
SciTegic.value.DoubleValue
-63.345

@<SCITEGIC>MOL_PROPERTY
W(SA)
SciTegic.value.DoubleValue
2.355

@<SCITEGIC>MOL_PROPERTY
Valence
SciTegic.value.DoubleValue
13.053

@<SCITEGIC>MOL_PROPERTY
Coulomb
SciTegic.value.DoubleValue
2.894

@<SCITEGIC>MOL_PROPERTY
VdW
SciTegic.value.DoubleValue
0.338

@<SCITEGIC>MOL_PROPERTY
VdW6
SciTegic.value.DoubleValue
-12.523

@<SCITEGIC>MOL_PROPERTY
VdW12
SciTegic.value.DoubleValue
12.861

@<SCITEGIC>MOL_PROPERTY
Bond
SciTegic.value.DoubleValue
0.282

@<SCITEGIC>MOL_PROPERTY
Angle
SciTegic.value.DoubleValue
4.009

@<SCITEGIC>MOL_PROPERTY
Pdih
SciTegic.value.DoubleValue
8.740

@<SCITEGIC>MOL_PROPERTY
Idih
SciTegic.value.DoubleValue
0.022

@<SCITEGIC>MOL_PROPERTY
Tether
SciTegic.value.DoubleValue
0.000

@<TRIPOS>MOLECULE
guest-8_vm2.mol2 : vm2 ligand conformer 218
          25          24           1
SMALL
USER_CHARGES
 
@<TRIPOS>ATOM
       1    C1      20.347909   19.934357   26.134465 C.2        1 MOL1         0.6168
       2    O1      21.340477   20.579274   25.858956 O.co2      1 MOL1        -0.6703
       3    O2      19.272529   20.440810   26.390559 O.co2      1 MOL1        -0.6703
       4    C2      20.499457   18.420095   26.287692 C.3        1 MOL1        -0.1963
       5    H1      20.528514   18.226673   27.366051 H          1 MOL1         0.0750
       6    H2      21.475067   18.116428   25.889908 H          1 MOL1         0.0750
       7    C3      19.368759   17.560465   25.653722 C.3        1 MOL1        -0.1860
       8    H3      19.356450   16.588757   26.165556 H          1 MOL1         0.0752
       9    H4      18.390992   18.017546   25.859699 H          1 MOL1         0.0752
      10    C4      19.512724   17.285841   24.134506 C.3        1 MOL1        -0.1858
      11    H5      18.704848   16.599635   23.845737 H          1 MOL1         0.0752
      12    H6      20.446847   16.742343   23.936974 H          1 MOL1         0.0752
      13    C5      19.419238   18.541595   23.232842 C.3        1 MOL1        -0.1858
      14    H7      18.813765   18.291058   22.352057 H          1 MOL1         0.0752
      15    H8      18.881228   19.344430   23.755091 H          1 MOL1         0.0752
      16    C6      20.803734   19.040855   22.752982 C.3        1 MOL1        -0.1858
      17    H9      21.261553   18.284956   22.100761 H          1 MOL1         0.0752
      18    H10     21.474450   19.148478   23.614094 H          1 MOL1         0.0752
      19    C7      20.742251   20.395787   22.010961 C.3        1 MOL1        -0.1834
      20    H11     20.306100   21.157090   22.672931 H          1 MOL1         0.0752
      21    H12     21.767454   20.725636   21.793914 H          1 MOL1         0.0752
      22    C8      19.945922   20.334920   20.689314 C.3        1 MOL1        -0.2849
      23    H13     18.885806   20.118267   20.871120 H          1 MOL1         0.0764
      24    H14     20.003240   21.295886   20.161996 H          1 MOL1         0.0764
      25    H15     20.347491   19.559413   20.024220 H          1 MOL1         0.0764
@<TRIPOS>BOND
    1     1     2    1
    2     1     3    2
    3     1     4    1
    4     4     5    1
    5     4     6    1
    6     4     7    1
    7     7     8    1
    8     7     9    1
    9     7    10    1
   10    10    11    1
   11    10    12    1
   12    10    13    1
   13    13    14    1
   14    13    15    1
   15    13    16    1
   16    16    17    1
   17    16    18    1
   18    16    19    1
   19    19    20    1
   20    19    21    1
   21    19    22    1
   22    22    23    1
   23    22    24    1
   24    22    25    1
@<TRIPOS>SUBSTRUCTURE
       1 MOL1            1 RESIDUE      1      MOL     
@<SCITEGIC>MOL_PROPERTY
VM2 Rank
SciTegic.value.IntegerValue
218

@<SCITEGIC>MOL_PROPERTY
Conf_Id
SciTegic.value.IntegerValue
562

@<SCITEGIC>MOL_PROPERTY
Probability
SciTegic.value.DoubleValue
0.00

@<SCITEGIC>MOL_PROPERTY
Sum Probability
SciTegic.value.DoubleValue
100.00

@<SCITEGIC>MOL_PROPERTY
Delta G
SciTegic.value.DoubleValue
9.574

@<SCITEGIC>MOL_PROPERTY
G
SciTegic.value.DoubleValue
1.612

@<SCITEGIC>MOL_PROPERTY
E
SciTegic.value.DoubleValue
-24.109

@<SCITEGIC>MOL_PROPERTY
-TS
SciTegic.value.DoubleValue
25.721

@<SCITEGIC>MOL_PROPERTY
U+W
SciTegic.value.DoubleValue
-44.676

@<SCITEGIC>MOL_PROPERTY
U
SciTegic.value.DoubleValue
16.285

@<SCITEGIC>MOL_PROPERTY
W
SciTegic.value.DoubleValue
-60.961

@<SCITEGIC>MOL_PROPERTY
W(PB)
SciTegic.value.DoubleValue
-63.329

@<SCITEGIC>MOL_PROPERTY
W(SA)
SciTegic.value.DoubleValue
2.368

@<SCITEGIC>MOL_PROPERTY
Valence
SciTegic.value.DoubleValue
13.053

@<SCITEGIC>MOL_PROPERTY
Coulomb
SciTegic.value.DoubleValue
2.894

@<SCITEGIC>MOL_PROPERTY
VdW
SciTegic.value.DoubleValue
0.338

@<SCITEGIC>MOL_PROPERTY
VdW6
SciTegic.value.DoubleValue
-12.523

@<SCITEGIC>MOL_PROPERTY
VdW12
SciTegic.value.DoubleValue
12.861

@<SCITEGIC>MOL_PROPERTY
Bond
SciTegic.value.DoubleValue
0.282

@<SCITEGIC>MOL_PROPERTY
Angle
SciTegic.value.DoubleValue
4.009

@<SCITEGIC>MOL_PROPERTY
Pdih
SciTegic.value.DoubleValue
8.740

@<SCITEGIC>MOL_PROPERTY
Idih
SciTegic.value.DoubleValue
0.021

@<SCITEGIC>MOL_PROPERTY
Tether
SciTegic.value.DoubleValue
0.000

@<TRIPOS>MOLECULE
guest-8_vm2.mol2 : vm2 ligand conformer 219
          25          24           1
SMALL
USER_CHARGES
 
@<TRIPOS>ATOM
       1    C1      19.668053   19.125059   26.475832 C.2        1 MOL1         0.6168
       2    O1      20.254508   18.212243   27.024641 O.co2      1 MOL1        -0.6703
       3    O2      18.462446   19.147639   26.324307 O.co2      1 MOL1        -0.6703
       4    C2      20.466874   20.358268   26.052576 C.3        1 MOL1        -0.1963
       5    H1      20.715679   20.890642   26.977673 H          1 MOL1         0.0750
       6    H2      19.815407   21.024070   25.473918 H          1 MOL1         0.0750
       7    C3      21.778971   20.074025   25.267088 C.3        1 MOL1        -0.1860
       8    H3      22.443952   20.938509   25.396706 H          1 MOL1         0.0752
       9    H4      22.308228   19.221238   25.714307 H          1 MOL1         0.0752
      10    C4      21.599760   19.847261   23.744117 C.3        1 MOL1        -0.1858
      11    H5      22.601315   19.764847   23.300579 H          1 MOL1         0.0752
      12    H6      21.150185   20.739441   23.291441 H          1 MOL1         0.0752
      13    C5      20.802696   18.571601   23.366001 C.3        1 MOL1        -0.1858
      14    H7      21.326602   18.046085   22.558029 H          1 MOL1         0.0752
      15    H8      20.809285   17.870800   24.211622 H          1 MOL1         0.0752
      16    C6      19.336686   18.837857   22.934345 C.3        1 MOL1        -0.1858
      17    H9      18.827381   19.414819   23.716049 H          1 MOL1         0.0752
      18    H10     18.807337   17.877202   22.877964 H          1 MOL1         0.0752
      19    C7      19.168688   19.576669   21.582203 C.3        1 MOL1        -0.1834
      20    H11     18.098356   19.765480   21.421765 H          1 MOL1         0.0752
      21    H12     19.647464   20.563370   21.620582 H          1 MOL1         0.0752
      22    C8      19.714317   18.783377   20.374890 C.3        1 MOL1        -0.2849
      23    H13     19.276026   17.777773   20.334253 H          1 MOL1         0.0764
      24    H14     19.469438   19.297132   19.436332 H          1 MOL1         0.0764
      25    H15     20.805740   18.683271   20.422050 H          1 MOL1         0.0764
@<TRIPOS>BOND
    1     1     2    1
    2     1     3    2
    3     1     4    1
    4     4     5    1
    5     4     6    1
    6     4     7    1
    7     7     8    1
    8     7     9    1
    9     7    10    1
   10    10    11    1
   11    10    12    1
   12    10    13    1
   13    13    14    1
   14    13    15    1
   15    13    16    1
   16    16    17    1
   17    16    18    1
   18    16    19    1
   19    19    20    1
   20    19    21    1
   21    19    22    1
   22    22    23    1
   23    22    24    1
   24    22    25    1
@<TRIPOS>SUBSTRUCTURE
       1 MOL1            1 RESIDUE      1      MOL     
@<SCITEGIC>MOL_PROPERTY
VM2 Rank
SciTegic.value.IntegerValue
219

@<SCITEGIC>MOL_PROPERTY
Conf_Id
SciTegic.value.IntegerValue
1097

@<SCITEGIC>MOL_PROPERTY
Probability
SciTegic.value.DoubleValue
0.00

@<SCITEGIC>MOL_PROPERTY
Sum Probability
SciTegic.value.DoubleValue
100.00

@<SCITEGIC>MOL_PROPERTY
Delta G
SciTegic.value.DoubleValue
9.638

@<SCITEGIC>MOL_PROPERTY
G
SciTegic.value.DoubleValue
1.676

@<SCITEGIC>MOL_PROPERTY
E
SciTegic.value.DoubleValue
-23.846

@<SCITEGIC>MOL_PROPERTY
-TS
SciTegic.value.DoubleValue
25.522

@<SCITEGIC>MOL_PROPERTY
U+W
SciTegic.value.DoubleValue
-44.413

@<SCITEGIC>MOL_PROPERTY
U
SciTegic.value.DoubleValue
16.438

@<SCITEGIC>MOL_PROPERTY
W
SciTegic.value.DoubleValue
-60.852

@<SCITEGIC>MOL_PROPERTY
W(PB)
SciTegic.value.DoubleValue
-63.192

@<SCITEGIC>MOL_PROPERTY
W(SA)
SciTegic.value.DoubleValue
2.340

@<SCITEGIC>MOL_PROPERTY
Valence
SciTegic.value.DoubleValue
13.852

@<SCITEGIC>MOL_PROPERTY
Coulomb
SciTegic.value.DoubleValue
1.849

@<SCITEGIC>MOL_PROPERTY
VdW
SciTegic.value.DoubleValue
0.737

@<SCITEGIC>MOL_PROPERTY
VdW6
SciTegic.value.DoubleValue
-12.634

@<SCITEGIC>MOL_PROPERTY
VdW12
SciTegic.value.DoubleValue
13.371

@<SCITEGIC>MOL_PROPERTY
Bond
SciTegic.value.DoubleValue
0.340

@<SCITEGIC>MOL_PROPERTY
Angle
SciTegic.value.DoubleValue
4.371

@<SCITEGIC>MOL_PROPERTY
Pdih
SciTegic.value.DoubleValue
9.124

@<SCITEGIC>MOL_PROPERTY
Idih
SciTegic.value.DoubleValue
0.017

@<SCITEGIC>MOL_PROPERTY
Tether
SciTegic.value.DoubleValue
0.000

@<TRIPOS>MOLECULE
guest-8_vm2.mol2 : vm2 ligand conformer 220
          25          24           1
SMALL
USER_CHARGES
 
@<TRIPOS>ATOM
       1    C1      20.452814   18.997106   26.750753 C.2        1 MOL1         0.6168
       2    O1      21.559887   19.498326   26.732980 O.co2      1 MOL1        -0.6703
       3    O2      19.754070   18.946397   27.744073 O.co2      1 MOL1        -0.6703
       4    C2      19.918806   18.374266   25.463810 C.3        1 MOL1        -0.1963
       5    H1      19.531471   17.381577   25.720787 H          1 MOL1         0.0750
       6    H2      20.761288   18.214928   24.784314 H          1 MOL1         0.0750
       7    C3      18.795737   19.202772   24.780190 C.3        1 MOL1        -0.1860
       8    H3      18.323767   18.613320   23.983235 H          1 MOL1         0.0752
       9    H4      18.008524   19.381325   25.525781 H          1 MOL1         0.0752
      10    C4      19.262163   20.569439   24.215766 C.3        1 MOL1        -0.1858
      11    H5      20.075142   20.982272   24.828340 H          1 MOL1         0.0752
      12    H6      18.427449   21.275603   24.322133 H          1 MOL1         0.0752
      13    C5      19.672890   20.568712   22.719467 C.3        1 MOL1        -0.1858
      14    H7      18.833270   20.222731   22.104034 H          1 MOL1         0.0752
      15    H8      19.837859   21.614867   22.428048 H          1 MOL1         0.0752
      16    C6      20.965310   19.779206   22.385269 C.3        1 MOL1        -0.1858
      17    H9      21.626439   19.772230   23.262186 H          1 MOL1         0.0752
      18    H10     21.519372   20.320557   21.606410 H          1 MOL1         0.0752
      19    C7      20.728524   18.330404   21.890803 C.3        1 MOL1        -0.1834
      20    H11     21.688103   17.795631   21.898749 H          1 MOL1         0.0752
      21    H12     20.068609   17.790624   22.580423 H          1 MOL1         0.0752
      22    C8      20.142799   18.267372   20.462889 C.3        1 MOL1        -0.2849
      23    H13     20.791940   18.790435   19.748738 H          1 MOL1         0.0764
      24    H14     20.049893   17.224815   20.132347 H          1 MOL1         0.0764
      25    H15     19.145587   18.721515   20.415270 H          1 MOL1         0.0764
@<TRIPOS>BOND
    1     1     2    1
    2     1     3    2
    3     1     4    1
    4     4     5    1
    5     4     6    1
    6     4     7    1
    7     7     8    1
    8     7     9    1
    9     7    10    1
   10    10    11    1
   11    10    12    1
   12    10    13    1
   13    13    14    1
   14    13    15    1
   15    13    16    1
   16    16    17    1
   17    16    18    1
   18    16    19    1
   19    19    20    1
   20    19    21    1
   21    19    22    1
   22    22    23    1
   23    22    24    1
   24    22    25    1
@<TRIPOS>SUBSTRUCTURE
       1 MOL1            1 RESIDUE      1      MOL     
@<SCITEGIC>MOL_PROPERTY
VM2 Rank
SciTegic.value.IntegerValue
220

@<SCITEGIC>MOL_PROPERTY
Conf_Id
SciTegic.value.IntegerValue
548

@<SCITEGIC>MOL_PROPERTY
Probability
SciTegic.value.DoubleValue
0.00

@<SCITEGIC>MOL_PROPERTY
Sum Probability
SciTegic.value.DoubleValue
100.00

@<SCITEGIC>MOL_PROPERTY
Delta G
SciTegic.value.DoubleValue
9.668

@<SCITEGIC>MOL_PROPERTY
G
SciTegic.value.DoubleValue
1.706

@<SCITEGIC>MOL_PROPERTY
E
SciTegic.value.DoubleValue
-23.981

@<SCITEGIC>MOL_PROPERTY
-TS
SciTegic.value.DoubleValue
25.687

@<SCITEGIC>MOL_PROPERTY
U+W
SciTegic.value.DoubleValue
-44.549

@<SCITEGIC>MOL_PROPERTY
U
SciTegic.value.DoubleValue
15.771

@<SCITEGIC>MOL_PROPERTY
W
SciTegic.value.DoubleValue
-60.320

@<SCITEGIC>MOL_PROPERTY
W(PB)
SciTegic.value.DoubleValue
-62.675

@<SCITEGIC>MOL_PROPERTY
W(SA)
SciTegic.value.DoubleValue
2.355

@<SCITEGIC>MOL_PROPERTY
Valence
SciTegic.value.DoubleValue
14.167

@<SCITEGIC>MOL_PROPERTY
Coulomb
SciTegic.value.DoubleValue
0.909

@<SCITEGIC>MOL_PROPERTY
VdW
SciTegic.value.DoubleValue
0.696

@<SCITEGIC>MOL_PROPERTY
VdW6
SciTegic.value.DoubleValue
-12.061

@<SCITEGIC>MOL_PROPERTY
VdW12
SciTegic.value.DoubleValue
12.757

@<SCITEGIC>MOL_PROPERTY
Bond
SciTegic.value.DoubleValue
0.324

@<SCITEGIC>MOL_PROPERTY
Angle
SciTegic.value.DoubleValue
4.148

@<SCITEGIC>MOL_PROPERTY
Pdih
SciTegic.value.DoubleValue
9.694

@<SCITEGIC>MOL_PROPERTY
Idih
SciTegic.value.DoubleValue
0.001

@<SCITEGIC>MOL_PROPERTY
Tether
SciTegic.value.DoubleValue
0.000

@<TRIPOS>MOLECULE
guest-8_vm2.mol2 : vm2 ligand conformer 221
          25          24           1
SMALL
USER_CHARGES
 
@<TRIPOS>ATOM
       1    C1      19.827347   19.704128   26.460295 C.2        1 MOL1         0.6168
       2    O1      20.805255   20.214855   26.971379 O.co2      1 MOL1        -0.6703
       3    O2      18.777574   20.293347   26.293685 O.co2      1 MOL1        -0.6703
       4    C2      19.877859   18.216643   26.109736 C.3        1 MOL1        -0.1963
       5    H1      18.969790   17.949516   25.556021 H          1 MOL1         0.0750
       6    H2      19.832282   17.678570   27.063430 H          1 MOL1         0.0750
       7    C3      21.140049   17.751038   25.329053 C.3        1 MOL1        -0.1860
       8    H3      22.036852   18.234478   25.740629 H          1 MOL1         0.0752
       9    H4      21.271494   16.675781   25.510379 H          1 MOL1         0.0752
      10    C4      21.081129   17.961791   23.794421 C.3        1 MOL1        -0.1858
      11    H5      20.232551   17.403612   23.380441 H          1 MOL1         0.0752
      12    H6      21.977925   17.498623   23.360988 H          1 MOL1         0.0752
      13    C5      21.042977   19.445085   23.342788 C.3        1 MOL1        -0.1858
      14    H7      21.418316   20.084944   24.152689 H          1 MOL1         0.0752
      15    H8      21.750825   19.588257   22.517007 H          1 MOL1         0.0752
      16    C6      19.641094   19.944467   22.904910 C.3        1 MOL1        -0.1858
      17    H9      19.676217   21.036601   22.794193 H          1 MOL1         0.0752
      18    H10     18.919076   19.748001   23.707053 H          1 MOL1         0.0752
      19    C7      19.101000   19.329735   21.588572 C.3        1 MOL1        -0.1834
      20    H11     19.009318   18.240151   21.681752 H          1 MOL1         0.0752
      21    H12     18.082242   19.706326   21.423315 H          1 MOL1         0.0752
      22    C8      19.958714   19.672912   20.351161 C.3        1 MOL1        -0.2849
      23    H13     20.094776   20.757945   20.255328 H          1 MOL1         0.0764
      24    H14     20.948799   19.203915   20.407933 H          1 MOL1         0.0764
      25    H15     19.473117   19.310884   19.435776 H          1 MOL1         0.0764
@<TRIPOS>BOND
    1     1     2    1
    2     1     3    2
    3     1     4    1
    4     4     5    1
    5     4     6    1
    6     4     7    1
    7     7     8    1
    8     7     9    1
    9     7    10    1
   10    10    11    1
   11    10    12    1
   12    10    13    1
   13    13    14    1
   14    13    15    1
   15    13    16    1
   16    16    17    1
   17    16    18    1
   18    16    19    1
   19    19    20    1
   20    19    21    1
   21    19    22    1
   22    22    23    1
   23    22    24    1
   24    22    25    1
@<TRIPOS>SUBSTRUCTURE
       1 MOL1            1 RESIDUE      1      MOL     
@<SCITEGIC>MOL_PROPERTY
VM2 Rank
SciTegic.value.IntegerValue
221

@<SCITEGIC>MOL_PROPERTY
Conf_Id
SciTegic.value.IntegerValue
275

@<SCITEGIC>MOL_PROPERTY
Probability
SciTegic.value.DoubleValue
0.00

@<SCITEGIC>MOL_PROPERTY
Sum Probability
SciTegic.value.DoubleValue
100.00

@<SCITEGIC>MOL_PROPERTY
Delta G
SciTegic.value.DoubleValue
9.731

@<SCITEGIC>MOL_PROPERTY
G
SciTegic.value.DoubleValue
1.769

@<SCITEGIC>MOL_PROPERTY
E
SciTegic.value.DoubleValue
-23.754

@<SCITEGIC>MOL_PROPERTY
-TS
SciTegic.value.DoubleValue
25.522

@<SCITEGIC>MOL_PROPERTY
U+W
SciTegic.value.DoubleValue
-44.321

@<SCITEGIC>MOL_PROPERTY
U
SciTegic.value.DoubleValue
16.437

@<SCITEGIC>MOL_PROPERTY
W
SciTegic.value.DoubleValue
-60.759

@<SCITEGIC>MOL_PROPERTY
W(PB)
SciTegic.value.DoubleValue
-63.109

@<SCITEGIC>MOL_PROPERTY
W(SA)
SciTegic.value.DoubleValue
2.351

@<SCITEGIC>MOL_PROPERTY
Valence
SciTegic.value.DoubleValue
13.852

@<SCITEGIC>MOL_PROPERTY
Coulomb
SciTegic.value.DoubleValue
1.849

@<SCITEGIC>MOL_PROPERTY
VdW
SciTegic.value.DoubleValue
0.737

@<SCITEGIC>MOL_PROPERTY
VdW6
SciTegic.value.DoubleValue
-12.634

@<SCITEGIC>MOL_PROPERTY
VdW12
SciTegic.value.DoubleValue
13.371

@<SCITEGIC>MOL_PROPERTY
Bond
SciTegic.value.DoubleValue
0.340

@<SCITEGIC>MOL_PROPERTY
Angle
SciTegic.value.DoubleValue
4.370

@<SCITEGIC>MOL_PROPERTY
Pdih
SciTegic.value.DoubleValue
9.125

@<SCITEGIC>MOL_PROPERTY
Idih
SciTegic.value.DoubleValue
0.017

@<SCITEGIC>MOL_PROPERTY
Tether
SciTegic.value.DoubleValue
0.000

@<TRIPOS>MOLECULE
guest-8_vm2.mol2 : vm2 ligand conformer 222
          25          24           1
SMALL
USER_CHARGES
 
@<TRIPOS>ATOM
       1    C1      19.619814   19.013918   26.382467 C.2        1 MOL1         0.6168
       2    O1      20.068512   18.111422   27.062382 O.co2      1 MOL1        -0.6703
       3    O2      18.460874   19.066438   26.021086 O.co2      1 MOL1        -0.6703
       4    C2      20.544443   20.174525   26.018664 C.3        1 MOL1        -0.1963
       5    H1      20.814875   20.671398   26.957312 H          1 MOL1         0.0750
       6    H2      19.982152   20.907555   25.429267 H          1 MOL1         0.0750
       7    C3      21.839949   19.754563   25.272356 C.3        1 MOL1        -0.1860
       8    H3      22.507264   20.623187   25.192302 H          1 MOL1         0.0752
       9    H4      22.375634   19.017327   25.886283 H          1 MOL1         0.0752
      10    C4      21.611609   19.156772   23.860809 C.3        1 MOL1        -0.1858
      11    H5      20.950326   18.283517   23.927962 H          1 MOL1         0.0752
      12    H6      22.576547   18.774873   23.501025 H          1 MOL1         0.0752
      13    C5      21.080239   20.176862   22.818619 C.3        1 MOL1        -0.1858
      14    H7      21.375904   21.189607   23.124096 H          1 MOL1         0.0752
      15    H8      21.579920   20.005773   21.855481 H          1 MOL1         0.0752
      16    C6      19.544878   20.137006   22.601897 C.3        1 MOL1        -0.1858
      17    H9      19.204600   21.156257   22.374663 H          1 MOL1         0.0752
      18    H10     19.030548   19.848506   23.526928 H          1 MOL1         0.0752
      19    C7      19.087108   19.218833   21.441538 C.3        1 MOL1        -0.1834
      20    H11     18.003128   19.338186   21.308154 H          1 MOL1         0.0752
      21    H12     19.551170   19.551305   20.502823 H          1 MOL1         0.0752
      22    C8      19.395575   17.723661   21.666180 C.3        1 MOL1        -0.2849
      23    H13     20.477235   17.540478   21.684220 H          1 MOL1         0.0764
      24    H14     18.968153   17.373950   22.615162 H          1 MOL1         0.0764
      25    H15     18.968300   17.116724   20.857675 H          1 MOL1         0.0764
@<TRIPOS>BOND
    1     1     2    1
    2     1     3    2
    3     1     4    1
    4     4     5    1
    5     4     6    1
    6     4     7    1
    7     7     8    1
    8     7     9    1
    9     7    10    1
   10    10    11    1
   11    10    12    1
   12    10    13    1
   13    13    14    1
   14    13    15    1
   15    13    16    1
   16    16    17    1
   17    16    18    1
   18    16    19    1
   19    19    20    1
   20    19    21    1
   21    19    22    1
   22    22    23    1
   23    22    24    1
   24    22    25    1
@<TRIPOS>SUBSTRUCTURE
       1 MOL1            1 RESIDUE      1      MOL     
@<SCITEGIC>MOL_PROPERTY
VM2 Rank
SciTegic.value.IntegerValue
222

@<SCITEGIC>MOL_PROPERTY
Conf_Id
SciTegic.value.IntegerValue
843

@<SCITEGIC>MOL_PROPERTY
Probability
SciTegic.value.DoubleValue
0.00

@<SCITEGIC>MOL_PROPERTY
Sum Probability
SciTegic.value.DoubleValue
100.00

@<SCITEGIC>MOL_PROPERTY
Delta G
SciTegic.value.DoubleValue
9.836

@<SCITEGIC>MOL_PROPERTY
G
SciTegic.value.DoubleValue
1.874

@<SCITEGIC>MOL_PROPERTY
E
SciTegic.value.DoubleValue
-23.693

@<SCITEGIC>MOL_PROPERTY
-TS
SciTegic.value.DoubleValue
25.567

@<SCITEGIC>MOL_PROPERTY
U+W
SciTegic.value.DoubleValue
-44.261

@<SCITEGIC>MOL_PROPERTY
U
SciTegic.value.DoubleValue
16.886

@<SCITEGIC>MOL_PROPERTY
W
SciTegic.value.DoubleValue
-61.146

@<SCITEGIC>MOL_PROPERTY
W(PB)
SciTegic.value.DoubleValue
-63.471

@<SCITEGIC>MOL_PROPERTY
W(SA)
SciTegic.value.DoubleValue
2.324

@<SCITEGIC>MOL_PROPERTY
Valence
SciTegic.value.DoubleValue
13.780

@<SCITEGIC>MOL_PROPERTY
Coulomb
SciTegic.value.DoubleValue
2.628

@<SCITEGIC>MOL_PROPERTY
VdW
SciTegic.value.DoubleValue
0.477

@<SCITEGIC>MOL_PROPERTY
VdW6
SciTegic.value.DoubleValue
-12.511

@<SCITEGIC>MOL_PROPERTY
VdW12
SciTegic.value.DoubleValue
12.988

@<SCITEGIC>MOL_PROPERTY
Bond
SciTegic.value.DoubleValue
0.309

@<SCITEGIC>MOL_PROPERTY
Angle
SciTegic.value.DoubleValue
3.804

@<SCITEGIC>MOL_PROPERTY
Pdih
SciTegic.value.DoubleValue
9.661

@<SCITEGIC>MOL_PROPERTY
Idih
SciTegic.value.DoubleValue
0.006

@<SCITEGIC>MOL_PROPERTY
Tether
SciTegic.value.DoubleValue
0.000

