VeraChem MOL file


 25 24  0  0  0  0  0  0  0  0999 V2000     
   20.1601   19.3401   27.8084 C   0  0  0  0  0  0  0  0  0  0  0  0
   21.2157   19.7050   28.2872 O   0  5  0  0  0  0  0  0  0  0  0  0
   19.0777   19.5690   28.3112 O   0  0  0  0  0  0  0  0  0  0  0  0
   20.1941   18.5724   26.4918 C   0  0  0  0  0  0  0  0  0  0  0  0
   19.3547   17.8667   26.4872 H   0  0  0  0  0  0  0  0  0  0  0  0
   21.1164   17.9795   26.4670 H   0  0  0  0  0  0  0  0  0  0  0  0
   20.1206   19.4991   25.2533 C   0  0  0  0  0  0  0  0  0  0  0  0
   19.1984   20.0950   25.3002 H   0  0  0  0  0  0  0  0  0  0  0  0
   20.9600   20.2078   25.2799 H   0  0  0  0  0  0  0  0  0  0  0  0
   20.1566   18.6986   23.9334 C   0  0  0  0  0  0  0  0  0  0  0  0
   19.3171   17.9902   23.9106 H   0  0  0  0  0  0  0  0  0  0  0  0
   21.0790   18.1032   23.8902 H   0  0  0  0  0  0  0  0  0  0  0  0
   20.0829   19.6250   22.7006 C   0  0  0  0  0  0  0  0  0  0  0  0
   19.1606   20.2204   22.7437 H   0  0  0  0  0  0  0  0  0  0  0  0
   20.9223   20.3334   22.7232 H   0  0  0  0  0  0  0  0  0  0  0  0
   20.1189   18.8252   21.3804 C   0  0  0  0  0  0  0  0  0  0  0  0
   19.2795   18.1167   21.3574 H   0  0  0  0  0  0  0  0  0  0  0  0
   21.0412   18.2297   21.3370 H   0  0  0  0  0  0  0  0  0  0  0  0
   20.0451   19.7510   20.1480 C   0  0  0  0  0  0  0  0  0  0  0  0
   19.1228   20.3470   20.1870 H   0  0  0  0  0  0  0  0  0  0  0  0
   20.8844   20.4600   20.1665 H   0  0  0  0  0  0  0  0  0  0  0  0
   20.0813   18.9486   18.8317 C   0  0  0  0  0  0  0  0  0  0  0  0
   19.2340   18.2529   18.7723 H   0  0  0  0  0  0  0  0  0  0  0  0
   20.0280   19.6221   17.9664 H   0  0  0  0  0  0  0  0  0  0  0  0
   21.0089   18.3668   18.7516 H   0  0  0  0  0  0  0  0  0  0  0  0
  1  2  1  0  0  0  0
  1  3  2  0  0  0  0
  1  4  1  0  0  0  0
  4  5  1  0  0  0  0
  4  6  1  0  0  0  0
  4  7  1  0  0  0  0
  7  8  1  0  0  0  0
  7  9  1  0  0  0  0
  7 10  1  0  0  0  0
 10 11  1  0  0  0  0
 10 12  1  0  0  0  0
 10 13  1  0  0  0  0
 13 14  1  0  0  0  0
 13 15  1  0  0  0  0
 13 16  1  0  0  0  0
 16 17  1  0  0  0  0
 16 18  1  0  0  0  0
 16 19  1  0  0  0  0
 19 20  1  0  0  0  0
 19 21  1  0  0  0  0
 19 22  1  0  0  0  0
 22 23  1  0  0  0  0
 22 24  1  0  0  0  0
 22 25  1  0  0  0  0
M  END
> <VM2 Rank>
1

> <Conf_Id>
348

> <Probability>
22.97

> <Sum Probability>
22.97

> <Delta G>
0.000

> <G>
-7.962

> <E>
-32.361

> <-TS>
24.399

> <U+W>
-52.928

> <U>
5.617

> <W>
-58.544

> <W(PB)>
-61.064

> <W(SA)>
2.520

> <Valence>
7.531

> <Coulomb>
-2.818

> <VdW>
0.904

> <VdW6>
-7.640

> <VdW12>
8.544

> <Bond>
0.115

> <Angle>
2.271

> <Pdih>
5.144

> <Idih>
0.001

> <Tether>
0.000

$$$$
VeraChem MOL file


 25 24  0  0  0  0  0  0  0  0999 V2000     
   19.8606   19.1637   27.5407 C   0  0  0  0  0  0  0  0  0  0  0  0
   20.6740   18.7865   28.3610 O   0  5  0  0  0  0  0  0  0  0  0  0
   18.8685   19.8062   27.8227 O   0  0  0  0  0  0  0  0  0  0  0  0
   20.1115   18.8330   26.0738 C   0  0  0  0  0  0  0  0  0  0  0  0
   19.1369   18.6968   25.5919 H   0  0  0  0  0  0  0  0  0  0  0  0
   20.6356   17.8709   26.0270 H   0  0  0  0  0  0  0  0  0  0  0  0
   20.9344   19.9269   25.3450 C   0  0  0  0  0  0  0  0  0  0  0  0
   20.3786   20.8747   25.3594 H   0  0  0  0  0  0  0  0  0  0  0  0
   21.8622   20.1031   25.9067 H   0  0  0  0  0  0  0  0  0  0  0  0
   21.2999   19.5571   23.8877 C   0  0  0  0  0  0  0  0  0  0  0  0
   21.8644   18.6147   23.8778 H   0  0  0  0  0  0  0  0  0  0  0  0
   21.9751   20.3279   23.4915 H   0  0  0  0  0  0  0  0  0  0  0  0
   20.0711   19.4384   22.9569 C   0  0  0  0  0  0  0  0  0  0  0  0
   19.4211   18.6216   23.2963 H   0  0  0  0  0  0  0  0  0  0  0  0
   19.4799   20.3629   23.0098 H   0  0  0  0  0  0  0  0  0  0  0  0
   20.4876   19.1764   21.4933 C   0  0  0  0  0  0  0  0  0  0  0  0
   21.0822   18.2540   21.4408 H   0  0  0  0  0  0  0  0  0  0  0  0
   21.1332   19.9934   21.1430 H   0  0  0  0  0  0  0  0  0  0  0  0
   19.2627   19.0535   20.5626 C   0  0  0  0  0  0  0  0  0  0  0  0
   18.6154   18.2355   20.9082 H   0  0  0  0  0  0  0  0  0  0  0  0
   18.6663   19.9751   20.6117 H   0  0  0  0  0  0  0  0  0  0  0  0
   19.6828   18.7922   19.1022 C   0  0  0  0  0  0  0  0  0  0  0  0
   20.2548   17.8587   19.0190 H   0  0  0  0  0  0  0  0  0  0  0  0
   18.8002   18.7076   18.4550 H   0  0  0  0  0  0  0  0  0  0  0  0
   20.3060   19.6114   18.7201 H   0  0  0  0  0  0  0  0  0  0  0  0
  1  2  1  0  0  0  0
  1  3  2  0  0  0  0
  1  4  1  0  0  0  0
  4  5  1  0  0  0  0
  4  6  1  0  0  0  0
  4  7  1  0  0  0  0
  7  8  1  0  0  0  0
  7  9  1  0  0  0  0
  7 10  1  0  0  0  0
 10 11  1  0  0  0  0
 10 12  1  0  0  0  0
 10 13  1  0  0  0  0
 13 14  1  0  0  0  0
 13 15  1  0  0  0  0
 13 16  1  0  0  0  0
 16 17  1  0  0  0  0
 16 18  1  0  0  0  0
 16 19  1  0  0  0  0
 19 20  1  0  0  0  0
 19 21  1  0  0  0  0
 19 22  1  0  0  0  0
 22 23  1  0  0  0  0
 22 24  1  0  0  0  0
 22 25  1  0  0  0  0
M  END
> <VM2 Rank>
2

> <Conf_Id>
1268

> <Probability>
5.62

> <Sum Probability>
28.59

> <Delta G>
0.839

> <G>
-7.123

> <E>
-31.631

> <-TS>
24.508

> <U+W>
-52.199

> <U>
6.575

> <W>
-58.774

> <W(PB)>
-61.317

> <W(SA)>
2.543

> <Valence>
8.051

> <Coulomb>
-2.490

> <VdW>
1.015

> <VdW6>
-8.339

> <VdW12>
9.354

> <Bond>
0.157

> <Angle>
2.513

> <Pdih>
5.379

> <Idih>
0.001

> <Tether>
0.000

$$$$
VeraChem MOL file


 25 24  0  0  0  0  0  0  0  0999 V2000     
   20.1315   19.7075   27.5208 C   0  0  0  0  0  0  0  0  0  0  0  0
   20.9464   19.3333   28.3409 O   0  5  0  0  0  0  0  0  0  0  0  0
   19.0293   20.1290   27.8109 O   0  0  0  0  0  0  0  0  0  0  0  0
   20.5035   19.6201   26.0450 C   0  0  0  0  0  0  0  0  0  0  0  0
   21.5851   19.7775   25.9571 H   0  0  0  0  0  0  0  0  0  0  0  0
   20.0104   20.4507   25.5276 H   0  0  0  0  0  0  0  0  0  0  0  0
   20.1061   18.2641   25.4059 C   0  0  0  0  0  0  0  0  0  0  0  0
   20.5414   17.4515   26.0039 H   0  0  0  0  0  0  0  0  0  0  0  0
   19.0158   18.1387   25.4596 H   0  0  0  0  0  0  0  0  0  0  0  0
   20.5787   18.1094   23.9408 C   0  0  0  0  0  0  0  0  0  0  0  0
   20.3594   17.0848   23.6103 H   0  0  0  0  0  0  0  0  0  0  0  0
   21.6702   18.2246   23.8921 H   0  0  0  0  0  0  0  0  0  0  0  0
   19.9056   19.1061   22.9691 C   0  0  0  0  0  0  0  0  0  0  0  0
   18.8136   19.0255   23.0589 H   0  0  0  0  0  0  0  0  0  0  0  0
   20.1753   20.1348   23.2409 H   0  0  0  0  0  0  0  0  0  0  0  0
   20.3226   18.8454   21.5054 C   0  0  0  0  0  0  0  0  0  0  0  0
   20.0498   17.8194   21.2226 H   0  0  0  0  0  0  0  0  0  0  0  0
   21.4150   18.9219   21.4162 H   0  0  0  0  0  0  0  0  0  0  0  0
   19.6554   19.8415   20.5338 C   0  0  0  0  0  0  0  0  0  0  0  0
   18.5624   19.7668   20.6196 H   0  0  0  0  0  0  0  0  0  0  0  0
   19.9279   20.8691   20.8117 H   0  0  0  0  0  0  0  0  0  0  0  0
   20.0740   19.5777   19.0734 C   0  0  0  0  0  0  0  0  0  0  0  0
   19.7848   18.5664   18.7585 H   0  0  0  0  0  0  0  0  0  0  0  0
   19.5907   20.2945   18.3969 H   0  0  0  0  0  0  0  0  0  0  0  0
   21.1606   19.6768   18.9523 H   0  0  0  0  0  0  0  0  0  0  0  0
  1  2  1  0  0  0  0
  1  3  2  0  0  0  0
  1  4  1  0  0  0  0
  4  5  1  0  0  0  0
  4  6  1  0  0  0  0
  4  7  1  0  0  0  0
  7  8  1  0  0  0  0
  7  9  1  0  0  0  0
  7 10  1  0  0  0  0
 10 11  1  0  0  0  0
 10 12  1  0  0  0  0
 10 13  1  0  0  0  0
 13 14  1  0  0  0  0
 13 15  1  0  0  0  0
 13 16  1  0  0  0  0
 16 17  1  0  0  0  0
 16 18  1  0  0  0  0
 16 19  1  0  0  0  0
 19 20  1  0  0  0  0
 19 21  1  0  0  0  0
 19 22  1  0  0  0  0
 22 23  1  0  0  0  0
 22 24  1  0  0  0  0
 22 25  1  0  0  0  0
M  END
> <VM2 Rank>
3

> <Conf_Id>
1314

> <Probability>
5.44

> <Sum Probability>
34.04

> <Delta G>
0.858

> <G>
-7.104

> <E>
-31.612

> <-TS>
24.508

> <U+W>
-52.179

> <U>
6.575

> <W>
-58.755

> <W(PB)>
-61.293

> <W(SA)>
2.538

> <Valence>
8.050

> <Coulomb>
-2.490

> <VdW>
1.015

> <VdW6>
-8.339

> <VdW12>
9.354

> <Bond>
0.157

> <Angle>
2.513

> <Pdih>
5.379

> <Idih>
0.001

> <Tether>
0.000

$$$$
VeraChem MOL file


 25 24  0  0  0  0  0  0  0  0999 V2000     
   20.1305   19.1678   27.7051 C   0  0  0  0  0  0  0  0  0  0  0  0
   21.2278   19.2440   28.2216 O   0  5  0  0  0  0  0  0  0  0  0  0
   19.2276   18.4808   28.1402 O   0  0  0  0  0  0  0  0  0  0  0  0
   19.8801   19.9604   26.4271 C   0  0  0  0  0  0  0  0  0  0  0  0
   20.4718   20.8824   26.4766 H   0  0  0  0  0  0  0  0  0  0  0  0
   18.8235   20.2536   26.4096 H   0  0  0  0  0  0  0  0  0  0  0  0
   20.2355   19.1650   25.1468 C   0  0  0  0  0  0  0  0  0  0  0  0
   21.2927   18.8677   25.1860 H   0  0  0  0  0  0  0  0  0  0  0  0
   19.6446   18.2389   25.1192 H   0  0  0  0  0  0  0  0  0  0  0  0
   19.9734   19.9883   23.8671 C   0  0  0  0  0  0  0  0  0  0  0  0
   20.5643   20.9140   23.8990 H   0  0  0  0  0  0  0  0  0  0  0  0
   18.9160   20.2845   23.8311 H   0  0  0  0  0  0  0  0  0  0  0  0
   20.3288   19.1929   22.5924 C   0  0  0  0  0  0  0  0  0  0  0  0
   21.3868   18.8994   22.6262 H   0  0  0  0  0  0  0  0  0  0  0  0
   19.7393   18.2671   22.5702 H   0  0  0  0  0  0  0  0  0  0  0  0
   20.0622   20.0172   21.3117 C   0  0  0  0  0  0  0  0  0  0  0  0
   20.6032   20.9708   21.3814 H   0  0  0  0  0  0  0  0  0  0  0  0
   18.9948   20.2691   21.2490 H   0  0  0  0  0  0  0  0  0  0  0  0
   20.5008   19.2979   20.0148 C   0  0  0  0  0  0  0  0  0  0  0  0
   20.3876   19.9924   19.1710 H   0  0  0  0  0  0  0  0  0  0  0  0
   21.5698   19.0501   20.0713 H   0  0  0  0  0  0  0  0  0  0  0  0
   19.6862   18.0198   19.7192 C   0  0  0  0  0  0  0  0  0  0  0  0
   18.6107   18.2377   19.6878 H   0  0  0  0  0  0  0  0  0  0  0  0
   19.9739   17.5974   18.7478 H   0  0  0  0  0  0  0  0  0  0  0  0
   19.8596   17.2490   20.4805 H   0  0  0  0  0  0  0  0  0  0  0  0
  1  2  1  0  0  0  0
  1  3  2  0  0  0  0
  1  4  1  0  0  0  0
  4  5  1  0  0  0  0
  4  6  1  0  0  0  0
  4  7  1  0  0  0  0
  7  8  1  0  0  0  0
  7  9  1  0  0  0  0
  7 10  1  0  0  0  0
 10 11  1  0  0  0  0
 10 12  1  0  0  0  0
 10 13  1  0  0  0  0
 13 14  1  0  0  0  0
 13 15  1  0  0  0  0
 13 16  1  0  0  0  0
 16 17  1  0  0  0  0
 16 18  1  0  0  0  0
 16 19  1  0  0  0  0
 19 20  1  0  0  0  0
 19 21  1  0  0  0  0
 19 22  1  0  0  0  0
 22 23  1  0  0  0  0
 22 24  1  0  0  0  0
 22 25  1  0  0  0  0
M  END
> <VM2 Rank>
4

> <Conf_Id>
1027

> <Probability>
5.00

> <Sum Probability>
39.03

> <Delta G>
0.909

> <G>
-7.053

> <E>
-31.561

> <-TS>
24.508

> <U+W>
-52.128

> <U>
6.630

> <W>
-58.758

> <W(PB)>
-61.279

> <W(SA)>
2.521

> <Valence>
8.032

> <Coulomb>
-2.441

> <VdW>
1.039

> <VdW6>
-8.257

> <VdW12>
9.295

> <Bond>
0.146

> <Angle>
2.498

> <Pdih>
5.387

> <Idih>
0.001

> <Tether>
0.000

$$$$
VeraChem MOL file


 25 24  0  0  0  0  0  0  0  0999 V2000     
   20.0216   19.1705   27.6698 C   0  0  0  0  0  0  0  0  0  0  0  0
   21.0605   19.2685   28.2924 O   0  5  0  0  0  0  0  0  0  0  0  0
   18.9410   19.5175   28.1041 O   0  0  0  0  0  0  0  0  0  0  0  0
   20.0802   18.6011   26.2569 C   0  0  0  0  0  0  0  0  0  0  0  0
   19.1420   18.0664   26.0660 H   0  0  0  0  0  0  0  0  0  0  0  0
   20.8885   17.8608   26.2212 H   0  0  0  0  0  0  0  0  0  0  0  0
   20.3043   19.6898   25.1786 C   0  0  0  0  0  0  0  0  0  0  0  0
   19.4939   20.4297   25.2359 H   0  0  0  0  0  0  0  0  0  0  0  0
   21.2402   20.2244   25.3922 H   0  0  0  0  0  0  0  0  0  0  0  0
   20.3599   19.0885   23.7574 C   0  0  0  0  0  0  0  0  0  0  0  0
   19.4239   18.5507   23.5583 H   0  0  0  0  0  0  0  0  0  0  0  0
   21.1725   18.3512   23.7024 H   0  0  0  0  0  0  0  0  0  0  0  0
   20.5795   20.1800   22.6845 C   0  0  0  0  0  0  0  0  0  0  0  0
   19.7406   20.8891   22.7001 H   0  0  0  0  0  0  0  0  0  0  0  0
   21.4785   20.7568   22.9413 H   0  0  0  0  0  0  0  0  0  0  0  0
   20.7529   19.6142   21.2548 C   0  0  0  0  0  0  0  0  0  0  0  0
   21.5946   18.9084   21.2379 H   0  0  0  0  0  0  0  0  0  0  0  0
   21.0273   20.4404   20.5847 H   0  0  0  0  0  0  0  0  0  0  0  0
   19.4834   18.9243   20.7061 C   0  0  0  0  0  0  0  0  0  0  0  0
   19.2359   18.0462   21.3168 H   0  0  0  0  0  0  0  0  0  0  0  0
   18.6295   19.6125   20.7727 H   0  0  0  0  0  0  0  0  0  0  0  0
   19.6697   18.4797   19.2414 C   0  0  0  0  0  0  0  0  0  0  0  0
   20.5012   17.7687   19.1498 H   0  0  0  0  0  0  0  0  0  0  0  0
   18.7616   17.9891   18.8676 H   0  0  0  0  0  0  0  0  0  0  0  0
   19.8811   19.3400   18.5929 H   0  0  0  0  0  0  0  0  0  0  0  0
  1  2  1  0  0  0  0
  1  3  2  0  0  0  0
  1  4  1  0  0  0  0
  4  5  1  0  0  0  0
  4  6  1  0  0  0  0
  4  7  1  0  0  0  0
  7  8  1  0  0  0  0
  7  9  1  0  0  0  0
  7 10  1  0  0  0  0
 10 11  1  0  0  0  0
 10 12  1  0  0  0  0
 10 13  1  0  0  0  0
 13 14  1  0  0  0  0
 13 15  1  0  0  0  0
 13 16  1  0  0  0  0
 16 17  1  0  0  0  0
 16 18  1  0  0  0  0
 16 19  1  0  0  0  0
 19 20  1  0  0  0  0
 19 21  1  0  0  0  0
 19 22  1  0  0  0  0
 22 23  1  0  0  0  0
 22 24  1  0  0  0  0
 22 25  1  0  0  0  0
M  END
> <VM2 Rank>
5

> <Conf_Id>
1009

> <Probability>
4.93

> <Sum Probability>
43.96

> <Delta G>
0.918

> <G>
-7.044

> <E>
-31.544

> <-TS>
24.499

> <U+W>
-52.111

> <U>
6.583

> <W>
-58.695

> <W(PB)>
-61.197

> <W(SA)>
2.502

> <Valence>
8.068

> <Coulomb>
-2.516

> <VdW>
1.031

> <VdW6>
-8.305

> <VdW12>
9.335

> <Bond>
0.150

> <Angle>
2.522

> <Pdih>
5.396

> <Idih>
0.001

> <Tether>
0.000

$$$$
VeraChem MOL file


 25 24  0  0  0  0  0  0  0  0999 V2000     
   20.3737   19.6428   27.4433 C   0  0  0  0  0  0  0  0  0  0  0  0
   21.5152   20.0322   27.5914 O   0  5  0  0  0  0  0  0  0  0  0  0
   19.4210   20.1083   28.0368 O   0  0  0  0  0  0  0  0  0  0  0  0
   20.1198   18.5219   26.4417 C   0  0  0  0  0  0  0  0  0  0  0  0
   19.2737   17.9262   26.8047 H   0  0  0  0  0  0  0  0  0  0  0  0
   20.9988   17.8661   26.4341 H   0  0  0  0  0  0  0  0  0  0  0  0
   19.8321   19.0459   25.0131 C   0  0  0  0  0  0  0  0  0  0  0  0
   18.9553   19.7076   25.0393 H   0  0  0  0  0  0  0  0  0  0  0  0
   20.6832   19.6548   24.6808 H   0  0  0  0  0  0  0  0  0  0  0  0
   19.5833   17.8892   24.0174 C   0  0  0  0  0  0  0  0  0  0  0  0
   18.7805   17.2487   24.4076 H   0  0  0  0  0  0  0  0  0  0  0  0
   20.4800   17.2580   23.9508 H   0  0  0  0  0  0  0  0  0  0  0  0
   19.1822   18.3695   22.6024 C   0  0  0  0  0  0  0  0  0  0  0  0
   18.9056   17.4916   22.0027 H   0  0  0  0  0  0  0  0  0  0  0  0
   18.2826   18.9967   22.6681 H   0  0  0  0  0  0  0  0  0  0  0  0
   20.3046   19.1428   21.8721 C   0  0  0  0  0  0  0  0  0  0  0  0
   21.2193   18.5346   21.8563 H   0  0  0  0  0  0  0  0  0  0  0  0
   20.5416   20.0649   22.4186 H   0  0  0  0  0  0  0  0  0  0  0  0
   19.9012   19.5035   20.4268 C   0  0  0  0  0  0  0  0  0  0  0  0
   19.6696   18.5869   19.8666 H   0  0  0  0  0  0  0  0  0  0  0  0
   18.9853   20.1105   20.4388 H   0  0  0  0  0  0  0  0  0  0  0  0
   21.0198   20.2779   19.7010 C   0  0  0  0  0  0  0  0  0  0  0  0
   21.9397   19.6810   19.6475 H   0  0  0  0  0  0  0  0  0  0  0  0
   20.7163   20.5256   18.6756 H   0  0  0  0  0  0  0  0  0  0  0  0
   21.2499   21.2163   20.2224 H   0  0  0  0  0  0  0  0  0  0  0  0
  1  2  1  0  0  0  0
  1  3  2  0  0  0  0
  1  4  1  0  0  0  0
  4  5  1  0  0  0  0
  4  6  1  0  0  0  0
  4  7  1  0  0  0  0
  7  8  1  0  0  0  0
  7  9  1  0  0  0  0
  7 10  1  0  0  0  0
 10 11  1  0  0  0  0
 10 12  1  0  0  0  0
 10 13  1  0  0  0  0
 13 14  1  0  0  0  0
 13 15  1  0  0  0  0
 13 16  1  0  0  0  0
 16 17  1  0  0  0  0
 16 18  1  0  0  0  0
 16 19  1  0  0  0  0
 19 20  1  0  0  0  0
 19 21  1  0  0  0  0
 19 22  1  0  0  0  0
 22 23  1  0  0  0  0
 22 24  1  0  0  0  0
 22 25  1  0  0  0  0
M  END
> <VM2 Rank>
6

> <Conf_Id>
779

> <Probability>
4.87

> <Sum Probability>
48.83

> <Delta G>
0.925

> <G>
-7.037

> <E>
-31.542

> <-TS>
24.505

> <U+W>
-52.110

> <U>
7.044

> <W>
-59.154

> <W(PB)>
-61.665

> <W(SA)>
2.511

> <Valence>
8.064

> <Coulomb>
-2.027

> <VdW>
1.007

> <VdW6>
-8.345

> <VdW12>
9.352

> <Bond>
0.151

> <Angle>
2.518

> <Pdih>
5.395

> <Idih>
0.001

> <Tether>
0.000

$$$$
VeraChem MOL file


 25 24  0  0  0  0  0  0  0  0999 V2000     
   19.9013   19.6124   27.4488 C   0  0  0  0  0  0  0  0  0  0  0  0
   20.8003   20.1963   28.0212 O   0  5  0  0  0  0  0  0  0  0  0  0
   18.7232   19.8535   27.6236 O   0  0  0  0  0  0  0  0  0  0  0  0
   20.2730   18.5317   26.4399 C   0  0  0  0  0  0  0  0  0  0  0  0
   19.4849   17.7692   26.4515 H   0  0  0  0  0  0  0  0  0  0  0  0
   21.1963   18.0493   26.7825 H   0  0  0  0  0  0  0  0  0  0  0  0
   20.4586   19.0861   25.0059 C   0  0  0  0  0  0  0  0  0  0  0  0
   19.5293   19.5809   24.6942 H   0  0  0  0  0  0  0  0  0  0  0  0
   21.2441   19.8544   25.0129 H   0  0  0  0  0  0  0  0  0  0  0  0
   20.8301   17.9693   24.0029 C   0  0  0  0  0  0  0  0  0  0  0  0
   20.0200   17.2286   23.9561 H   0  0  0  0  0  0  0  0  0  0  0  0
   21.7168   17.4371   24.3737 H   0  0  0  0  0  0  0  0  0  0  0  0
   21.1339   18.4949   22.5799 C   0  0  0  0  0  0  0  0  0  0  0  0
   21.9472   19.2321   22.6258 H   0  0  0  0  0  0  0  0  0  0  0  0
   21.5067   17.6587   21.9727 H   0  0  0  0  0  0  0  0  0  0  0  0
   19.9053   19.1171   21.8766 C   0  0  0  0  0  0  0  0  0  0  0  0
   19.5649   20.0020   22.4298 H   0  0  0  0  0  0  0  0  0  0  0  0
   19.0759   18.3968   21.8808 H   0  0  0  0  0  0  0  0  0  0  0  0
   20.2261   19.5244   20.4230 C   0  0  0  0  0  0  0  0  0  0  0  0
   21.0568   20.2436   20.4150 H   0  0  0  0  0  0  0  0  0  0  0  0
   20.5602   18.6443   19.8563 H   0  0  0  0  0  0  0  0  0  0  0  0
   19.0013   20.1483   19.7242 C   0  0  0  0  0  0  0  0  0  0  0  0
   19.2470   20.4314   18.6924 H   0  0  0  0  0  0  0  0  0  0  0  0
   18.1644   19.4385   19.6908 H   0  0  0  0  0  0  0  0  0  0  0  0
   18.6650   21.0503   20.2522 H   0  0  0  0  0  0  0  0  0  0  0  0
  1  2  1  0  0  0  0
  1  3  2  0  0  0  0
  1  4  1  0  0  0  0
  4  5  1  0  0  0  0
  4  6  1  0  0  0  0
  4  7  1  0  0  0  0
  7  8  1  0  0  0  0
  7  9  1  0  0  0  0
  7 10  1  0  0  0  0
 10 11  1  0  0  0  0
 10 12  1  0  0  0  0
 10 13  1  0  0  0  0
 13 14  1  0  0  0  0
 13 15  1  0  0  0  0
 13 16  1  0  0  0  0
 16 17  1  0  0  0  0
 16 18  1  0  0  0  0
 16 19  1  0  0  0  0
 19 20  1  0  0  0  0
 19 21  1  0  0  0  0
 19 22  1  0  0  0  0
 22 23  1  0  0  0  0
 22 24  1  0  0  0  0
 22 25  1  0  0  0  0
M  END
> <VM2 Rank>
7

> <Conf_Id>
1287

> <Probability>
4.71

> <Sum Probability>
53.54

> <Delta G>
0.944

> <G>
-7.018

> <E>
-31.524

> <-TS>
24.506

> <U+W>
-52.091

> <U>
7.044

> <W>
-59.135

> <W(PB)>
-61.631

> <W(SA)>
2.496

> <Valence>
8.065

> <Coulomb>
-2.027

> <VdW>
1.007

> <VdW6>
-8.345

> <VdW12>
9.352

> <Bond>
0.151

> <Angle>
2.518

> <Pdih>
5.395

> <Idih>
0.001

> <Tether>
0.000

$$$$
VeraChem MOL file


 25 24  0  0  0  0  0  0  0  0999 V2000     
   20.3158   19.1891   27.6664 C   0  0  0  0  0  0  0  0  0  0  0  0
   21.3533   19.6710   28.0763 O   0  5  0  0  0  0  0  0  0  0  0  0
   19.2874   19.1555   28.3129 O   0  0  0  0  0  0  0  0  0  0  0  0
   20.2973   18.6149   26.2543 C   0  0  0  0  0  0  0  0  0  0  0  0
   19.5887   17.7782   26.2361 H   0  0  0  0  0  0  0  0  0  0  0  0
   21.2911   18.2031   26.0412 H   0  0  0  0  0  0  0  0  0  0  0  0
   19.9125   19.6649   25.1831 C   0  0  0  0  0  0  0  0  0  0  0  0
   18.9216   20.0771   25.4190 H   0  0  0  0  0  0  0  0  0  0  0  0
   20.6238   20.5016   25.2229 H   0  0  0  0  0  0  0  0  0  0  0  0
   19.9008   19.0594   23.7627 C   0  0  0  0  0  0  0  0  0  0  0  0
   19.1871   18.2250   23.7253 H   0  0  0  0  0  0  0  0  0  0  0  0
   20.8926   18.6442   23.5413 H   0  0  0  0  0  0  0  0  0  0  0  0
   19.5201   20.1127   22.6967 C   0  0  0  0  0  0  0  0  0  0  0  0
   18.5614   20.5714   22.9750 H   0  0  0  0  0  0  0  0  0  0  0  0
   20.2626   20.9223   22.6940 H   0  0  0  0  0  0  0  0  0  0  0  0
   19.3869   19.5274   21.2706 C   0  0  0  0  0  0  0  0  0  0  0  0
   18.9948   20.3113   20.6082 H   0  0  0  0  0  0  0  0  0  0  0  0
   18.6411   18.7207   21.2721 H   0  0  0  0  0  0  0  0  0  0  0  0
   20.7205   19.0029   20.6919 C   0  0  0  0  0  0  0  0  0  0  0  0
   21.4818   19.7937   20.7398 H   0  0  0  0  0  0  0  0  0  0  0  0
   21.0910   18.1640   21.2954 H   0  0  0  0  0  0  0  0  0  0  0  0
   20.5584   18.5361   19.2311 C   0  0  0  0  0  0  0  0  0  0  0  0
   20.2250   19.3618   18.5889 H   0  0  0  0  0  0  0  0  0  0  0  0
   21.5124   18.1638   18.8359 H   0  0  0  0  0  0  0  0  0  0  0  0
   19.8216   17.7255   19.1577 H   0  0  0  0  0  0  0  0  0  0  0  0
  1  2  1  0  0  0  0
  1  3  2  0  0  0  0
  1  4  1  0  0  0  0
  4  5  1  0  0  0  0
  4  6  1  0  0  0  0
  4  7  1  0  0  0  0
  7  8  1  0  0  0  0
  7  9  1  0  0  0  0
  7 10  1  0  0  0  0
 10 11  1  0  0  0  0
 10 12  1  0  0  0  0
 10 13  1  0  0  0  0
 13 14  1  0  0  0  0
 13 15  1  0  0  0  0
 13 16  1  0  0  0  0
 16 17  1  0  0  0  0
 16 18  1  0  0  0  0
 16 19  1  0  0  0  0
 19 20  1  0  0  0  0
 19 21  1  0  0  0  0
 19 22  1  0  0  0  0
 22 23  1  0  0  0  0
 22 24  1  0  0  0  0
 22 25  1  0  0  0  0
M  END
> <VM2 Rank>
8

> <Conf_Id>
1291

> <Probability>
4.70

> <Sum Probability>
58.24

> <Delta G>
0.946

> <G>
-7.016

> <E>
-31.516

> <-TS>
24.500

> <U+W>
-52.083

> <U>
6.583

> <W>
-58.667

> <W(PB)>
-61.150

> <W(SA)>
2.483

> <Valence>
8.068

> <Coulomb>
-2.516

> <VdW>
1.031

> <VdW6>
-8.305

> <VdW12>
9.336

> <Bond>
0.150

> <Angle>
2.522

> <Pdih>
5.396

> <Idih>
0.001

> <Tether>
0.000

$$$$
VeraChem MOL file


 25 24  0  0  0  0  0  0  0  0999 V2000     
   20.0591   19.4466   27.7000 C   0  0  0  0  0  0  0  0  0  0  0  0
   21.0532   19.9251   28.2093 O   0  5  0  0  0  0  0  0  0  0  0  0
   18.9333   19.6287   28.1195 O   0  0  0  0  0  0  0  0  0  0  0  0
   20.2320   18.5882   26.4520 C   0  0  0  0  0  0  0  0  0  0  0  0
   19.4469   17.8226   26.4538 H   0  0  0  0  0  0  0  0  0  0  0  0
   21.1937   18.0667   26.5278 H   0  0  0  0  0  0  0  0  0  0  0  0
   20.1722   19.4123   25.1423 C   0  0  0  0  0  0  0  0  0  0  0  0
   19.2091   19.9385   25.0883 H   0  0  0  0  0  0  0  0  0  0  0  0
   20.9558   20.1825   25.1620 H   0  0  0  0  0  0  0  0  0  0  0  0
   20.3495   18.5213   23.8938 C   0  0  0  0  0  0  0  0  0  0  0  0
   19.5652   17.7521   23.8772 H   0  0  0  0  0  0  0  0  0  0  0  0
   21.3124   17.9955   23.9520 H   0  0  0  0  0  0  0  0  0  0  0  0
   20.2896   19.3456   22.5896 C   0  0  0  0  0  0  0  0  0  0  0  0
   19.3277   19.8724   22.5410 H   0  0  0  0  0  0  0  0  0  0  0  0
   21.0758   20.1127   22.6040 H   0  0  0  0  0  0  0  0  0  0  0  0
   20.4635   18.4515   21.3401 C   0  0  0  0  0  0  0  0  0  0  0  0
   19.6493   17.7153   21.2954 H   0  0  0  0  0  0  0  0  0  0  0  0
   21.3958   17.8785   21.4377 H   0  0  0  0  0  0  0  0  0  0  0  0
   20.5134   19.2484   20.0157 C   0  0  0  0  0  0  0  0  0  0  0  0
   21.3311   19.9814   20.0543 H   0  0  0  0  0  0  0  0  0  0  0  0
   20.7555   18.5566   19.1971 H   0  0  0  0  0  0  0  0  0  0  0  0
   19.1873   19.9664   19.6838 C   0  0  0  0  0  0  0  0  0  0  0  0
   18.9619   20.7509   20.4168 H   0  0  0  0  0  0  0  0  0  0  0  0
   19.2449   20.4417   18.6960 H   0  0  0  0  0  0  0  0  0  0  0  0
   18.3494   19.2572   19.6691 H   0  0  0  0  0  0  0  0  0  0  0  0
  1  2  1  0  0  0  0
  1  3  2  0  0  0  0
  1  4  1  0  0  0  0
  4  5  1  0  0  0  0
  4  6  1  0  0  0  0
  4  7  1  0  0  0  0
  7  8  1  0  0  0  0
  7  9  1  0  0  0  0
  7 10  1  0  0  0  0
 10 11  1  0  0  0  0
 10 12  1  0  0  0  0
 10 13  1  0  0  0  0
 13 14  1  0  0  0  0
 13 15  1  0  0  0  0
 13 16  1  0  0  0  0
 16 17  1  0  0  0  0
 16 18  1  0  0  0  0
 16 19  1  0  0  0  0
 19 20  1  0  0  0  0
 19 21  1  0  0  0  0
 19 22  1  0  0  0  0
 22 23  1  0  0  0  0
 22 24  1  0  0  0  0
 22 25  1  0  0  0  0
M  END
> <VM2 Rank>
9

> <Conf_Id>
1351

> <Probability>
4.66

> <Sum Probability>
62.90

> <Delta G>
0.951

> <G>
-7.011

> <E>
-31.519

> <-TS>
24.508

> <U+W>
-52.086

> <U>
6.630

> <W>
-58.716

> <W(PB)>
-61.242

> <W(SA)>
2.525

> <Valence>
8.032

> <Coulomb>
-2.441

> <VdW>
1.039

> <VdW6>
-8.256

> <VdW12>
9.295

> <Bond>
0.146

> <Angle>
2.498

> <Pdih>
5.387

> <Idih>
0.001

> <Tether>
0.000

$$$$
VeraChem MOL file


 25 24  0  0  0  0  0  0  0  0999 V2000     
   19.9392   19.5648   27.3300 C   0  0  0  0  0  0  0  0  0  0  0  0
   20.7378   20.3659   27.7744 O   0  5  0  0  0  0  0  0  0  0  0  0
   18.7367   19.7408   27.3336 O   0  0  0  0  0  0  0  0  0  0  0  0
   20.4772   18.2591   26.7513 C   0  0  0  0  0  0  0  0  0  0  0  0
   19.6607   17.5277   26.7191 H   0  0  0  0  0  0  0  0  0  0  0  0
   21.2232   17.8714   27.4550 H   0  0  0  0  0  0  0  0  0  0  0  0
   21.1181   18.4089   25.3471 C   0  0  0  0  0  0  0  0  0  0  0  0
   21.9150   19.1644   25.3894 H   0  0  0  0  0  0  0  0  0  0  0  0
   21.5969   17.4596   25.0708 H   0  0  0  0  0  0  0  0  0  0  0  0
   20.0881   18.7948   24.2618 C   0  0  0  0  0  0  0  0  0  0  0  0
   19.6170   19.7527   24.5224 H   0  0  0  0  0  0  0  0  0  0  0  0
   19.2868   18.0437   24.2327 H   0  0  0  0  0  0  0  0  0  0  0  0
   20.7415   18.9071   22.8675 C   0  0  0  0  0  0  0  0  0  0  0  0
   21.5426   19.6584   22.8976 H   0  0  0  0  0  0  0  0  0  0  0  0
   21.2106   17.9494   22.6035 H   0  0  0  0  0  0  0  0  0  0  0  0
   19.7130   19.2935   21.7827 C   0  0  0  0  0  0  0  0  0  0  0  0
   19.2437   20.2513   22.0466 H   0  0  0  0  0  0  0  0  0  0  0  0
   18.9117   18.5426   21.7526 H   0  0  0  0  0  0  0  0  0  0  0  0
   20.3658   19.4065   20.3890 C   0  0  0  0  0  0  0  0  0  0  0  0
   21.1668   20.1582   20.4149 H   0  0  0  0  0  0  0  0  0  0  0  0
   20.8346   18.4495   20.1208 H   0  0  0  0  0  0  0  0  0  0  0  0
   19.3355   19.7927   19.3087 C   0  0  0  0  0  0  0  0  0  0  0  0
   18.8733   20.7623   19.5355 H   0  0  0  0  0  0  0  0  0  0  0  0
   19.8165   19.8684   18.3248 H   0  0  0  0  0  0  0  0  0  0  0  0
   18.5385   19.0408   19.2393 H   0  0  0  0  0  0  0  0  0  0  0  0
  1  2  1  0  0  0  0
  1  3  2  0  0  0  0
  1  4  1  0  0  0  0
  4  5  1  0  0  0  0
  4  6  1  0  0  0  0
  4  7  1  0  0  0  0
  7  8  1  0  0  0  0
  7  9  1  0  0  0  0
  7 10  1  0  0  0  0
 10 11  1  0  0  0  0
 10 12  1  0  0  0  0
 10 13  1  0  0  0  0
 13 14  1  0  0  0  0
 13 15  1  0  0  0  0
 13 16  1  0  0  0  0
 16 17  1  0  0  0  0
 16 18  1  0  0  0  0
 16 19  1  0  0  0  0
 19 20  1  0  0  0  0
 19 21  1  0  0  0  0
 19 22  1  0  0  0  0
 22 23  1  0  0  0  0
 22 24  1  0  0  0  0
 22 25  1  0  0  0  0
M  END
> <VM2 Rank>
10

> <Conf_Id>
194

> <Probability>
2.27

> <Sum Probability>
65.17

> <Delta G>
1.381

> <G>
-6.581

> <E>
-31.293

> <-TS>
24.711

> <U+W>
-51.860

> <U>
7.816

> <W>
-59.676

> <W(PB)>
-62.181

> <W(SA)>
2.505

> <Valence>
7.785

> <Coulomb>
-0.714

> <VdW>
0.744

> <VdW6>
-8.514

> <VdW12>
9.259

> <Bond>
0.136

> <Angle>
2.433

> <Pdih>
5.216

> <Idih>
0.000

> <Tether>
0.000

$$$$
VeraChem MOL file


 25 24  0  0  0  0  0  0  0  0999 V2000     
   20.2303   18.9546   27.3352 C   0  0  0  0  0  0  0  0  0  0  0  0
   21.3527   19.0775   27.7847 O   0  5  0  0  0  0  0  0  0  0  0  0
   19.6106   17.9092   27.3494 O   0  0  0  0  0  0  0  0  0  0  0  0
   19.5577   20.1860   26.7350 C   0  0  0  0  0  0  0  0  0  0  0  0
   19.7209   21.0194   27.4284 H   0  0  0  0  0  0  0  0  0  0  0  0
   18.4757   20.0109   26.6980 H   0  0  0  0  0  0  0  0  0  0  0  0
   20.0865   20.5706   25.3288 C   0  0  0  0  0  0  0  0  0  0  0  0
   19.6517   21.5360   25.0363 H   0  0  0  0  0  0  0  0  0  0  0  0
   21.1748   20.7154   25.3763 H   0  0  0  0  0  0  0  0  0  0  0  0
   19.7457   19.5122   24.2558 C   0  0  0  0  0  0  0  0  0  0  0  0
   18.6580   19.3614   24.2215 H   0  0  0  0  0  0  0  0  0  0  0  0
   20.1922   18.5471   24.5327 H   0  0  0  0  0  0  0  0  0  0  0  0
   20.2534   19.9302   22.8589 C   0  0  0  0  0  0  0  0  0  0  0  0
   19.8059   20.8936   22.5786 H   0  0  0  0  0  0  0  0  0  0  0  0
   21.3412   20.0806   22.8942 H   0  0  0  0  0  0  0  0  0  0  0  0
   19.9138   18.8727   21.7863 C   0  0  0  0  0  0  0  0  0  0  0  0
   18.8261   18.7219   21.7511 H   0  0  0  0  0  0  0  0  0  0  0  0
   20.3612   17.9091   22.0665 H   0  0  0  0  0  0  0  0  0  0  0  0
   20.4216   19.2898   20.3900 C   0  0  0  0  0  0  0  0  0  0  0  0
   19.9748   20.2525   20.1056 H   0  0  0  0  0  0  0  0  0  0  0  0
   21.5098   19.4396   20.4211 H   0  0  0  0  0  0  0  0  0  0  0  0
   20.0806   18.2312   19.3220 C   0  0  0  0  0  0  0  0  0  0  0  0
   18.9952   18.0840   19.2473 H   0  0  0  0  0  0  0  0  0  0  0  0
   20.4487   18.5437   18.3361 H   0  0  0  0  0  0  0  0  0  0  0  0
   20.5417   17.2650   19.5653 H   0  0  0  0  0  0  0  0  0  0  0  0
  1  2  1  0  0  0  0
  1  3  2  0  0  0  0
  1  4  1  0  0  0  0
  4  5  1  0  0  0  0
  4  6  1  0  0  0  0
  4  7  1  0  0  0  0
  7  8  1  0  0  0  0
  7  9  1  0  0  0  0
  7 10  1  0  0  0  0
 10 11  1  0  0  0  0
 10 12  1  0  0  0  0
 10 13  1  0  0  0  0
 13 14  1  0  0  0  0
 13 15  1  0  0  0  0
 13 16  1  0  0  0  0
 16 17  1  0  0  0  0
 16 18  1  0  0  0  0
 16 19  1  0  0  0  0
 19 20  1  0  0  0  0
 19 21  1  0  0  0  0
 19 22  1  0  0  0  0
 22 23  1  0  0  0  0
 22 24  1  0  0  0  0
 22 25  1  0  0  0  0
M  END
> <VM2 Rank>
11

> <Conf_Id>
54

> <Probability>
2.24

> <Sum Probability>
67.41

> <Delta G>
1.388

> <G>
-6.575

> <E>
-31.286

> <-TS>
24.711

> <U+W>
-51.854

> <U>
7.816

> <W>
-59.670

> <W(PB)>
-62.157

> <W(SA)>
2.487

> <Valence>
7.785

> <Coulomb>
-0.713

> <VdW>
0.744

> <VdW6>
-8.515

> <VdW12>
9.259

> <Bond>
0.136

> <Angle>
2.433

> <Pdih>
5.215

> <Idih>
0.000

> <Tether>
0.000

$$$$
VeraChem MOL file


 25 24  0  0  0  0  0  0  0  0999 V2000     
   20.3190   19.7118   27.3854 C   0  0  0  0  0  0  0  0  0  0  0  0
   21.4496   20.1313   27.5355 O   0  5  0  0  0  0  0  0  0  0  0  0
   19.6075   19.3514   28.3023 O   0  0  0  0  0  0  0  0  0  0  0  0
   19.7715   19.6092   25.9664 C   0  0  0  0  0  0  0  0  0  0  0  0
   20.2017   20.4311   25.3832 H   0  0  0  0  0  0  0  0  0  0  0  0
   18.6877   19.7710   26.0075 H   0  0  0  0  0  0  0  0  0  0  0  0
   20.0840   18.2439   25.3005 C   0  0  0  0  0  0  0  0  0  0  0  0
   21.1723   18.1137   25.2239 H   0  0  0  0  0  0  0  0  0  0  0  0
   19.7211   17.4403   25.9563 H   0  0  0  0  0  0  0  0  0  0  0  0
   19.4376   18.0747   23.9050 C   0  0  0  0  0  0  0  0  0  0  0  0
   18.3484   18.1922   23.9876 H   0  0  0  0  0  0  0  0  0  0  0  0
   19.6142   17.0463   23.5613 H   0  0  0  0  0  0  0  0  0  0  0  0
   19.9899   19.0592   22.8482 C   0  0  0  0  0  0  0  0  0  0  0  0
   19.7525   20.0911   23.1371 H   0  0  0  0  0  0  0  0  0  0  0  0
   21.0840   18.9764   22.8163 H   0  0  0  0  0  0  0  0  0  0  0  0
   19.4003   18.7786   21.4465 C   0  0  0  0  0  0  0  0  0  0  0  0
   18.3037   18.7901   21.5116 H   0  0  0  0  0  0  0  0  0  0  0  0
   19.6821   17.7678   21.1215 H   0  0  0  0  0  0  0  0  0  0  0  0
   19.8396   19.8062   20.3775 C   0  0  0  0  0  0  0  0  0  0  0  0
   19.2902   19.6043   19.4477 H   0  0  0  0  0  0  0  0  0  0  0  0
   19.5511   20.8179   20.6947 H   0  0  0  0  0  0  0  0  0  0  0  0
   21.3541   19.7678   20.0786 C   0  0  0  0  0  0  0  0  0  0  0  0
   21.9427   20.0765   20.9515 H   0  0  0  0  0  0  0  0  0  0  0  0
   21.6717   18.7580   19.7880 H   0  0  0  0  0  0  0  0  0  0  0  0
   21.6000   20.4497   19.2543 H   0  0  0  0  0  0  0  0  0  0  0  0
  1  2  1  0  0  0  0
  1  3  2  0  0  0  0
  1  4  1  0  0  0  0
  4  5  1  0  0  0  0
  4  6  1  0  0  0  0
  4  7  1  0  0  0  0
  7  8  1  0  0  0  0
  7  9  1  0  0  0  0
  7 10  1  0  0  0  0
 10 11  1  0  0  0  0
 10 12  1  0  0  0  0
 10 13  1  0  0  0  0
 13 14  1  0  0  0  0
 13 15  1  0  0  0  0
 13 16  1  0  0  0  0
 16 17  1  0  0  0  0
 16 18  1  0  0  0  0
 16 19  1  0  0  0  0
 19 20  1  0  0  0  0
 19 21  1  0  0  0  0
 19 22  1  0  0  0  0
 22 23  1  0  0  0  0
 22 24  1  0  0  0  0
 22 25  1  0  0  0  0
M  END
> <VM2 Rank>
12

> <Conf_Id>
783

> <Probability>
1.35

> <Sum Probability>
68.76

> <Delta G>
1.688

> <G>
-6.274

> <E>
-30.894

> <-TS>
24.620

> <U+W>
-51.461

> <U>
7.651

> <W>
-59.112

> <W(PB)>
-61.583

> <W(SA)>
2.471

> <Valence>
8.550

> <Coulomb>
-2.034

> <VdW>
1.135

> <VdW6>
-8.973

> <VdW12>
10.108

> <Bond>
0.188

> <Angle>
2.738

> <Pdih>
5.623

> <Idih>
0.001

> <Tether>
0.000

$$$$
VeraChem MOL file


 25 24  0  0  0  0  0  0  0  0999 V2000     
   20.1095   19.8189   27.3324 C   0  0  0  0  0  0  0  0  0  0  0  0
   21.1336   20.4357   27.5503 O   0  5  0  0  0  0  0  0  0  0  0  0
   19.3797   19.3955   28.2070 O   0  0  0  0  0  0  0  0  0  0  0  0
   19.7317   19.5398   25.8821 C   0  0  0  0  0  0  0  0  0  0  0  0
   20.0749   20.3883   25.2796 H   0  0  0  0  0  0  0  0  0  0  0  0
   18.6375   19.5136   25.8147 H   0  0  0  0  0  0  0  0  0  0  0  0
   20.3327   18.2126   25.3507 C   0  0  0  0  0  0  0  0  0  0  0  0
   21.4296   18.2692   25.3795 H   0  0  0  0  0  0  0  0  0  0  0  0
   20.0464   17.3987   26.0312 H   0  0  0  0  0  0  0  0  0  0  0  0
   19.8651   17.8506   23.9209 C   0  0  0  0  0  0  0  0  0  0  0  0
   18.7686   17.7852   23.8977 H   0  0  0  0  0  0  0  0  0  0  0  0
   20.2415   16.8483   23.6750 H   0  0  0  0  0  0  0  0  0  0  0  0
   20.3498   18.8488   22.8440 C   0  0  0  0  0  0  0  0  0  0  0  0
   19.9232   19.8394   23.0426 H   0  0  0  0  0  0  0  0  0  0  0  0
   21.4421   18.9500   22.9024 H   0  0  0  0  0  0  0  0  0  0  0  0
   19.9493   18.3915   21.4221 C   0  0  0  0  0  0  0  0  0  0  0  0
   18.8548   18.3346   21.3465 H   0  0  0  0  0  0  0  0  0  0  0  0
   20.3261   17.3733   21.2542 H   0  0  0  0  0  0  0  0  0  0  0  0
   20.4981   19.3078   20.3036 C   0  0  0  0  0  0  0  0  0  0  0  0
   21.5933   19.3628   20.3730 H   0  0  0  0  0  0  0  0  0  0  0  0
   20.2716   18.8503   19.3307 H   0  0  0  0  0  0  0  0  0  0  0  0
   19.9035   20.7326   20.3329 C   0  0  0  0  0  0  0  0  0  0  0  0
   20.2033   21.2736   21.2392 H   0  0  0  0  0  0  0  0  0  0  0  0
   20.2539   21.3125   19.4693 H   0  0  0  0  0  0  0  0  0  0  0  0
   18.8068   20.7016   20.2967 H   0  0  0  0  0  0  0  0  0  0  0  0
  1  2  1  0  0  0  0
  1  3  2  0  0  0  0
  1  4  1  0  0  0  0
  4  5  1  0  0  0  0
  4  6  1  0  0  0  0
  4  7  1  0  0  0  0
  7  8  1  0  0  0  0
  7  9  1  0  0  0  0
  7 10  1  0  0  0  0
 10 11  1  0  0  0  0
 10 12  1  0  0  0  0
 10 13  1  0  0  0  0
 13 14  1  0  0  0  0
 13 15  1  0  0  0  0
 13 16  1  0  0  0  0
 16 17  1  0  0  0  0
 16 18  1  0  0  0  0
 16 19  1  0  0  0  0
 19 20  1  0  0  0  0
 19 21  1  0  0  0  0
 19 22  1  0  0  0  0
 22 23  1  0  0  0  0
 22 24  1  0  0  0  0
 22 25  1  0  0  0  0
M  END
> <VM2 Rank>
13

> <Conf_Id>
196

> <Probability>
1.32

> <Sum Probability>
70.08

> <Delta G>
1.702

> <G>
-6.260

> <E>
-30.875

> <-TS>
24.615

> <U+W>
-51.443

> <U>
7.701

> <W>
-59.144

> <W(PB)>
-61.609

> <W(SA)>
2.466

> <Valence>
8.550

> <Coulomb>
-1.988

> <VdW>
1.139

> <VdW6>
-8.989

> <VdW12>
10.127

> <Bond>
0.191

> <Angle>
2.738

> <Pdih>
5.621

> <Idih>
0.001

> <Tether>
0.000

$$$$
VeraChem MOL file


 25 24  0  0  0  0  0  0  0  0999 V2000     
   20.5515   19.2703   27.3961 C   0  0  0  0  0  0  0  0  0  0  0  0
   21.5344   19.9703   27.5395 O   0  5  0  0  0  0  0  0  0  0  0  0
   19.8335   18.9222   28.3127 O   0  0  0  0  0  0  0  0  0  0  0  0
   20.1852   18.8233   25.9854 C   0  0  0  0  0  0  0  0  0  0  0  0
   19.7043   17.8403   26.0542 H   0  0  0  0  0  0  0  0  0  0  0  0
   21.1178   18.6913   25.4253 H   0  0  0  0  0  0  0  0  0  0  0  0
   19.2502   19.8273   25.2622 C   0  0  0  0  0  0  0  0  0  0  0  0
   18.3695   20.0072   25.8942 H   0  0  0  0  0  0  0  0  0  0  0  0
   19.7606   20.7948   25.1590 H   0  0  0  0  0  0  0  0  0  0  0  0
   18.7728   19.3374   23.8744 C   0  0  0  0  0  0  0  0  0  0  0  0
   18.0321   20.0512   23.4886 H   0  0  0  0  0  0  0  0  0  0  0  0
   18.2514   18.3765   23.9831 H   0  0  0  0  0  0  0  0  0  0  0  0
   19.9178   19.1960   22.8449 C   0  0  0  0  0  0  0  0  0  0  0  0
   20.4695   20.1433   22.7881 H   0  0  0  0  0  0  0  0  0  0  0  0
   20.6281   18.4283   23.1774 H   0  0  0  0  0  0  0  0  0  0  0  0
   19.3808   18.8155   21.4456 C   0  0  0  0  0  0  0  0  0  0  0  0
   18.7136   19.6067   21.0771 H   0  0  0  0  0  0  0  0  0  0  0  0
   18.7684   17.9077   21.5330 H   0  0  0  0  0  0  0  0  0  0  0  0
   20.4977   18.5565   20.4078 C   0  0  0  0  0  0  0  0  0  0  0  0
   21.1620   17.7592   20.7687 H   0  0  0  0  0  0  0  0  0  0  0  0
   20.0389   18.1826   19.4821 H   0  0  0  0  0  0  0  0  0  0  0  0
   21.3290   19.8152   20.0774 C   0  0  0  0  0  0  0  0  0  0  0  0
   21.8992   20.1590   20.9494 H   0  0  0  0  0  0  0  0  0  0  0  0
   22.0467   19.6014   19.2748 H   0  0  0  0  0  0  0  0  0  0  0  0
   20.6822   20.6365   19.7425 H   0  0  0  0  0  0  0  0  0  0  0  0
  1  2  1  0  0  0  0
  1  3  2  0  0  0  0
  1  4  1  0  0  0  0
  4  5  1  0  0  0  0
  4  6  1  0  0  0  0
  4  7  1  0  0  0  0
  7  8  1  0  0  0  0
  7  9  1  0  0  0  0
  7 10  1  0  0  0  0
 10 11  1  0  0  0  0
 10 12  1  0  0  0  0
 10 13  1  0  0  0  0
 13 14  1  0  0  0  0
 13 15  1  0  0  0  0
 13 16  1  0  0  0  0
 16 17  1  0  0  0  0
 16 18  1  0  0  0  0
 16 19  1  0  0  0  0
 19 20  1  0  0  0  0
 19 21  1  0  0  0  0
 19 22  1  0  0  0  0
 22 23  1  0  0  0  0
 22 24  1  0  0  0  0
 22 25  1  0  0  0  0
M  END
> <VM2 Rank>
14

> <Conf_Id>
828

> <Probability>
1.27

> <Sum Probability>
71.35

> <Delta G>
1.727

> <G>
-6.236

> <E>
-30.855

> <-TS>
24.619

> <U+W>
-51.422

> <U>
7.651

> <W>
-59.073

> <W(PB)>
-61.559

> <W(SA)>
2.486

> <Valence>
8.550

> <Coulomb>
-2.035

> <VdW>
1.135

> <VdW6>
-8.973

> <VdW12>
10.109

> <Bond>
0.188

> <Angle>
2.738

> <Pdih>
5.623

> <Idih>
0.001

> <Tether>
0.000

$$$$
VeraChem MOL file


 25 24  0  0  0  0  0  0  0  0999 V2000     
   20.5592   19.0820   27.3493 C   0  0  0  0  0  0  0  0  0  0  0  0
   21.5718   19.7176   27.5668 O   0  5  0  0  0  0  0  0  0  0  0  0
   19.8311   18.6558   28.2239 O   0  0  0  0  0  0  0  0  0  0  0  0
   20.1679   18.8251   25.8985 C   0  0  0  0  0  0  0  0  0  0  0  0
   19.6454   17.8622   25.8526 H   0  0  0  0  0  0  0  0  0  0  0  0
   21.0915   18.7225   25.3178 H   0  0  0  0  0  0  0  0  0  0  0  0
   19.2738   19.9478   25.3109 C   0  0  0  0  0  0  0  0  0  0  0  0
   18.4054   20.0878   25.9695 H   0  0  0  0  0  0  0  0  0  0  0  0
   19.8254   20.8981   25.3191 H   0  0  0  0  0  0  0  0  0  0  0  0
   18.7672   19.6496   23.8796 C   0  0  0  0  0  0  0  0  0  0  0  0
   18.0534   20.4339   23.5928 H   0  0  0  0  0  0  0  0  0  0  0  0
   18.2079   18.7040   23.8767 H   0  0  0  0  0  0  0  0  0  0  0  0
   19.8984   19.5886   22.8270 C   0  0  0  0  0  0  0  0  0  0  0  0
   20.4867   20.5154   22.8664 H   0  0  0  0  0  0  0  0  0  0  0  0
   20.5797   18.7636   23.0673 H   0  0  0  0  0  0  0  0  0  0  0  0
   19.3375   19.3938   21.3992 C   0  0  0  0  0  0  0  0  0  0  0  0
   18.6080   20.1880   21.1897 H   0  0  0  0  0  0  0  0  0  0  0  0
   18.7878   18.4442   21.3441 H   0  0  0  0  0  0  0  0  0  0  0  0
   20.4259   19.4259   20.3009 C   0  0  0  0  0  0  0  0  0  0  0  0
   19.9353   19.4008   19.3181 H   0  0  0  0  0  0  0  0  0  0  0  0
   20.9742   20.3768   20.3496 H   0  0  0  0  0  0  0  0  0  0  0  0
   21.4202   18.2477   20.3899 C   0  0  0  0  0  0  0  0  0  0  0  0
   20.8918   17.2856   20.3750 H   0  0  0  0  0  0  0  0  0  0  0  0
   22.1136   18.2657   19.5392 H   0  0  0  0  0  0  0  0  0  0  0  0
   22.0196   18.2976   21.3074 H   0  0  0  0  0  0  0  0  0  0  0  0
  1  2  1  0  0  0  0
  1  3  2  0  0  0  0
  1  4  1  0  0  0  0
  4  5  1  0  0  0  0
  4  6  1  0  0  0  0
  4  7  1  0  0  0  0
  7  8  1  0  0  0  0
  7  9  1  0  0  0  0
  7 10  1  0  0  0  0
 10 11  1  0  0  0  0
 10 12  1  0  0  0  0
 10 13  1  0  0  0  0
 13 14  1  0  0  0  0
 13 15  1  0  0  0  0
 13 16  1  0  0  0  0
 16 17  1  0  0  0  0
 16 18  1  0  0  0  0
 16 19  1  0  0  0  0
 19 20  1  0  0  0  0
 19 21  1  0  0  0  0
 19 22  1  0  0  0  0
 22 23  1  0  0  0  0
 22 24  1  0  0  0  0
 22 25  1  0  0  0  0
M  END
> <VM2 Rank>
15

> <Conf_Id>
885

> <Probability>
1.25

> <Sum Probability>
72.60

> <Delta G>
1.733

> <G>
-6.229

> <E>
-30.844

> <-TS>
24.616

> <U+W>
-51.412

> <U>
7.701

> <W>
-59.113

> <W(PB)>
-61.599

> <W(SA)>
2.486

> <Valence>
8.550

> <Coulomb>
-1.988

> <VdW>
1.139

> <VdW6>
-8.988

> <VdW12>
10.127

> <Bond>
0.191

> <Angle>
2.738

> <Pdih>
5.621

> <Idih>
0.001

> <Tether>
0.000

$$$$
VeraChem MOL file


 25 24  0  0  0  0  0  0  0  0999 V2000     
   20.1385   19.0331   27.4846 C   0  0  0  0  0  0  0  0  0  0  0  0
   21.2267   19.2310   27.9878 O   0  5  0  0  0  0  0  0  0  0  0  0
   19.1032   18.9798   28.1188 O   0  0  0  0  0  0  0  0  0  0  0  0
   20.0648   18.8654   25.9712 C   0  0  0  0  0  0  0  0  0  0  0  0
   19.2366   18.1835   25.7444 H   0  0  0  0  0  0  0  0  0  0  0  0
   20.9888   18.3752   25.6446 H   0  0  0  0  0  0  0  0  0  0  0  0
   19.8682   20.2119   25.2274 C   0  0  0  0  0  0  0  0  0  0  0  0
   18.9843   20.7178   25.6402 H   0  0  0  0  0  0  0  0  0  0  0  0
   20.7244   20.8705   25.4285 H   0  0  0  0  0  0  0  0  0  0  0  0
   19.6796   20.0502   23.7003 C   0  0  0  0  0  0  0  0  0  0  0  0
   19.4424   21.0333   23.2714 H   0  0  0  0  0  0  0  0  0  0  0  0
   18.8092   19.4084   23.5112 H   0  0  0  0  0  0  0  0  0  0  0  0
   20.9282   19.4762   22.9870 C   0  0  0  0  0  0  0  0  0  0  0  0
   21.8107   20.0567   23.2886 H   0  0  0  0  0  0  0  0  0  0  0  0
   21.1073   18.4433   23.3127 H   0  0  0  0  0  0  0  0  0  0  0  0
   20.8226   19.5097   21.4437 C   0  0  0  0  0  0  0  0  0  0  0  0
   21.7871   19.1958   21.0217 H   0  0  0  0  0  0  0  0  0  0  0  0
   20.6586   20.5428   21.1081 H   0  0  0  0  0  0  0  0  0  0  0  0
   19.7084   18.5969   20.8836 C   0  0  0  0  0  0  0  0  0  0  0  0
   19.8435   17.5736   21.2603 H   0  0  0  0  0  0  0  0  0  0  0  0
   18.7264   18.9405   21.2343 H   0  0  0  0  0  0  0  0  0  0  0  0
   19.7128   18.5798   19.3416 C   0  0  0  0  0  0  0  0  0  0  0  0
   20.6693   18.2041   18.9552 H   0  0  0  0  0  0  0  0  0  0  0  0
   18.9146   17.9302   18.9598 H   0  0  0  0  0  0  0  0  0  0  0  0
   19.5519   19.5879   18.9376 H   0  0  0  0  0  0  0  0  0  0  0  0
  1  2  1  0  0  0  0
  1  3  2  0  0  0  0
  1  4  1  0  0  0  0
  4  5  1  0  0  0  0
  4  6  1  0  0  0  0
  4  7  1  0  0  0  0
  7  8  1  0  0  0  0
  7  9  1  0  0  0  0
  7 10  1  0  0  0  0
 10 11  1  0  0  0  0
 10 12  1  0  0  0  0
 10 13  1  0  0  0  0
 13 14  1  0  0  0  0
 13 15  1  0  0  0  0
 13 16  1  0  0  0  0
 16 17  1  0  0  0  0
 16 18  1  0  0  0  0
 16 19  1  0  0  0  0
 19 20  1  0  0  0  0
 19 21  1  0  0  0  0
 19 22  1  0  0  0  0
 22 23  1  0  0  0  0
 22 24  1  0  0  0  0
 22 25  1  0  0  0  0
M  END
> <VM2 Rank>
16

> <Conf_Id>
845

> <Probability>
1.23

> <Sum Probability>
73.83

> <Delta G>
1.746

> <G>
-6.216

> <E>
-30.853

> <-TS>
24.636

> <U+W>
-51.420

> <U>
7.389

> <W>
-58.809

> <W(PB)>
-61.285

> <W(SA)>
2.476

> <Valence>
8.557

> <Coulomb>
-2.278

> <VdW>
1.110

> <VdW6>
-9.029

> <VdW12>
10.139

> <Bond>
0.192

> <Angle>
2.716

> <Pdih>
5.648

> <Idih>
0.001

> <Tether>
0.000

$$$$
VeraChem MOL file


 25 24  0  0  0  0  0  0  0  0999 V2000     
   20.2131   19.0380   27.4838 C   0  0  0  0  0  0  0  0  0  0  0  0
   21.2610   19.1169   28.0940 O   0  5  0  0  0  0  0  0  0  0  0  0
   19.1204   19.0978   28.0122 O   0  0  0  0  0  0  0  0  0  0  0  0
   20.2727   18.8786   25.9689 C   0  0  0  0  0  0  0  0  0  0  0  0
   19.4109   18.2746   25.6630 H   0  0  0  0  0  0  0  0  0  0  0  0
   21.1752   18.3068   25.7222 H   0  0  0  0  0  0  0  0  0  0  0  0
   20.2798   20.2379   25.2226 C   0  0  0  0  0  0  0  0  0  0  0  0
   19.3518   20.7830   25.4442 H   0  0  0  0  0  0  0  0  0  0  0  0
   21.1016   20.8524   25.6156 H   0  0  0  0  0  0  0  0  0  0  0  0
   20.4522   20.0990   23.6913 C   0  0  0  0  0  0  0  0  0  0  0  0
   21.3924   19.5726   23.4814 H   0  0  0  0  0  0  0  0  0  0  0  0
   20.5526   21.1035   23.2584 H   0  0  0  0  0  0  0  0  0  0  0  0
   19.2705   19.3699   23.0062 C   0  0  0  0  0  0  0  0  0  0  0  0
   19.2319   18.3230   23.3344 H   0  0  0  0  0  0  0  0  0  0  0  0
   18.3286   19.8337   23.3292 H   0  0  0  0  0  0  0  0  0  0  0  0
   19.3351   19.4145   21.4610 C   0  0  0  0  0  0  0  0  0  0  0  0
   19.3582   20.4597   21.1234 H   0  0  0  0  0  0  0  0  0  0  0  0
   18.4089   18.9797   21.0609 H   0  0  0  0  0  0  0  0  0  0  0  0
   20.5432   18.6505   20.8737 C   0  0  0  0  0  0  0  0  0  0  0  0
   21.4813   19.1171   21.2020 H   0  0  0  0  0  0  0  0  0  0  0  0
   20.5486   17.6189   21.2517 H   0  0  0  0  0  0  0  0  0  0  0  0
   20.5052   18.6310   19.3322 C   0  0  0  0  0  0  0  0  0  0  0  0
   20.5268   19.6508   18.9262 H   0  0  0  0  0  0  0  0  0  0  0  0
   21.3707   18.0879   18.9308 H   0  0  0  0  0  0  0  0  0  0  0  0
   19.5958   18.1357   18.9674 H   0  0  0  0  0  0  0  0  0  0  0  0
  1  2  1  0  0  0  0
  1  3  2  0  0  0  0
  1  4  1  0  0  0  0
  4  5  1  0  0  0  0
  4  6  1  0  0  0  0
  4  7  1  0  0  0  0
  7  8  1  0  0  0  0
  7  9  1  0  0  0  0
  7 10  1  0  0  0  0
 10 11  1  0  0  0  0
 10 12  1  0  0  0  0
 10 13  1  0  0  0  0
 13 14  1  0  0  0  0
 13 15  1  0  0  0  0
 13 16  1  0  0  0  0
 16 17  1  0  0  0  0
 16 18  1  0  0  0  0
 16 19  1  0  0  0  0
 19 20  1  0  0  0  0
 19 21  1  0  0  0  0
 19 22  1  0  0  0  0
 22 23  1  0  0  0  0
 22 24  1  0  0  0  0
 22 25  1  0  0  0  0
M  END
> <VM2 Rank>
17

> <Conf_Id>
823

> <Probability>
1.21

> <Sum Probability>
75.04

> <Delta G>
1.755

> <G>
-6.207

> <E>
-30.844

> <-TS>
24.637

> <U+W>
-51.411

> <U>
7.389

> <W>
-58.801

> <W(PB)>
-61.267

> <W(SA)>
2.466

> <Valence>
8.557

> <Coulomb>
-2.278

> <VdW>
1.110

> <VdW6>
-9.029

> <VdW12>
10.139

> <Bond>
0.192

> <Angle>
2.716

> <Pdih>
5.648

> <Idih>
0.001

> <Tether>
0.000

$$$$
VeraChem MOL file


 25 24  0  0  0  0  0  0  0  0999 V2000     
   20.1300   19.3383   27.8293 C   0  0  0  0  0  0  0  0  0  0  0  0
   21.0194   20.1667   27.8666 O   0  5  0  0  0  0  0  0  0  0  0  0
   19.6101   18.8772   28.8259 O   0  0  0  0  0  0  0  0  0  0  0  0
   19.6204   18.8328   26.4787 C   0  0  0  0  0  0  0  0  0  0  0  0
   18.5433   19.0335   26.4398 H   0  0  0  0  0  0  0  0  0  0  0  0
   19.7445   17.7435   26.4694 H   0  0  0  0  0  0  0  0  0  0  0  0
   20.3144   19.4505   25.2356 C   0  0  0  0  0  0  0  0  0  0  0  0
   20.1917   20.5424   25.2547 H   0  0  0  0  0  0  0  0  0  0  0  0
   21.3940   19.2512   25.2842 H   0  0  0  0  0  0  0  0  0  0  0  0
   19.7407   18.8862   23.9177 C   0  0  0  0  0  0  0  0  0  0  0  0
   18.6614   19.0866   23.8713 H   0  0  0  0  0  0  0  0  0  0  0  0
   19.8644   17.7946   23.9009 H   0  0  0  0  0  0  0  0  0  0  0  0
   20.4325   19.5021   22.6825 C   0  0  0  0  0  0  0  0  0  0  0  0
   20.3089   20.5937   22.6991 H   0  0  0  0  0  0  0  0  0  0  0  0
   21.5118   19.3018   22.7286 H   0  0  0  0  0  0  0  0  0  0  0  0
   19.8593   18.9382   21.3644 C   0  0  0  0  0  0  0  0  0  0  0  0
   18.7800   19.1385   21.3181 H   0  0  0  0  0  0  0  0  0  0  0  0
   19.9829   17.8466   21.3476 H   0  0  0  0  0  0  0  0  0  0  0  0
   20.5507   19.5538   20.1298 C   0  0  0  0  0  0  0  0  0  0  0  0
   20.4275   20.6457   20.1421 H   0  0  0  0  0  0  0  0  0  0  0  0
   21.6304   19.3539   20.1716 H   0  0  0  0  0  0  0  0  0  0  0  0
   19.9755   18.9883   18.8156 C   0  0  0  0  0  0  0  0  0  0  0  0
   18.9018   19.2019   18.7326 H   0  0  0  0  0  0  0  0  0  0  0  0
   20.4782   19.4365   17.9487 H   0  0  0  0  0  0  0  0  0  0  0  0
   20.1138   17.9004   18.7624 H   0  0  0  0  0  0  0  0  0  0  0  0
  1  2  1  0  0  0  0
  1  3  2  0  0  0  0
  1  4  1  0  0  0  0
  4  5  1  0  0  0  0
  4  6  1  0  0  0  0
  4  7  1  0  0  0  0
  7  8  1  0  0  0  0
  7  9  1  0  0  0  0
  7 10  1  0  0  0  0
 10 11  1  0  0  0  0
 10 12  1  0  0  0  0
 10 13  1  0  0  0  0
 13 14  1  0  0  0  0
 13 15  1  0  0  0  0
 13 16  1  0  0  0  0
 16 17  1  0  0  0  0
 16 18  1  0  0  0  0
 16 19  1  0  0  0  0
 19 20  1  0  0  0  0
 19 21  1  0  0  0  0
 19 22  1  0  0  0  0
 22 23  1  0  0  0  0
 22 24  1  0  0  0  0
 22 25  1  0  0  0  0
M  END
> <VM2 Rank>
18

> <Conf_Id>
0

> <Probability>
1.09

> <Sum Probability>
76.13

> <Delta G>
1.818

> <G>
-6.144

> <E>
-31.062

> <-TS>
24.917

> <U+W>
-51.629

> <U>
6.586

> <W>
-58.216

> <W(PB)>
-60.757

> <W(SA)>
2.541

> <Valence>
8.027

> <Coulomb>
-2.892

> <VdW>
1.451

> <VdW6>
-7.931

> <VdW12>
9.383

> <Bond>
0.149

> <Angle>
2.726

> <Pdih>
5.152

> <Idih>
0.000

> <Tether>
0.000

$$$$
VeraChem MOL file


 25 24  0  0  0  0  0  0  0  0999 V2000     
   20.1522   19.6508   27.4260 C   0  0  0  0  0  0  0  0  0  0  0  0
   21.1978   20.2014   27.7092 O   0  5  0  0  0  0  0  0  0  0  0  0
   19.0774   19.9621   27.8999 O   0  0  0  0  0  0  0  0  0  0  0  0
   20.1880   18.5199   26.4043 C   0  0  0  0  0  0  0  0  0  0  0  0
   19.4011   17.8016   26.6639 H   0  0  0  0  0  0  0  0  0  0  0  0
   21.1482   17.9999   26.5051 H   0  0  0  0  0  0  0  0  0  0  0  0
   20.0002   19.0176   24.9499 C   0  0  0  0  0  0  0  0  0  0  0  0
   19.0392   19.5439   24.8677 H   0  0  0  0  0  0  0  0  0  0  0  0
   20.7864   19.7490   24.7206 H   0  0  0  0  0  0  0  0  0  0  0  0
   20.0450   17.8522   23.9345 C   0  0  0  0  0  0  0  0  0  0  0  0
   19.3018   17.0967   24.2241 H   0  0  0  0  0  0  0  0  0  0  0  0
   21.0250   17.3578   23.9807 H   0  0  0  0  0  0  0  0  0  0  0  0
   19.7551   18.2929   22.4800 C   0  0  0  0  0  0  0  0  0  0  0  0
   19.6946   17.3956   21.8493 H   0  0  0  0  0  0  0  0  0  0  0  0
   18.7678   18.7712   22.4381 H   0  0  0  0  0  0  0  0  0  0  0  0
   20.8304   19.2445   21.9005 C   0  0  0  0  0  0  0  0  0  0  0  0
   21.8236   18.8043   22.0633 H   0  0  0  0  0  0  0  0  0  0  0  0
   20.8190   20.1997   22.4413 H   0  0  0  0  0  0  0  0  0  0  0  0
   20.6545   19.5169   20.3884 C   0  0  0  0  0  0  0  0  0  0  0  0
   21.5103   20.1081   20.0345 H   0  0  0  0  0  0  0  0  0  0  0  0
   20.6826   18.5684   19.8345 H   0  0  0  0  0  0  0  0  0  0  0  0
   19.3522   20.2758   20.0532 C   0  0  0  0  0  0  0  0  0  0  0  0
   19.2896   21.2161   20.6162 H   0  0  0  0  0  0  0  0  0  0  0  0
   19.3138   20.5189   18.9835 H   0  0  0  0  0  0  0  0  0  0  0  0
   18.4660   19.6735   20.2892 H   0  0  0  0  0  0  0  0  0  0  0  0
  1  2  1  0  0  0  0
  1  3  2  0  0  0  0
  1  4  1  0  0  0  0
  4  5  1  0  0  0  0
  4  6  1  0  0  0  0
  4  7  1  0  0  0  0
  7  8  1  0  0  0  0
  7  9  1  0  0  0  0
  7 10  1  0  0  0  0
 10 11  1  0  0  0  0
 10 12  1  0  0  0  0
 10 13  1  0  0  0  0
 13 14  1  0  0  0  0
 13 15  1  0  0  0  0
 13 16  1  0  0  0  0
 16 17  1  0  0  0  0
 16 18  1  0  0  0  0
 16 19  1  0  0  0  0
 19 20  1  0  0  0  0
 19 21  1  0  0  0  0
 19 22  1  0  0  0  0
 22 23  1  0  0  0  0
 22 24  1  0  0  0  0
 22 25  1  0  0  0  0
M  END
> <VM2 Rank>
19

> <Conf_Id>
1290

> <Probability>
1.09

> <Sum Probability>
77.22

> <Delta G>
1.819

> <G>
-6.143

> <E>
-30.785

> <-TS>
24.642

> <U+W>
-51.352

> <U>
7.838

> <W>
-59.191

> <W(PB)>
-61.683

> <W(SA)>
2.492

> <Valence>
8.536

> <Coulomb>
-1.810

> <VdW>
1.112

> <VdW6>
-8.987

> <VdW12>
10.100

> <Bond>
0.183

> <Angle>
2.700

> <Pdih>
5.652

> <Idih>
0.001

> <Tether>
0.000

$$$$
VeraChem MOL file


 25 24  0  0  0  0  0  0  0  0999 V2000     
   20.1520   19.4755   27.5760 C   0  0  0  0  0  0  0  0  0  0  0  0
   21.2358   19.8744   27.9541 O   0  5  0  0  0  0  0  0  0  0  0  0
   19.3548   18.9080   28.2966 O   0  0  0  0  0  0  0  0  0  0  0  0
   19.7818   19.6766   26.1109 C   0  0  0  0  0  0  0  0  0  0  0  0
   20.2379   20.6158   25.7789 H   0  0  0  0  0  0  0  0  0  0  0  0
   18.6943   19.8026   26.0494 H   0  0  0  0  0  0  0  0  0  0  0  0
   20.2357   18.4977   25.2110 C   0  0  0  0  0  0  0  0  0  0  0  0
   21.3307   18.4119   25.2419 H   0  0  0  0  0  0  0  0  0  0  0  0
   19.8400   17.5628   25.6315 H   0  0  0  0  0  0  0  0  0  0  0  0
   19.7615   18.6184   23.7429 C   0  0  0  0  0  0  0  0  0  0  0  0
   18.6674   18.7130   23.7163 H   0  0  0  0  0  0  0  0  0  0  0  0
   20.0054   17.6794   23.2301 H   0  0  0  0  0  0  0  0  0  0  0  0
   20.4074   19.8034   22.9833 C   0  0  0  0  0  0  0  0  0  0  0  0
   20.1647   20.7421   23.4971 H   0  0  0  0  0  0  0  0  0  0  0  0
   21.5015   19.7083   23.0086 H   0  0  0  0  0  0  0  0  0  0  0  0
   19.9323   19.9275   21.5157 C   0  0  0  0  0  0  0  0  0  0  0  0
   20.3217   20.8686   21.1038 H   0  0  0  0  0  0  0  0  0  0  0  0
   18.8369   20.0071   21.4888 H   0  0  0  0  0  0  0  0  0  0  0  0
   20.3932   18.7597   20.6140 C   0  0  0  0  0  0  0  0  0  0  0  0
   21.4835   18.6444   20.6853 H   0  0  0  0  0  0  0  0  0  0  0  0
   19.9478   17.8168   20.9569 H   0  0  0  0  0  0  0  0  0  0  0  0
   19.9984   18.9928   19.1416 C   0  0  0  0  0  0  0  0  0  0  0  0
   20.4592   19.9096   18.7511 H   0  0  0  0  0  0  0  0  0  0  0  0
   20.3291   18.1543   18.5151 H   0  0  0  0  0  0  0  0  0  0  0  0
   18.9093   19.0850   19.0372 H   0  0  0  0  0  0  0  0  0  0  0  0
  1  2  1  0  0  0  0
  1  3  2  0  0  0  0
  1  4  1  0  0  0  0
  4  5  1  0  0  0  0
  4  6  1  0  0  0  0
  4  7  1  0  0  0  0
  7  8  1  0  0  0  0
  7  9  1  0  0  0  0
  7 10  1  0  0  0  0
 10 11  1  0  0  0  0
 10 12  1  0  0  0  0
 10 13  1  0  0  0  0
 13 14  1  0  0  0  0
 13 15  1  0  0  0  0
 13 16  1  0  0  0  0
 16 17  1  0  0  0  0
 16 18  1  0  0  0  0
 16 19  1  0  0  0  0
 19 20  1  0  0  0  0
 19 21  1  0  0  0  0
 19 22  1  0  0  0  0
 22 23  1  0  0  0  0
 22 24  1  0  0  0  0
 22 25  1  0  0  0  0
M  END
> <VM2 Rank>
20

> <Conf_Id>
1039

> <Probability>
1.08

> <Sum Probability>
78.30

> <Delta G>
1.822

> <G>
-6.140

> <E>
-30.690

> <-TS>
24.549

> <U+W>
-51.257

> <U>
7.507

> <W>
-58.764

> <W(PB)>
-61.246

> <W(SA)>
2.482

> <Valence>
8.668

> <Coulomb>
-2.355

> <VdW>
1.193

> <VdW6>
-8.929

> <VdW12>
10.122

> <Bond>
0.201

> <Angle>
2.816

> <Pdih>
5.651

> <Idih>
0.001

> <Tether>
0.000

$$$$
VeraChem MOL file


 25 24  0  0  0  0  0  0  0  0999 V2000     
   20.6709   19.5019   27.0385 C   0  0  0  0  0  0  0  0  0  0  0  0
   21.5391   20.3288   26.8402 O   0  5  0  0  0  0  0  0  0  0  0  0
   20.1862   19.2838   28.1314 O   0  0  0  0  0  0  0  0  0  0  0  0
   20.1446   18.7100   25.8471 C   0  0  0  0  0  0  0  0  0  0  0  0
   19.8435   17.7177   26.2031 H   0  0  0  0  0  0  0  0  0  0  0  0
   20.9768   18.5674   25.1482 H   0  0  0  0  0  0  0  0  0  0  0  0
   18.9545   19.4094   25.1407 C   0  0  0  0  0  0  0  0  0  0  0  0
   18.1760   19.6202   25.8868 H   0  0  0  0  0  0  0  0  0  0  0  0
   19.2780   20.3860   24.7568 H   0  0  0  0  0  0  0  0  0  0  0  0
   18.3291   18.5673   24.0001 C   0  0  0  0  0  0  0  0  0  0  0  0
   17.4813   19.1225   23.5761 H   0  0  0  0  0  0  0  0  0  0  0  0
   17.9054   17.6486   24.4282 H   0  0  0  0  0  0  0  0  0  0  0  0
   19.2980   18.1803   22.8545 C   0  0  0  0  0  0  0  0  0  0  0  0
   20.0927   17.5279   23.2392 H   0  0  0  0  0  0  0  0  0  0  0  0
   18.7423   17.5809   22.1205 H   0  0  0  0  0  0  0  0  0  0  0  0
   19.9240   19.3985   22.1371 C   0  0  0  0  0  0  0  0  0  0  0  0
   20.5458   19.9671   22.8410 H   0  0  0  0  0  0  0  0  0  0  0  0
   19.1271   20.0725   21.7947 H   0  0  0  0  0  0  0  0  0  0  0  0
   20.7893   18.9691   20.9336 C   0  0  0  0  0  0  0  0  0  0  0  0
   21.5861   18.2931   21.2734 H   0  0  0  0  0  0  0  0  0  0  0  0
   20.1755   18.4050   20.2178 H   0  0  0  0  0  0  0  0  0  0  0  0
   21.4173   20.1849   20.2228 C   0  0  0  0  0  0  0  0  0  0  0  0
   22.0287   19.8616   19.3704 H   0  0  0  0  0  0  0  0  0  0  0  0
   20.6409   20.8633   19.8454 H   0  0  0  0  0  0  0  0  0  0  0  0
   22.0627   20.7500   20.9080 H   0  0  0  0  0  0  0  0  0  0  0  0
  1  2  1  0  0  0  0
  1  3  2  0  0  0  0
  1  4  1  0  0  0  0
  4  5  1  0  0  0  0
  4  6  1  0  0  0  0
  4  7  1  0  0  0  0
  7  8  1  0  0  0  0
  7  9  1  0  0  0  0
  7 10  1  0  0  0  0
 10 11  1  0  0  0  0
 10 12  1  0  0  0  0
 10 13  1  0  0  0  0
 13 14  1  0  0  0  0
 13 15  1  0  0  0  0
 13 16  1  0  0  0  0
 16 17  1  0  0  0  0
 16 18  1  0  0  0  0
 16 19  1  0  0  0  0
 19 20  1  0  0  0  0
 19 21  1  0  0  0  0
 19 22  1  0  0  0  0
 22 23  1  0  0  0  0
 22 24  1  0  0  0  0
 22 25  1  0  0  0  0
M  END
> <VM2 Rank>
21

> <Conf_Id>
1271

> <Probability>
1.05

> <Sum Probability>
79.35

> <Delta G>
1.840

> <G>
-6.123

> <E>
-30.966

> <-TS>
24.844

> <U+W>
-51.534

> <U>
8.114

> <W>
-59.648

> <W(PB)>
-62.099

> <W(SA)>
2.451

> <Valence>
8.487

> <Coulomb>
-1.260

> <VdW>
0.887

> <VdW6>
-9.447

> <VdW12>
10.334

> <Bond>
0.199

> <Angle>
2.915

> <Pdih>
5.373

> <Idih>
0.001

> <Tether>
0.000

$$$$
VeraChem MOL file


 25 24  0  0  0  0  0  0  0  0999 V2000     
   20.2731   18.9845   27.4364 C   0  0  0  0  0  0  0  0  0  0  0  0
   21.4439   18.8449   27.7305 O   0  5  0  0  0  0  0  0  0  0  0  0
   19.3735   18.3296   27.9248 O   0  0  0  0  0  0  0  0  0  0  0  0
   19.9152   20.0247   26.3809 C   0  0  0  0  0  0  0  0  0  0  0  0
   20.6313   20.8514   26.4608 H   0  0  0  0  0  0  0  0  0  0  0  0
   18.9249   20.4285   26.6232 H   0  0  0  0  0  0  0  0  0  0  0  0
   19.9219   19.4493   24.9432 C   0  0  0  0  0  0  0  0  0  0  0  0
   20.9160   19.0339   24.7317 H   0  0  0  0  0  0  0  0  0  0  0  0
   19.2073   18.6168   24.8822 H   0  0  0  0  0  0  0  0  0  0  0  0
   19.5602   20.5251   23.8931 C   0  0  0  0  0  0  0  0  0  0  0  0
   20.3039   21.3333   23.9190 H   0  0  0  0  0  0  0  0  0  0  0  0
   18.5974   20.9798   24.1639 H   0  0  0  0  0  0  0  0  0  0  0  0
   19.4513   19.9672   22.4541 C   0  0  0  0  0  0  0  0  0  0  0  0
   18.6953   19.1714   22.4320 H   0  0  0  0  0  0  0  0  0  0  0  0
   19.0828   20.7666   21.7970 H   0  0  0  0  0  0  0  0  0  0  0  0
   20.7955   19.4371   21.8974 C   0  0  0  0  0  0  0  0  0  0  0  0
   21.1177   18.5556   22.4667 H   0  0  0  0  0  0  0  0  0  0  0  0
   21.5697   20.2030   22.0412 H   0  0  0  0  0  0  0  0  0  0  0  0
   20.7345   19.0748   20.3952 C   0  0  0  0  0  0  0  0  0  0  0  0
   20.4303   19.9554   19.8128 H   0  0  0  0  0  0  0  0  0  0  0  0
   21.7454   18.8117   20.0543 H   0  0  0  0  0  0  0  0  0  0  0  0
   19.7838   17.8968   20.0904 C   0  0  0  0  0  0  0  0  0  0  0  0
   19.8390   17.6236   19.0287 H   0  0  0  0  0  0  0  0  0  0  0  0
   20.0528   17.0119   20.6817 H   0  0  0  0  0  0  0  0  0  0  0  0
   18.7412   18.1561   20.3131 H   0  0  0  0  0  0  0  0  0  0  0  0
  1  2  1  0  0  0  0
  1  3  2  0  0  0  0
  1  4  1  0  0  0  0
  4  5  1  0  0  0  0
  4  6  1  0  0  0  0
  4  7  1  0  0  0  0
  7  8  1  0  0  0  0
  7  9  1  0  0  0  0
  7 10  1  0  0  0  0
 10 11  1  0  0  0  0
 10 12  1  0  0  0  0
 10 13  1  0  0  0  0
 13 14  1  0  0  0  0
 13 15  1  0  0  0  0
 13 16  1  0  0  0  0
 16 17  1  0  0  0  0
 16 18  1  0  0  0  0
 16 19  1  0  0  0  0
 19 20  1  0  0  0  0
 19 21  1  0  0  0  0
 19 22  1  0  0  0  0
 22 23  1  0  0  0  0
 22 24  1  0  0  0  0
 22 25  1  0  0  0  0
M  END
> <VM2 Rank>
22

> <Conf_Id>
1087

> <Probability>
1.05

> <Sum Probability>
80.40

> <Delta G>
1.840

> <G>
-6.122

> <E>
-30.764

> <-TS>
24.642

> <U+W>
-51.331

> <U>
7.838

> <W>
-59.170

> <W(PB)>
-61.675

> <W(SA)>
2.505

> <Valence>
8.536

> <Coulomb>
-1.810

> <VdW>
1.112

> <VdW6>
-8.987

> <VdW12>
10.099

> <Bond>
0.183

> <Angle>
2.701

> <Pdih>
5.652

> <Idih>
0.001

> <Tether>
0.000

$$$$
VeraChem MOL file


 25 24  0  0  0  0  0  0  0  0999 V2000     
   20.0883   19.1107   27.5395 C   0  0  0  0  0  0  0  0  0  0  0  0
   21.1572   18.9460   28.0937 O   0  5  0  0  0  0  0  0  0  0  0  0
   19.0707   18.5244   27.8515 O   0  0  0  0  0  0  0  0  0  0  0  0
   20.0254   20.0915   26.3741 C   0  0  0  0  0  0  0  0  0  0  0  0
   20.7467   20.8949   26.5661 H   0  0  0  0  0  0  0  0  0  0  0  0
   19.0277   20.5464   26.3652 H   0  0  0  0  0  0  0  0  0  0  0  0
   20.3196   19.4226   25.0086 C   0  0  0  0  0  0  0  0  0  0  0  0
   21.3179   18.9645   25.0370 H   0  0  0  0  0  0  0  0  0  0  0  0
   19.5986   18.6100   24.8502 H   0  0  0  0  0  0  0  0  0  0  0  0
   20.2445   20.4384   23.8449 C   0  0  0  0  0  0  0  0  0  0  0  0
   20.9131   21.2817   24.0656 H   0  0  0  0  0  0  0  0  0  0  0  0
   19.2300   20.8551   23.7804 H   0  0  0  0  0  0  0  0  0  0  0  0
   20.6474   19.8419   22.4750 C   0  0  0  0  0  0  0  0  0  0  0  0
   20.7077   20.6650   21.7518 H   0  0  0  0  0  0  0  0  0  0  0  0
   21.6563   19.4126   22.5430 H   0  0  0  0  0  0  0  0  0  0  0  0
   19.6577   18.7712   21.9527 C   0  0  0  0  0  0  0  0  0  0  0  0
   18.6484   19.1998   21.8878 H   0  0  0  0  0  0  0  0  0  0  0  0
   19.5999   17.9448   22.6722 H   0  0  0  0  0  0  0  0  0  0  0  0
   20.0585   18.1819   20.5799 C   0  0  0  0  0  0  0  0  0  0  0  0
   21.0724   17.7624   20.6378 H   0  0  0  0  0  0  0  0  0  0  0  0
   19.3886   17.3421   20.3493 H   0  0  0  0  0  0  0  0  0  0  0  0
   19.9836   19.2055   19.4261 C   0  0  0  0  0  0  0  0  0  0  0  0
   20.7246   20.0049   19.5493 H   0  0  0  0  0  0  0  0  0  0  0  0
   20.1827   18.7147   18.4647 H   0  0  0  0  0  0  0  0  0  0  0  0
   18.9875   19.6638   19.3713 H   0  0  0  0  0  0  0  0  0  0  0  0
  1  2  1  0  0  0  0
  1  3  2  0  0  0  0
  1  4  1  0  0  0  0
  4  5  1  0  0  0  0
  4  6  1  0  0  0  0
  4  7  1  0  0  0  0
  7  8  1  0  0  0  0
  7  9  1  0  0  0  0
  7 10  1  0  0  0  0
 10 11  1  0  0  0  0
 10 12  1  0  0  0  0
 10 13  1  0  0  0  0
 13 14  1  0  0  0  0
 13 15  1  0  0  0  0
 13 16  1  0  0  0  0
 16 17  1  0  0  0  0
 16 18  1  0  0  0  0
 16 19  1  0  0  0  0
 19 20  1  0  0  0  0
 19 21  1  0  0  0  0
 19 22  1  0  0  0  0
 22 23  1  0  0  0  0
 22 24  1  0  0  0  0
 22 25  1  0  0  0  0
M  END
> <VM2 Rank>
23

> <Conf_Id>
530

> <Probability>
1.04

> <Sum Probability>
81.43

> <Delta G>
1.847

> <G>
-6.115

> <E>
-30.674

> <-TS>
24.558

> <U+W>
-51.242

> <U>
7.805

> <W>
-59.047

> <W(PB)>
-61.531

> <W(SA)>
2.484

> <Valence>
8.642

> <Coulomb>
-2.028

> <VdW>
1.191

> <VdW6>
-8.891

> <VdW12>
10.082

> <Bond>
0.190

> <Angle>
2.795

> <Pdih>
5.656

> <Idih>
0.001

> <Tether>
0.000

$$$$
VeraChem MOL file


 25 24  0  0  0  0  0  0  0  0999 V2000     
   20.2530   19.1206   27.5376 C   0  0  0  0  0  0  0  0  0  0  0  0
   21.3408   18.6616   27.8255 O   0  5  0  0  0  0  0  0  0  0  0  0
   19.2247   18.8291   28.1157 O   0  0  0  0  0  0  0  0  0  0  0  0
   20.1707   20.1002   26.3724 C   0  0  0  0  0  0  0  0  0  0  0  0
   21.1060   20.6720   26.3413 H   0  0  0  0  0  0  0  0  0  0  0  0
   19.3626   20.8112   26.5820 H   0  0  0  0  0  0  0  0  0  0  0  0
   19.9279   19.3989   25.0131 C   0  0  0  0  0  0  0  0  0  0  0  0
   20.7377   18.6789   24.8371 H   0  0  0  0  0  0  0  0  0  0  0  0
   18.9929   18.8240   25.0638 H   0  0  0  0  0  0  0  0  0  0  0  0
   19.8535   20.4148   23.8494 C   0  0  0  0  0  0  0  0  0  0  0  0
   20.8087   20.9505   23.7622 H   0  0  0  0  0  0  0  0  0  0  0  0
   19.0935   21.1718   24.0866 H   0  0  0  0  0  0  0  0  0  0  0  0
   19.4940   19.7723   22.4883 C   0  0  0  0  0  0  0  0  0  0  0  0
   18.5459   19.2250   22.5788 H   0  0  0  0  0  0  0  0  0  0  0  0
   19.3187   20.5812   21.7678 H   0  0  0  0  0  0  0  0  0  0  0  0
   20.5930   18.8275   21.9421 C   0  0  0  0  0  0  0  0  0  0  0  0
   20.7658   18.0149   22.6589 H   0  0  0  0  0  0  0  0  0  0  0  0
   21.5418   19.3740   21.8550 H   0  0  0  0  0  0  0  0  0  0  0  0
   20.2348   18.1926   20.5778 C   0  0  0  0  0  0  0  0  0  0  0  0
   20.9951   17.4388   20.3309 H   0  0  0  0  0  0  0  0  0  0  0  0
   19.2800   17.6549   20.6579 H   0  0  0  0  0  0  0  0  0  0  0  0
   20.1606   19.2164   19.4241 C   0  0  0  0  0  0  0  0  0  0  0  0
   21.0932   19.7905   19.3474 H   0  0  0  0  0  0  0  0  0  0  0  0
   19.9999   18.7040   18.4667 H   0  0  0  0  0  0  0  0  0  0  0  0
   19.3322   19.9216   19.5651 H   0  0  0  0  0  0  0  0  0  0  0  0
  1  2  1  0  0  0  0
  1  3  2  0  0  0  0
  1  4  1  0  0  0  0
  4  5  1  0  0  0  0
  4  6  1  0  0  0  0
  4  7  1  0  0  0  0
  7  8  1  0  0  0  0
  7  9  1  0  0  0  0
  7 10  1  0  0  0  0
 10 11  1  0  0  0  0
 10 12  1  0  0  0  0
 10 13  1  0  0  0  0
 13 14  1  0  0  0  0
 13 15  1  0  0  0  0
 13 16  1  0  0  0  0
 16 17  1  0  0  0  0
 16 18  1  0  0  0  0
 16 19  1  0  0  0  0
 19 20  1  0  0  0  0
 19 21  1  0  0  0  0
 19 22  1  0  0  0  0
 22 23  1  0  0  0  0
 22 24  1  0  0  0  0
 22 25  1  0  0  0  0
M  END
> <VM2 Rank>
24

> <Conf_Id>
492

> <Probability>
1.03

> <Sum Probability>
82.46

> <Delta G>
1.852

> <G>
-6.111

> <E>
-30.669

> <-TS>
24.559

> <U+W>
-51.237

> <U>
7.805

> <W>
-59.042

> <W(PB)>
-61.534

> <W(SA)>
2.491

> <Valence>
8.642

> <Coulomb>
-2.028

> <VdW>
1.191

> <VdW6>
-8.891

> <VdW12>
10.082

> <Bond>
0.190

> <Angle>
2.795

> <Pdih>
5.656

> <Idih>
0.001

> <Tether>
0.000

$$$$
VeraChem MOL file


 25 24  0  0  0  0  0  0  0  0999 V2000     
   20.2385   19.2607   27.5817 C   0  0  0  0  0  0  0  0  0  0  0  0
   21.2898   19.7405   27.9577 O   0  5  0  0  0  0  0  0  0  0  0  0
   19.2574   19.1503   28.2902 O   0  0  0  0  0  0  0  0  0  0  0  0
   20.1373   18.7928   26.1343 C   0  0  0  0  0  0  0  0  0  0  0  0
   19.4410   17.9465   26.0986 H   0  0  0  0  0  0  0  0  0  0  0  0
   21.1226   18.4168   25.8371 H   0  0  0  0  0  0  0  0  0  0  0  0
   19.6654   19.9151   25.1734 C   0  0  0  0  0  0  0  0  0  0  0  0
   18.7251   20.3338   25.5581 H   0  0  0  0  0  0  0  0  0  0  0  0
   20.3956   20.7362   25.1803 H   0  0  0  0  0  0  0  0  0  0  0  0
   19.4337   19.4330   23.7213 C   0  0  0  0  0  0  0  0  0  0  0  0
   18.9692   20.2548   23.1619 H   0  0  0  0  0  0  0  0  0  0  0  0
   18.7102   18.6063   23.7191 H   0  0  0  0  0  0  0  0  0  0  0  0
   20.7339   18.9917   23.0048 C   0  0  0  0  0  0  0  0  0  0  0  0
   21.4570   19.8186   23.0057 H   0  0  0  0  0  0  0  0  0  0  0  0
   21.1989   18.1710   23.5652 H   0  0  0  0  0  0  0  0  0  0  0  0
   20.5038   18.5067   21.5533 C   0  0  0  0  0  0  0  0  0  0  0  0
   19.7690   17.6900   21.5501 H   0  0  0  0  0  0  0  0  0  0  0  0
   21.4436   18.0794   21.1777 H   0  0  0  0  0  0  0  0  0  0  0  0
   20.0448   19.6258   20.5910 C   0  0  0  0  0  0  0  0  0  0  0  0
   19.0646   20.0125   20.8987 H   0  0  0  0  0  0  0  0  0  0  0  0
   20.7505   20.4667   20.6370 H   0  0  0  0  0  0  0  0  0  0  0  0
   19.9483   19.1176   19.1383 C   0  0  0  0  0  0  0  0  0  0  0  0
   19.2281   18.2928   19.0581 H   0  0  0  0  0  0  0  0  0  0  0  0
   19.6183   19.9221   18.4682 H   0  0  0  0  0  0  0  0  0  0  0  0
   20.9225   18.7581   18.7817 H   0  0  0  0  0  0  0  0  0  0  0  0
  1  2  1  0  0  0  0
  1  3  2  0  0  0  0
  1  4  1  0  0  0  0
  4  5  1  0  0  0  0
  4  6  1  0  0  0  0
  4  7  1  0  0  0  0
  7  8  1  0  0  0  0
  7  9  1  0  0  0  0
  7 10  1  0  0  0  0
 10 11  1  0  0  0  0
 10 12  1  0  0  0  0
 10 13  1  0  0  0  0
 13 14  1  0  0  0  0
 13 15  1  0  0  0  0
 13 16  1  0  0  0  0
 16 17  1  0  0  0  0
 16 18  1  0  0  0  0
 16 19  1  0  0  0  0
 19 20  1  0  0  0  0
 19 21  1  0  0  0  0
 19 22  1  0  0  0  0
 22 23  1  0  0  0  0
 22 24  1  0  0  0  0
 22 25  1  0  0  0  0
M  END
> <VM2 Rank>
25

> <Conf_Id>
974

> <Probability>
1.01

> <Sum Probability>
83.47

> <Delta G>
1.866

> <G>
-6.097

> <E>
-30.645

> <-TS>
24.549

> <U+W>
-51.213

> <U>
7.506

> <W>
-58.719

> <W(PB)>
-61.242

> <W(SA)>
2.522

> <Valence>
8.668

> <Coulomb>
-2.355

> <VdW>
1.194

> <VdW6>
-8.929

> <VdW12>
10.122

> <Bond>
0.201

> <Angle>
2.816

> <Pdih>
5.651

> <Idih>
0.001

> <Tether>
0.000

$$$$
VeraChem MOL file


 25 24  0  0  0  0  0  0  0  0999 V2000     
   19.7039   19.2292   27.2210 C   0  0  0  0  0  0  0  0  0  0  0  0
   20.4102   18.6342   28.0109 O   0  5  0  0  0  0  0  0  0  0  0  0
   18.4895   19.1948   27.2452 O   0  0  0  0  0  0  0  0  0  0  0  0
   20.3793   20.0489   26.1274 C   0  0  0  0  0  0  0  0  0  0  0  0
   21.3136   20.4544   26.5339 H   0  0  0  0  0  0  0  0  0  0  0  0
   19.7312   20.9013   25.8909 H   0  0  0  0  0  0  0  0  0  0  0  0
   20.6652   19.2247   24.8480 C   0  0  0  0  0  0  0  0  0  0  0  0
   21.3077   18.3703   25.1018 H   0  0  0  0  0  0  0  0  0  0  0  0
   19.7187   18.8139   24.4719 H   0  0  0  0  0  0  0  0  0  0  0  0
   21.3434   20.0807   23.7535 C   0  0  0  0  0  0  0  0  0  0  0  0
   22.2466   20.5452   24.1723 H   0  0  0  0  0  0  0  0  0  0  0  0
   20.6818   20.9084   23.4664 H   0  0  0  0  0  0  0  0  0  0  0  0
   21.7513   19.2689   22.4983 C   0  0  0  0  0  0  0  0  0  0  0  0
   22.2578   19.9418   21.7931 H   0  0  0  0  0  0  0  0  0  0  0  0
   22.4982   18.5177   22.7889 H   0  0  0  0  0  0  0  0  0  0  0  0
   20.5897   18.5549   21.7617 C   0  0  0  0  0  0  0  0  0  0  0  0
   20.1402   17.7961   22.4155 H   0  0  0  0  0  0  0  0  0  0  0  0
   21.0083   18.0080   20.9060 H   0  0  0  0  0  0  0  0  0  0  0  0
   19.4952   19.5200   21.2529 C   0  0  0  0  0  0  0  0  0  0  0  0
   19.0087   20.0184   22.1018 H   0  0  0  0  0  0  0  0  0  0  0  0
   19.9520   20.3067   20.6369 H   0  0  0  0  0  0  0  0  0  0  0  0
   18.4253   18.7776   20.4270 C   0  0  0  0  0  0  0  0  0  0  0  0
   17.9331   18.0027   21.0292 H   0  0  0  0  0  0  0  0  0  0  0  0
   17.6540   19.4757   20.0768 H   0  0  0  0  0  0  0  0  0  0  0  0
   18.8716   18.2965   19.5469 H   0  0  0  0  0  0  0  0  0  0  0  0
  1  2  1  0  0  0  0
  1  3  2  0  0  0  0
  1  4  1  0  0  0  0
  4  5  1  0  0  0  0
  4  6  1  0  0  0  0
  4  7  1  0  0  0  0
  7  8  1  0  0  0  0
  7  9  1  0  0  0  0
  7 10  1  0  0  0  0
 10 11  1  0  0  0  0
 10 12  1  0  0  0  0
 10 13  1  0  0  0  0
 13 14  1  0  0  0  0
 13 15  1  0  0  0  0
 13 16  1  0  0  0  0
 16 17  1  0  0  0  0
 16 18  1  0  0  0  0
 16 19  1  0  0  0  0
 19 20  1  0  0  0  0
 19 21  1  0  0  0  0
 19 22  1  0  0  0  0
 22 23  1  0  0  0  0
 22 24  1  0  0  0  0
 22 25  1  0  0  0  0
M  END
> <VM2 Rank>
26

> <Conf_Id>
1046

> <Probability>
1.00

> <Sum Probability>
84.46

> <Delta G>
1.871

> <G>
-6.092

> <E>
-30.923

> <-TS>
24.831

> <U+W>
-51.490

> <U>
8.128

> <W>
-59.618

> <W(PB)>
-62.092

> <W(SA)>
2.474

> <Valence>
8.508

> <Coulomb>
-1.299

> <VdW>
0.919

> <VdW6>
-9.370

> <VdW12>
10.289

> <Bond>
0.193

> <Angle>
2.932

> <Pdih>
5.383

> <Idih>
0.000

> <Tether>
0.000

$$$$
VeraChem MOL file


 25 24  0  0  0  0  0  0  0  0999 V2000     
   20.5070   19.7531   27.0318 C   0  0  0  0  0  0  0  0  0  0  0  0
   21.6181   20.2076   26.8430 O   0  5  0  0  0  0  0  0  0  0  0  0
   20.0861   19.4375   28.1272 O   0  0  0  0  0  0  0  0  0  0  0  0
   19.5990   19.5455   25.8250 C   0  0  0  0  0  0  0  0  0  0  0  0
   19.8202   20.3385   25.1016 H   0  0  0  0  0  0  0  0  0  0  0  0
   18.5612   19.6815   26.1515 H   0  0  0  0  0  0  0  0  0  0  0  0
   19.7770   18.1496   25.1737 C   0  0  0  0  0  0  0  0  0  0  0  0
   20.8101   18.0393   24.8183 H   0  0  0  0  0  0  0  0  0  0  0  0
   19.6387   17.3799   25.9456 H   0  0  0  0  0  0  0  0  0  0  0  0
   18.7821   17.8733   24.0183 C   0  0  0  0  0  0  0  0  0  0  0  0
   17.7606   17.8701   24.4224 H   0  0  0  0  0  0  0  0  0  0  0  0
   18.9592   16.8590   23.6355 H   0  0  0  0  0  0  0  0  0  0  0  0
   18.8452   18.8733   22.8364 C   0  0  0  0  0  0  0  0  0  0  0  0
   18.0908   18.5783   22.0943 H   0  0  0  0  0  0  0  0  0  0  0  0
   18.5585   19.8766   23.1776 H   0  0  0  0  0  0  0  0  0  0  0  0
   20.2292   18.9310   22.1495 C   0  0  0  0  0  0  0  0  0  0  0  0
   20.5338   17.9186   21.8513 H   0  0  0  0  0  0  0  0  0  0  0  0
   20.9828   19.2977   22.8588 H   0  0  0  0  0  0  0  0  0  0  0  0
   20.2134   19.8511   20.9106 C   0  0  0  0  0  0  0  0  0  0  0  0
   19.4675   19.4893   20.1894 H   0  0  0  0  0  0  0  0  0  0  0  0
   19.9069   20.8641   21.2062 H   0  0  0  0  0  0  0  0  0  0  0  0
   21.5959   19.9120   20.2304 C   0  0  0  0  0  0  0  0  0  0  0  0
   22.3561   20.3012   20.9203 H   0  0  0  0  0  0  0  0  0  0  0  0
   21.9137   18.9154   19.8970 H   0  0  0  0  0  0  0  0  0  0  0  0
   21.5664   20.5699   19.3522 H   0  0  0  0  0  0  0  0  0  0  0  0
  1  2  1  0  0  0  0
  1  3  2  0  0  0  0
  1  4  1  0  0  0  0
  4  5  1  0  0  0  0
  4  6  1  0  0  0  0
  4  7  1  0  0  0  0
  7  8  1  0  0  0  0
  7  9  1  0  0  0  0
  7 10  1  0  0  0  0
 10 11  1  0  0  0  0
 10 12  1  0  0  0  0
 10 13  1  0  0  0  0
 13 14  1  0  0  0  0
 13 15  1  0  0  0  0
 13 16  1  0  0  0  0
 16 17  1  0  0  0  0
 16 18  1  0  0  0  0
 16 19  1  0  0  0  0
 19 20  1  0  0  0  0
 19 21  1  0  0  0  0
 19 22  1  0  0  0  0
 22 23  1  0  0  0  0
 22 24  1  0  0  0  0
 22 25  1  0  0  0  0
M  END
> <VM2 Rank>
27

> <Conf_Id>
793

> <Probability>
0.97

> <Sum Probability>
85.43

> <Delta G>
1.888

> <G>
-6.074

> <E>
-30.918

> <-TS>
24.844

> <U+W>
-51.485

> <U>
8.115

> <W>
-59.600

> <W(PB)>
-62.072

> <W(SA)>
2.472

> <Valence>
8.487

> <Coulomb>
-1.259

> <VdW>
0.887

> <VdW6>
-9.448

> <VdW12>
10.335

> <Bond>
0.199

> <Angle>
2.915

> <Pdih>
5.372

> <Idih>
0.001

> <Tether>
0.000

$$$$
VeraChem MOL file


 25 24  0  0  0  0  0  0  0  0999 V2000     
   19.7735   19.5908   27.2108 C   0  0  0  0  0  0  0  0  0  0  0  0
   20.6581   19.9234   27.9748 O   0  5  0  0  0  0  0  0  0  0  0  0
   18.6586   20.0741   27.2203 O   0  0  0  0  0  0  0  0  0  0  0  0
   20.0855   18.5208   26.1707 C   0  0  0  0  0  0  0  0  0  0  0  0
   19.1652   17.9578   25.9743 H   0  0  0  0  0  0  0  0  0  0  0  0
   20.8072   17.8208   26.6085 H   0  0  0  0  0  0  0  0  0  0  0  0
   20.6430   19.1093   24.8513 C   0  0  0  0  0  0  0  0  0  0  0  0
   19.9122   19.8203   24.4434 H   0  0  0  0  0  0  0  0  0  0  0  0
   21.5589   19.6773   25.0649 H   0  0  0  0  0  0  0  0  0  0  0  0
   20.9443   18.0045   23.8124 C   0  0  0  0  0  0  0  0  0  0  0  0
   20.0202   17.4664   23.5640 H   0  0  0  0  0  0  0  0  0  0  0  0
   21.6154   17.2621   24.2654 H   0  0  0  0  0  0  0  0  0  0  0  0
   21.6107   18.5376   22.5191 C   0  0  0  0  0  0  0  0  0  0  0  0
   22.5857   18.9735   22.7761 H   0  0  0  0  0  0  0  0  0  0  0  0
   21.8246   17.6875   21.8571 H   0  0  0  0  0  0  0  0  0  0  0  0
   20.7884   19.5896   21.7323 C   0  0  0  0  0  0  0  0  0  0  0  0
   21.3709   19.8949   20.8525 H   0  0  0  0  0  0  0  0  0  0  0  0
   20.6587   20.4954   22.3389 H   0  0  0  0  0  0  0  0  0  0  0  0
   19.4092   19.0722   21.2654 C   0  0  0  0  0  0  0  0  0  0  0  0
   19.5357   18.1398   20.6982 H   0  0  0  0  0  0  0  0  0  0  0  0
   18.7815   18.8366   22.1351 H   0  0  0  0  0  0  0  0  0  0  0  0
   18.6818   20.1115   20.3888 C   0  0  0  0  0  0  0  0  0  0  0  0
   19.2654   20.3443   19.4886 H   0  0  0  0  0  0  0  0  0  0  0  0
   17.7032   19.7307   20.0691 H   0  0  0  0  0  0  0  0  0  0  0  0
   18.5178   21.0454   20.9424 H   0  0  0  0  0  0  0  0  0  0  0  0
  1  2  1  0  0  0  0
  1  3  2  0  0  0  0
  1  4  1  0  0  0  0
  4  5  1  0  0  0  0
  4  6  1  0  0  0  0
  4  7  1  0  0  0  0
  7  8  1  0  0  0  0
  7  9  1  0  0  0  0
  7 10  1  0  0  0  0
 10 11  1  0  0  0  0
 10 12  1  0  0  0  0
 10 13  1  0  0  0  0
 13 14  1  0  0  0  0
 13 15  1  0  0  0  0
 13 16  1  0  0  0  0
 16 17  1  0  0  0  0
 16 18  1  0  0  0  0
 16 19  1  0  0  0  0
 19 20  1  0  0  0  0
 19 21  1  0  0  0  0
 19 22  1  0  0  0  0
 22 23  1  0  0  0  0
 22 24  1  0  0  0  0
 22 25  1  0  0  0  0
M  END
> <VM2 Rank>
28

> <Conf_Id>
402

> <Probability>
0.93

> <Sum Probability>
86.36

> <Delta G>
1.910

> <G>
-6.052

> <E>
-30.883

> <-TS>
24.830

> <U+W>
-51.450

> <U>
8.128

> <W>
-59.578

> <W(PB)>
-62.032

> <W(SA)>
2.454

> <Valence>
8.508

> <Coulomb>
-1.300

> <VdW>
0.920

> <VdW6>
-9.369

> <VdW12>
10.289

> <Bond>
0.192

> <Angle>
2.932

> <Pdih>
5.383

> <Idih>
0.001

> <Tether>
0.000

$$$$
VeraChem MOL file


 25 24  0  0  0  0  0  0  0  0999 V2000     
   20.4111   19.2567   27.5224 C   0  0  0  0  0  0  0  0  0  0  0  0
   21.5114   19.6716   27.8288 O   0  5  0  0  0  0  0  0  0  0  0  0
   19.4336   19.3483   28.2385 O   0  0  0  0  0  0  0  0  0  0  0  0
   20.2430   18.6042   26.1549 C   0  0  0  0  0  0  0  0  0  0  0  0
   19.4701   17.8308   26.2391 H   0  0  0  0  0  0  0  0  0  0  0  0
   21.1821   18.0980   25.9013 H   0  0  0  0  0  0  0  0  0  0  0  0
   19.8661   19.6182   25.0469 C   0  0  0  0  0  0  0  0  0  0  0  0
   18.9312   20.1257   25.3223 H   0  0  0  0  0  0  0  0  0  0  0  0
   20.6431   20.3927   24.9839 H   0  0  0  0  0  0  0  0  0  0  0  0
   19.7023   18.9335   23.6726 C   0  0  0  0  0  0  0  0  0  0  0  0
   18.9233   18.1617   23.7367 H   0  0  0  0  0  0  0  0  0  0  0  0
   20.6392   18.4245   23.4110 H   0  0  0  0  0  0  0  0  0  0  0  0
   19.3324   19.9504   22.5685 C   0  0  0  0  0  0  0  0  0  0  0  0
   18.4366   20.5047   22.8798 H   0  0  0  0  0  0  0  0  0  0  0  0
   20.1317   20.6964   22.4681 H   0  0  0  0  0  0  0  0  0  0  0  0
   19.0456   19.2944   21.1942 C   0  0  0  0  0  0  0  0  0  0  0  0
   18.7417   20.0780   20.4869 H   0  0  0  0  0  0  0  0  0  0  0  0
   18.1807   18.6245   21.2938 H   0  0  0  0  0  0  0  0  0  0  0  0
   20.2243   18.4982   20.5812 C   0  0  0  0  0  0  0  0  0  0  0  0
   20.4780   17.6432   21.2215 H   0  0  0  0  0  0  0  0  0  0  0  0
   19.8971   18.0722   19.6228 H   0  0  0  0  0  0  0  0  0  0  0  0
   21.4832   19.3585   20.3380 C   0  0  0  0  0  0  0  0  0  0  0  0
   21.9135   19.7113   21.2838 H   0  0  0  0  0  0  0  0  0  0  0  0
   22.2540   18.7737   19.8197 H   0  0  0  0  0  0  0  0  0  0  0  0
   21.2477   20.2334   19.7183 H   0  0  0  0  0  0  0  0  0  0  0  0
  1  2  1  0  0  0  0
  1  3  2  0  0  0  0
  1  4  1  0  0  0  0
  4  5  1  0  0  0  0
  4  6  1  0  0  0  0
  4  7  1  0  0  0  0
  7  8  1  0  0  0  0
  7  9  1  0  0  0  0
  7 10  1  0  0  0  0
 10 11  1  0  0  0  0
 10 12  1  0  0  0  0
 10 13  1  0  0  0  0
 13 14  1  0  0  0  0
 13 15  1  0  0  0  0
 13 16  1  0  0  0  0
 16 17  1  0  0  0  0
 16 18  1  0  0  0  0
 16 19  1  0  0  0  0
 19 20  1  0  0  0  0
 19 21  1  0  0  0  0
 19 22  1  0  0  0  0
 22 23  1  0  0  0  0
 22 24  1  0  0  0  0
 22 25  1  0  0  0  0
M  END
> <VM2 Rank>
29

> <Conf_Id>
190

> <Probability>
0.88

> <Sum Probability>
87.25

> <Delta G>
1.944

> <G>
-6.018

> <E>
-30.820

> <-TS>
24.802

> <U+W>
-51.388

> <U>
7.567

> <W>
-58.954

> <W(PB)>
-61.394

> <W(SA)>
2.440

> <Valence>
8.483

> <Coulomb>
-1.912

> <VdW>
0.996

> <VdW6>
-9.207

> <VdW12>
10.202

> <Bond>
0.188

> <Angle>
2.901

> <Pdih>
5.393

> <Idih>
0.001

> <Tether>
0.000

$$$$
VeraChem MOL file


 25 24  0  0  0  0  0  0  0  0999 V2000     
   19.9152   19.2252   27.5282 C   0  0  0  0  0  0  0  0  0  0  0  0
   20.8895   19.4411   28.2215 O   0  5  0  0  0  0  0  0  0  0  0  0
   18.7785   19.4975   27.8605 O   0  0  0  0  0  0  0  0  0  0  0  0
   20.1330   18.5973   26.1562 C   0  0  0  0  0  0  0  0  0  0  0  0
   19.2599   17.9759   25.9234 H   0  0  0  0  0  0  0  0  0  0  0  0
   20.9993   17.9280   26.2214 H   0  0  0  0  0  0  0  0  0  0  0  0
   20.3530   19.6492   25.0412 C   0  0  0  0  0  0  0  0  0  0  0  0
   19.4830   20.3190   24.9974 H   0  0  0  0  0  0  0  0  0  0  0  0
   21.2223   20.2713   25.2959 H   0  0  0  0  0  0  0  0  0  0  0  0
   20.5704   18.9887   23.6626 C   0  0  0  0  0  0  0  0  0  0  0  0
   19.6997   18.3648   23.4218 H   0  0  0  0  0  0  0  0  0  0  0  0
   21.4422   18.3218   23.7076 H   0  0  0  0  0  0  0  0  0  0  0  0
   20.7832   20.0427   22.5517 C   0  0  0  0  0  0  0  0  0  0  0  0
   19.8939   20.6813   22.4709 H   0  0  0  0  0  0  0  0  0  0  0  0
   21.6086   20.7063   22.8432 H   0  0  0  0  0  0  0  0  0  0  0  0
   21.1191   19.4262   21.1703 C   0  0  0  0  0  0  0  0  0  0  0  0
   22.0639   18.8713   21.2490 H   0  0  0  0  0  0  0  0  0  0  0  0
   21.3050   20.2409   20.4573 H   0  0  0  0  0  0  0  0  0  0  0  0
   20.0369   18.4863   20.5834 C   0  0  0  0  0  0  0  0  0  0  0  0
   20.3933   18.1037   19.6171 H   0  0  0  0  0  0  0  0  0  0  0  0
   19.9084   17.6069   21.2282 H   0  0  0  0  0  0  0  0  0  0  0  0
   18.6740   19.1799   20.3705 C   0  0  0  0  0  0  0  0  0  0  0  0
   17.9717   18.5015   19.8692 H   0  0  0  0  0  0  0  0  0  0  0  0
   18.2244   19.4768   21.3264 H   0  0  0  0  0  0  0  0  0  0  0  0
   18.7825   20.0766   19.7467 H   0  0  0  0  0  0  0  0  0  0  0  0
  1  2  1  0  0  0  0
  1  3  2  0  0  0  0
  1  4  1  0  0  0  0
  4  5  1  0  0  0  0
  4  6  1  0  0  0  0
  4  7  1  0  0  0  0
  7  8  1  0  0  0  0
  7  9  1  0  0  0  0
  7 10  1  0  0  0  0
 10 11  1  0  0  0  0
 10 12  1  0  0  0  0
 10 13  1  0  0  0  0
 13 14  1  0  0  0  0
 13 15  1  0  0  0  0
 13 16  1  0  0  0  0
 16 17  1  0  0  0  0
 16 18  1  0  0  0  0
 16 19  1  0  0  0  0
 19 20  1  0  0  0  0
 19 21  1  0  0  0  0
 19 22  1  0  0  0  0
 22 23  1  0  0  0  0
 22 24  1  0  0  0  0
 22 25  1  0  0  0  0
M  END
> <VM2 Rank>
30

> <Conf_Id>
1035

> <Probability>
0.85

> <Sum Probability>
88.10

> <Delta G>
1.963

> <G>
-5.999

> <E>
-30.800

> <-TS>
24.801

> <U+W>
-51.368

> <U>
7.567

> <W>
-58.935

> <W(PB)>
-61.397

> <W(SA)>
2.463

> <Valence>
8.483

> <Coulomb>
-1.912

> <VdW>
0.996

> <VdW6>
-9.207

> <VdW12>
10.203

> <Bond>
0.188

> <Angle>
2.901

> <Pdih>
5.393

> <Idih>
0.001

> <Tether>
0.000

$$$$
VeraChem MOL file


 25 24  0  0  0  0  0  0  0  0999 V2000     
   19.9087   19.5965   27.1472 C   0  0  0  0  0  0  0  0  0  0  0  0
   20.8839   20.1973   27.5537 O   0  5  0  0  0  0  0  0  0  0  0  0
   18.7781   20.0398   27.1928 O   0  0  0  0  0  0  0  0  0  0  0  0
   20.1103   18.2001   26.5655 C   0  0  0  0  0  0  0  0  0  0  0  0
   19.3341   17.5524   26.9898 H   0  0  0  0  0  0  0  0  0  0  0  0
   21.0743   17.8111   26.9151 H   0  0  0  0  0  0  0  0  0  0  0  0
   20.0398   18.1474   25.0172 C   0  0  0  0  0  0  0  0  0  0  0  0
   20.0632   17.0979   24.6944 H   0  0  0  0  0  0  0  0  0  0  0  0
   19.0754   18.5589   24.6912 H   0  0  0  0  0  0  0  0  0  0  0  0
   21.2036   18.9147   24.3453 C   0  0  0  0  0  0  0  0  0  0  0  0
   22.1556   18.5472   24.7523 H   0  0  0  0  0  0  0  0  0  0  0  0
   21.1474   19.9808   24.6056 H   0  0  0  0  0  0  0  0  0  0  0  0
   21.2355   18.7612   22.8061 C   0  0  0  0  0  0  0  0  0  0  0  0
   22.1540   19.2311   22.4288 H   0  0  0  0  0  0  0  0  0  0  0  0
   21.3007   17.6965   22.5435 H   0  0  0  0  0  0  0  0  0  0  0  0
   20.0178   19.3993   22.0982 C   0  0  0  0  0  0  0  0  0  0  0  0
   19.9232   20.4497   22.4060 H   0  0  0  0  0  0  0  0  0  0  0  0
   19.0956   18.8903   22.4071 H   0  0  0  0  0  0  0  0  0  0  0  0
   20.1460   19.3221   20.5622 C   0  0  0  0  0  0  0  0  0  0  0  0
   21.0622   19.8363   20.2402 H   0  0  0  0  0  0  0  0  0  0  0  0
   20.2426   18.2727   20.2512 H   0  0  0  0  0  0  0  0  0  0  0  0
   18.9293   19.9555   19.8578 C   0  0  0  0  0  0  0  0  0  0  0  0
   18.8269   21.0148   20.1275 H   0  0  0  0  0  0  0  0  0  0  0  0
   19.0374   19.8923   18.7672 H   0  0  0  0  0  0  0  0  0  0  0  0
   18.0013   19.4395   20.1369 H   0  0  0  0  0  0  0  0  0  0  0  0
  1  2  1  0  0  0  0
  1  3  2  0  0  0  0
  1  4  1  0  0  0  0
  4  5  1  0  0  0  0
  4  6  1  0  0  0  0
  4  7  1  0  0  0  0
  7  8  1  0  0  0  0
  7  9  1  0  0  0  0
  7 10  1  0  0  0  0
 10 11  1  0  0  0  0
 10 12  1  0  0  0  0
 10 13  1  0  0  0  0
 13 14  1  0  0  0  0
 13 15  1  0  0  0  0
 13 16  1  0  0  0  0
 16 17  1  0  0  0  0
 16 18  1  0  0  0  0
 16 19  1  0  0  0  0
 19 20  1  0  0  0  0
 19 21  1  0  0  0  0
 19 22  1  0  0  0  0
 22 23  1  0  0  0  0
 22 24  1  0  0  0  0
 22 25  1  0  0  0  0
M  END
> <VM2 Rank>
31

> <Conf_Id>
1352

> <Probability>
0.53

> <Sum Probability>
88.63

> <Delta G>
2.245

> <G>
-5.717

> <E>
-30.531

> <-TS>
24.815

> <U+W>
-51.099

> <U>
8.902

> <W>
-60.001

> <W(PB)>
-62.478

> <W(SA)>
2.477

> <Valence>
8.306

> <Coulomb>
-0.225

> <VdW>
0.821

> <VdW6>
-9.236

> <VdW12>
10.057

> <Bond>
0.173

> <Angle>
2.663

> <Pdih>
5.469

> <Idih>
0.001

> <Tether>
0.000

$$$$
VeraChem MOL file


 25 24  0  0  0  0  0  0  0  0999 V2000     
   20.2454   18.9857   27.2707 C   0  0  0  0  0  0  0  0  0  0  0  0
   21.3800   18.7091   27.6074 O   0  5  0  0  0  0  0  0  0  0  0  0
   19.2991   18.2371   27.4162 O   0  0  0  0  0  0  0  0  0  0  0  0
   19.9946   20.3558   26.6471 C   0  0  0  0  0  0  0  0  0  0  0  0
   20.5201   21.0966   27.2611 H   0  0  0  0  0  0  0  0  0  0  0  0
   18.9243   20.5835   26.7212 H   0  0  0  0  0  0  0  0  0  0  0  0
   20.4668   20.4742   25.1747 C   0  0  0  0  0  0  0  0  0  0  0  0
   20.3760   21.5209   24.8543 H   0  0  0  0  0  0  0  0  0  0  0  0
   21.5331   20.2158   25.1126 H   0  0  0  0  0  0  0  0  0  0  0  0
   19.6539   19.5757   24.2157 C   0  0  0  0  0  0  0  0  0  0  0  0
   18.5875   19.8286   24.2918 H   0  0  0  0  0  0  0  0  0  0  0  0
   19.7542   18.5243   24.5190 H   0  0  0  0  0  0  0  0  0  0  0  0
   20.1196   19.7331   22.7520 C   0  0  0  0  0  0  0  0  0  0  0  0
   20.0147   20.7823   22.4441 H   0  0  0  0  0  0  0  0  0  0  0  0
   21.1866   19.4839   22.6858 H   0  0  0  0  0  0  0  0  0  0  0  0
   19.3080   18.8304   21.7942 C   0  0  0  0  0  0  0  0  0  0  0  0
   18.2380   19.0426   21.9241 H   0  0  0  0  0  0  0  0  0  0  0  0
   19.4515   17.7764   22.0686 H   0  0  0  0  0  0  0  0  0  0  0  0
   19.6710   19.0311   20.3044 C   0  0  0  0  0  0  0  0  0  0  0  0
   18.9736   18.4454   19.6897 H   0  0  0  0  0  0  0  0  0  0  0  0
   19.5224   20.0832   20.0247 H   0  0  0  0  0  0  0  0  0  0  0  0
   21.1147   18.6019   19.9637 C   0  0  0  0  0  0  0  0  0  0  0  0
   21.2960   17.5611   20.2621 H   0  0  0  0  0  0  0  0  0  0  0  0
   21.2934   18.6797   18.8834 H   0  0  0  0  0  0  0  0  0  0  0  0
   21.8518   19.2386   20.4686 H   0  0  0  0  0  0  0  0  0  0  0  0
  1  2  1  0  0  0  0
  1  3  2  0  0  0  0
  1  4  1  0  0  0  0
  4  5  1  0  0  0  0
  4  6  1  0  0  0  0
  4  7  1  0  0  0  0
  7  8  1  0  0  0  0
  7  9  1  0  0  0  0
  7 10  1  0  0  0  0
 10 11  1  0  0  0  0
 10 12  1  0  0  0  0
 10 13  1  0  0  0  0
 13 14  1  0  0  0  0
 13 15  1  0  0  0  0
 13 16  1  0  0  0  0
 16 17  1  0  0  0  0
 16 18  1  0  0  0  0
 16 19  1  0  0  0  0
 19 20  1  0  0  0  0
 19 21  1  0  0  0  0
 19 22  1  0  0  0  0
 22 23  1  0  0  0  0
 22 24  1  0  0  0  0
 22 25  1  0  0  0  0
M  END
> <VM2 Rank>
32

> <Conf_Id>
1107

> <Probability>
0.53

> <Sum Probability>
89.16

> <Delta G>
2.246

> <G>
-5.717

> <E>
-30.538

> <-TS>
24.822

> <U+W>
-51.106

> <U>
8.783

> <W>
-59.889

> <W(PB)>
-62.358

> <W(SA)>
2.470

> <Valence>
8.287

> <Coulomb>
-0.381

> <VdW>
0.877

> <VdW6>
-9.131

> <VdW12>
10.007

> <Bond>
0.167

> <Angle>
2.661

> <Pdih>
5.459

> <Idih>
0.000

> <Tether>
0.000

$$$$
VeraChem MOL file


 25 24  0  0  0  0  0  0  0  0999 V2000     
   20.1156   19.2902   27.4030 C   0  0  0  0  0  0  0  0  0  0  0  0
   21.2139   19.6559   27.7733 O   0  5  0  0  0  0  0  0  0  0  0  0
   19.0745   19.7507   27.8288 O   0  0  0  0  0  0  0  0  0  0  0  0
   20.0368   18.1797   26.3591 C   0  0  0  0  0  0  0  0  0  0  0  0
   19.2863   17.4591   26.7045 H   0  0  0  0  0  0  0  0  0  0  0  0
   20.9975   17.6512   26.3364 H   0  0  0  0  0  0  0  0  0  0  0  0
   19.6637   18.6741   24.9372 C   0  0  0  0  0  0  0  0  0  0  0  0
   19.4811   17.7982   24.3019 H   0  0  0  0  0  0  0  0  0  0  0  0
   18.7203   19.2355   24.9830 H   0  0  0  0  0  0  0  0  0  0  0  0
   20.7685   19.5551   24.3058 C   0  0  0  0  0  0  0  0  0  0  0  0
   21.6996   18.9782   24.2213 H   0  0  0  0  0  0  0  0  0  0  0  0
   20.9865   20.3966   24.9776 H   0  0  0  0  0  0  0  0  0  0  0  0
   20.3850   20.1265   22.9200 C   0  0  0  0  0  0  0  0  0  0  0  0
   19.4542   20.7038   23.0053 H   0  0  0  0  0  0  0  0  0  0  0  0
   21.1635   20.8369   22.6101 H   0  0  0  0  0  0  0  0  0  0  0  0
   20.2295   19.0444   21.8264 C   0  0  0  0  0  0  0  0  0  0  0  0
   19.4019   18.3698   22.0809 H   0  0  0  0  0  0  0  0  0  0  0  0
   21.1411   18.4327   21.7828 H   0  0  0  0  0  0  0  0  0  0  0  0
   19.9620   19.6688   20.4406 C   0  0  0  0  0  0  0  0  0  0  0  0
   19.0518   20.2830   20.4811 H   0  0  0  0  0  0  0  0  0  0  0  0
   20.7888   20.3403   20.1705 H   0  0  0  0  0  0  0  0  0  0  0  0
   19.8035   18.5886   19.3516 C   0  0  0  0  0  0  0  0  0  0  0  0
   19.6144   19.0500   18.3737 H   0  0  0  0  0  0  0  0  0  0  0  0
   20.7124   17.9784   19.2685 H   0  0  0  0  0  0  0  0  0  0  0  0
   18.9621   17.9213   19.5799 H   0  0  0  0  0  0  0  0  0  0  0  0
  1  2  1  0  0  0  0
  1  3  2  0  0  0  0
  1  4  1  0  0  0  0
  4  5  1  0  0  0  0
  4  6  1  0  0  0  0
  4  7  1  0  0  0  0
  7  8  1  0  0  0  0
  7  9  1  0  0  0  0
  7 10  1  0  0  0  0
 10 11  1  0  0  0  0
 10 12  1  0  0  0  0
 10 13  1  0  0  0  0
 13 14  1  0  0  0  0
 13 15  1  0  0  0  0
 13 16  1  0  0  0  0
 16 17  1  0  0  0  0
 16 18  1  0  0  0  0
 16 19  1  0  0  0  0
 19 20  1  0  0  0  0
 19 21  1  0  0  0  0
 19 22  1  0  0  0  0
 22 23  1  0  0  0  0
 22 24  1  0  0  0  0
 22 25  1  0  0  0  0
M  END
> <VM2 Rank>
33

> <Conf_Id>
1070

> <Probability>
0.52

> <Sum Probability>
89.68

> <Delta G>
2.258

> <G>
-5.704

> <E>
-30.525

> <-TS>
24.821

> <U+W>
-51.092

> <U>
8.377

> <W>
-59.469

> <W(PB)>
-61.944

> <W(SA)>
2.474

> <Valence>
8.357

> <Coulomb>
-0.892

> <VdW>
0.912

> <VdW6>
-9.161

> <VdW12>
10.073

> <Bond>
0.177

> <Angle>
2.702

> <Pdih>
5.478

> <Idih>
0.000

> <Tether>
0.000

$$$$
VeraChem MOL file


 25 24  0  0  0  0  0  0  0  0999 V2000     
   20.1333   19.6085   27.2639 C   0  0  0  0  0  0  0  0  0  0  0  0
   21.0989   20.2703   27.5907 O   0  5  0  0  0  0  0  0  0  0  0  0
   18.9848   19.9830   27.3973 O   0  0  0  0  0  0  0  0  0  0  0  0
   20.3783   18.2242   26.6703 C   0  0  0  0  0  0  0  0  0  0  0  0
   19.4544   17.6391   26.7532 H   0  0  0  0  0  0  0  0  0  0  0  0
   21.1269   17.7262   27.2977 H   0  0  0  0  0  0  0  0  0  0  0  0
   20.8678   18.2468   25.1989 C   0  0  0  0  0  0  0  0  0  0  0  0
   21.7774   18.8594   25.1274 H   0  0  0  0  0  0  0  0  0  0  0  0
   21.1489   17.2276   24.9010 H   0  0  0  0  0  0  0  0  0  0  0  0
   19.7963   18.7851   24.2243 C   0  0  0  0  0  0  0  0  0  0  0  0
   19.5226   19.8117   24.5050 H   0  0  0  0  0  0  0  0  0  0  0  0
   18.8847   18.1780   24.3099 H   0  0  0  0  0  0  0  0  0  0  0  0
   20.2931   18.7690   22.7624 C   0  0  0  0  0  0  0  0  0  0  0  0
   21.2066   19.3730   22.6869 H   0  0  0  0  0  0  0  0  0  0  0  0
   20.5617   17.7427   22.4772 H   0  0  0  0  0  0  0  0  0  0  0  0
   19.2214   19.3117   21.7889 C   0  0  0  0  0  0  0  0  0  0  0  0
   18.9875   20.3552   22.0405 H   0  0  0  0  0  0  0  0  0  0  0  0
   18.2919   18.7426   21.9275 H   0  0  0  0  0  0  0  0  0  0  0  0
   19.6371   19.2187   20.3023 C   0  0  0  0  0  0  0  0  0  0  0  0
   19.8656   18.1750   20.0455 H   0  0  0  0  0  0  0  0  0  0  0  0
   18.7816   19.5115   19.6781 H   0  0  0  0  0  0  0  0  0  0  0  0
   20.8420   20.1167   19.9470 C   0  0  0  0  0  0  0  0  0  0  0  0
   21.0406   20.0833   18.8680 H   0  0  0  0  0  0  0  0  0  0  0  0
   20.6481   21.1615   20.2227 H   0  0  0  0  0  0  0  0  0  0  0  0
   21.7529   19.7876   20.4624 H   0  0  0  0  0  0  0  0  0  0  0  0
  1  2  1  0  0  0  0
  1  3  2  0  0  0  0
  1  4  1  0  0  0  0
  4  5  1  0  0  0  0
  4  6  1  0  0  0  0
  4  7  1  0  0  0  0
  7  8  1  0  0  0  0
  7  9  1  0  0  0  0
  7 10  1  0  0  0  0
 10 11  1  0  0  0  0
 10 12  1  0  0  0  0
 10 13  1  0  0  0  0
 13 14  1  0  0  0  0
 13 15  1  0  0  0  0
 13 16  1  0  0  0  0
 16 17  1  0  0  0  0
 16 18  1  0  0  0  0
 16 19  1  0  0  0  0
 19 20  1  0  0  0  0
 19 21  1  0  0  0  0
 19 22  1  0  0  0  0
 22 23  1  0  0  0  0
 22 24  1  0  0  0  0
 22 25  1  0  0  0  0
M  END
> <VM2 Rank>
34

> <Conf_Id>
768

> <Probability>
0.52

> <Sum Probability>
90.20

> <Delta G>
2.260

> <G>
-5.702

> <E>
-30.524

> <-TS>
24.821

> <U+W>
-51.091

> <U>
8.782

> <W>
-59.873

> <W(PB)>
-62.358

> <W(SA)>
2.484

> <Valence>
8.287

> <Coulomb>
-0.382

> <VdW>
0.877

> <VdW6>
-9.130

> <VdW12>
10.007

> <Bond>
0.167

> <Angle>
2.661

> <Pdih>
5.459

> <Idih>
0.000

> <Tether>
0.000

$$$$
VeraChem MOL file


 25 24  0  0  0  0  0  0  0  0999 V2000     
   19.9594   18.9461   27.1548 C   0  0  0  0  0  0  0  0  0  0  0  0
   21.0151   18.5131   27.5732 O   0  5  0  0  0  0  0  0  0  0  0  0
   18.9110   18.3340   27.2123 O   0  0  0  0  0  0  0  0  0  0  0  0
   19.9433   20.3431   26.5407 C   0  0  0  0  0  0  0  0  0  0  0  0
   20.8347   20.8846   26.8795 H   0  0  0  0  0  0  0  0  0  0  0  0
   19.0754   20.8723   26.9514 H   0  0  0  0  0  0  0  0  0  0  0  0
   19.8683   20.3485   24.9918 C   0  0  0  0  0  0  0  0  0  0  0  0
   18.9798   19.7852   24.6770 H   0  0  0  0  0  0  0  0  0  0  0  0
   19.7295   21.3813   24.6449 H   0  0  0  0  0  0  0  0  0  0  0  0
   21.1381   19.7554   24.3356 C   0  0  0  0  0  0  0  0  0  0  0  0
   21.2470   18.6998   24.6204 H   0  0  0  0  0  0  0  0  0  0  0  0
   22.0209   20.2751   24.7325 H   0  0  0  0  0  0  0  0  0  0  0  0
   21.1486   19.8766   22.7933 C   0  0  0  0  0  0  0  0  0  0  0  0
   21.0489   20.9323   22.5062 H   0  0  0  0  0  0  0  0  0  0  0  0
   22.1295   19.5459   22.4253 H   0  0  0  0  0  0  0  0  0  0  0  0
   20.0456   19.0418   22.1023 C   0  0  0  0  0  0  0  0  0  0  0  0
   19.0552   19.4090   22.4010 H   0  0  0  0  0  0  0  0  0  0  0  0
   20.1140   17.9968   22.4343 H   0  0  0  0  0  0  0  0  0  0  0  0
   20.1632   19.1026   20.5647 C   0  0  0  0  0  0  0  0  0  0  0  0
   20.0970   20.1470   20.2296 H   0  0  0  0  0  0  0  0  0  0  0  0
   21.1485   18.7291   20.2530 H   0  0  0  0  0  0  0  0  0  0  0  0
   19.0604   18.2728   19.8772 C   0  0  0  0  0  0  0  0  0  0  0  0
   19.1225   17.2168   20.1712 H   0  0  0  0  0  0  0  0  0  0  0  0
   18.0632   18.6454   20.1460 H   0  0  0  0  0  0  0  0  0  0  0  0
   19.1594   18.3269   18.7852 H   0  0  0  0  0  0  0  0  0  0  0  0
  1  2  1  0  0  0  0
  1  3  2  0  0  0  0
  1  4  1  0  0  0  0
  4  5  1  0  0  0  0
  4  6  1  0  0  0  0
  4  7  1  0  0  0  0
  7  8  1  0  0  0  0
  7  9  1  0  0  0  0
  7 10  1  0  0  0  0
 10 11  1  0  0  0  0
 10 12  1  0  0  0  0
 10 13  1  0  0  0  0
 13 14  1  0  0  0  0
 13 15  1  0  0  0  0
 13 16  1  0  0  0  0
 16 17  1  0  0  0  0
 16 18  1  0  0  0  0
 16 19  1  0  0  0  0
 19 20  1  0  0  0  0
 19 21  1  0  0  0  0
 19 22  1  0  0  0  0
 22 23  1  0  0  0  0
 22 24  1  0  0  0  0
 22 25  1  0  0  0  0
M  END
> <VM2 Rank>
35

> <Conf_Id>
1358

> <Probability>
0.49

> <Sum Probability>
90.69

> <Delta G>
2.294

> <G>
-5.668

> <E>
-30.483

> <-TS>
24.815

> <U+W>
-51.050

> <U>
8.903

> <W>
-59.953

> <W(PB)>
-62.431

> <W(SA)>
2.478

> <Valence>
8.305

> <Coulomb>
-0.224

> <VdW>
0.821

> <VdW6>
-9.236

> <VdW12>
10.057

> <Bond>
0.173

> <Angle>
2.663

> <Pdih>
5.469

> <Idih>
0.001

> <Tether>
0.000

$$$$
VeraChem MOL file


 25 24  0  0  0  0  0  0  0  0999 V2000     
   19.8217   19.5707   27.1378 C   0  0  0  0  0  0  0  0  0  0  0  0
   20.6871   20.1252   27.7863 O   0  5  0  0  0  0  0  0  0  0  0  0
   18.7184   20.0427   26.9458 O   0  0  0  0  0  0  0  0  0  0  0  0
   20.1333   18.1976   26.5491 C   0  0  0  0  0  0  0  0  0  0  0  0
   19.1877   17.6991   26.3039 H   0  0  0  0  0  0  0  0  0  0  0  0
   20.6103   17.6035   27.3374 H   0  0  0  0  0  0  0  0  0  0  0  0
   21.0552   18.2405   25.3028 C   0  0  0  0  0  0  0  0  0  0  0  0
   21.9866   18.7652   25.5573 H   0  0  0  0  0  0  0  0  0  0  0  0
   21.3349   17.2137   25.0307 H   0  0  0  0  0  0  0  0  0  0  0  0
   20.3837   18.9233   24.0900 C   0  0  0  0  0  0  0  0  0  0  0  0
   20.1209   19.9587   24.3470 H   0  0  0  0  0  0  0  0  0  0  0  0
   19.4449   18.4032   23.8597 H   0  0  0  0  0  0  0  0  0  0  0  0
   21.3076   18.9202   22.8502 C   0  0  0  0  0  0  0  0  0  0  0  0
   22.2694   19.3766   23.1215 H   0  0  0  0  0  0  0  0  0  0  0  0
   21.5273   17.8853   22.5540 H   0  0  0  0  0  0  0  0  0  0  0  0
   20.7231   19.6912   21.6428 C   0  0  0  0  0  0  0  0  0  0  0  0
   21.4911   19.7444   20.8591 H   0  0  0  0  0  0  0  0  0  0  0  0
   20.5080   20.7275   21.9374 H   0  0  0  0  0  0  0  0  0  0  0  0
   19.4501   19.0421   21.0541 C   0  0  0  0  0  0  0  0  0  0  0  0
   19.6497   17.9897   20.8098 H   0  0  0  0  0  0  0  0  0  0  0  0
   18.6425   19.0511   21.7978 H   0  0  0  0  0  0  0  0  0  0  0  0
   18.9729   19.7805   19.7872 C   0  0  0  0  0  0  0  0  0  0  0  0
   19.7432   19.7582   19.0052 H   0  0  0  0  0  0  0  0  0  0  0  0
   18.0669   19.3100   19.3835 H   0  0  0  0  0  0  0  0  0  0  0  0
   18.7396   20.8301   20.0091 H   0  0  0  0  0  0  0  0  0  0  0  0
  1  2  1  0  0  0  0
  1  3  2  0  0  0  0
  1  4  1  0  0  0  0
  4  5  1  0  0  0  0
  4  6  1  0  0  0  0
  4  7  1  0  0  0  0
  7  8  1  0  0  0  0
  7  9  1  0  0  0  0
  7 10  1  0  0  0  0
 10 11  1  0  0  0  0
 10 12  1  0  0  0  0
 10 13  1  0  0  0  0
 13 14  1  0  0  0  0
 13 15  1  0  0  0  0
 13 16  1  0  0  0  0
 16 17  1  0  0  0  0
 16 18  1  0  0  0  0
 16 19  1  0  0  0  0
 19 20  1  0  0  0  0
 19 21  1  0  0  0  0
 19 22  1  0  0  0  0
 22 23  1  0  0  0  0
 22 24  1  0  0  0  0
 22 25  1  0  0  0  0
M  END
> <VM2 Rank>
36

> <Conf_Id>
468

> <Probability>
0.48

> <Sum Probability>
91.17

> <Delta G>
2.305

> <G>
-5.657

> <E>
-30.466

> <-TS>
24.809

> <U+W>
-51.033

> <U>
8.998

> <W>
-60.031

> <W(PB)>
-62.529

> <W(SA)>
2.498

> <Valence>
8.322

> <Coulomb>
-0.176

> <VdW>
0.852

> <VdW6>
-9.197

> <VdW12>
10.048

> <Bond>
0.171

> <Angle>
2.683

> <Pdih>
5.468

> <Idih>
0.000

> <Tether>
0.000

$$$$
VeraChem MOL file


 25 24  0  0  0  0  0  0  0  0999 V2000     
   20.0664   19.4608   27.3304 C   0  0  0  0  0  0  0  0  0  0  0  0
   20.9653   20.1515   27.7686 O   0  5  0  0  0  0  0  0  0  0  0  0
   18.8881   19.7305   27.4566 O   0  0  0  0  0  0  0  0  0  0  0  0
   20.4397   18.1755   26.5971 C   0  0  0  0  0  0  0  0  0  0  0  0
   19.5628   17.5172   26.5759 H   0  0  0  0  0  0  0  0  0  0  0  0
   21.2042   17.6667   27.1960 H   0  0  0  0  0  0  0  0  0  0  0  0
   20.9740   18.4026   25.1591 C   0  0  0  0  0  0  0  0  0  0  0  0
   21.8340   19.0859   25.1940 H   0  0  0  0  0  0  0  0  0  0  0  0
   21.3447   17.4480   24.7618 H   0  0  0  0  0  0  0  0  0  0  0  0
   19.8959   18.9666   24.2066 C   0  0  0  0  0  0  0  0  0  0  0  0
   19.5320   19.9303   24.5890 H   0  0  0  0  0  0  0  0  0  0  0  0
   19.0332   18.2866   24.1848 H   0  0  0  0  0  0  0  0  0  0  0  0
   20.4403   19.1549   22.7740 C   0  0  0  0  0  0  0  0  0  0  0  0
   21.3007   19.8377   22.7959 H   0  0  0  0  0  0  0  0  0  0  0  0
   20.8051   18.1903   22.3979 H   0  0  0  0  0  0  0  0  0  0  0  0
   19.3596   19.7165   21.8214 C   0  0  0  0  0  0  0  0  0  0  0  0
   18.9549   20.6446   22.2478 H   0  0  0  0  0  0  0  0  0  0  0  0
   18.5196   19.0113   21.7580 H   0  0  0  0  0  0  0  0  0  0  0  0
   19.8893   20.0191   20.4003 C   0  0  0  0  0  0  0  0  0  0  0  0
   19.0965   20.5202   19.8280 H   0  0  0  0  0  0  0  0  0  0  0  0
   20.7254   20.7295   20.4595 H   0  0  0  0  0  0  0  0  0  0  0  0
   20.3343   18.7559   19.6318 C   0  0  0  0  0  0  0  0  0  0  0  0
   21.2035   18.2836   20.1063 H   0  0  0  0  0  0  0  0  0  0  0  0
   19.5231   18.0178   19.5857 H   0  0  0  0  0  0  0  0  0  0  0  0
   20.6166   19.0124   18.6025 H   0  0  0  0  0  0  0  0  0  0  0  0
  1  2  1  0  0  0  0
  1  3  2  0  0  0  0
  1  4  1  0  0  0  0
  4  5  1  0  0  0  0
  4  6  1  0  0  0  0
  4  7  1  0  0  0  0
  7  8  1  0  0  0  0
  7  9  1  0  0  0  0
  7 10  1  0  0  0  0
 10 11  1  0  0  0  0
 10 12  1  0  0  0  0
 10 13  1  0  0  0  0
 13 14  1  0  0  0  0
 13 15  1  0  0  0  0
 13 16  1  0  0  0  0
 16 17  1  0  0  0  0
 16 18  1  0  0  0  0
 16 19  1  0  0  0  0
 19 20  1  0  0  0  0
 19 21  1  0  0  0  0
 19 22  1  0  0  0  0
 22 23  1  0  0  0  0
 22 24  1  0  0  0  0
 22 25  1  0  0  0  0
M  END
> <VM2 Rank>
37

> <Conf_Id>
1008

> <Probability>
0.48

> <Sum Probability>
91.65

> <Delta G>
2.308

> <G>
-5.654

> <E>
-30.475

> <-TS>
24.821

> <U+W>
-51.043

> <U>
8.634

> <W>
-59.677

> <W(PB)>
-62.166

> <W(SA)>
2.489

> <Valence>
8.287

> <Coulomb>
-0.534

> <VdW>
0.881

> <VdW6>
-9.127

> <VdW12>
10.009

> <Bond>
0.168

> <Angle>
2.660

> <Pdih>
5.459

> <Idih>
0.000

> <Tether>
0.000

$$$$
VeraChem MOL file


 25 24  0  0  0  0  0  0  0  0999 V2000     
   20.2015   19.2958   27.4020 C   0  0  0  0  0  0  0  0  0  0  0  0
   21.1852   19.8854   27.8043 O   0  5  0  0  0  0  0  0  0  0  0  0
   19.0745   19.5195   27.7980 O   0  0  0  0  0  0  0  0  0  0  0  0
   20.3965   18.2027   26.3550 C   0  0  0  0  0  0  0  0  0  0  0  0
   19.5105   17.5564   26.3537 H   0  0  0  0  0  0  0  0  0  0  0  0
   21.2403   17.5837   26.6819 H   0  0  0  0  0  0  0  0  0  0  0  0
   20.6708   18.7382   24.9255 C   0  0  0  0  0  0  0  0  0  0  0  0
   21.5360   19.4151   24.9503 H   0  0  0  0  0  0  0  0  0  0  0  0
   20.9486   17.8916   24.2849 H   0  0  0  0  0  0  0  0  0  0  0  0
   19.4486   19.4706   24.3211 C   0  0  0  0  0  0  0  0  0  0  0  0
   19.1409   20.2785   24.9990 H   0  0  0  0  0  0  0  0  0  0  0  0
   18.5969   18.7798   24.2571 H   0  0  0  0  0  0  0  0  0  0  0  0
   19.7244   20.0843   22.9277 C   0  0  0  0  0  0  0  0  0  0  0  0
   18.8547   20.6892   22.6368 H   0  0  0  0  0  0  0  0  0  0  0  0
   20.5757   20.7756   22.9925 H   0  0  0  0  0  0  0  0  0  0  0  0
   19.9912   19.0291   21.8292 C   0  0  0  0  0  0  0  0  0  0  0  0
   19.1643   18.3063   21.8056 H   0  0  0  0  0  0  0  0  0  0  0  0
   20.9037   18.4659   22.0637 H   0  0  0  0  0  0  0  0  0  0  0  0
   20.1452   19.6805   20.4386 C   0  0  0  0  0  0  0  0  0  0  0  0
   19.2336   20.2408   20.1884 H   0  0  0  0  0  0  0  0  0  0  0  0
   20.9703   20.4059   20.4591 H   0  0  0  0  0  0  0  0  0  0  0  0
   20.4152   18.6279   19.3446 C   0  0  0  0  0  0  0  0  0  0  0  0
   19.5899   17.9066   19.2814 H   0  0  0  0  0  0  0  0  0  0  0  0
   20.5214   19.1082   18.3633 H   0  0  0  0  0  0  0  0  0  0  0  0
   21.3398   18.0736   19.5525 H   0  0  0  0  0  0  0  0  0  0  0  0
  1  2  1  0  0  0  0
  1  3  2  0  0  0  0
  1  4  1  0  0  0  0
  4  5  1  0  0  0  0
  4  6  1  0  0  0  0
  4  7  1  0  0  0  0
  7  8  1  0  0  0  0
  7  9  1  0  0  0  0
  7 10  1  0  0  0  0
 10 11  1  0  0  0  0
 10 12  1  0  0  0  0
 10 13  1  0  0  0  0
 13 14  1  0  0  0  0
 13 15  1  0  0  0  0
 13 16  1  0  0  0  0
 16 17  1  0  0  0  0
 16 18  1  0  0  0  0
 16 19  1  0  0  0  0
 19 20  1  0  0  0  0
 19 21  1  0  0  0  0
 19 22  1  0  0  0  0
 22 23  1  0  0  0  0
 22 24  1  0  0  0  0
 22 25  1  0  0  0  0
M  END
> <VM2 Rank>
38

> <Conf_Id>
1037

> <Probability>
0.47

> <Sum Probability>
92.12

> <Delta G>
2.322

> <G>
-5.640

> <E>
-30.460

> <-TS>
24.820

> <U+W>
-51.028

> <U>
8.377

> <W>
-59.405

> <W(PB)>
-61.871

> <W(SA)>
2.466

> <Valence>
8.357

> <Coulomb>
-0.892

> <VdW>
0.912

> <VdW6>
-9.161

> <VdW12>
10.073

> <Bond>
0.177

> <Angle>
2.702

> <Pdih>
5.478

> <Idih>
0.000

> <Tether>
0.000

$$$$
VeraChem MOL file


 25 24  0  0  0  0  0  0  0  0999 V2000     
   19.8670   19.7468   27.0047 C   0  0  0  0  0  0  0  0  0  0  0  0
   20.7273   20.4788   27.4533 O   0  5  0  0  0  0  0  0  0  0  0  0
   18.7181   20.0955   26.8163 O   0  0  0  0  0  0  0  0  0  0  0  0
   20.2481   18.3055   26.6786 C   0  0  0  0  0  0  0  0  0  0  0  0
   19.3319   17.7056   26.6207 H   0  0  0  0  0  0  0  0  0  0  0  0
   20.8271   17.9199   27.5260 H   0  0  0  0  0  0  0  0  0  0  0  0
   21.0729   18.1510   25.3743 C   0  0  0  0  0  0  0  0  0  0  0  0
   21.9719   18.7800   25.4355 H   0  0  0  0  0  0  0  0  0  0  0  0
   21.4190   17.1117   25.2930 H   0  0  0  0  0  0  0  0  0  0  0  0
   20.2620   18.5192   24.1114 C   0  0  0  0  0  0  0  0  0  0  0  0
   19.9246   19.5609   24.1889 H   0  0  0  0  0  0  0  0  0  0  0  0
   19.3603   17.8939   24.0592 H   0  0  0  0  0  0  0  0  0  0  0  0
   21.0966   18.3322   22.8232 C   0  0  0  0  0  0  0  0  0  0  0  0
   21.9707   18.9971   22.8487 H   0  0  0  0  0  0  0  0  0  0  0  0
   21.4875   17.3059   22.7967 H   0  0  0  0  0  0  0  0  0  0  0  0
   20.2928   18.5833   21.5250 C   0  0  0  0  0  0  0  0  0  0  0  0
   19.4210   17.9154   21.4972 H   0  0  0  0  0  0  0  0  0  0  0  0
   20.9221   18.3083   20.6676 H   0  0  0  0  0  0  0  0  0  0  0  0
   19.8316   20.0490   21.3588 C   0  0  0  0  0  0  0  0  0  0  0  0
   19.1366   20.3207   22.1642 H   0  0  0  0  0  0  0  0  0  0  0  0
   20.6966   20.7214   21.4412 H   0  0  0  0  0  0  0  0  0  0  0  0
   19.1367   20.2727   20.0004 C   0  0  0  0  0  0  0  0  0  0  0  0
   18.2508   19.6315   19.9026 H   0  0  0  0  0  0  0  0  0  0  0  0
   18.8123   21.3165   19.8992 H   0  0  0  0  0  0  0  0  0  0  0  0
   19.8169   20.0472   19.1687 H   0  0  0  0  0  0  0  0  0  0  0  0
  1  2  1  0  0  0  0
  1  3  2  0  0  0  0
  1  4  1  0  0  0  0
  4  5  1  0  0  0  0
  4  6  1  0  0  0  0
  4  7  1  0  0  0  0
  7  8  1  0  0  0  0
  7  9  1  0  0  0  0
  7 10  1  0  0  0  0
 10 11  1  0  0  0  0
 10 12  1  0  0  0  0
 10 13  1  0  0  0  0
 13 14  1  0  0  0  0
 13 15  1  0  0  0  0
 13 16  1  0  0  0  0
 16 17  1  0  0  0  0
 16 18  1  0  0  0  0
 16 19  1  0  0  0  0
 19 20  1  0  0  0  0
 19 21  1  0  0  0  0
 19 22  1  0  0  0  0
 22 23  1  0  0  0  0
 22 24  1  0  0  0  0
 22 25  1  0  0  0  0
M  END
> <VM2 Rank>
39

> <Conf_Id>
1219

> <Probability>
0.47

> <Sum Probability>
92.58

> <Delta G>
2.322

> <G>
-5.640

> <E>
-30.460

> <-TS>
24.820

> <U+W>
-51.027

> <U>
9.231

> <W>
-60.258

> <W(PB)>
-62.741

> <W(SA)>
2.483

> <Valence>
8.318

> <Coulomb>
0.075

> <VdW>
0.838

> <VdW6>
-9.234

> <VdW12>
10.072

> <Bond>
0.172

> <Angle>
2.679

> <Pdih>
5.467

> <Idih>
0.000

> <Tether>
0.000

$$$$
VeraChem MOL file


 25 24  0  0  0  0  0  0  0  0999 V2000     
   20.3804   19.7798   26.9988 C   0  0  0  0  0  0  0  0  0  0  0  0
   21.4708   20.2717   26.7846 O   0  5  0  0  0  0  0  0  0  0  0  0
   19.4443   20.3968   27.4680 O   0  0  0  0  0  0  0  0  0  0  0  0
   20.1787   18.3011   26.6794 C   0  0  0  0  0  0  0  0  0  0  0  0
   19.6732   17.8461   27.5393 H   0  0  0  0  0  0  0  0  0  0  0  0
   21.1624   17.8228   26.5997 H   0  0  0  0  0  0  0  0  0  0  0  0
   19.3507   18.0407   25.3942 C   0  0  0  0  0  0  0  0  0  0  0  0
   19.1382   16.9657   25.3194 H   0  0  0  0  0  0  0  0  0  0  0  0
   18.3805   18.5501   25.4769 H   0  0  0  0  0  0  0  0  0  0  0  0
   20.0788   18.5073   24.1135 C   0  0  0  0  0  0  0  0  0  0  0  0
   21.0515   18.0022   24.0398 H   0  0  0  0  0  0  0  0  0  0  0  0
   20.2824   19.5838   24.1848 H   0  0  0  0  0  0  0  0  0  0  0  0
   19.2456   18.2135   22.8445 C   0  0  0  0  0  0  0  0  0  0  0  0
   18.9885   17.1456   22.8256 H   0  0  0  0  0  0  0  0  0  0  0  0
   18.2945   18.7613   22.8911 H   0  0  0  0  0  0  0  0  0  0  0  0
   19.9808   18.5633   21.5287 C   0  0  0  0  0  0  0  0  0  0  0  0
   19.3724   18.2086   20.6855 H   0  0  0  0  0  0  0  0  0  0  0  0
   20.9300   18.0123   21.4800 H   0  0  0  0  0  0  0  0  0  0  0  0
   20.2467   20.0756   21.3539 C   0  0  0  0  0  0  0  0  0  0  0  0
   19.3049   20.6319   21.4570 H   0  0  0  0  0  0  0  0  0  0  0  0
   20.9195   20.4353   22.1436 H   0  0  0  0  0  0  0  0  0  0  0  0
   20.8761   20.3842   19.9803 C   0  0  0  0  0  0  0  0  0  0  0  0
   20.2114   20.0722   19.1641 H   0  0  0  0  0  0  0  0  0  0  0  0
   21.0618   21.4608   19.8730 H   0  0  0  0  0  0  0  0  0  0  0  0
   21.8342   19.8614   19.8614 H   0  0  0  0  0  0  0  0  0  0  0  0
  1  2  1  0  0  0  0
  1  3  2  0  0  0  0
  1  4  1  0  0  0  0
  4  5  1  0  0  0  0
  4  6  1  0  0  0  0
  4  7  1  0  0  0  0
  7  8  1  0  0  0  0
  7  9  1  0  0  0  0
  7 10  1  0  0  0  0
 10 11  1  0  0  0  0
 10 12  1  0  0  0  0
 10 13  1  0  0  0  0
 13 14  1  0  0  0  0
 13 15  1  0  0  0  0
 13 16  1  0  0  0  0
 16 17  1  0  0  0  0
 16 18  1  0  0  0  0
 16 19  1  0  0  0  0
 19 20  1  0  0  0  0
 19 21  1  0  0  0  0
 19 22  1  0  0  0  0
 22 23  1  0  0  0  0
 22 24  1  0  0  0  0
 22 25  1  0  0  0  0
M  END
> <VM2 Rank>
40

> <Conf_Id>
68

> <Probability>
0.47

> <Sum Probability>
93.05

> <Delta G>
2.324

> <G>
-5.638

> <E>
-30.458

> <-TS>
24.820

> <U+W>
-51.025

> <U>
9.231

> <W>
-60.257

> <W(PB)>
-62.750

> <W(SA)>
2.494

> <Valence>
8.319

> <Coulomb>
0.075

> <VdW>
0.838

> <VdW6>
-9.234

> <VdW12>
10.072

> <Bond>
0.172

> <Angle>
2.679

> <Pdih>
5.467

> <Idih>
0.000

> <Tether>
0.000

$$$$
VeraChem MOL file


 25 24  0  0  0  0  0  0  0  0999 V2000     
   19.8306   19.0427   27.1487 C   0  0  0  0  0  0  0  0  0  0  0  0
   20.7141   18.5451   27.8187 O   0  5  0  0  0  0  0  0  0  0  0  0
   18.7442   18.5257   26.9769 O   0  0  0  0  0  0  0  0  0  0  0  0
   20.0957   20.4002   26.5036 C   0  0  0  0  0  0  0  0  0  0  0  0
   20.5516   21.0422   27.2665 H   0  0  0  0  0  0  0  0  0  0  0  0
   19.1338   20.8556   26.2387 H   0  0  0  0  0  0  0  0  0  0  0  0
   21.0194   20.3374   25.2595 C   0  0  0  0  0  0  0  0  0  0  0  0
   21.2642   21.3610   24.9452 H   0  0  0  0  0  0  0  0  0  0  0  0
   21.9680   19.8557   25.5349 H   0  0  0  0  0  0  0  0  0  0  0  0
   20.3725   19.5826   24.0764 C   0  0  0  0  0  0  0  0  0  0  0  0
   19.4166   20.0604   23.8256 H   0  0  0  0  0  0  0  0  0  0  0  0
   20.1450   18.5503   24.3762 H   0  0  0  0  0  0  0  0  0  0  0  0
   21.2966   19.5662   22.8369 C   0  0  0  0  0  0  0  0  0  0  0  0
   21.4810   20.5948   22.4981 H   0  0  0  0  0  0  0  0  0  0  0  0
   22.2733   19.1545   23.1260 H   0  0  0  0  0  0  0  0  0  0  0  0
   20.7396   18.7264   21.6627 C   0  0  0  0  0  0  0  0  0  0  0  0
   20.5598   17.6964   22.0000 H   0  0  0  0  0  0  0  0  0  0  0  0
   21.5095   18.6673   20.8813 H   0  0  0  0  0  0  0  0  0  0  0  0
   19.4455   19.3068   21.0488 C   0  0  0  0  0  0  0  0  0  0  0  0
   18.6382   19.3009   21.7928 H   0  0  0  0  0  0  0  0  0  0  0  0
   19.6092   20.3545   20.7611 H   0  0  0  0  0  0  0  0  0  0  0  0
   18.9947   18.5010   19.8137 C   0  0  0  0  0  0  0  0  0  0  0  0
   19.7643   18.5173   19.0309 H   0  0  0  0  0  0  0  0  0  0  0  0
   18.7973   17.4540   20.0789 H   0  0  0  0  0  0  0  0  0  0  0  0
   18.0734   18.9232   19.3916 H   0  0  0  0  0  0  0  0  0  0  0  0
  1  2  1  0  0  0  0
  1  3  2  0  0  0  0
  1  4  1  0  0  0  0
  4  5  1  0  0  0  0
  4  6  1  0  0  0  0
  4  7  1  0  0  0  0
  7  8  1  0  0  0  0
  7  9  1  0  0  0  0
  7 10  1  0  0  0  0
 10 11  1  0  0  0  0
 10 12  1  0  0  0  0
 10 13  1  0  0  0  0
 13 14  1  0  0  0  0
 13 15  1  0  0  0  0
 13 16  1  0  0  0  0
 16 17  1  0  0  0  0
 16 18  1  0  0  0  0
 16 19  1  0  0  0  0
 19 20  1  0  0  0  0
 19 21  1  0  0  0  0
 19 22  1  0  0  0  0
 22 23  1  0  0  0  0
 22 24  1  0  0  0  0
 22 25  1  0  0  0  0
M  END
> <VM2 Rank>
41

> <Conf_Id>
1293

> <Probability>
0.46

> <Sum Probability>
93.51

> <Delta G>
2.332

> <G>
-5.630

> <E>
-30.439

> <-TS>
24.809

> <U+W>
-51.007

> <U>
8.999

> <W>
-60.006

> <W(PB)>
-62.484

> <W(SA)>
2.479

> <Valence>
8.322

> <Coulomb>
-0.175

> <VdW>
0.852

> <VdW6>
-9.197

> <VdW12>
10.049

> <Bond>
0.171

> <Angle>
2.683

> <Pdih>
5.468

> <Idih>
0.001

> <Tether>
0.000

$$$$
VeraChem MOL file


 25 24  0  0  0  0  0  0  0  0999 V2000     
   20.2267   19.4711   27.3286 C   0  0  0  0  0  0  0  0  0  0  0  0
   21.3637   19.8886   27.4281 O   0  5  0  0  0  0  0  0  0  0  0  0
   19.2576   20.0424   27.7883 O   0  0  0  0  0  0  0  0  0  0  0  0
   20.0032   18.1477   26.6022 C   0  0  0  0  0  0  0  0  0  0  0  0
   19.3236   17.5466   27.2177 H   0  0  0  0  0  0  0  0  0  0  0  0
   20.9561   17.6063   26.5598 H   0  0  0  0  0  0  0  0  0  0  0  0
   19.4114   18.3028   25.1772 C   0  0  0  0  0  0  0  0  0  0  0  0
   19.1561   17.3082   24.7871 H   0  0  0  0  0  0  0  0  0  0  0  0
   18.4725   18.8712   25.2329 H   0  0  0  0  0  0  0  0  0  0  0  0
   20.3868   18.9979   24.2009 C   0  0  0  0  0  0  0  0  0  0  0  0
   21.3282   18.4331   24.1582 H   0  0  0  0  0  0  0  0  0  0  0  0
   20.6339   20.0006   24.5762 H   0  0  0  0  0  0  0  0  0  0  0  0
   19.7899   19.1134   22.7815 C   0  0  0  0  0  0  0  0  0  0  0  0
   19.5421   18.1098   22.4125 H   0  0  0  0  0  0  0  0  0  0  0  0
   18.8505   19.6813   22.8242 H   0  0  0  0  0  0  0  0  0  0  0  0
   20.7683   19.8064   21.8051 C   0  0  0  0  0  0  0  0  0  0  0  0
   21.6895   19.2136   21.7213 H   0  0  0  0  0  0  0  0  0  0  0  0
   21.0614   20.7790   22.2234 H   0  0  0  0  0  0  0  0  0  0  0  0
   20.1718   20.0371   20.3971 C   0  0  0  0  0  0  0  0  0  0  0  0
   19.2537   20.6355   20.4766 H   0  0  0  0  0  0  0  0  0  0  0  0
   20.8811   20.6342   19.8074 H   0  0  0  0  0  0  0  0  0  0  0  0
   19.8735   18.7265   19.6371 C   0  0  0  0  0  0  0  0  0  0  0  0
   19.0826   18.1481   20.1308 H   0  0  0  0  0  0  0  0  0  0  0  0
   19.5371   18.9435   18.6150 H   0  0  0  0  0  0  0  0  0  0  0  0
   20.7707   18.0974   19.5712 H   0  0  0  0  0  0  0  0  0  0  0  0
  1  2  1  0  0  0  0
  1  3  2  0  0  0  0
  1  4  1  0  0  0  0
  4  5  1  0  0  0  0
  4  6  1  0  0  0  0
  4  7  1  0  0  0  0
  7  8  1  0  0  0  0
  7  9  1  0  0  0  0
  7 10  1  0  0  0  0
 10 11  1  0  0  0  0
 10 12  1  0  0  0  0
 10 13  1  0  0  0  0
 13 14  1  0  0  0  0
 13 15  1  0  0  0  0
 13 16  1  0  0  0  0
 16 17  1  0  0  0  0
 16 18  1  0  0  0  0
 16 19  1  0  0  0  0
 19 20  1  0  0  0  0
 19 21  1  0  0  0  0
 19 22  1  0  0  0  0
 22 23  1  0  0  0  0
 22 24  1  0  0  0  0
 22 25  1  0  0  0  0
M  END
> <VM2 Rank>
42

> <Conf_Id>
494

> <Probability>
0.44

> <Sum Probability>
93.95

> <Delta G>
2.355

> <G>
-5.608

> <E>
-30.429

> <-TS>
24.821

> <U+W>
-50.997

> <U>
8.634

> <W>
-59.630

> <W(PB)>
-62.120

> <W(SA)>
2.489

> <Valence>
8.287

> <Coulomb>
-0.534

> <VdW>
0.881

> <VdW6>
-9.127

> <VdW12>
10.008

> <Bond>
0.168

> <Angle>
2.660

> <Pdih>
5.459

> <Idih>
0.000

> <Tether>
0.000

$$$$
VeraChem MOL file


 25 24  0  0  0  0  0  0  0  0999 V2000     
   20.3726   19.7381   26.9189 C   0  0  0  0  0  0  0  0  0  0  0  0
   20.9976   20.6616   26.4359 O   0  5  0  0  0  0  0  0  0  0  0  0
   19.5770   19.8674   27.8287 O   0  0  0  0  0  0  0  0  0  0  0  0
   20.6182   18.3343   26.3731 C   0  0  0  0  0  0  0  0  0  0  0  0
   20.8185   17.6819   27.2310 H   0  0  0  0  0  0  0  0  0  0  0  0
   21.5348   18.3463   25.7726 H   0  0  0  0  0  0  0  0  0  0  0  0
   19.4325   17.7555   25.5536 C   0  0  0  0  0  0  0  0  0  0  0  0
   19.6704   16.7259   25.2541 H   0  0  0  0  0  0  0  0  0  0  0  0
   18.5515   17.6898   26.2070 H   0  0  0  0  0  0  0  0  0  0  0  0
   19.0598   18.5789   24.2962 C   0  0  0  0  0  0  0  0  0  0  0  0
   18.7717   19.5972   24.5916 H   0  0  0  0  0  0  0  0  0  0  0  0
   18.1703   18.1273   23.8362 H   0  0  0  0  0  0  0  0  0  0  0  0
   20.1922   18.6449   23.2458 C   0  0  0  0  0  0  0  0  0  0  0  0
   21.0571   19.1765   23.6645 H   0  0  0  0  0  0  0  0  0  0  0  0
   20.5259   17.6278   22.9995 H   0  0  0  0  0  0  0  0  0  0  0  0
   19.7345   19.3638   21.9582 C   0  0  0  0  0  0  0  0  0  0  0  0
   19.3991   20.3802   22.2062 H   0  0  0  0  0  0  0  0  0  0  0  0
   18.8706   18.8371   21.5301 H   0  0  0  0  0  0  0  0  0  0  0  0
   20.8647   19.4357   20.9099 C   0  0  0  0  0  0  0  0  0  0  0  0
   21.7296   19.9647   21.3338 H   0  0  0  0  0  0  0  0  0  0  0  0
   21.2027   18.4206   20.6595 H   0  0  0  0  0  0  0  0  0  0  0  0
   20.4038   20.1539   19.6256 C   0  0  0  0  0  0  0  0  0  0  0  0
   20.0895   21.1832   19.8426 H   0  0  0  0  0  0  0  0  0  0  0  0
   21.2193   20.1960   18.8920 H   0  0  0  0  0  0  0  0  0  0  0  0
   19.5586   19.6276   19.1631 H   0  0  0  0  0  0  0  0  0  0  0  0
  1  2  1  0  0  0  0
  1  3  2  0  0  0  0
  1  4  1  0  0  0  0
  4  5  1  0  0  0  0
  4  6  1  0  0  0  0
  4  7  1  0  0  0  0
  7  8  1  0  0  0  0
  7  9  1  0  0  0  0
  7 10  1  0  0  0  0
 10 11  1  0  0  0  0
 10 12  1  0  0  0  0
 10 13  1  0  0  0  0
 13 14  1  0  0  0  0
 13 15  1  0  0  0  0
 13 16  1  0  0  0  0
 16 17  1  0  0  0  0
 16 18  1  0  0  0  0
 16 19  1  0  0  0  0
 19 20  1  0  0  0  0
 19 21  1  0  0  0  0
 19 22  1  0  0  0  0
 22 23  1  0  0  0  0
 22 24  1  0  0  0  0
 22 25  1  0  0  0  0
M  END
> <VM2 Rank>
43

> <Conf_Id>
88

> <Probability>
0.33

> <Sum Probability>
94.28

> <Delta G>
2.535

> <G>
-5.427

> <E>
-30.290

> <-TS>
24.863

> <U+W>
-50.858

> <U>
9.443

> <W>
-60.301

> <W(PB)>
-62.766

> <W(SA)>
2.465

> <Valence>
8.294

> <Coulomb>
0.527

> <VdW>
0.622

> <VdW6>
-9.564

> <VdW12>
10.186

> <Bond>
0.185

> <Angle>
2.775

> <Pdih>
5.333

> <Idih>
0.001

> <Tether>
0.000

$$$$
VeraChem MOL file


 25 24  0  0  0  0  0  0  0  0999 V2000     
   19.8783   19.7065   26.9244 C   0  0  0  0  0  0  0  0  0  0  0  0
   20.6718   19.9376   27.8157 O   0  5  0  0  0  0  0  0  0  0  0  0
   19.1297   20.5421   26.4572 O   0  0  0  0  0  0  0  0  0  0  0  0
   19.8010   18.2819   26.3826 C   0  0  0  0  0  0  0  0  0  0  0  0
   18.8767   18.1762   25.8034 H   0  0  0  0  0  0  0  0  0  0  0  0
   19.7052   17.6108   27.2440 H   0  0  0  0  0  0  0  0  0  0  0  0
   21.0316   17.8575   25.5352 C   0  0  0  0  0  0  0  0  0  0  0  0
   21.9285   17.9054   26.1681 H   0  0  0  0  0  0  0  0  0  0  0  0
   20.9197   16.8055   25.2398 H   0  0  0  0  0  0  0  0  0  0  0  0
   21.2674   18.7197   24.2707 C   0  0  0  0  0  0  0  0  0  0  0  0
   22.1962   18.3841   23.7896 H   0  0  0  0  0  0  0  0  0  0  0  0
   21.4306   19.7668   24.5608 H   0  0  0  0  0  0  0  0  0  0  0  0
   20.1118   18.6399   23.2469 C   0  0  0  0  0  0  0  0  0  0  0  0
   19.9043   17.5882   23.0070 H   0  0  0  0  0  0  0  0  0  0  0  0
   19.1964   19.0579   23.6863 H   0  0  0  0  0  0  0  0  0  0  0  0
   20.4446   19.4091   21.9501 C   0  0  0  0  0  0  0  0  0  0  0  0
   21.3581   18.9956   21.5013 H   0  0  0  0  0  0  0  0  0  0  0  0
   20.6540   20.4602   22.1917 H   0  0  0  0  0  0  0  0  0  0  0  0
   19.2903   19.3354   20.9284 C   0  0  0  0  0  0  0  0  0  0  0  0
   19.0781   18.2852   20.6845 H   0  0  0  0  0  0  0  0  0  0  0  0
   18.3754   19.7511   21.3730 H   0  0  0  0  0  0  0  0  0  0  0  0
   19.6265   20.1042   19.6348 C   0  0  0  0  0  0  0  0  0  0  0  0
   20.5207   19.6886   19.1519 H   0  0  0  0  0  0  0  0  0  0  0  0
   18.7954   20.0415   18.9203 H   0  0  0  0  0  0  0  0  0  0  0  0
   19.8128   21.1654   19.8458 H   0  0  0  0  0  0  0  0  0  0  0  0
  1  2  1  0  0  0  0
  1  3  2  0  0  0  0
  1  4  1  0  0  0  0
  4  5  1  0  0  0  0
  4  6  1  0  0  0  0
  4  7  1  0  0  0  0
  7  8  1  0  0  0  0
  7  9  1  0  0  0  0
  7 10  1  0  0  0  0
 10 11  1  0  0  0  0
 10 12  1  0  0  0  0
 10 13  1  0  0  0  0
 13 14  1  0  0  0  0
 13 15  1  0  0  0  0
 13 16  1  0  0  0  0
 16 17  1  0  0  0  0
 16 18  1  0  0  0  0
 16 19  1  0  0  0  0
 19 20  1  0  0  0  0
 19 21  1  0  0  0  0
 19 22  1  0  0  0  0
 22 23  1  0  0  0  0
 22 24  1  0  0  0  0
 22 25  1  0  0  0  0
M  END
> <VM2 Rank>
44

> <Conf_Id>
262

> <Probability>
0.33

> <Sum Probability>
94.60

> <Delta G>
2.537

> <G>
-5.425

> <E>
-30.288

> <-TS>
24.863

> <U+W>
-50.856

> <U>
9.443

> <W>
-60.299

> <W(PB)>
-62.763

> <W(SA)>
2.463

> <Valence>
8.294

> <Coulomb>
0.528

> <VdW>
0.622

> <VdW6>
-9.565

> <VdW12>
10.186

> <Bond>
0.185

> <Angle>
2.775

> <Pdih>
5.333

> <Idih>
0.001

> <Tether>
0.000

$$$$
VeraChem MOL file


 25 24  0  0  0  0  0  0  0  0999 V2000     
   20.0312   19.7633   27.2579 C   0  0  0  0  0  0  0  0  0  0  0  0
   21.1187   19.8941   27.7842 O   0  5  0  0  0  0  0  0  0  0  0  0
   18.9908   19.6650   27.8781 O   0  0  0  0  0  0  0  0  0  0  0  0
   19.9711   19.6957   25.7362 C   0  0  0  0  0  0  0  0  0  0  0  0
   20.7688   20.3355   25.3422 H   0  0  0  0  0  0  0  0  0  0  0  0
   19.0169   20.1292   25.4137 H   0  0  0  0  0  0  0  0  0  0  0  0
   20.1123   18.2497   25.1938 C   0  0  0  0  0  0  0  0  0  0  0  0
   21.0900   17.8419   25.4853 H   0  0  0  0  0  0  0  0  0  0  0  0
   19.3555   17.6160   25.6766 H   0  0  0  0  0  0  0  0  0  0  0  0
   19.9388   18.1484   23.6597 C   0  0  0  0  0  0  0  0  0  0  0  0
   18.9527   18.5431   23.3820 H   0  0  0  0  0  0  0  0  0  0  0  0
   19.9427   17.0873   23.3757 H   0  0  0  0  0  0  0  0  0  0  0  0
   21.0459   18.8863   22.8681 C   0  0  0  0  0  0  0  0  0  0  0  0
   20.9888   19.9659   23.0544 H   0  0  0  0  0  0  0  0  0  0  0  0
   22.0273   18.5631   23.2408 H   0  0  0  0  0  0  0  0  0  0  0  0
   20.9910   18.6211   21.3425 C   0  0  0  0  0  0  0  0  0  0  0  0
   21.1535   17.5500   21.1613 H   0  0  0  0  0  0  0  0  0  0  0  0
   21.8328   19.1402   20.8642 H   0  0  0  0  0  0  0  0  0  0  0  0
   19.6768   19.0510   20.6446 C   0  0  0  0  0  0  0  0  0  0  0  0
   19.7493   18.8000   19.5775 H   0  0  0  0  0  0  0  0  0  0  0  0
   18.8322   18.4686   21.0362 H   0  0  0  0  0  0  0  0  0  0  0  0
   19.3764   20.5594   20.7808 C   0  0  0  0  0  0  0  0  0  0  0  0
   19.1807   20.8340   21.8250 H   0  0  0  0  0  0  0  0  0  0  0  0
   20.2186   21.1622   20.4173 H   0  0  0  0  0  0  0  0  0  0  0  0
   18.4887   20.8289   20.1942 H   0  0  0  0  0  0  0  0  0  0  0  0
  1  2  1  0  0  0  0
  1  3  2  0  0  0  0
  1  4  1  0  0  0  0
  4  5  1  0  0  0  0
  4  6  1  0  0  0  0
  4  7  1  0  0  0  0
  7  8  1  0  0  0  0
  7  9  1  0  0  0  0
  7 10  1  0  0  0  0
 10 11  1  0  0  0  0
 10 12  1  0  0  0  0
 10 13  1  0  0  0  0
 13 14  1  0  0  0  0
 13 15  1  0  0  0  0
 13 16  1  0  0  0  0
 16 17  1  0  0  0  0
 16 18  1  0  0  0  0
 16 19  1  0  0  0  0
 19 20  1  0  0  0  0
 19 21  1  0  0  0  0
 19 22  1  0  0  0  0
 22 23  1  0  0  0  0
 22 24  1  0  0  0  0
 22 25  1  0  0  0  0
M  END
> <VM2 Rank>
45

> <Conf_Id>
1338

> <Probability>
0.27

> <Sum Probability>
94.87

> <Delta G>
2.649

> <G>
-5.314

> <E>
-30.247

> <-TS>
24.934

> <U+W>
-50.815

> <U>
8.419

> <W>
-59.234

> <W(PB)>
-61.655

> <W(SA)>
2.421

> <Valence>
8.961

> <Coulomb>
-1.581

> <VdW>
1.039

> <VdW6>
-10.002

> <VdW12>
11.041

> <Bond>
0.231

> <Angle>
3.079

> <Pdih>
5.650

> <Idih>
0.001

> <Tether>
0.000

$$$$
VeraChem MOL file


 25 24  0  0  0  0  0  0  0  0999 V2000     
   20.2212   19.7756   27.2556 C   0  0  0  0  0  0  0  0  0  0  0  0
   21.2797   19.8114   27.8516 O   0  5  0  0  0  0  0  0  0  0  0  0
   19.1383   19.7676   27.8070 O   0  0  0  0  0  0  0  0  0  0  0  0
   20.2544   19.7138   25.7328 C   0  0  0  0  0  0  0  0  0  0  0  0
   21.1379   20.2650   25.3891 H   0  0  0  0  0  0  0  0  0  0  0  0
   19.3728   20.2459   25.3582 H   0  0  0  0  0  0  0  0  0  0  0  0
   20.2866   18.2607   25.1918 C   0  0  0  0  0  0  0  0  0  0  0  0
   21.1289   17.7295   25.6561 H   0  0  0  0  0  0  0  0  0  0  0  0
   19.3758   17.7320   25.5052 H   0  0  0  0  0  0  0  0  0  0  0  0
   20.4361   18.1801   23.6540 C   0  0  0  0  0  0  0  0  0  0  0  0
   20.5612   17.1267   23.3687 H   0  0  0  0  0  0  0  0  0  0  0  0
   21.3572   18.6970   23.3543 H   0  0  0  0  0  0  0  0  0  0  0  0
   19.2261   18.7695   22.8891 C   0  0  0  0  0  0  0  0  0  0  0  0
   18.3028   18.3240   23.2837 H   0  0  0  0  0  0  0  0  0  0  0  0
   19.1491   19.8477   23.0757 H   0  0  0  0  0  0  0  0  0  0  0  0
   19.2794   18.5113   21.3622 C   0  0  0  0  0  0  0  0  0  0  0  0
   18.3674   18.9178   20.9042 H   0  0  0  0  0  0  0  0  0  0  0  0
   19.2510   17.4279   21.1832 H   0  0  0  0  0  0  0  0  0  0  0  0
   20.5115   19.1046   20.6351 C   0  0  0  0  0  0  0  0  0  0  0  0
   21.4323   18.6356   21.0062 H   0  0  0  0  0  0  0  0  0  0  0  0
   20.4471   18.8450   19.5695 H   0  0  0  0  0  0  0  0  0  0  0  0
   20.6197   20.6393   20.7667 C   0  0  0  0  0  0  0  0  0  0  0  0
   19.6991   21.1290   20.4237 H   0  0  0  0  0  0  0  0  0  0  0  0
   20.8027   20.9381   21.8066 H   0  0  0  0  0  0  0  0  0  0  0  0
   21.4519   21.0193   20.1602 H   0  0  0  0  0  0  0  0  0  0  0  0
  1  2  1  0  0  0  0
  1  3  2  0  0  0  0
  1  4  1  0  0  0  0
  4  5  1  0  0  0  0
  4  6  1  0  0  0  0
  4  7  1  0  0  0  0
  7  8  1  0  0  0  0
  7  9  1  0  0  0  0
  7 10  1  0  0  0  0
 10 11  1  0  0  0  0
 10 12  1  0  0  0  0
 10 13  1  0  0  0  0
 13 14  1  0  0  0  0
 13 15  1  0  0  0  0
 13 16  1  0  0  0  0
 16 17  1  0  0  0  0
 16 18  1  0  0  0  0
 16 19  1  0  0  0  0
 19 20  1  0  0  0  0
 19 21  1  0  0  0  0
 19 22  1  0  0  0  0
 22 23  1  0  0  0  0
 22 24  1  0  0  0  0
 22 25  1  0  0  0  0
M  END
> <VM2 Rank>
46

> <Conf_Id>
544

> <Probability>
0.26

> <Sum Probability>
95.13

> <Delta G>
2.682

> <G>
-5.280

> <E>
-30.213

> <-TS>
24.933

> <U+W>
-50.781

> <U>
8.420

> <W>
-59.200

> <W(PB)>
-61.632

> <W(SA)>
2.432

> <Valence>
8.961

> <Coulomb>
-1.581

> <VdW>
1.040

> <VdW6>
-10.002

> <VdW12>
11.041

> <Bond>
0.231

> <Angle>
3.079

> <Pdih>
5.650

> <Idih>
0.001

> <Tether>
0.000

$$$$
VeraChem MOL file


 25 24  0  0  0  0  0  0  0  0999 V2000     
   19.9603   19.8751   26.9492 C   0  0  0  0  0  0  0  0  0  0  0  0
   20.5055   19.6264   28.0064 O   0  5  0  0  0  0  0  0  0  0  0  0
   18.8603   20.3843   26.8626 O   0  0  0  0  0  0  0  0  0  0  0  0
   20.6871   19.5066   25.6609 C   0  0  0  0  0  0  0  0  0  0  0  0
   21.7651   19.5981   25.8390 H   0  0  0  0  0  0  0  0  0  0  0  0
   20.4174   20.2501   24.9021 H   0  0  0  0  0  0  0  0  0  0  0  0
   20.3453   18.0768   25.1672 C   0  0  0  0  0  0  0  0  0  0  0  0
   20.5401   17.3659   25.9820 H   0  0  0  0  0  0  0  0  0  0  0  0
   19.2697   18.0090   24.9566 H   0  0  0  0  0  0  0  0  0  0  0  0
   21.1611   17.6387   23.9247 C   0  0  0  0  0  0  0  0  0  0  0  0
   20.8772   16.6109   23.6607 H   0  0  0  0  0  0  0  0  0  0  0  0
   22.2254   17.5993   24.1938 H   0  0  0  0  0  0  0  0  0  0  0  0
   20.9974   18.5411   22.6758 C   0  0  0  0  0  0  0  0  0  0  0  0
   21.3913   19.5421   22.8912 H   0  0  0  0  0  0  0  0  0  0  0  0
   21.6229   18.1342   21.8699 H   0  0  0  0  0  0  0  0  0  0  0  0
   19.5352   18.6408   22.1767 C   0  0  0  0  0  0  0  0  0  0  0  0
   18.9162   19.1502   22.9270 H   0  0  0  0  0  0  0  0  0  0  0  0
   19.1248   17.6278   22.0673 H   0  0  0  0  0  0  0  0  0  0  0  0
   19.3994   19.3776   20.8240 C   0  0  0  0  0  0  0  0  0  0  0  0
   20.0048   18.8688   20.0612 H   0  0  0  0  0  0  0  0  0  0  0  0
   18.3555   19.3089   20.4883 H   0  0  0  0  0  0  0  0  0  0  0  0
   19.8013   20.8667   20.8985 C   0  0  0  0  0  0  0  0  0  0  0  0
   19.6054   21.3659   19.9408 H   0  0  0  0  0  0  0  0  0  0  0  0
   19.2289   21.3894   21.6759 H   0  0  0  0  0  0  0  0  0  0  0  0
   20.8694   20.9823   21.1211 H   0  0  0  0  0  0  0  0  0  0  0  0
  1  2  1  0  0  0  0
  1  3  2  0  0  0  0
  1  4  1  0  0  0  0
  4  5  1  0  0  0  0
  4  6  1  0  0  0  0
  4  7  1  0  0  0  0
  7  8  1  0  0  0  0
  7  9  1  0  0  0  0
  7 10  1  0  0  0  0
 10 11  1  0  0  0  0
 10 12  1  0  0  0  0
 10 13  1  0  0  0  0
 13 14  1  0  0  0  0
 13 15  1  0  0  0  0
 13 16  1  0  0  0  0
 16 17  1  0  0  0  0
 16 18  1  0  0  0  0
 16 19  1  0  0  0  0
 19 20  1  0  0  0  0
 19 21  1  0  0  0  0
 19 22  1  0  0  0  0
 22 23  1  0  0  0  0
 22 24  1  0  0  0  0
 22 25  1  0  0  0  0
M  END
> <VM2 Rank>
47

> <Conf_Id>
1294

> <Probability>
0.25

> <Sum Probability>
95.38

> <Delta G>
2.690

> <G>
-5.272

> <E>
-30.250

> <-TS>
24.977

> <U+W>
-50.817

> <U>
8.957

> <W>
-59.775

> <W(PB)>
-62.181

> <W(SA)>
2.407

> <Valence>
8.948

> <Coulomb>
-0.940

> <VdW>
0.949

> <VdW6>
-10.177

> <VdW12>
11.126

> <Bond>
0.232

> <Angle>
3.080

> <Pdih>
5.636

> <Idih>
0.001

> <Tether>
0.000

$$$$
VeraChem MOL file


 25 24  0  0  0  0  0  0  0  0999 V2000     
   19.6005   19.1775   26.9742 C   0  0  0  0  0  0  0  0  0  0  0  0
   20.1506   18.9383   28.0311 O   0  5  0  0  0  0  0  0  0  0  0  0
   18.5446   19.7720   26.8845 O   0  0  0  0  0  0  0  0  0  0  0  0
   20.2847   18.7260   25.6889 C   0  0  0  0  0  0  0  0  0  0  0  0
   19.5009   18.4724   24.9660 H   0  0  0  0  0  0  0  0  0  0  0  0
   20.8411   17.8059   25.9035 H   0  0  0  0  0  0  0  0  0  0  0  0
   21.2355   19.8031   25.1053 C   0  0  0  0  0  0  0  0  0  0  0  0
   20.6602   20.7057   24.8597 H   0  0  0  0  0  0  0  0  0  0  0  0
   21.9508   20.1019   25.8838 H   0  0  0  0  0  0  0  0  0  0  0  0
   22.0292   19.3221   23.8643 C   0  0  0  0  0  0  0  0  0  0  0  0
   22.6867   18.4939   24.1617 H   0  0  0  0  0  0  0  0  0  0  0  0
   22.6933   20.1325   23.5343 H   0  0  0  0  0  0  0  0  0  0  0  0
   21.1633   18.8627   22.6643 C   0  0  0  0  0  0  0  0  0  0  0  0
   21.8340   18.5430   21.8553 H   0  0  0  0  0  0  0  0  0  0  0  0
   20.5833   17.9756   22.9475 H   0  0  0  0  0  0  0  0  0  0  0  0
   20.2194   19.9669   22.1289 C   0  0  0  0  0  0  0  0  0  0  0  0
   20.8026   20.8803   21.9501 H   0  0  0  0  0  0  0  0  0  0  0  0
   19.4675   20.2190   22.8884 H   0  0  0  0  0  0  0  0  0  0  0  0
   19.5012   19.5745   20.8168 C   0  0  0  0  0  0  0  0  0  0  0  0
   18.9419   20.4449   20.4470 H   0  0  0  0  0  0  0  0  0  0  0  0
   20.2443   19.3322   20.0445 H   0  0  0  0  0  0  0  0  0  0  0  0
   18.5242   18.3910   20.9877 C   0  0  0  0  0  0  0  0  0  0  0  0
   17.7892   18.5994   21.7761 H   0  0  0  0  0  0  0  0  0  0  0  0
   17.9763   18.2074   20.0544 H   0  0  0  0  0  0  0  0  0  0  0  0
   19.0559   17.4674   21.2481 H   0  0  0  0  0  0  0  0  0  0  0  0
  1  2  1  0  0  0  0
  1  3  2  0  0  0  0
  1  4  1  0  0  0  0
  4  5  1  0  0  0  0
  4  6  1  0  0  0  0
  4  7  1  0  0  0  0
  7  8  1  0  0  0  0
  7  9  1  0  0  0  0
  7 10  1  0  0  0  0
 10 11  1  0  0  0  0
 10 12  1  0  0  0  0
 10 13  1  0  0  0  0
 13 14  1  0  0  0  0
 13 15  1  0  0  0  0
 13 16  1  0  0  0  0
 16 17  1  0  0  0  0
 16 18  1  0  0  0  0
 16 19  1  0  0  0  0
 19 20  1  0  0  0  0
 19 21  1  0  0  0  0
 19 22  1  0  0  0  0
 22 23  1  0  0  0  0
 22 24  1  0  0  0  0
 22 25  1  0  0  0  0
M  END
> <VM2 Rank>
48

> <Conf_Id>
712

> <Probability>
0.25

> <Sum Probability>
95.63

> <Delta G>
2.700

> <G>
-5.263

> <E>
-30.239

> <-TS>
24.977

> <U+W>
-50.807

> <U>
8.957

> <W>
-59.764

> <W(PB)>
-62.187

> <W(SA)>
2.423

> <Valence>
8.948

> <Coulomb>
-0.940

> <VdW>
0.950

> <VdW6>
-10.176

> <VdW12>
11.126

> <Bond>
0.232

> <Angle>
3.080

> <Pdih>
5.636

> <Idih>
0.001

> <Tether>
0.000

$$$$
VeraChem MOL file


 25 24  0  0  0  0  0  0  0  0999 V2000     
   20.5277   19.5973   27.0187 C   0  0  0  0  0  0  0  0  0  0  0  0
   21.5730   20.1994   26.8712 O   0  5  0  0  0  0  0  0  0  0  0  0
   19.8262   19.6987   28.0058 O   0  0  0  0  0  0  0  0  0  0  0  0
   20.0604   18.6791   25.8952 C   0  0  0  0  0  0  0  0  0  0  0  0
   19.5113   17.8430   26.3441 H   0  0  0  0  0  0  0  0  0  0  0  0
   20.9516   18.2621   25.4126 H   0  0  0  0  0  0  0  0  0  0  0  0
   19.1696   19.4081   24.8562 C   0  0  0  0  0  0  0  0  0  0  0  0
   18.3296   19.8823   25.3823 H   0  0  0  0  0  0  0  0  0  0  0  0
   19.7385   20.2257   24.3937 H   0  0  0  0  0  0  0  0  0  0  0  0
   18.6012   18.4692   23.7627 C   0  0  0  0  0  0  0  0  0  0  0  0
   17.9431   19.0498   23.1030 H   0  0  0  0  0  0  0  0  0  0  0  0
   17.9556   17.7195   24.2399 H   0  0  0  0  0  0  0  0  0  0  0  0
   19.6652   17.7327   22.9068 C   0  0  0  0  0  0  0  0  0  0  0  0
   20.2097   17.0198   23.5397 H   0  0  0  0  0  0  0  0  0  0  0  0
   19.1479   17.1239   22.1529 H   0  0  0  0  0  0  0  0  0  0  0  0
   20.6888   18.6497   22.1911 C   0  0  0  0  0  0  0  0  0  0  0  0
   21.3996   18.0147   21.6451 H   0  0  0  0  0  0  0  0  0  0  0  0
   21.2815   19.2007   22.9332 H   0  0  0  0  0  0  0  0  0  0  0  0
   20.0390   19.6417   21.2004 C   0  0  0  0  0  0  0  0  0  0  0  0
   19.4150   19.0925   20.4820 H   0  0  0  0  0  0  0  0  0  0  0  0
   19.3763   20.3318   21.7390 H   0  0  0  0  0  0  0  0  0  0  0  0
   21.1019   20.4582   20.4380 C   0  0  0  0  0  0  0  0  0  0  0  0
   21.7225   21.0392   21.1327 H   0  0  0  0  0  0  0  0  0  0  0  0
   21.7613   19.8002   19.8571 H   0  0  0  0  0  0  0  0  0  0  0  0
   20.6246   21.1599   19.7417 H   0  0  0  0  0  0  0  0  0  0  0  0
  1  2  1  0  0  0  0
  1  3  2  0  0  0  0
  1  4  1  0  0  0  0
  4  5  1  0  0  0  0
  4  6  1  0  0  0  0
  4  7  1  0  0  0  0
  7  8  1  0  0  0  0
  7  9  1  0  0  0  0
  7 10  1  0  0  0  0
 10 11  1  0  0  0  0
 10 12  1  0  0  0  0
 10 13  1  0  0  0  0
 13 14  1  0  0  0  0
 13 15  1  0  0  0  0
 13 16  1  0  0  0  0
 16 17  1  0  0  0  0
 16 18  1  0  0  0  0
 16 19  1  0  0  0  0
 19 20  1  0  0  0  0
 19 21  1  0  0  0  0
 19 22  1  0  0  0  0
 22 23  1  0  0  0  0
 22 24  1  0  0  0  0
 22 25  1  0  0  0  0
M  END
> <VM2 Rank>
49

> <Conf_Id>
204

> <Probability>
0.22

> <Sum Probability>
95.85

> <Delta G>
2.767

> <G>
-5.195

> <E>
-30.373

> <-TS>
25.177

> <U+W>
-50.940

> <U>
8.897

> <W>
-59.838

> <W(PB)>
-62.245

> <W(SA)>
2.407

> <Valence>
8.932

> <Coulomb>
-0.846

> <VdW>
0.811

> <VdW6>
-10.410

> <VdW12>
11.222

> <Bond>
0.240

> <Angle>
3.240

> <Pdih>
5.452

> <Idih>
0.001

> <Tether>
0.000

$$$$
VeraChem MOL file


 25 24  0  0  0  0  0  0  0  0999 V2000     
   20.2975   19.3711   27.4514 C   0  0  0  0  0  0  0  0  0  0  0  0
   21.3956   19.8017   27.7438 O   0  5  0  0  0  0  0  0  0  0  0  0
   19.3429   19.3960   28.2030 O   0  0  0  0  0  0  0  0  0  0  0  0
   20.1005   18.7880   26.0567 C   0  0  0  0  0  0  0  0  0  0  0  0
   19.3454   17.9956   26.1232 H   0  0  0  0  0  0  0  0  0  0  0  0
   21.0429   18.3157   25.7579 H   0  0  0  0  0  0  0  0  0  0  0  0
   19.6673   19.8543   25.0171 C   0  0  0  0  0  0  0  0  0  0  0  0
   18.7764   20.3732   25.3972 H   0  0  0  0  0  0  0  0  0  0  0  0
   20.4530   20.6166   24.9229 H   0  0  0  0  0  0  0  0  0  0  0  0
   19.3393   19.2663   23.6238 C   0  0  0  0  0  0  0  0  0  0  0  0
   18.9105   20.0688   23.0102 H   0  0  0  0  0  0  0  0  0  0  0  0
   18.5607   18.4977   23.7218 H   0  0  0  0  0  0  0  0  0  0  0  0
   20.5729   18.6724   22.9003 C   0  0  0  0  0  0  0  0  0  0  0  0
   21.3507   19.4407   22.8017 H   0  0  0  0  0  0  0  0  0  0  0  0
   21.0086   17.8755   23.5157 H   0  0  0  0  0  0  0  0  0  0  0  0
   20.2444   18.0704   21.5104 C   0  0  0  0  0  0  0  0  0  0  0  0
   19.5302   17.2459   21.6401 H   0  0  0  0  0  0  0  0  0  0  0  0
   21.1573   17.6177   21.1001 H   0  0  0  0  0  0  0  0  0  0  0  0
   19.6729   19.0660   20.4705 C   0  0  0  0  0  0  0  0  0  0  0  0
   19.4792   18.5216   19.5361 H   0  0  0  0  0  0  0  0  0  0  0  0
   18.6991   19.4474   20.8048 H   0  0  0  0  0  0  0  0  0  0  0  0
   20.6198   20.2477   20.1688 C   0  0  0  0  0  0  0  0  0  0  0  0
   21.6086   19.8888   19.8554 H   0  0  0  0  0  0  0  0  0  0  0  0
   20.2132   20.8694   19.3608 H   0  0  0  0  0  0  0  0  0  0  0  0
   20.7487   20.8897   21.0493 H   0  0  0  0  0  0  0  0  0  0  0  0
  1  2  1  0  0  0  0
  1  3  2  0  0  0  0
  1  4  1  0  0  0  0
  4  5  1  0  0  0  0
  4  6  1  0  0  0  0
  4  7  1  0  0  0  0
  7  8  1  0  0  0  0
  7  9  1  0  0  0  0
  7 10  1  0  0  0  0
 10 11  1  0  0  0  0
 10 12  1  0  0  0  0
 10 13  1  0  0  0  0
 13 14  1  0  0  0  0
 13 15  1  0  0  0  0
 13 16  1  0  0  0  0
 16 17  1  0  0  0  0
 16 18  1  0  0  0  0
 16 19  1  0  0  0  0
 19 20  1  0  0  0  0
 19 21  1  0  0  0  0
 19 22  1  0  0  0  0
 22 23  1  0  0  0  0
 22 24  1  0  0  0  0
 22 25  1  0  0  0  0
M  END
> <VM2 Rank>
50

> <Conf_Id>
696

> <Probability>
0.22

> <Sum Probability>
96.07

> <Delta G>
2.780

> <G>
-5.182

> <E>
-30.048

> <-TS>
24.865

> <U+W>
-50.615

> <U>
8.474

> <W>
-59.089

> <W(PB)>
-61.530

> <W(SA)>
2.441

> <Valence>
9.080

> <Coulomb>
-1.772

> <VdW>
1.165

> <VdW6>
-9.830

> <VdW12>
10.996

> <Bond>
0.240

> <Angle>
3.225

> <Pdih>
5.615

> <Idih>
0.001

> <Tether>
0.000

$$$$
VeraChem MOL file


 25 24  0  0  0  0  0  0  0  0999 V2000     
   19.7187   19.3440   27.1604 C   0  0  0  0  0  0  0  0  0  0  0  0
   20.3206   19.0376   28.1706 O   0  5  0  0  0  0  0  0  0  0  0  0
   18.7918   20.1296   27.1413 O   0  0  0  0  0  0  0  0  0  0  0  0
   20.1661   18.7255   25.8408 C   0  0  0  0  0  0  0  0  0  0  0  0
   19.2773   18.6057   25.2110 H   0  0  0  0  0  0  0  0  0  0  0  0
   20.5566   17.7223   26.0491 H   0  0  0  0  0  0  0  0  0  0  0  0
   21.2382   19.5768   25.1125 C   0  0  0  0  0  0  0  0  0  0  0  0
   20.8239   20.5658   24.8765 H   0  0  0  0  0  0  0  0  0  0  0  0
   22.0742   19.7566   25.8025 H   0  0  0  0  0  0  0  0  0  0  0  0
   21.7942   18.9089   23.8293 C   0  0  0  0  0  0  0  0  0  0  0  0
   22.3179   17.9850   24.1101 H   0  0  0  0  0  0  0  0  0  0  0  0
   22.5565   19.5672   23.3909 H   0  0  0  0  0  0  0  0  0  0  0  0
   20.7409   18.5699   22.7441 C   0  0  0  0  0  0  0  0  0  0  0  0
   21.2626   18.0826   21.9108 H   0  0  0  0  0  0  0  0  0  0  0  0
   20.0282   17.8298   23.1305 H   0  0  0  0  0  0  0  0  0  0  0  0
   19.9748   19.8082   22.2170 C   0  0  0  0  0  0  0  0  0  0  0  0
   20.6880   20.5489   21.8308 H   0  0  0  0  0  0  0  0  0  0  0  0
   19.4444   20.2889   23.0491 H   0  0  0  0  0  0  0  0  0  0  0  0
   18.9363   19.4684   21.1223 C   0  0  0  0  0  0  0  0  0  0  0  0
   18.2283   18.7190   21.5024 H   0  0  0  0  0  0  0  0  0  0  0  0
   18.3467   20.3699   20.9059 H   0  0  0  0  0  0  0  0  0  0  0  0
   19.5713   18.9652   19.8076 C   0  0  0  0  0  0  0  0  0  0  0  0
   20.0712   17.9988   19.9469 H   0  0  0  0  0  0  0  0  0  0  0  0
   18.8015   18.8318   19.0366 H   0  0  0  0  0  0  0  0  0  0  0  0
   20.3091   19.6837   19.4275 H   0  0  0  0  0  0  0  0  0  0  0  0
  1  2  1  0  0  0  0
  1  3  2  0  0  0  0
  1  4  1  0  0  0  0
  4  5  1  0  0  0  0
  4  6  1  0  0  0  0
  4  7  1  0  0  0  0
  7  8  1  0  0  0  0
  7  9  1  0  0  0  0
  7 10  1  0  0  0  0
 10 11  1  0  0  0  0
 10 12  1  0  0  0  0
 10 13  1  0  0  0  0
 13 14  1  0  0  0  0
 13 15  1  0  0  0  0
 13 16  1  0  0  0  0
 16 17  1  0  0  0  0
 16 18  1  0  0  0  0
 16 19  1  0  0  0  0
 19 20  1  0  0  0  0
 19 21  1  0  0  0  0
 19 22  1  0  0  0  0
 22 23  1  0  0  0  0
 22 24  1  0  0  0  0
 22 25  1  0  0  0  0
M  END
> <VM2 Rank>
51

> <Conf_Id>
1081

> <Probability>
0.21

> <Sum Probability>
96.28

> <Delta G>
2.787

> <G>
-5.176

> <E>
-30.090

> <-TS>
24.915

> <U+W>
-50.658

> <U>
8.774

> <W>
-59.432

> <W(PB)>
-61.890

> <W(SA)>
2.459

> <Valence>
9.062

> <Coulomb>
-1.371

> <VdW>
1.083

> <VdW6>
-9.991

> <VdW12>
11.074

> <Bond>
0.239

> <Angle>
3.221

> <Pdih>
5.601

> <Idih>
0.001

> <Tether>
0.000

$$$$
VeraChem MOL file


 25 24  0  0  0  0  0  0  0  0999 V2000     
   19.9655   19.7450   27.1439 C   0  0  0  0  0  0  0  0  0  0  0  0
   20.5470   19.4054   28.1555 O   0  5  0  0  0  0  0  0  0  0  0  0
   18.8462   20.2180   27.1376 O   0  0  0  0  0  0  0  0  0  0  0  0
   20.6706   19.5449   25.8072 C   0  0  0  0  0  0  0  0  0  0  0  0
   21.7489   19.6592   25.9697 H   0  0  0  0  0  0  0  0  0  0  0  0
   20.3535   20.3538   25.1392 H   0  0  0  0  0  0  0  0  0  0  0  0
   20.3684   18.1636   25.1707 C   0  0  0  0  0  0  0  0  0  0  0  0
   20.6105   17.3786   25.9003 H   0  0  0  0  0  0  0  0  0  0  0  0
   19.2909   18.0753   24.9790 H   0  0  0  0  0  0  0  0  0  0  0  0
   21.1677   17.8911   23.8712 C   0  0  0  0  0  0  0  0  0  0  0  0
   20.9085   16.8898   23.5010 H   0  0  0  0  0  0  0  0  0  0  0  0
   22.2381   17.8553   24.1155 H   0  0  0  0  0  0  0  0  0  0  0  0
   20.9551   18.9178   22.7298 C   0  0  0  0  0  0  0  0  0  0  0  0
   21.3077   19.9084   23.0450 H   0  0  0  0  0  0  0  0  0  0  0  0
   21.5942   18.6215   21.8886 H   0  0  0  0  0  0  0  0  0  0  0  0
   19.4859   19.0141   22.2499 C   0  0  0  0  0  0  0  0  0  0  0  0
   18.8487   19.3213   23.0891 H   0  0  0  0  0  0  0  0  0  0  0  0
   19.1327   18.0227   21.9353 H   0  0  0  0  0  0  0  0  0  0  0  0
   19.2803   20.0270   21.0992 C   0  0  0  0  0  0  0  0  0  0  0  0
   18.2024   20.1358   20.9158 H   0  0  0  0  0  0  0  0  0  0  0  0
   19.6436   21.0171   21.4072 H   0  0  0  0  0  0  0  0  0  0  0  0
   19.9664   19.6072   19.7809 C   0  0  0  0  0  0  0  0  0  0  0  0
   19.6439   18.6044   19.4721 H   0  0  0  0  0  0  0  0  0  0  0  0
   19.7099   20.3074   18.9754 H   0  0  0  0  0  0  0  0  0  0  0  0
   21.0589   19.6027   19.8803 H   0  0  0  0  0  0  0  0  0  0  0  0
  1  2  1  0  0  0  0
  1  3  2  0  0  0  0
  1  4  1  0  0  0  0
  4  5  1  0  0  0  0
  4  6  1  0  0  0  0
  4  7  1  0  0  0  0
  7  8  1  0  0  0  0
  7  9  1  0  0  0  0
  7 10  1  0  0  0  0
 10 11  1  0  0  0  0
 10 12  1  0  0  0  0
 10 13  1  0  0  0  0
 13 14  1  0  0  0  0
 13 15  1  0  0  0  0
 13 16  1  0  0  0  0
 16 17  1  0  0  0  0
 16 18  1  0  0  0  0
 16 19  1  0  0  0  0
 19 20  1  0  0  0  0
 19 21  1  0  0  0  0
 19 22  1  0  0  0  0
 22 23  1  0  0  0  0
 22 24  1  0  0  0  0
 22 25  1  0  0  0  0
M  END
> <VM2 Rank>
52

> <Conf_Id>
444

> <Probability>
0.21

> <Sum Probability>
96.49

> <Delta G>
2.812

> <G>
-5.150

> <E>
-30.064

> <-TS>
24.915

> <U+W>
-50.632

> <U>
8.774

> <W>
-59.406

> <W(PB)>
-61.836

> <W(SA)>
2.430

> <Valence>
9.062

> <Coulomb>
-1.371

> <VdW>
1.083

> <VdW6>
-9.991

> <VdW12>
11.073

> <Bond>
0.239

> <Angle>
3.221

> <Pdih>
5.601

> <Idih>
0.001

> <Tether>
0.000

$$$$
VeraChem MOL file


 25 24  0  0  0  0  0  0  0  0999 V2000     
   19.7447   19.5472   27.0279 C   0  0  0  0  0  0  0  0  0  0  0  0
   20.4503   19.7385   27.9987 O   0  5  0  0  0  0  0  0  0  0  0  0
   18.6282   20.0109   26.9055 O   0  0  0  0  0  0  0  0  0  0  0  0
   20.2992   18.6944   25.8925 C   0  0  0  0  0  0  0  0  0  0  0  0
   19.4575   18.1665   25.4300 H   0  0  0  0  0  0  0  0  0  0  0  0
   20.9606   17.9358   26.3274 H   0  0  0  0  0  0  0  0  0  0  0  0
   21.0656   19.5295   24.8344 C   0  0  0  0  0  0  0  0  0  0  0  0
   20.3866   20.2671   24.3863 H   0  0  0  0  0  0  0  0  0  0  0  0
   21.8502   20.1076   25.3416 H   0  0  0  0  0  0  0  0  0  0  0  0
   21.7237   18.6691   23.7267 C   0  0  0  0  0  0  0  0  0  0  0  0
   22.4704   18.0084   24.1877 H   0  0  0  0  0  0  0  0  0  0  0  0
   22.2870   19.3278   23.0528 H   0  0  0  0  0  0  0  0  0  0  0  0
   20.7427   17.8017   22.8943 C   0  0  0  0  0  0  0  0  0  0  0  0
   21.3159   17.2626   22.1280 H   0  0  0  0  0  0  0  0  0  0  0  0
   20.3081   17.0263   23.5386 H   0  0  0  0  0  0  0  0  0  0  0  0
   19.5945   18.5798   22.2036 C   0  0  0  0  0  0  0  0  0  0  0  0
   18.9537   19.0521   22.9599 H   0  0  0  0  0  0  0  0  0  0  0  0
   18.9579   17.8587   21.6733 H   0  0  0  0  0  0  0  0  0  0  0  0
   20.0898   19.6449   21.1996 C   0  0  0  0  0  0  0  0  0  0  0  0
   20.6714   20.4147   21.7238 H   0  0  0  0  0  0  0  0  0  0  0  0
   20.7620   19.1785   20.4664 H   0  0  0  0  0  0  0  0  0  0  0  0
   18.9144   20.3181   20.4628 C   0  0  0  0  0  0  0  0  0  0  0  0
   19.2823   21.0737   19.7566 H   0  0  0  0  0  0  0  0  0  0  0  0
   18.3310   19.5805   19.8964 H   0  0  0  0  0  0  0  0  0  0  0  0
   18.2409   20.8166   21.1724 H   0  0  0  0  0  0  0  0  0  0  0  0
  1  2  1  0  0  0  0
  1  3  2  0  0  0  0
  1  4  1  0  0  0  0
  4  5  1  0  0  0  0
  4  6  1  0  0  0  0
  4  7  1  0  0  0  0
  7  8  1  0  0  0  0
  7  9  1  0  0  0  0
  7 10  1  0  0  0  0
 10 11  1  0  0  0  0
 10 12  1  0  0  0  0
 10 13  1  0  0  0  0
 13 14  1  0  0  0  0
 13 15  1  0  0  0  0
 13 16  1  0  0  0  0
 16 17  1  0  0  0  0
 16 18  1  0  0  0  0
 16 19  1  0  0  0  0
 19 20  1  0  0  0  0
 19 21  1  0  0  0  0
 19 22  1  0  0  0  0
 22 23  1  0  0  0  0
 22 24  1  0  0  0  0
 22 25  1  0  0  0  0
M  END
> <VM2 Rank>
53

> <Conf_Id>
1056

> <Probability>
0.20

> <Sum Probability>
96.69

> <Delta G>
2.827

> <G>
-5.136

> <E>
-30.312

> <-TS>
25.176

> <U+W>
-50.880

> <U>
8.897

> <W>
-59.777

> <W(PB)>
-62.190

> <W(SA)>
2.414

> <Valence>
8.932

> <Coulomb>
-0.847

> <VdW>
0.811

> <VdW6>
-10.410

> <VdW12>
11.221

> <Bond>
0.240

> <Angle>
3.240

> <Pdih>
5.452

> <Idih>
0.001

> <Tether>
0.000

$$$$
VeraChem MOL file


 25 24  0  0  0  0  0  0  0  0999 V2000     
   19.8268   19.4076   27.2705 C   0  0  0  0  0  0  0  0  0  0  0  0
   20.7395   19.6263   28.0424 O   0  5  0  0  0  0  0  0  0  0  0  0
   18.7173   19.8897   27.3859 O   0  0  0  0  0  0  0  0  0  0  0  0
   20.0938   18.4921   26.0811 C   0  0  0  0  0  0  0  0  0  0  0  0
   19.1635   17.9625   25.8432 H   0  0  0  0  0  0  0  0  0  0  0  0
   20.8271   17.7375   26.3900 H   0  0  0  0  0  0  0  0  0  0  0  0
   20.6053   19.2576   24.8360 C   0  0  0  0  0  0  0  0  0  0  0  0
   19.8646   20.0193   24.5584 H   0  0  0  0  0  0  0  0  0  0  0  0
   21.5321   19.7895   25.0914 H   0  0  0  0  0  0  0  0  0  0  0  0
   20.8610   18.3074   23.6434 C   0  0  0  0  0  0  0  0  0  0  0  0
   19.9263   17.8051   23.3613 H   0  0  0  0  0  0  0  0  0  0  0  0
   21.5499   17.5129   23.9608 H   0  0  0  0  0  0  0  0  0  0  0  0
   21.4711   19.0175   22.4089 C   0  0  0  0  0  0  0  0  0  0  0  0
   22.4498   19.4318   22.6867 H   0  0  0  0  0  0  0  0  0  0  0  0
   21.6758   18.2675   21.6337 H   0  0  0  0  0  0  0  0  0  0  0  0
   20.6062   20.1549   21.8038 C   0  0  0  0  0  0  0  0  0  0  0  0
   21.1300   20.5652   20.9298 H   0  0  0  0  0  0  0  0  0  0  0  0
   20.5381   20.9815   22.5230 H   0  0  0  0  0  0  0  0  0  0  0  0
   19.1760   19.7406   21.3785 C   0  0  0  0  0  0  0  0  0  0  0  0
   18.6024   19.4095   22.2544 H   0  0  0  0  0  0  0  0  0  0  0  0
   18.6550   20.6271   20.9917 H   0  0  0  0  0  0  0  0  0  0  0  0
   19.1560   18.6403   20.2955 C   0  0  0  0  0  0  0  0  0  0  0  0
   18.1273   18.4412   19.9687 H   0  0  0  0  0  0  0  0  0  0  0  0
   19.7382   18.9443   19.4160 H   0  0  0  0  0  0  0  0  0  0  0  0
   19.5726   17.6992   20.6760 H   0  0  0  0  0  0  0  0  0  0  0  0
  1  2  1  0  0  0  0
  1  3  2  0  0  0  0
  1  4  1  0  0  0  0
  4  5  1  0  0  0  0
  4  6  1  0  0  0  0
  4  7  1  0  0  0  0
  7  8  1  0  0  0  0
  7  9  1  0  0  0  0
  7 10  1  0  0  0  0
 10 11  1  0  0  0  0
 10 12  1  0  0  0  0
 10 13  1  0  0  0  0
 13 14  1  0  0  0  0
 13 15  1  0  0  0  0
 13 16  1  0  0  0  0
 16 17  1  0  0  0  0
 16 18  1  0  0  0  0
 16 19  1  0  0  0  0
 19 20  1  0  0  0  0
 19 21  1  0  0  0  0
 19 22  1  0  0  0  0
 22 23  1  0  0  0  0
 22 24  1  0  0  0  0
 22 25  1  0  0  0  0
M  END
> <VM2 Rank>
54

> <Conf_Id>
1090

> <Probability>
0.20

> <Sum Probability>
96.89

> <Delta G>
2.828

> <G>
-5.135

> <E>
-30.278

> <-TS>
25.143

> <U+W>
-50.846

> <U>
8.647

> <W>
-59.492

> <W(PB)>
-61.923

> <W(SA)>
2.431

> <Valence>
8.924

> <Coulomb>
-1.171

> <VdW>
0.894

> <VdW6>
-10.224

> <VdW12>
11.118

> <Bond>
0.231

> <Angle>
3.232

> <Pdih>
5.461

> <Idih>
0.001

> <Tether>
0.000

$$$$
VeraChem MOL file


 25 24  0  0  0  0  0  0  0  0999 V2000     
   20.0117   19.3529   27.4547 C   0  0  0  0  0  0  0  0  0  0  0  0
   20.9725   19.4999   28.1842 O   0  5  0  0  0  0  0  0  0  0  0  0
   18.8748   19.6410   27.7729 O   0  0  0  0  0  0  0  0  0  0  0  0
   20.2491   18.7974   26.0550 C   0  0  0  0  0  0  0  0  0  0  0  0
   19.3677   18.2089   25.7773 H   0  0  0  0  0  0  0  0  0  0  0  0
   21.1000   18.1075   26.1029 H   0  0  0  0  0  0  0  0  0  0  0  0
   20.5194   19.9087   25.0073 C   0  0  0  0  0  0  0  0  0  0  0  0
   19.6413   20.5649   24.9323 H   0  0  0  0  0  0  0  0  0  0  0  0
   21.3457   20.5371   25.3676 H   0  0  0  0  0  0  0  0  0  0  0  0
   20.8872   19.3650   23.6059 C   0  0  0  0  0  0  0  0  0  0  0  0
   21.7592   18.7017   23.6848 H   0  0  0  0  0  0  0  0  0  0  0  0
   21.1963   20.2147   22.9838 H   0  0  0  0  0  0  0  0  0  0  0  0
   19.7227   18.6182   22.9102 C   0  0  0  0  0  0  0  0  0  0  0  0
   19.4060   17.7733   23.5343 H   0  0  0  0  0  0  0  0  0  0  0  0
   18.8515   19.2814   22.8306 H   0  0  0  0  0  0  0  0  0  0  0  0
   20.0929   18.0607   21.5122 C   0  0  0  0  0  0  0  0  0  0  0  0
   19.2357   17.4952   21.1223 H   0  0  0  0  0  0  0  0  0  0  0  0
   20.9089   17.3338   21.6242 H   0  0  0  0  0  0  0  0  0  0  0  0
   20.5093   19.1194   20.4608 C   0  0  0  0  0  0  0  0  0  0  0  0
   21.4342   19.6218   20.7732 H   0  0  0  0  0  0  0  0  0  0  0  0
   20.7490   18.6025   19.5215 H   0  0  0  0  0  0  0  0  0  0  0  0
   19.4133   20.1708   20.1827 C   0  0  0  0  0  0  0  0  0  0  0  0
   18.4711   19.6887   19.8915 H   0  0  0  0  0  0  0  0  0  0  0  0
   19.2241   20.7924   21.0669 H   0  0  0  0  0  0  0  0  0  0  0  0
   19.7191   20.8379   19.3665 H   0  0  0  0  0  0  0  0  0  0  0  0
  1  2  1  0  0  0  0
  1  3  2  0  0  0  0
  1  4  1  0  0  0  0
  4  5  1  0  0  0  0
  4  6  1  0  0  0  0
  4  7  1  0  0  0  0
  7  8  1  0  0  0  0
  7  9  1  0  0  0  0
  7 10  1  0  0  0  0
 10 11  1  0  0  0  0
 10 12  1  0  0  0  0
 10 13  1  0  0  0  0
 13 14  1  0  0  0  0
 13 15  1  0  0  0  0
 13 16  1  0  0  0  0
 16 17  1  0  0  0  0
 16 18  1  0  0  0  0
 16 19  1  0  0  0  0
 19 20  1  0  0  0  0
 19 21  1  0  0  0  0
 19 22  1  0  0  0  0
 22 23  1  0  0  0  0
 22 24  1  0  0  0  0
 22 25  1  0  0  0  0
M  END
> <VM2 Rank>
55

> <Conf_Id>
522

> <Probability>
0.19

> <Sum Probability>
97.08

> <Delta G>
2.868

> <G>
-5.094

> <E>
-29.960

> <-TS>
24.865

> <U+W>
-50.527

> <U>
8.474

> <W>
-59.001

> <W(PB)>
-61.454

> <W(SA)>
2.453

> <Valence>
9.080

> <Coulomb>
-1.772

> <VdW>
1.165

> <VdW6>
-9.830

> <VdW12>
10.996

> <Bond>
0.240

> <Angle>
3.225

> <Pdih>
5.614

> <Idih>
0.001

> <Tether>
0.000

$$$$
VeraChem MOL file


 25 24  0  0  0  0  0  0  0  0999 V2000     
   20.4697   19.4486   27.2632 C   0  0  0  0  0  0  0  0  0  0  0  0
   21.5112   20.0680   27.3538 O   0  5  0  0  0  0  0  0  0  0  0  0
   19.5545   19.5505   28.0562 O   0  0  0  0  0  0  0  0  0  0  0  0
   20.2940   18.5049   26.0788 C   0  0  0  0  0  0  0  0  0  0  0  0
   19.6698   17.6637   26.4033 H   0  0  0  0  0  0  0  0  0  0  0  0
   21.2783   18.0975   25.8188 H   0  0  0  0  0  0  0  0  0  0  0  0
   19.6608   19.1974   24.8470 C   0  0  0  0  0  0  0  0  0  0  0  0
   18.6801   19.6077   25.1244 H   0  0  0  0  0  0  0  0  0  0  0  0
   20.2922   20.0466   24.5536 H   0  0  0  0  0  0  0  0  0  0  0  0
   19.5006   18.2207   23.6591 C   0  0  0  0  0  0  0  0  0  0  0  0
   18.9257   17.3456   23.9911 H   0  0  0  0  0  0  0  0  0  0  0  0
   20.4848   17.8408   23.3549 H   0  0  0  0  0  0  0  0  0  0  0  0
   18.7769   18.8459   22.4401 C   0  0  0  0  0  0  0  0  0  0  0  0
   18.6513   18.0748   21.6688 H   0  0  0  0  0  0  0  0  0  0  0  0
   17.7603   19.1330   22.7410 H   0  0  0  0  0  0  0  0  0  0  0  0
   19.4763   20.0829   21.8169 C   0  0  0  0  0  0  0  0  0  0  0  0
   19.4557   20.9125   22.5356 H   0  0  0  0  0  0  0  0  0  0  0  0
   18.8847   20.4222   20.9559 H   0  0  0  0  0  0  0  0  0  0  0  0
   20.9373   19.8528   21.3579 C   0  0  0  0  0  0  0  0  0  0  0  0
   21.3325   20.7977   20.9604 H   0  0  0  0  0  0  0  0  0  0  0  0
   21.5685   19.5983   22.2197 H   0  0  0  0  0  0  0  0  0  0  0  0
   21.0715   18.7623   20.2730 C   0  0  0  0  0  0  0  0  0  0  0  0
   20.4352   18.9888   19.4077 H   0  0  0  0  0  0  0  0  0  0  0  0
   22.1093   18.6949   19.9221 H   0  0  0  0  0  0  0  0  0  0  0  0
   20.7867   17.7765   20.6616 H   0  0  0  0  0  0  0  0  0  0  0  0
  1  2  1  0  0  0  0
  1  3  2  0  0  0  0
  1  4  1  0  0  0  0
  4  5  1  0  0  0  0
  4  6  1  0  0  0  0
  4  7  1  0  0  0  0
  7  8  1  0  0  0  0
  7  9  1  0  0  0  0
  7 10  1  0  0  0  0
 10 11  1  0  0  0  0
 10 12  1  0  0  0  0
 10 13  1  0  0  0  0
 13 14  1  0  0  0  0
 13 15  1  0  0  0  0
 13 16  1  0  0  0  0
 16 17  1  0  0  0  0
 16 18  1  0  0  0  0
 16 19  1  0  0  0  0
 19 20  1  0  0  0  0
 19 21  1  0  0  0  0
 19 22  1  0  0  0  0
 22 23  1  0  0  0  0
 22 24  1  0  0  0  0
 22 25  1  0  0  0  0
M  END
> <VM2 Rank>
56

> <Conf_Id>
1142

> <Probability>
0.18

> <Sum Probability>
97.25

> <Delta G>
2.893

> <G>
-5.069

> <E>
-30.212

> <-TS>
25.143

> <U+W>
-50.780

> <U>
8.646

> <W>
-59.426

> <W(PB)>
-61.868

> <W(SA)>
2.442

> <Valence>
8.924

> <Coulomb>
-1.171

> <VdW>
0.894

> <VdW6>
-10.223

> <VdW12>
11.117

> <Bond>
0.231

> <Angle>
3.232

> <Pdih>
5.461

> <Idih>
0.001

> <Tether>
0.000

$$$$
VeraChem MOL file


 25 24  0  0  0  0  0  0  0  0999 V2000     
   19.9727   19.1630   27.2024 C   0  0  0  0  0  0  0  0  0  0  0  0
   20.8702   18.4598   27.6233 O   0  5  0  0  0  0  0  0  0  0  0  0
   18.7939   18.9322   27.3879 O   0  0  0  0  0  0  0  0  0  0  0  0
   20.3445   20.4159   26.4144 C   0  0  0  0  0  0  0  0  0  0  0  0
   21.3874   20.6724   26.6365 H   0  0  0  0  0  0  0  0  0  0  0  0
   19.7275   21.2383   26.7951 H   0  0  0  0  0  0  0  0  0  0  0  0
   20.1395   20.2801   24.8833 C   0  0  0  0  0  0  0  0  0  0  0  0
   19.0949   20.0041   24.6871 H   0  0  0  0  0  0  0  0  0  0  0  0
   20.3033   21.2590   24.4129 H   0  0  0  0  0  0  0  0  0  0  0  0
   21.0949   19.2419   24.2477 C   0  0  0  0  0  0  0  0  0  0  0  0
   20.8923   18.2450   24.6630 H   0  0  0  0  0  0  0  0  0  0  0  0
   22.1282   19.4888   24.5270 H   0  0  0  0  0  0  0  0  0  0  0  0
   21.0023   19.1860   22.7043 C   0  0  0  0  0  0  0  0  0  0  0  0
   21.2253   20.1791   22.2930 H   0  0  0  0  0  0  0  0  0  0  0  0
   21.7847   18.5107   22.3323 H   0  0  0  0  0  0  0  0  0  0  0  0
   19.6268   18.6954   22.1898 C   0  0  0  0  0  0  0  0  0  0  0  0
   18.8471   19.4246   22.4455 H   0  0  0  0  0  0  0  0  0  0  0  0
   19.3636   17.7621   22.7059 H   0  0  0  0  0  0  0  0  0  0  0  0
   19.6002   18.4394   20.6649 C   0  0  0  0  0  0  0  0  0  0  0  0
   20.3651   17.6966   20.3997 H   0  0  0  0  0  0  0  0  0  0  0  0
   18.6311   17.9954   20.3984 H   0  0  0  0  0  0  0  0  0  0  0  0
   19.8081   19.7204   19.8281 C   0  0  0  0  0  0  0  0  0  0  0  0
   20.8108   20.1391   19.9798 H   0  0  0  0  0  0  0  0  0  0  0  0
   19.6972   19.5023   18.7580 H   0  0  0  0  0  0  0  0  0  0  0  0
   19.0701   20.4880   20.0951 H   0  0  0  0  0  0  0  0  0  0  0  0
  1  2  1  0  0  0  0
  1  3  2  0  0  0  0
  1  4  1  0  0  0  0
  4  5  1  0  0  0  0
  4  6  1  0  0  0  0
  4  7  1  0  0  0  0
  7  8  1  0  0  0  0
  7  9  1  0  0  0  0
  7 10  1  0  0  0  0
 10 11  1  0  0  0  0
 10 12  1  0  0  0  0
 10 13  1  0  0  0  0
 13 14  1  0  0  0  0
 13 15  1  0  0  0  0
 13 16  1  0  0  0  0
 16 17  1  0  0  0  0
 16 18  1  0  0  0  0
 16 19  1  0  0  0  0
 19 20  1  0  0  0  0
 19 21  1  0  0  0  0
 19 22  1  0  0  0  0
 22 23  1  0  0  0  0
 22 24  1  0  0  0  0
 22 25  1  0  0  0  0
M  END
> <VM2 Rank>
57

> <Conf_Id>
1105

> <Probability>
0.11

> <Sum Probability>
97.37

> <Delta G>
3.172

> <G>
-4.790

> <E>
-29.738

> <-TS>
24.948

> <U+W>
-50.306

> <U>
9.531

> <W>
-59.837

> <W(PB)>
-62.313

> <W(SA)>
2.476

> <Valence>
8.779

> <Coulomb>
-0.177

> <VdW>
0.930

> <VdW6>
-9.874

> <VdW12>
10.804

> <Bond>
0.204

> <Angle>
2.848

> <Pdih>
5.726

> <Idih>
0.001

> <Tether>
0.000

$$$$
VeraChem MOL file


 25 24  0  0  0  0  0  0  0  0999 V2000     
   20.0080   19.4683   27.1974 C   0  0  0  0  0  0  0  0  0  0  0  0
   21.0441   19.9606   27.5990 O   0  5  0  0  0  0  0  0  0  0  0  0
   18.9139   19.9680   27.3715 O   0  0  0  0  0  0  0  0  0  0  0  0
   20.0806   18.1391   26.4511 C   0  0  0  0  0  0  0  0  0  0  0  0
   19.2933   17.4921   26.8555 H   0  0  0  0  0  0  0  0  0  0  0  0
   21.0380   17.6582   26.6851 H   0  0  0  0  0  0  0  0  0  0  0  0
   19.9064   18.2694   24.9157 C   0  0  0  0  0  0  0  0  0  0  0  0
   19.8401   17.2645   24.4774 H   0  0  0  0  0  0  0  0  0  0  0  0
   18.9520   18.7707   24.7070 H   0  0  0  0  0  0  0  0  0  0  0  0
   21.0717   19.0406   24.2509 C   0  0  0  0  0  0  0  0  0  0  0  0
   22.0222   18.5729   24.5416 H   0  0  0  0  0  0  0  0  0  0  0  0
   21.1041   20.0701   24.6335 H   0  0  0  0  0  0  0  0  0  0  0  0
   20.9886   19.0671   22.7061 C   0  0  0  0  0  0  0  0  0  0  0  0
   21.9034   19.5332   22.3157 H   0  0  0  0  0  0  0  0  0  0  0  0
   20.9769   18.0367   22.3275 H   0  0  0  0  0  0  0  0  0  0  0  0
   19.7599   19.8428   22.1712 C   0  0  0  0  0  0  0  0  0  0  0  0
   19.7192   20.8275   22.6564 H   0  0  0  0  0  0  0  0  0  0  0  0
   18.8350   19.3198   22.4473 H   0  0  0  0  0  0  0  0  0  0  0  0
   19.7869   20.0493   20.6389 C   0  0  0  0  0  0  0  0  0  0  0  0
   18.9441   20.6946   20.3549 H   0  0  0  0  0  0  0  0  0  0  0  0
   20.7005   20.5885   20.3529 H   0  0  0  0  0  0  0  0  0  0  0  0
   19.6929   18.7287   19.8441 C   0  0  0  0  0  0  0  0  0  0  0  0
   18.7999   18.1593   20.1328 H   0  0  0  0  0  0  0  0  0  0  0  0
   19.6308   18.9321   18.7672 H   0  0  0  0  0  0  0  0  0  0  0  0
   20.5738   18.0967   20.0127 H   0  0  0  0  0  0  0  0  0  0  0  0
  1  2  1  0  0  0  0
  1  3  2  0  0  0  0
  1  4  1  0  0  0  0
  4  5  1  0  0  0  0
  4  6  1  0  0  0  0
  4  7  1  0  0  0  0
  7  8  1  0  0  0  0
  7  9  1  0  0  0  0
  7 10  1  0  0  0  0
 10 11  1  0  0  0  0
 10 12  1  0  0  0  0
 10 13  1  0  0  0  0
 13 14  1  0  0  0  0
 13 15  1  0  0  0  0
 13 16  1  0  0  0  0
 16 17  1  0  0  0  0
 16 18  1  0  0  0  0
 16 19  1  0  0  0  0
 19 20  1  0  0  0  0
 19 21  1  0  0  0  0
 19 22  1  0  0  0  0
 22 23  1  0  0  0  0
 22 24  1  0  0  0  0
 22 25  1  0  0  0  0
M  END
> <VM2 Rank>
58

> <Conf_Id>
964

> <Probability>
0.11

> <Sum Probability>
97.47

> <Delta G>
3.203

> <G>
-4.760

> <E>
-29.708

> <-TS>
24.948

> <U+W>
-50.275

> <U>
9.530

> <W>
-59.806

> <W(PB)>
-62.269

> <W(SA)>
2.464

> <Valence>
8.779

> <Coulomb>
-0.179

> <VdW>
0.930

> <VdW6>
-9.873

> <VdW12>
10.803

> <Bond>
0.204

> <Angle>
2.848

> <Pdih>
5.727

> <Idih>
0.001

> <Tether>
0.000

$$$$
VeraChem MOL file


 25 24  0  0  0  0  0  0  0  0999 V2000     
   20.1299   19.6132   27.1785 C   0  0  0  0  0  0  0  0  0  0  0  0
   21.2436   20.0172   27.4496 O   0  5  0  0  0  0  0  0  0  0  0  0
   19.1160   20.2551   27.3712 O   0  0  0  0  0  0  0  0  0  0  0  0
   19.9930   18.2151   26.5823 C   0  0  0  0  0  0  0  0  0  0  0  0
   19.1746   17.7117   27.1103 H   0  0  0  0  0  0  0  0  0  0  0  0
   20.9070   17.6501   26.8015 H   0  0  0  0  0  0  0  0  0  0  0  0
   19.7091   18.2063   25.0577 C   0  0  0  0  0  0  0  0  0  0  0  0
   19.4975   17.1764   24.7403 H   0  0  0  0  0  0  0  0  0  0  0  0
   18.8012   18.7921   24.8627 H   0  0  0  0  0  0  0  0  0  0  0  0
   20.8941   18.7623   24.2321 C   0  0  0  0  0  0  0  0  0  0  0  0
   21.8083   18.2223   24.5143 H   0  0  0  0  0  0  0  0  0  0  0  0
   21.0667   19.8166   24.4890 H   0  0  0  0  0  0  0  0  0  0  0  0
   20.6996   18.6296   22.7027 C   0  0  0  0  0  0  0  0  0  0  0  0
   21.6419   18.9109   22.2158 H   0  0  0  0  0  0  0  0  0  0  0  0
   20.5175   17.5776   22.4445 H   0  0  0  0  0  0  0  0  0  0  0  0
   19.5524   19.5104   22.1486 C   0  0  0  0  0  0  0  0  0  0  0  0
   19.7331   20.5618   22.4104 H   0  0  0  0  0  0  0  0  0  0  0  0
   18.6086   19.2271   22.6312 H   0  0  0  0  0  0  0  0  0  0  0  0
   19.3639   19.3830   20.6187 C   0  0  0  0  0  0  0  0  0  0  0  0
   19.1945   18.3307   20.3519 H   0  0  0  0  0  0  0  0  0  0  0  0
   18.4533   19.9261   20.3307 H   0  0  0  0  0  0  0  0  0  0  0  0
   20.5514   19.9418   19.8046 C   0  0  0  0  0  0  0  0  0  0  0  0
   21.4622   19.3521   19.9661 H   0  0  0  0  0  0  0  0  0  0  0  0
   20.3259   19.9157   18.7307 H   0  0  0  0  0  0  0  0  0  0  0  0
   20.7613   20.9834   20.0804 H   0  0  0  0  0  0  0  0  0  0  0  0
  1  2  1  0  0  0  0
  1  3  2  0  0  0  0
  1  4  1  0  0  0  0
  4  5  1  0  0  0  0
  4  6  1  0  0  0  0
  4  7  1  0  0  0  0
  7  8  1  0  0  0  0
  7  9  1  0  0  0  0
  7 10  1  0  0  0  0
 10 11  1  0  0  0  0
 10 12  1  0  0  0  0
 10 13  1  0  0  0  0
 13 14  1  0  0  0  0
 13 15  1  0  0  0  0
 13 16  1  0  0  0  0
 16 17  1  0  0  0  0
 16 18  1  0  0  0  0
 16 19  1  0  0  0  0
 19 20  1  0  0  0  0
 19 21  1  0  0  0  0
 19 22  1  0  0  0  0
 22 23  1  0  0  0  0
 22 24  1  0  0  0  0
 22 25  1  0  0  0  0
M  END
> <VM2 Rank>
59

> <Conf_Id>
229

> <Probability>
0.10

> <Sum Probability>
97.58

> <Delta G>
3.220

> <G>
-4.743

> <E>
-29.611

> <-TS>
24.868

> <U+W>
-50.178

> <U>
9.764

> <W>
-59.942

> <W(PB)>
-62.392

> <W(SA)>
2.450

> <Valence>
8.883

> <Coulomb>
-0.122

> <VdW>
1.003

> <VdW6>
-9.782

> <VdW12>
10.785

> <Bond>
0.212

> <Angle>
2.940

> <Pdih>
5.730

> <Idih>
0.001

> <Tether>
0.000

$$$$
VeraChem MOL file


 25 24  0  0  0  0  0  0  0  0999 V2000     
   20.2003   19.1781   27.3626 C   0  0  0  0  0  0  0  0  0  0  0  0
   21.3179   19.4038   27.7836 O   0  5  0  0  0  0  0  0  0  0  0  0
   19.5552   18.1926   27.6618 O   0  0  0  0  0  0  0  0  0  0  0  0
   19.5672   20.1987   26.4209 C   0  0  0  0  0  0  0  0  0  0  0  0
   19.7371   21.1917   26.8533 H   0  0  0  0  0  0  0  0  0  0  0  0
   18.4822   20.0389   26.4091 H   0  0  0  0  0  0  0  0  0  0  0  0
   20.1299   20.1602   24.9760 C   0  0  0  0  0  0  0  0  0  0  0  0
   19.7318   21.0222   24.4262 H   0  0  0  0  0  0  0  0  0  0  0  0
   21.2217   20.2801   25.0076 H   0  0  0  0  0  0  0  0  0  0  0  0
   19.7668   18.8522   24.2321 C   0  0  0  0  0  0  0  0  0  0  0  0
   18.6748   18.7563   24.1609 H   0  0  0  0  0  0  0  0  0  0  0  0
   20.1139   17.9943   24.8241 H   0  0  0  0  0  0  0  0  0  0  0  0
   20.3898   18.7494   22.8193 C   0  0  0  0  0  0  0  0  0  0  0  0
   21.4800   18.8644   22.8889 H   0  0  0  0  0  0  0  0  0  0  0  0
   20.2077   17.7349   22.4427 H   0  0  0  0  0  0  0  0  0  0  0  0
   19.8179   19.7798   21.8143 C   0  0  0  0  0  0  0  0  0  0  0  0
   20.0052   20.7953   22.1851 H   0  0  0  0  0  0  0  0  0  0  0  0
   18.7271   19.6675   21.7487 H   0  0  0  0  0  0  0  0  0  0  0  0
   20.4352   19.6667   20.4005 C   0  0  0  0  0  0  0  0  0  0  0  0
   20.0817   20.5123   19.7944 H   0  0  0  0  0  0  0  0  0  0  0  0
   21.5276   19.7661   20.4635 H   0  0  0  0  0  0  0  0  0  0  0  0
   20.0728   18.3526   19.6749 C   0  0  0  0  0  0  0  0  0  0  0  0
   18.9846   18.2151   19.6309 H   0  0  0  0  0  0  0  0  0  0  0  0
   20.4533   18.3657   18.6453 H   0  0  0  0  0  0  0  0  0  0  0  0
   20.5104   17.4816   20.1783 H   0  0  0  0  0  0  0  0  0  0  0  0
  1  2  1  0  0  0  0
  1  3  2  0  0  0  0
  1  4  1  0  0  0  0
  4  5  1  0  0  0  0
  4  6  1  0  0  0  0
  4  7  1  0  0  0  0
  7  8  1  0  0  0  0
  7  9  1  0  0  0  0
  7 10  1  0  0  0  0
 10 11  1  0  0  0  0
 10 12  1  0  0  0  0
 10 13  1  0  0  0  0
 13 14  1  0  0  0  0
 13 15  1  0  0  0  0
 13 16  1  0  0  0  0
 16 17  1  0  0  0  0
 16 18  1  0  0  0  0
 16 19  1  0  0  0  0
 19 20  1  0  0  0  0
 19 21  1  0  0  0  0
 19 22  1  0  0  0  0
 22 23  1  0  0  0  0
 22 24  1  0  0  0  0
 22 25  1  0  0  0  0
M  END
> <VM2 Rank>
60

> <Conf_Id>
1179

> <Probability>
0.10

> <Sum Probability>
97.68

> <Delta G>
3.249

> <G>
-4.713

> <E>
-29.584

> <-TS>
24.871

> <U+W>
-50.152

> <U>
9.417

> <W>
-59.568

> <W(PB)>
-62.044

> <W(SA)>
2.476

> <Valence>
8.939

> <Coulomb>
-0.614

> <VdW>
1.091

> <VdW6>
-9.711

> <VdW12>
10.802

> <Bond>
0.216

> <Angle>
2.979

> <Pdih>
5.743

> <Idih>
0.000

> <Tether>
0.000

$$$$
VeraChem MOL file


 25 24  0  0  0  0  0  0  0  0999 V2000     
   20.0888   19.4182   27.3598 C   0  0  0  0  0  0  0  0  0  0  0  0
   20.9783   20.1347   27.7752 O   0  5  0  0  0  0  0  0  0  0  0  0
   18.9170   19.5663   27.6458 O   0  0  0  0  0  0  0  0  0  0  0  0
   20.4688   18.2582   26.4436 C   0  0  0  0  0  0  0  0  0  0  0  0
   19.6471   17.5319   26.4385 H   0  0  0  0  0  0  0  0  0  0  0  0
   21.3333   17.7562   26.8936 H   0  0  0  0  0  0  0  0  0  0  0  0
   20.8152   18.6851   24.9933 C   0  0  0  0  0  0  0  0  0  0  0  0
   21.6107   19.4427   25.0174 H   0  0  0  0  0  0  0  0  0  0  0  0
   21.2222   17.8145   24.4639 H   0  0  0  0  0  0  0  0  0  0  0  0
   19.5882   19.2365   24.2276 C   0  0  0  0  0  0  0  0  0  0  0  0
   19.1511   20.0663   24.7997 H   0  0  0  0  0  0  0  0  0  0  0  0
   18.8112   18.4624   24.1643 H   0  0  0  0  0  0  0  0  0  0  0  0
   19.9241   19.7517   22.8074 C   0  0  0  0  0  0  0  0  0  0  0  0
   19.0347   20.2591   22.4129 H   0  0  0  0  0  0  0  0  0  0  0  0
   20.7143   20.5121   22.8696 H   0  0  0  0  0  0  0  0  0  0  0  0
   20.3518   18.6309   21.8278 C   0  0  0  0  0  0  0  0  0  0  0  0
   19.5633   17.8683   21.7699 H   0  0  0  0  0  0  0  0  0  0  0  0
   21.2454   18.1266   22.2165 H   0  0  0  0  0  0  0  0  0  0  0  0
   20.6762   19.1482   20.4066 C   0  0  0  0  0  0  0  0  0  0  0  0
   21.4560   19.9204   20.4616 H   0  0  0  0  0  0  0  0  0  0  0  0
   21.1000   18.3213   19.8202 H   0  0  0  0  0  0  0  0  0  0  0  0
   19.4447   19.7042   19.6589 C   0  0  0  0  0  0  0  0  0  0  0  0
   19.0566   20.6098   20.1414 H   0  0  0  0  0  0  0  0  0  0  0  0
   19.7093   19.9666   18.6264 H   0  0  0  0  0  0  0  0  0  0  0  0
   18.6383   18.9603   19.6221 H   0  0  0  0  0  0  0  0  0  0  0  0
  1  2  1  0  0  0  0
  1  3  2  0  0  0  0
  1  4  1  0  0  0  0
  4  5  1  0  0  0  0
  4  6  1  0  0  0  0
  4  7  1  0  0  0  0
  7  8  1  0  0  0  0
  7  9  1  0  0  0  0
  7 10  1  0  0  0  0
 10 11  1  0  0  0  0
 10 12  1  0  0  0  0
 10 13  1  0  0  0  0
 13 14  1  0  0  0  0
 13 15  1  0  0  0  0
 13 16  1  0  0  0  0
 16 17  1  0  0  0  0
 16 18  1  0  0  0  0
 16 19  1  0  0  0  0
 19 20  1  0  0  0  0
 19 21  1  0  0  0  0
 19 22  1  0  0  0  0
 22 23  1  0  0  0  0
 22 24  1  0  0  0  0
 22 25  1  0  0  0  0
M  END
> <VM2 Rank>
61

> <Conf_Id>
882

> <Probability>
0.10

> <Sum Probability>
97.77

> <Delta G>
3.259

> <G>
-4.703

> <E>
-29.574

> <-TS>
24.871

> <U+W>
-50.142

> <U>
9.416

> <W>
-59.558

> <W(PB)>
-62.022

> <W(SA)>
2.464

> <Valence>
8.939

> <Coulomb>
-0.615

> <VdW>
1.091

> <VdW6>
-9.710

> <VdW12>
10.802

> <Bond>
0.216

> <Angle>
2.979

> <Pdih>
5.743

> <Idih>
0.000

> <Tether>
0.000

$$$$
VeraChem MOL file


 25 24  0  0  0  0  0  0  0  0999 V2000     
   20.1961   19.5404   27.2067 C   0  0  0  0  0  0  0  0  0  0  0  0
   21.3738   19.4981   27.5039 O   0  5  0  0  0  0  0  0  0  0  0  0
   19.3214   18.9874   27.8441 O   0  0  0  0  0  0  0  0  0  0  0  0
   19.7888   20.3475   25.9772 C   0  0  0  0  0  0  0  0  0  0  0  0
   20.6016   21.0403   25.7277 H   0  0  0  0  0  0  0  0  0  0  0  0
   18.9248   20.9603   26.2597 H   0  0  0  0  0  0  0  0  0  0  0  0
   19.4270   19.4806   24.7431 C   0  0  0  0  0  0  0  0  0  0  0  0
   18.6396   18.7653   25.0181 H   0  0  0  0  0  0  0  0  0  0  0  0
   19.0055   20.1357   23.9700 H   0  0  0  0  0  0  0  0  0  0  0  0
   20.6485   18.7223   24.1708 C   0  0  0  0  0  0  0  0  0  0  0  0
   21.1008   18.1147   24.9664 H   0  0  0  0  0  0  0  0  0  0  0  0
   21.4204   19.4400   23.8639 H   0  0  0  0  0  0  0  0  0  0  0  0
   20.2960   17.7845   22.9886 C   0  0  0  0  0  0  0  0  0  0  0  0
   21.2071   17.2572   22.6746 H   0  0  0  0  0  0  0  0  0  0  0  0
   19.6055   17.0083   23.3457 H   0  0  0  0  0  0  0  0  0  0  0  0
   19.6685   18.4772   21.7524 C   0  0  0  0  0  0  0  0  0  0  0  0
   18.6974   18.9142   22.0189 H   0  0  0  0  0  0  0  0  0  0  0  0
   19.4573   17.7084   20.9967 H   0  0  0  0  0  0  0  0  0  0  0  0
   20.5745   19.5606   21.1253 C   0  0  0  0  0  0  0  0  0  0  0  0
   20.7330   20.3788   21.8403 H   0  0  0  0  0  0  0  0  0  0  0  0
   21.5618   19.1339   20.9012 H   0  0  0  0  0  0  0  0  0  0  0  0
   19.9585   20.1355   19.8338 C   0  0  0  0  0  0  0  0  0  0  0  0
   18.9814   20.5936   20.0355 H   0  0  0  0  0  0  0  0  0  0  0  0
   20.6116   20.9058   19.4035 H   0  0  0  0  0  0  0  0  0  0  0  0
   19.8199   19.3492   19.0803 H   0  0  0  0  0  0  0  0  0  0  0  0
  1  2  1  0  0  0  0
  1  3  2  0  0  0  0
  1  4  1  0  0  0  0
  4  5  1  0  0  0  0
  4  6  1  0  0  0  0
  4  7  1  0  0  0  0
  7  8  1  0  0  0  0
  7  9  1  0  0  0  0
  7 10  1  0  0  0  0
 10 11  1  0  0  0  0
 10 12  1  0  0  0  0
 10 13  1  0  0  0  0
 13 14  1  0  0  0  0
 13 15  1  0  0  0  0
 13 16  1  0  0  0  0
 16 17  1  0  0  0  0
 16 18  1  0  0  0  0
 16 19  1  0  0  0  0
 19 20  1  0  0  0  0
 19 21  1  0  0  0  0
 19 22  1  0  0  0  0
 22 23  1  0  0  0  0
 22 24  1  0  0  0  0
 22 25  1  0  0  0  0
M  END
> <VM2 Rank>
62

> <Conf_Id>
94

> <Probability>
0.09

> <Sum Probability>
97.86

> <Delta G>
3.328

> <G>
-4.634

> <E>
-29.786

> <-TS>
25.152

> <U+W>
-50.354

> <U>
9.264

> <W>
-59.618

> <W(PB)>
-62.089

> <W(SA)>
2.470

> <Valence>
8.801

> <Coulomb>
-0.374

> <VdW>
0.837

> <VdW6>
-10.172

> <VdW12>
11.009

> <Bond>
0.218

> <Angle>
3.129

> <Pdih>
5.454

> <Idih>
0.001

> <Tether>
0.000

$$$$
VeraChem MOL file


 25 24  0  0  0  0  0  0  0  0999 V2000     
   20.1864   19.8264   26.8663 C   0  0  0  0  0  0  0  0  0  0  0  0
   21.2238   20.4502   26.7582 O   0  5  0  0  0  0  0  0  0  0  0  0
   19.1326   20.3270   27.2070 O   0  0  0  0  0  0  0  0  0  0  0  0
   20.2110   18.3272   26.5818 C   0  0  0  0  0  0  0  0  0  0  0  0
   19.6745   17.8299   27.3984 H   0  0  0  0  0  0  0  0  0  0  0  0
   21.2502   17.9794   26.6261 H   0  0  0  0  0  0  0  0  0  0  0  0
   19.5714   17.9320   25.2254 C   0  0  0  0  0  0  0  0  0  0  0  0
   19.5069   16.8370   25.1676 H   0  0  0  0  0  0  0  0  0  0  0  0
   18.5413   18.3124   25.1840 H   0  0  0  0  0  0  0  0  0  0  0  0
   20.3725   18.4605   24.0143 C   0  0  0  0  0  0  0  0  0  0  0  0
   21.4040   18.0859   24.0639 H   0  0  0  0  0  0  0  0  0  0  0  0
   20.4268   19.5559   24.0662 H   0  0  0  0  0  0  0  0  0  0  0  0
   19.7303   18.0328   22.6745 C   0  0  0  0  0  0  0  0  0  0  0  0
   19.6149   16.9404   22.6667 H   0  0  0  0  0  0  0  0  0  0  0  0
   18.7160   18.4462   22.6010 H   0  0  0  0  0  0  0  0  0  0  0  0
   20.5603   18.4431   21.4318 C   0  0  0  0  0  0  0  0  0  0  0  0
   20.0620   18.0562   20.5326 H   0  0  0  0  0  0  0  0  0  0  0  0
   21.5371   17.9426   21.4758 H   0  0  0  0  0  0  0  0  0  0  0  0
   20.7880   19.9655   21.2606 C   0  0  0  0  0  0  0  0  0  0  0  0
   21.3780   20.3573   22.0998 H   0  0  0  0  0  0  0  0  0  0  0  0
   21.3963   20.1288   20.3604 H   0  0  0  0  0  0  0  0  0  0  0  0
   19.4766   20.7693   21.1261 C   0  0  0  0  0  0  0  0  0  0  0  0
   19.6925   21.8243   20.9138 H   0  0  0  0  0  0  0  0  0  0  0  0
   18.8581   20.3785   20.3078 H   0  0  0  0  0  0  0  0  0  0  0  0
   18.8890   20.7302   22.0521 H   0  0  0  0  0  0  0  0  0  0  0  0
  1  2  1  0  0  0  0
  1  3  2  0  0  0  0
  1  4  1  0  0  0  0
  4  5  1  0  0  0  0
  4  6  1  0  0  0  0
  4  7  1  0  0  0  0
  7  8  1  0  0  0  0
  7  9  1  0  0  0  0
  7 10  1  0  0  0  0
 10 11  1  0  0  0  0
 10 12  1  0  0  0  0
 10 13  1  0  0  0  0
 13 14  1  0  0  0  0
 13 15  1  0  0  0  0
 13 16  1  0  0  0  0
 16 17  1  0  0  0  0
 16 18  1  0  0  0  0
 16 19  1  0  0  0  0
 19 20  1  0  0  0  0
 19 21  1  0  0  0  0
 19 22  1  0  0  0  0
 22 23  1  0  0  0  0
 22 24  1  0  0  0  0
 22 25  1  0  0  0  0
M  END
> <VM2 Rank>
63

> <Conf_Id>
752

> <Probability>
0.08

> <Sum Probability>
97.94

> <Delta G>
3.346

> <G>
-4.616

> <E>
-29.741

> <-TS>
25.125

> <U+W>
-50.308

> <U>
10.400

> <W>
-60.708

> <W(PB)>
-63.149

> <W(SA)>
2.441

> <Valence>
8.736

> <Coulomb>
0.892

> <VdW>
0.772

> <VdW6>
-10.163

> <VdW12>
10.935

> <Bond>
0.210

> <Angle>
3.058

> <Pdih>
5.467

> <Idih>
0.001

> <Tether>
0.000

$$$$
VeraChem MOL file


 25 24  0  0  0  0  0  0  0  0999 V2000     
   20.4394   19.4446   27.0956 C   0  0  0  0  0  0  0  0  0  0  0  0
   21.4740   20.0701   26.9716 O   0  5  0  0  0  0  0  0  0  0  0  0
   19.5211   19.7981   27.8090 O   0  0  0  0  0  0  0  0  0  0  0  0
   20.2913   18.1324   26.3307 C   0  0  0  0  0  0  0  0  0  0  0  0
   19.9020   17.3857   27.0328 H   0  0  0  0  0  0  0  0  0  0  0  0
   21.2877   17.7913   26.0245 H   0  0  0  0  0  0  0  0  0  0  0  0
   19.3542   18.2231   25.0984 C   0  0  0  0  0  0  0  0  0  0  0  0
   19.1995   17.2140   24.6930 H   0  0  0  0  0  0  0  0  0  0  0  0
   18.3688   18.5907   25.4169 H   0  0  0  0  0  0  0  0  0  0  0  0
   19.9202   19.1361   23.9875 C   0  0  0  0  0  0  0  0  0  0  0  0
   20.9125   18.7705   23.6930 H   0  0  0  0  0  0  0  0  0  0  0  0
   20.0567   20.1539   24.3779 H   0  0  0  0  0  0  0  0  0  0  0  0
   18.9888   19.1789   22.7542 C   0  0  0  0  0  0  0  0  0  0  0  0
   18.8895   18.1718   22.3287 H   0  0  0  0  0  0  0  0  0  0  0  0
   17.9814   19.4728   23.0788 H   0  0  0  0  0  0  0  0  0  0  0  0
   19.4566   20.1715   21.6601 C   0  0  0  0  0  0  0  0  0  0  0  0
   19.4562   21.1873   22.0784 H   0  0  0  0  0  0  0  0  0  0  0  0
   18.7150   20.1774   20.8498 H   0  0  0  0  0  0  0  0  0  0  0  0
   20.8535   19.8822   21.0568 C   0  0  0  0  0  0  0  0  0  0  0  0
   21.0785   20.6559   20.3099 H   0  0  0  0  0  0  0  0  0  0  0  0
   21.6270   19.9744   21.8306 H   0  0  0  0  0  0  0  0  0  0  0  0
   20.9538   18.4970   20.3822 C   0  0  0  0  0  0  0  0  0  0  0  0
   21.9286   18.3781   19.8918 H   0  0  0  0  0  0  0  0  0  0  0  0
   20.8501   17.6880   21.1162 H   0  0  0  0  0  0  0  0  0  0  0  0
   20.1737   18.3737   19.6199 H   0  0  0  0  0  0  0  0  0  0  0  0
  1  2  1  0  0  0  0
  1  3  2  0  0  0  0
  1  4  1  0  0  0  0
  4  5  1  0  0  0  0
  4  6  1  0  0  0  0
  4  7  1  0  0  0  0
  7  8  1  0  0  0  0
  7  9  1  0  0  0  0
  7 10  1  0  0  0  0
 10 11  1  0  0  0  0
 10 12  1  0  0  0  0
 10 13  1  0  0  0  0
 13 14  1  0  0  0  0
 13 15  1  0  0  0  0
 13 16  1  0  0  0  0
 16 17  1  0  0  0  0
 16 18  1  0  0  0  0
 16 19  1  0  0  0  0
 19 20  1  0  0  0  0
 19 21  1  0  0  0  0
 19 22  1  0  0  0  0
 22 23  1  0  0  0  0
 22 24  1  0  0  0  0
 22 25  1  0  0  0  0
M  END
> <VM2 Rank>
64

> <Conf_Id>
1059

> <Probability>
0.08

> <Sum Probability>
98.02

> <Delta G>
3.364

> <G>
-4.598

> <E>
-29.709

> <-TS>
25.111

> <U+W>
-50.276

> <U>
9.796

> <W>
-60.072

> <W(PB)>
-62.519

> <W(SA)>
2.448

> <Valence>
8.738

> <Coulomb>
0.241

> <VdW>
0.816

> <VdW6>
-10.096

> <VdW12>
10.912

> <Bond>
0.210

> <Angle>
3.062

> <Pdih>
5.466

> <Idih>
0.001

> <Tether>
0.000

$$$$
VeraChem MOL file


 25 24  0  0  0  0  0  0  0  0999 V2000     
   20.0503   19.8177   26.8677 C   0  0  0  0  0  0  0  0  0  0  0  0
   21.0392   20.4492   27.1846 O   0  5  0  0  0  0  0  0  0  0  0  0
   18.9396   20.3039   26.7845 O   0  0  0  0  0  0  0  0  0  0  0  0
   20.2106   18.3272   26.5817 C   0  0  0  0  0  0  0  0  0  0  0  0
   19.2256   17.8497   26.6494 H   0  0  0  0  0  0  0  0  0  0  0  0
   20.8247   17.9036   27.3851 H   0  0  0  0  0  0  0  0  0  0  0  0
   20.8640   18.0147   25.2105 C   0  0  0  0  0  0  0  0  0  0  0  0
   21.8360   18.5233   25.1460 H   0  0  0  0  0  0  0  0  0  0  0  0
   21.0663   16.9368   25.1497 H   0  0  0  0  0  0  0  0  0  0  0  0
   19.9744   18.4349   24.0188 C   0  0  0  0  0  0  0  0  0  0  0  0
   19.7820   19.5145   24.0736 H   0  0  0  0  0  0  0  0  0  0  0  0
   19.0007   17.9317   24.0915 H   0  0  0  0  0  0  0  0  0  0  0  0
   20.6351   18.0907   22.6640 C   0  0  0  0  0  0  0  0  0  0  0  0
   21.5864   18.6301   22.5679 H   0  0  0  0  0  0  0  0  0  0  0  0
   20.8889   17.0220   22.6519 H   0  0  0  0  0  0  0  0  0  0  0  0
   19.7313   18.3900   21.4413 C   0  0  0  0  0  0  0  0  0  0  0  0
   18.8278   17.7688   21.5068 H   0  0  0  0  0  0  0  0  0  0  0  0
   20.2543   18.0688   20.5303 H   0  0  0  0  0  0  0  0  0  0  0  0
   19.3070   19.8706   21.2778 C   0  0  0  0  0  0  0  0  0  0  0  0
   18.6625   19.9536   20.3920 H   0  0  0  0  0  0  0  0  0  0  0  0
   18.6910   20.1847   22.1309 H   0  0  0  0  0  0  0  0  0  0  0  0
   20.5015   20.8352   21.1150 C   0  0  0  0  0  0  0  0  0  0  0  0
   21.1102   20.8727   22.0273 H   0  0  0  0  0  0  0  0  0  0  0  0
   21.1461   20.5258   20.2821 H   0  0  0  0  0  0  0  0  0  0  0  0
   20.1477   21.8537   20.9095 H   0  0  0  0  0  0  0  0  0  0  0  0
  1  2  1  0  0  0  0
  1  3  2  0  0  0  0
  1  4  1  0  0  0  0
  4  5  1  0  0  0  0
  4  6  1  0  0  0  0
  4  7  1  0  0  0  0
  7  8  1  0  0  0  0
  7  9  1  0  0  0  0
  7 10  1  0  0  0  0
 10 11  1  0  0  0  0
 10 12  1  0  0  0  0
 10 13  1  0  0  0  0
 13 14  1  0  0  0  0
 13 15  1  0  0  0  0
 13 16  1  0  0  0  0
 16 17  1  0  0  0  0
 16 18  1  0  0  0  0
 16 19  1  0  0  0  0
 19 20  1  0  0  0  0
 19 21  1  0  0  0  0
 19 22  1  0  0  0  0
 22 23  1  0  0  0  0
 22 24  1  0  0  0  0
 22 25  1  0  0  0  0
M  END
> <VM2 Rank>
65

> <Conf_Id>
575

> <Probability>
0.08

> <Sum Probability>
98.11

> <Delta G>
3.370

> <G>
-4.592

> <E>
-29.717

> <-TS>
25.125

> <U+W>
-50.285

> <U>
10.401

> <W>
-60.686

> <W(PB)>
-63.135

> <W(SA)>
2.449

> <Valence>
8.736

> <Coulomb>
0.893

> <VdW>
0.772

> <VdW6>
-10.164

> <VdW12>
10.936

> <Bond>
0.210

> <Angle>
3.058

> <Pdih>
5.466

> <Idih>
0.001

> <Tether>
0.000

$$$$
VeraChem MOL file


 25 24  0  0  0  0  0  0  0  0999 V2000     
   20.2746   19.1493   27.2160 C   0  0  0  0  0  0  0  0  0  0  0  0
   21.3426   19.6550   27.5001 O   0  5  0  0  0  0  0  0  0  0  0  0
   19.2487   19.3516   27.8356 O   0  0  0  0  0  0  0  0  0  0  0  0
   20.2205   18.1919   26.0288 C   0  0  0  0  0  0  0  0  0  0  0  0
   19.6564   17.3074   26.3473 H   0  0  0  0  0  0  0  0  0  0  0  0
   21.2395   17.8545   25.8038 H   0  0  0  0  0  0  0  0  0  0  0  0
   19.5640   18.7949   24.7596 C   0  0  0  0  0  0  0  0  0  0  0  0
   19.4344   17.9932   24.0214 H   0  0  0  0  0  0  0  0  0  0  0  0
   18.5595   19.1637   25.0087 H   0  0  0  0  0  0  0  0  0  0  0  0
   20.4046   19.9378   24.1417 C   0  0  0  0  0  0  0  0  0  0  0  0
   21.3962   19.5594   23.8612 H   0  0  0  0  0  0  0  0  0  0  0  0
   20.5808   20.7087   24.9043 H   0  0  0  0  0  0  0  0  0  0  0  0
   19.7291   20.6120   22.9208 C   0  0  0  0  0  0  0  0  0  0  0  0
   18.7896   21.0779   23.2481 H   0  0  0  0  0  0  0  0  0  0  0  0
   20.3697   21.4345   22.5746 H   0  0  0  0  0  0  0  0  0  0  0  0
   19.4284   19.6750   21.7237 C   0  0  0  0  0  0  0  0  0  0  0  0
   18.9445   20.2674   20.9353 H   0  0  0  0  0  0  0  0  0  0  0  0
   18.6981   18.9104   22.0188 H   0  0  0  0  0  0  0  0  0  0  0  0
   20.6876   18.9965   21.1389 C   0  0  0  0  0  0  0  0  0  0  0  0
   21.4365   19.7598   20.8865 H   0  0  0  0  0  0  0  0  0  0  0  0
   21.1422   18.3362   21.8893 H   0  0  0  0  0  0  0  0  0  0  0  0
   20.3528   18.1700   19.8808 C   0  0  0  0  0  0  0  0  0  0  0  0
   19.6256   17.3807   20.1121 H   0  0  0  0  0  0  0  0  0  0  0  0
   19.9291   18.8068   19.0932 H   0  0  0  0  0  0  0  0  0  0  0  0
   21.2562   17.6919   19.4805 H   0  0  0  0  0  0  0  0  0  0  0  0
  1  2  1  0  0  0  0
  1  3  2  0  0  0  0
  1  4  1  0  0  0  0
  4  5  1  0  0  0  0
  4  6  1  0  0  0  0
  4  7  1  0  0  0  0
  7  8  1  0  0  0  0
  7  9  1  0  0  0  0
  7 10  1  0  0  0  0
 10 11  1  0  0  0  0
 10 12  1  0  0  0  0
 10 13  1  0  0  0  0
 13 14  1  0  0  0  0
 13 15  1  0  0  0  0
 13 16  1  0  0  0  0
 16 17  1  0  0  0  0
 16 18  1  0  0  0  0
 16 19  1  0  0  0  0
 19 20  1  0  0  0  0
 19 21  1  0  0  0  0
 19 22  1  0  0  0  0
 22 23  1  0  0  0  0
 22 24  1  0  0  0  0
 22 25  1  0  0  0  0
M  END
> <VM2 Rank>
66

> <Conf_Id>
1350

> <Probability>
0.08

> <Sum Probability>
98.19

> <Delta G>
3.371

> <G>
-4.592

> <E>
-29.743

> <-TS>
25.151

> <U+W>
-50.310

> <U>
9.263

> <W>
-59.574

> <W(PB)>
-62.031

> <W(SA)>
2.457

> <Valence>
8.801

> <Coulomb>
-0.375

> <VdW>
0.837

> <VdW6>
-10.171

> <VdW12>
11.009

> <Bond>
0.218

> <Angle>
3.129

> <Pdih>
5.454

> <Idih>
0.000

> <Tether>
0.000

$$$$
VeraChem MOL file


 25 24  0  0  0  0  0  0  0  0999 V2000     
   20.3850   19.6567   26.8937 C   0  0  0  0  0  0  0  0  0  0  0  0
   21.3300   20.3108   26.4991 O   0  5  0  0  0  0  0  0  0  0  0  0
   20.4227   18.9484   27.8808 O   0  0  0  0  0  0  0  0  0  0  0  0
   19.0696   19.7490   26.1254 C   0  0  0  0  0  0  0  0  0  0  0  0
   19.1162   20.6119   25.4515 H   0  0  0  0  0  0  0  0  0  0  0  0
   18.2812   19.9677   26.8549 H   0  0  0  0  0  0  0  0  0  0  0  0
   18.7006   18.4598   25.3415 C   0  0  0  0  0  0  0  0  0  0  0  0
   18.5921   17.6319   26.0558 H   0  0  0  0  0  0  0  0  0  0  0  0
   17.7160   18.5927   24.8732 H   0  0  0  0  0  0  0  0  0  0  0  0
   19.7292   18.0519   24.2583 C   0  0  0  0  0  0  0  0  0  0  0  0
   19.4114   17.0964   23.8191 H   0  0  0  0  0  0  0  0  0  0  0  0
   20.7063   17.8676   24.7256 H   0  0  0  0  0  0  0  0  0  0  0  0
   19.8829   19.0980   23.1303 C   0  0  0  0  0  0  0  0  0  0  0  0
   18.8933   19.3310   22.7166 H   0  0  0  0  0  0  0  0  0  0  0  0
   20.2907   20.0308   23.5416 H   0  0  0  0  0  0  0  0  0  0  0  0
   20.8172   18.5909   22.0074 C   0  0  0  0  0  0  0  0  0  0  0  0
   20.3917   17.6867   21.5511 H   0  0  0  0  0  0  0  0  0  0  0  0
   21.7777   18.2939   22.4504 H   0  0  0  0  0  0  0  0  0  0  0  0
   21.0878   19.6457   20.9094 C   0  0  0  0  0  0  0  0  0  0  0  0
   21.5208   20.5488   21.3615 H   0  0  0  0  0  0  0  0  0  0  0  0
   21.8461   19.2500   20.2197 H   0  0  0  0  0  0  0  0  0  0  0  0
   19.8280   20.0228   20.1001 C   0  0  0  0  0  0  0  0  0  0  0  0
   19.0847   20.5288   20.7287 H   0  0  0  0  0  0  0  0  0  0  0  0
   20.0884   20.7043   19.2799 H   0  0  0  0  0  0  0  0  0  0  0  0
   19.3603   19.1311   19.6630 H   0  0  0  0  0  0  0  0  0  0  0  0
  1  2  1  0  0  0  0
  1  3  2  0  0  0  0
  1  4  1  0  0  0  0
  4  5  1  0  0  0  0
  4  6  1  0  0  0  0
  4  7  1  0  0  0  0
  7  8  1  0  0  0  0
  7  9  1  0  0  0  0
  7 10  1  0  0  0  0
 10 11  1  0  0  0  0
 10 12  1  0  0  0  0
 10 13  1  0  0  0  0
 13 14  1  0  0  0  0
 13 15  1  0  0  0  0
 13 16  1  0  0  0  0
 16 17  1  0  0  0  0
 16 18  1  0  0  0  0
 16 19  1  0  0  0  0
 19 20  1  0  0  0  0
 19 21  1  0  0  0  0
 19 22  1  0  0  0  0
 22 23  1  0  0  0  0
 22 24  1  0  0  0  0
 22 25  1  0  0  0  0
M  END
> <VM2 Rank>
67

> <Conf_Id>
568

> <Probability>
0.07

> <Sum Probability>
98.25

> <Delta G>
3.461

> <G>
-4.502

> <E>
-29.473

> <-TS>
24.972

> <U+W>
-50.041

> <U>
10.316

> <W>
-60.357

> <W(PB)>
-62.816

> <W(SA)>
2.460

> <Valence>
8.797

> <Coulomb>
0.777

> <VdW>
0.742

> <VdW6>
-10.191

> <VdW12>
10.933

> <Bond>
0.216

> <Angle>
2.999

> <Pdih>
5.581

> <Idih>
0.001

> <Tether>
0.000

$$$$
VeraChem MOL file


 25 24  0  0  0  0  0  0  0  0999 V2000     
   19.7509   19.2500   26.9046 C   0  0  0  0  0  0  0  0  0  0  0  0
   20.4142   19.2188   27.9228 O   0  5  0  0  0  0  0  0  0  0  0  0
   18.8181   20.0100   26.7334 O   0  0  0  0  0  0  0  0  0  0  0  0
   20.0929   18.2611   25.7938 C   0  0  0  0  0  0  0  0  0  0  0  0
   19.2561   18.2234   25.0869 H   0  0  0  0  0  0  0  0  0  0  0  0
   20.1585   17.2669   26.2507 H   0  0  0  0  0  0  0  0  0  0  0  0
   21.4210   18.5750   25.0523 C   0  0  0  0  0  0  0  0  0  0  0  0
   22.2460   18.5371   25.7769 H   0  0  0  0  0  0  0  0  0  0  0  0
   21.6248   17.7801   24.3233 H   0  0  0  0  0  0  0  0  0  0  0  0
   21.4482   19.9535   24.3426 C   0  0  0  0  0  0  0  0  0  0  0  0
   22.4253   20.0810   23.8573 H   0  0  0  0  0  0  0  0  0  0  0  0
   21.3821   20.7468   25.0999 H   0  0  0  0  0  0  0  0  0  0  0  0
   20.3326   20.1790   23.2914 C   0  0  0  0  0  0  0  0  0  0  0  0
   19.3498   20.1664   23.7813 H   0  0  0  0  0  0  0  0  0  0  0  0
   20.4501   21.1885   22.8749 H   0  0  0  0  0  0  0  0  0  0  0  0
   20.3559   19.1525   22.1353 C   0  0  0  0  0  0  0  0  0  0  0  0
   20.1670   18.1447   22.5273 H   0  0  0  0  0  0  0  0  0  0  0  0
   21.3543   19.1378   21.6775 H   0  0  0  0  0  0  0  0  0  0  0  0
   19.2995   19.4811   21.0595 C   0  0  0  0  0  0  0  0  0  0  0  0
   18.3002   19.4991   21.5160 H   0  0  0  0  0  0  0  0  0  0  0  0
   19.4834   20.4856   20.6537 H   0  0  0  0  0  0  0  0  0  0  0  0
   19.3198   18.4531   19.9104 C   0  0  0  0  0  0  0  0  0  0  0  0
   19.1066   17.4428   20.2836 H   0  0  0  0  0  0  0  0  0  0  0  0
   18.5631   18.7021   19.1550 H   0  0  0  0  0  0  0  0  0  0  0  0
   20.2998   18.4361   19.4159 H   0  0  0  0  0  0  0  0  0  0  0  0
  1  2  1  0  0  0  0
  1  3  2  0  0  0  0
  1  4  1  0  0  0  0
  4  5  1  0  0  0  0
  4  6  1  0  0  0  0
  4  7  1  0  0  0  0
  7  8  1  0  0  0  0
  7  9  1  0  0  0  0
  7 10  1  0  0  0  0
 10 11  1  0  0  0  0
 10 12  1  0  0  0  0
 10 13  1  0  0  0  0
 13 14  1  0  0  0  0
 13 15  1  0  0  0  0
 13 16  1  0  0  0  0
 16 17  1  0  0  0  0
 16 18  1  0  0  0  0
 16 19  1  0  0  0  0
 19 20  1  0  0  0  0
 19 21  1  0  0  0  0
 19 22  1  0  0  0  0
 22 23  1  0  0  0  0
 22 24  1  0  0  0  0
 22 25  1  0  0  0  0
M  END
> <VM2 Rank>
68

> <Conf_Id>
400

> <Probability>
0.07

> <Sum Probability>
98.32

> <Delta G>
3.466

> <G>
-4.496

> <E>
-29.748

> <-TS>
25.252

> <U+W>
-50.316

> <U>
9.773

> <W>
-60.088

> <W(PB)>
-62.535

> <W(SA)>
2.447

> <Valence>
8.741

> <Coulomb>
0.479

> <VdW>
0.552

> <VdW6>
-10.627

> <VdW12>
11.179

> <Bond>
0.227

> <Angle>
3.155

> <Pdih>
5.358

> <Idih>
0.001

> <Tether>
0.000

$$$$
VeraChem MOL file


 25 24  0  0  0  0  0  0  0  0999 V2000     
   19.8743   19.7856   26.7464 C   0  0  0  0  0  0  0  0  0  0  0  0
   20.8599   20.3994   27.1057 O   0  5  0  0  0  0  0  0  0  0  0  0
   18.7718   20.2858   26.6404 O   0  0  0  0  0  0  0  0  0  0  0  0
   20.0225   18.2992   26.4336 C   0  0  0  0  0  0  0  0  0  0  0  0
   19.1848   17.7779   26.9116 H   0  0  0  0  0  0  0  0  0  0  0  0
   20.9392   17.9308   26.9096 H   0  0  0  0  0  0  0  0  0  0  0  0
   20.0372   17.9748   24.9173 C   0  0  0  0  0  0  0  0  0  0  0  0
   20.0116   16.8851   24.7837 H   0  0  0  0  0  0  0  0  0  0  0  0
   19.1217   18.3734   24.4601 H   0  0  0  0  0  0  0  0  0  0  0  0
   21.2833   18.5484   24.2015 C   0  0  0  0  0  0  0  0  0  0  0  0
   22.1857   18.2013   24.7229 H   0  0  0  0  0  0  0  0  0  0  0  0
   21.2904   19.6434   24.2831 H   0  0  0  0  0  0  0  0  0  0  0  0
   21.3877   18.1308   22.7131 C   0  0  0  0  0  0  0  0  0  0  0  0
   22.3129   18.5496   22.2945 H   0  0  0  0  0  0  0  0  0  0  0  0
   21.4972   17.0393   22.6570 H   0  0  0  0  0  0  0  0  0  0  0  0
   20.1961   18.5574   21.8187 C   0  0  0  0  0  0  0  0  0  0  0  0
   19.2788   18.0538   22.1503 H   0  0  0  0  0  0  0  0  0  0  0  0
   20.3859   18.2003   20.7974 H   0  0  0  0  0  0  0  0  0  0  0  0
   19.9675   20.0854   21.7819 C   0  0  0  0  0  0  0  0  0  0  0  0
   19.6943   20.4491   22.7816 H   0  0  0  0  0  0  0  0  0  0  0  0
   20.8999   20.5930   21.4989 H   0  0  0  0  0  0  0  0  0  0  0  0
   18.8527   20.4671   20.7872 C   0  0  0  0  0  0  0  0  0  0  0  0
   18.7001   21.5541   20.7761 H   0  0  0  0  0  0  0  0  0  0  0  0
   19.1095   20.1505   19.7679 H   0  0  0  0  0  0  0  0  0  0  0  0
   17.9014   19.9941   21.0643 H   0  0  0  0  0  0  0  0  0  0  0  0
  1  2  1  0  0  0  0
  1  3  2  0  0  0  0
  1  4  1  0  0  0  0
  4  5  1  0  0  0  0
  4  6  1  0  0  0  0
  4  7  1  0  0  0  0
  7  8  1  0  0  0  0
  7  9  1  0  0  0  0
  7 10  1  0  0  0  0
 10 11  1  0  0  0  0
 10 12  1  0  0  0  0
 10 13  1  0  0  0  0
 13 14  1  0  0  0  0
 13 15  1  0  0  0  0
 13 16  1  0  0  0  0
 16 17  1  0  0  0  0
 16 18  1  0  0  0  0
 16 19  1  0  0  0  0
 19 20  1  0  0  0  0
 19 21  1  0  0  0  0
 19 22  1  0  0  0  0
 22 23  1  0  0  0  0
 22 24  1  0  0  0  0
 22 25  1  0  0  0  0
M  END
> <VM2 Rank>
69

> <Conf_Id>
242

> <Probability>
0.07

> <Sum Probability>
98.39

> <Delta G>
3.472

> <G>
-4.490

> <E>
-29.650

> <-TS>
25.160

> <U+W>
-50.217

> <U>
10.374

> <W>
-60.592

> <W(PB)>
-62.999

> <W(SA)>
2.407

> <Valence>
8.732

> <Coulomb>
0.992

> <VdW>
0.650

> <VdW6>
-10.415

> <VdW12>
11.064

> <Bond>
0.214

> <Angle>
3.066

> <Pdih>
5.452

> <Idih>
0.001

> <Tether>
0.000

$$$$
VeraChem MOL file


 25 24  0  0  0  0  0  0  0  0999 V2000     
   19.8758   19.6238   26.9000 C   0  0  0  0  0  0  0  0  0  0  0  0
   19.9520   18.9180   27.8866 O   0  5  0  0  0  0  0  0  0  0  0  0
   18.8458   20.1510   26.5284 O   0  0  0  0  0  0  0  0  0  0  0  0
   21.1503   19.8826   26.1014 C   0  0  0  0  0  0  0  0  0  0  0  0
   21.9209   20.2016   26.8127 H   0  0  0  0  0  0  0  0  0  0  0  0
   20.9779   20.7316   25.4301 H   0  0  0  0  0  0  0  0  0  0  0  0
   21.6629   18.6501   25.3071 C   0  0  0  0  0  0  0  0  0  0  0  0
   22.6113   18.9072   24.8164 H   0  0  0  0  0  0  0  0  0  0  0  0
   21.8928   17.8439   26.0174 H   0  0  0  0  0  0  0  0  0  0  0  0
   20.6701   18.1126   24.2473 C   0  0  0  0  0  0  0  0  0  0  0  0
   19.7355   17.8057   24.7368 H   0  0  0  0  0  0  0  0  0  0  0  0
   21.0971   17.2048   23.7996 H   0  0  0  0  0  0  0  0  0  0  0  0
   20.3582   19.1288   23.1246 C   0  0  0  0  0  0  0  0  0  0  0  0
   19.8444   20.0026   23.5466 H   0  0  0  0  0  0  0  0  0  0  0  0
   21.3002   19.4854   22.6885 H   0  0  0  0  0  0  0  0  0  0  0  0
   19.4705   18.5048   22.0230 C   0  0  0  0  0  0  0  0  0  0  0  0
   18.5662   18.0886   22.4876 H   0  0  0  0  0  0  0  0  0  0  0  0
   19.9971   17.6614   21.5559 H   0  0  0  0  0  0  0  0  0  0  0  0
   19.0424   19.5146   20.9328 C   0  0  0  0  0  0  0  0  0  0  0  0
   18.3249   19.0245   20.2604 H   0  0  0  0  0  0  0  0  0  0  0  0
   18.5087   20.3560   21.3959 H   0  0  0  0  0  0  0  0  0  0  0  0
   20.2249   20.0476   20.0949 C   0  0  0  0  0  0  0  0  0  0  0  0
   20.9123   20.6450   20.7067 H   0  0  0  0  0  0  0  0  0  0  0  0
   20.7920   19.2218   19.6458 H   0  0  0  0  0  0  0  0  0  0  0  0
   19.8610   20.6890   19.2819 H   0  0  0  0  0  0  0  0  0  0  0  0
  1  2  1  0  0  0  0
  1  3  2  0  0  0  0
  1  4  1  0  0  0  0
  4  5  1  0  0  0  0
  4  6  1  0  0  0  0
  4  7  1  0  0  0  0
  7  8  1  0  0  0  0
  7  9  1  0  0  0  0
  7 10  1  0  0  0  0
 10 11  1  0  0  0  0
 10 12  1  0  0  0  0
 10 13  1  0  0  0  0
 13 14  1  0  0  0  0
 13 15  1  0  0  0  0
 13 16  1  0  0  0  0
 16 17  1  0  0  0  0
 16 18  1  0  0  0  0
 16 19  1  0  0  0  0
 19 20  1  0  0  0  0
 19 21  1  0  0  0  0
 19 22  1  0  0  0  0
 22 23  1  0  0  0  0
 22 24  1  0  0  0  0
 22 25  1  0  0  0  0
M  END
> <VM2 Rank>
70

> <Conf_Id>
728

> <Probability>
0.07

> <Sum Probability>
98.46

> <Delta G>
3.474

> <G>
-4.488

> <E>
-29.460

> <-TS>
24.972

> <U+W>
-50.027

> <U>
10.315

> <W>
-60.342

> <W(PB)>
-62.774

> <W(SA)>
2.432

> <Valence>
8.797

> <Coulomb>
0.776

> <VdW>
0.742

> <VdW6>
-10.190

> <VdW12>
10.932

> <Bond>
0.216

> <Angle>
2.999

> <Pdih>
5.581

> <Idih>
0.001

> <Tether>
0.000

$$$$
VeraChem MOL file


 25 24  0  0  0  0  0  0  0  0999 V2000     
   20.3188   19.6316   26.9954 C   0  0  0  0  0  0  0  0  0  0  0  0
   21.3258   20.2591   26.7326 O   0  5  0  0  0  0  0  0  0  0  0  0
   19.4273   20.0566   27.7040 O   0  0  0  0  0  0  0  0  0  0  0  0
   20.1762   18.2219   26.4287 C   0  0  0  0  0  0  0  0  0  0  0  0
   19.9179   17.5603   27.2637 H   0  0  0  0  0  0  0  0  0  0  0  0
   21.1542   17.8897   26.0629 H   0  0  0  0  0  0  0  0  0  0  0  0
   19.0987   18.0899   25.3175 C   0  0  0  0  0  0  0  0  0  0  0  0
   19.0257   17.0382   25.0092 H   0  0  0  0  0  0  0  0  0  0  0  0
   18.1211   18.3533   25.7443 H   0  0  0  0  0  0  0  0  0  0  0  0
   19.3487   18.9711   24.0685 C   0  0  0  0  0  0  0  0  0  0  0  0
   19.3874   20.0289   24.3626 H   0  0  0  0  0  0  0  0  0  0  0  0
   18.4827   18.8666   23.4031 H   0  0  0  0  0  0  0  0  0  0  0  0
   20.6403   18.5984   23.2999 C   0  0  0  0  0  0  0  0  0  0  0  0
   21.5053   18.7252   23.9636 H   0  0  0  0  0  0  0  0  0  0  0  0
   20.6136   17.5370   23.0187 H   0  0  0  0  0  0  0  0  0  0  0  0
   20.8789   19.4634   22.0390 C   0  0  0  0  0  0  0  0  0  0  0  0
   21.8812   19.2389   21.6496 H   0  0  0  0  0  0  0  0  0  0  0  0
   20.8857   20.5260   22.3183 H   0  0  0  0  0  0  0  0  0  0  0  0
   19.8427   19.2241   20.9173 C   0  0  0  0  0  0  0  0  0  0  0  0
   19.7960   18.1527   20.6783 H   0  0  0  0  0  0  0  0  0  0  0  0
   18.8415   19.5211   21.2557 H   0  0  0  0  0  0  0  0  0  0  0  0
   20.1957   20.0178   19.6431 C   0  0  0  0  0  0  0  0  0  0  0  0
   21.1768   19.7181   19.2521 H   0  0  0  0  0  0  0  0  0  0  0  0
   19.4496   19.8403   18.8577 H   0  0  0  0  0  0  0  0  0  0  0  0
   20.2228   21.0962   19.8475 H   0  0  0  0  0  0  0  0  0  0  0  0
  1  2  1  0  0  0  0
  1  3  2  0  0  0  0
  1  4  1  0  0  0  0
  4  5  1  0  0  0  0
  4  6  1  0  0  0  0
  4  7  1  0  0  0  0
  7  8  1  0  0  0  0
  7  9  1  0  0  0  0
  7 10  1  0  0  0  0
 10 11  1  0  0  0  0
 10 12  1  0  0  0  0
 10 13  1  0  0  0  0
 13 14  1  0  0  0  0
 13 15  1  0  0  0  0
 13 16  1  0  0  0  0
 16 17  1  0  0  0  0
 16 18  1  0  0  0  0
 16 19  1  0  0  0  0
 19 20  1  0  0  0  0
 19 21  1  0  0  0  0
 19 22  1  0  0  0  0
 22 23  1  0  0  0  0
 22 24  1  0  0  0  0
 22 25  1  0  0  0  0
M  END
> <VM2 Rank>
71

> <Conf_Id>
700

> <Probability>
0.07

> <Sum Probability>
98.52

> <Delta G>
3.494

> <G>
-4.469

> <E>
-29.366

> <-TS>
24.897

> <U+W>
-49.934

> <U>
10.274

> <W>
-60.207

> <W(PB)>
-62.631

> <W(SA)>
2.423

> <Valence>
8.912

> <Coulomb>
0.553

> <VdW>
0.809

> <VdW6>
-10.135

> <VdW12>
10.945

> <Bond>
0.229

> <Angle>
3.100

> <Pdih>
5.582

> <Idih>
0.001

> <Tether>
0.000

$$$$
VeraChem MOL file


 25 24  0  0  0  0  0  0  0  0999 V2000     
   20.5565   19.3013   26.8956 C   0  0  0  0  0  0  0  0  0  0  0  0
   21.3811   20.1733   26.7042 O   0  5  0  0  0  0  0  0  0  0  0  0
   19.9261   19.1875   27.9286 O   0  0  0  0  0  0  0  0  0  0  0  0
   20.3174   18.2755   25.7913 C   0  0  0  0  0  0  0  0  0  0  0  0
   20.3890   17.2816   26.2480 H   0  0  0  0  0  0  0  0  0  0  0  0
   21.1359   18.3433   25.0654 H   0  0  0  0  0  0  0  0  0  0  0  0
   18.9437   18.4173   25.0809 C   0  0  0  0  0  0  0  0  0  0  0  0
   18.8257   17.6019   24.3556 H   0  0  0  0  0  0  0  0  0  0  0  0
   18.1469   18.2761   25.8241 H   0  0  0  0  0  0  0  0  0  0  0  0
   18.7256   19.7802   24.3740 C   0  0  0  0  0  0  0  0  0  0  0  0
   18.7081   20.5766   25.1307 H   0  0  0  0  0  0  0  0  0  0  0  0
   17.7293   19.7822   23.9115 H   0  0  0  0  0  0  0  0  0  0  0  0
   19.7791   20.1437   23.2977 C   0  0  0  0  0  0  0  0  0  0  0  0
   19.5250   21.1296   22.8855 H   0  0  0  0  0  0  0  0  0  0  0  0
   20.7666   20.2564   23.7648 H   0  0  0  0  0  0  0  0  0  0  0  0
   19.8593   19.1209   22.1409 C   0  0  0  0  0  0  0  0  0  0  0  0
   18.8605   18.9790   21.7063 H   0  0  0  0  0  0  0  0  0  0  0  0
   20.1835   18.1457   22.5269 H   0  0  0  0  0  0  0  0  0  0  0  0
   20.8403   19.5792   21.0414 C   0  0  0  0  0  0  0  0  0  0  0  0
   20.5213   20.5517   20.6416 H   0  0  0  0  0  0  0  0  0  0  0  0
   21.8397   19.7242   21.4747 H   0  0  0  0  0  0  0  0  0  0  0  0
   20.9238   18.5553   19.8915 C   0  0  0  0  0  0  0  0  0  0  0  0
   19.9426   18.4137   19.4198 H   0  0  0  0  0  0  0  0  0  0  0  0
   21.6251   18.8971   19.1192 H   0  0  0  0  0  0  0  0  0  0  0  0
   21.2719   17.5806   20.2580 H   0  0  0  0  0  0  0  0  0  0  0  0
  1  2  1  0  0  0  0
  1  3  2  0  0  0  0
  1  4  1  0  0  0  0
  4  5  1  0  0  0  0
  4  6  1  0  0  0  0
  4  7  1  0  0  0  0
  7  8  1  0  0  0  0
  7  9  1  0  0  0  0
  7 10  1  0  0  0  0
 10 11  1  0  0  0  0
 10 12  1  0  0  0  0
 10 13  1  0  0  0  0
 13 14  1  0  0  0  0
 13 15  1  0  0  0  0
 13 16  1  0  0  0  0
 16 17  1  0  0  0  0
 16 18  1  0  0  0  0
 16 19  1  0  0  0  0
 19 20  1  0  0  0  0
 19 21  1  0  0  0  0
 19 22  1  0  0  0  0
 22 23  1  0  0  0  0
 22 24  1  0  0  0  0
 22 25  1  0  0  0  0
M  END
> <VM2 Rank>
72

> <Conf_Id>
1021

> <Probability>
0.06

> <Sum Probability>
98.59

> <Delta G>
3.530

> <G>
-4.432

> <E>
-29.684

> <-TS>
25.252

> <U+W>
-50.252

> <U>
9.772

> <W>
-60.024

> <W(PB)>
-62.442

> <W(SA)>
2.418

> <Valence>
8.741

> <Coulomb>
0.479

> <VdW>
0.552

> <VdW6>
-10.626

> <VdW12>
11.179

> <Bond>
0.227

> <Angle>
3.155

> <Pdih>
5.358

> <Idih>
0.001

> <Tether>
0.000

$$$$
VeraChem MOL file


 25 24  0  0  0  0  0  0  0  0999 V2000     
   19.9470   19.6079   26.9997 C   0  0  0  0  0  0  0  0  0  0  0  0
   20.7936   20.1440   27.6878 O   0  5  0  0  0  0  0  0  0  0  0  0
   18.8624   20.1017   26.7615 O   0  0  0  0  0  0  0  0  0  0  0  0
   20.2546   18.2268   26.4278 C   0  0  0  0  0  0  0  0  0  0  0  0
   19.3186   17.7725   26.0841 H   0  0  0  0  0  0  0  0  0  0  0  0
   20.6142   17.6047   27.2556 H   0  0  0  0  0  0  0  0  0  0  0  0
   21.3142   18.2313   25.2919 C   0  0  0  0  0  0  0  0  0  0  0  0
   22.2600   18.6175   25.6965 H   0  0  0  0  0  0  0  0  0  0  0  0
   21.5131   17.1970   24.9804 H   0  0  0  0  0  0  0  0  0  0  0  0
   20.9256   19.0718   24.0503 C   0  0  0  0  0  0  0  0  0  0  0  0
   21.7823   19.0773   23.3650 H   0  0  0  0  0  0  0  0  0  0  0  0
   20.7594   20.1165   24.3468 H   0  0  0  0  0  0  0  0  0  0  0  0
   19.6746   18.5368   23.3110 C   0  0  0  0  0  0  0  0  0  0  0  0
   19.8296   17.4869   23.0277 H   0  0  0  0  0  0  0  0  0  0  0  0
   18.8159   18.5535   23.9946 H   0  0  0  0  0  0  0  0  0  0  0  0
   19.2990   19.3626   22.0573 C   0  0  0  0  0  0  0  0  0  0  0  0
   19.1635   20.4160   22.3382 H   0  0  0  0  0  0  0  0  0  0  0  0
   18.3246   19.0118   21.6906 H   0  0  0  0  0  0  0  0  0  0  0  0
   20.3311   19.2554   20.9117 C   0  0  0  0  0  0  0  0  0  0  0  0
   21.2939   19.6777   21.2274 H   0  0  0  0  0  0  0  0  0  0  0  0
   20.5082   18.1983   20.6702 H   0  0  0  0  0  0  0  0  0  0  0  0
   19.8509   19.9958   19.6471 C   0  0  0  0  0  0  0  0  0  0  0  0
   19.6915   21.0622   19.8536 H   0  0  0  0  0  0  0  0  0  0  0  0
   20.5953   19.9135   18.8445 H   0  0  0  0  0  0  0  0  0  0  0  0
   18.9072   19.5730   19.2782 H   0  0  0  0  0  0  0  0  0  0  0  0
  1  2  1  0  0  0  0
  1  3  2  0  0  0  0
  1  4  1  0  0  0  0
  4  5  1  0  0  0  0
  4  6  1  0  0  0  0
  4  7  1  0  0  0  0
  7  8  1  0  0  0  0
  7  9  1  0  0  0  0
  7 10  1  0  0  0  0
 10 11  1  0  0  0  0
 10 12  1  0  0  0  0
 10 13  1  0  0  0  0
 13 14  1  0  0  0  0
 13 15  1  0  0  0  0
 13 16  1  0  0  0  0
 16 17  1  0  0  0  0
 16 18  1  0  0  0  0
 16 19  1  0  0  0  0
 19 20  1  0  0  0  0
 19 21  1  0  0  0  0
 19 22  1  0  0  0  0
 22 23  1  0  0  0  0
 22 24  1  0  0  0  0
 22 25  1  0  0  0  0
M  END
> <VM2 Rank>
73

> <Conf_Id>
969

> <Probability>
0.06

> <Sum Probability>
98.65

> <Delta G>
3.531

> <G>
-4.431

> <E>
-29.328

> <-TS>
24.897

> <U+W>
-49.895

> <U>
10.274

> <W>
-60.169

> <W(PB)>
-62.622

> <W(SA)>
2.453

> <Valence>
8.912

> <Coulomb>
0.552

> <VdW>
0.809

> <VdW6>
-10.135

> <VdW12>
10.944

> <Bond>
0.229

> <Angle>
3.100

> <Pdih>
5.582

> <Idih>
0.001

> <Tether>
0.000

$$$$
VeraChem MOL file


 25 24  0  0  0  0  0  0  0  0999 V2000     
   19.8944   18.7949   26.7635 C   0  0  0  0  0  0  0  0  0  0  0  0
   20.9038   18.2343   27.1430 O   0  5  0  0  0  0  0  0  0  0  0  0
   18.8132   18.2469   26.6749 O   0  0  0  0  0  0  0  0  0  0  0  0
   19.9822   20.2745   26.3998 C   0  0  0  0  0  0  0  0  0  0  0  0
   20.8828   20.6959   26.8624 H   0  0  0  0  0  0  0  0  0  0  0  0
   19.1237   20.7774   26.8602 H   0  0  0  0  0  0  0  0  0  0  0  0
   19.9850   20.5470   24.8733 C   0  0  0  0  0  0  0  0  0  0  0  0
   19.0868   20.0963   24.4305 H   0  0  0  0  0  0  0  0  0  0  0  0
   19.9154   21.6297   24.7024 H   0  0  0  0  0  0  0  0  0  0  0  0
   21.2539   20.0002   24.1768 C   0  0  0  0  0  0  0  0  0  0  0  0
   21.3052   18.9099   24.2958 H   0  0  0  0  0  0  0  0  0  0  0  0
   22.1411   20.4011   24.6856 H   0  0  0  0  0  0  0  0  0  0  0  0
   21.3426   20.3706   22.6749 C   0  0  0  0  0  0  0  0  0  0  0  0
   21.4081   21.4631   22.5815 H   0  0  0  0  0  0  0  0  0  0  0  0
   22.2843   19.9753   22.2703 H   0  0  0  0  0  0  0  0  0  0  0  0
   20.1699   19.8661   21.7963 C   0  0  0  0  0  0  0  0  0  0  0  0
   20.3460   20.1953   20.7633 H   0  0  0  0  0  0  0  0  0  0  0  0
   19.2327   20.3435   22.1110 H   0  0  0  0  0  0  0  0  0  0  0  0
   20.0029   18.3298   21.8119 C   0  0  0  0  0  0  0  0  0  0  0  0
   20.9551   17.8507   21.5460 H   0  0  0  0  0  0  0  0  0  0  0  0
   19.7437   17.9898   22.8237 H   0  0  0  0  0  0  0  0  0  0  0  0
   18.9051   17.8697   20.8316 C   0  0  0  0  0  0  0  0  0  0  0  0
   17.9354   18.3134   21.0927 H   0  0  0  0  0  0  0  0  0  0  0  0
   19.1499   18.1613   19.8018 H   0  0  0  0  0  0  0  0  0  0  0  0
   18.7962   16.7777   20.8578 H   0  0  0  0  0  0  0  0  0  0  0  0
  1  2  1  0  0  0  0
  1  3  2  0  0  0  0
  1  4  1  0  0  0  0
  4  5  1  0  0  0  0
  4  6  1  0  0  0  0
  4  7  1  0  0  0  0
  7  8  1  0  0  0  0
  7  9  1  0  0  0  0
  7 10  1  0  0  0  0
 10 11  1  0  0  0  0
 10 12  1  0  0  0  0
 10 13  1  0  0  0  0
 13 14  1  0  0  0  0
 13 15  1  0  0  0  0
 13 16  1  0  0  0  0
 16 17  1  0  0  0  0
 16 18  1  0  0  0  0
 16 19  1  0  0  0  0
 19 20  1  0  0  0  0
 19 21  1  0  0  0  0
 19 22  1  0  0  0  0
 22 23  1  0  0  0  0
 22 24  1  0  0  0  0
 22 25  1  0  0  0  0
M  END
> <VM2 Rank>
74

> <Conf_Id>
576

> <Probability>
0.06

> <Sum Probability>
98.71

> <Delta G>
3.535

> <G>
-4.427

> <E>
-29.587

> <-TS>
25.160

> <U+W>
-50.155

> <U>
10.375

> <W>
-60.530

> <W(PB)>
-62.937

> <W(SA)>
2.407

> <Valence>
8.732

> <Coulomb>
0.993

> <VdW>
0.649

> <VdW6>
-10.415

> <VdW12>
11.065

> <Bond>
0.214

> <Angle>
3.066

> <Pdih>
5.452

> <Idih>
0.001

> <Tether>
0.000

$$$$
VeraChem MOL file


 25 24  0  0  0  0  0  0  0  0999 V2000     
   19.7023   19.5865   26.7631 C   0  0  0  0  0  0  0  0  0  0  0  0
   20.3530   19.9161   27.7354 O   0  5  0  0  0  0  0  0  0  0  0  0
   18.8540   20.2906   26.2516 O   0  0  0  0  0  0  0  0  0  0  0  0
   19.9455   18.2008   26.1718 C   0  0  0  0  0  0  0  0  0  0  0  0
   19.1187   17.9575   25.4950 H   0  0  0  0  0  0  0  0  0  0  0  0
   19.8923   17.4811   26.9970 H   0  0  0  0  0  0  0  0  0  0  0  0
   21.3111   18.0506   25.4468 C   0  0  0  0  0  0  0  0  0  0  0  0
   22.1165   18.2309   26.1722 H   0  0  0  0  0  0  0  0  0  0  0  0
   21.4276   17.0116   25.1102 H   0  0  0  0  0  0  0  0  0  0  0  0
   21.5050   19.0019   24.2404 C   0  0  0  0  0  0  0  0  0  0  0  0
   22.5242   18.8677   23.8533 H   0  0  0  0  0  0  0  0  0  0  0  0
   21.4368   20.0459   24.5761 H   0  0  0  0  0  0  0  0  0  0  0  0
   20.4940   18.7590   23.0960 C   0  0  0  0  0  0  0  0  0  0  0  0
   20.5158   17.7004   22.8040 H   0  0  0  0  0  0  0  0  0  0  0  0
   19.4799   18.9762   23.4539 H   0  0  0  0  0  0  0  0  0  0  0  0
   20.8046   19.6413   21.8647 C   0  0  0  0  0  0  0  0  0  0  0  0
   21.8444   19.4700   21.5544 H   0  0  0  0  0  0  0  0  0  0  0  0
   20.7334   20.7017   22.1432 H   0  0  0  0  0  0  0  0  0  0  0  0
   19.8801   19.3600   20.6572 C   0  0  0  0  0  0  0  0  0  0  0  0
   20.2407   19.9381   19.7952 H   0  0  0  0  0  0  0  0  0  0  0  0
   19.9530   18.3012   20.3729 H   0  0  0  0  0  0  0  0  0  0  0  0
   18.4033   19.7272   20.9189 C   0  0  0  0  0  0  0  0  0  0  0  0
   17.9644   19.0916   21.6982 H   0  0  0  0  0  0  0  0  0  0  0  0
   18.3089   20.7742   21.2351 H   0  0  0  0  0  0  0  0  0  0  0  0
   17.8070   19.5942   20.0070 H   0  0  0  0  0  0  0  0  0  0  0  0
  1  2  1  0  0  0  0
  1  3  2  0  0  0  0
  1  4  1  0  0  0  0
  4  5  1  0  0  0  0
  4  6  1  0  0  0  0
  4  7  1  0  0  0  0
  7  8  1  0  0  0  0
  7  9  1  0  0  0  0
  7 10  1  0  0  0  0
 10 11  1  0  0  0  0
 10 12  1  0  0  0  0
 10 13  1  0  0  0  0
 13 14  1  0  0  0  0
 13 15  1  0  0  0  0
 13 16  1  0  0  0  0
 16 17  1  0  0  0  0
 16 18  1  0  0  0  0
 16 19  1  0  0  0  0
 19 20  1  0  0  0  0
 19 21  1  0  0  0  0
 19 22  1  0  0  0  0
 22 23  1  0  0  0  0
 22 24  1  0  0  0  0
 22 25  1  0  0  0  0
M  END
> <VM2 Rank>
75

> <Conf_Id>
379

> <Probability>
0.06

> <Sum Probability>
98.77

> <Delta G>
3.536

> <G>
-4.426

> <E>
-29.380

> <-TS>
24.954

> <U+W>
-49.948

> <U>
10.718

> <W>
-60.666

> <W(PB)>
-63.099

> <W(SA)>
2.433

> <Valence>
8.799

> <Coulomb>
1.201

> <VdW>
0.718

> <VdW6>
-10.234

> <VdW12>
10.952

> <Bond>
0.218

> <Angle>
3.002

> <Pdih>
5.578

> <Idih>
0.001

> <Tether>
0.000

$$$$
VeraChem MOL file


 25 24  0  0  0  0  0  0  0  0999 V2000     
   20.5588   19.6410   26.7534 C   0  0  0  0  0  0  0  0  0  0  0  0
   21.2985   20.4466   26.2236 O   0  5  0  0  0  0  0  0  0  0  0  0
   19.8942   19.8864   27.7412 O   0  0  0  0  0  0  0  0  0  0  0  0
   20.4801   18.2349   26.1655 C   0  0  0  0  0  0  0  0  0  0  0  0
   20.6433   17.5289   26.9880 H   0  0  0  0  0  0  0  0  0  0  0  0
   21.3154   18.0978   25.4695 H   0  0  0  0  0  0  0  0  0  0  0  0
   19.1284   17.9115   25.4719 C   0  0  0  0  0  0  0  0  0  0  0  0
   19.1371   16.8657   25.1364 H   0  0  0  0  0  0  0  0  0  0  0  0
   18.3235   17.9890   26.2158 H   0  0  0  0  0  0  0  0  0  0  0  0
   18.7875   18.8289   24.2718 C   0  0  0  0  0  0  0  0  0  0  0  0
   18.7305   19.8735   24.6075 H   0  0  0  0  0  0  0  0  0  0  0  0
   17.7848   18.5659   23.9082 H   0  0  0  0  0  0  0  0  0  0  0  0
   19.7943   18.7145   23.1040 C   0  0  0  0  0  0  0  0  0  0  0  0
   20.7808   19.0589   23.4386 H   0  0  0  0  0  0  0  0  0  0  0  0
   19.9001   17.6613   22.8108 H   0  0  0  0  0  0  0  0  0  0  0  0
   19.3460   19.5488   21.8815 C   0  0  0  0  0  0  0  0  0  0  0  0
   19.2890   20.6100   22.1600 H   0  0  0  0  0  0  0  0  0  0  0  0
   18.3294   19.2468   21.5952 H   0  0  0  0  0  0  0  0  0  0  0  0
   20.2704   19.3851   20.6524 C   0  0  0  0  0  0  0  0  0  0  0  0
   20.3254   18.3252   20.3682 H   0  0  0  0  0  0  0  0  0  0  0  0
   19.8198   19.9119   19.8000 H   0  0  0  0  0  0  0  0  0  0  0  0
   21.6947   19.9363   20.8805 C   0  0  0  0  0  0  0  0  0  0  0  0
   22.2284   19.3623   21.6482 H   0  0  0  0  0  0  0  0  0  0  0  0
   22.2816   19.8787   19.9547 H   0  0  0  0  0  0  0  0  0  0  0  0
   21.6633   20.9873   21.1962 H   0  0  0  0  0  0  0  0  0  0  0  0
  1  2  1  0  0  0  0
  1  3  2  0  0  0  0
  1  4  1  0  0  0  0
  4  5  1  0  0  0  0
  4  6  1  0  0  0  0
  4  7  1  0  0  0  0
  7  8  1  0  0  0  0
  7  9  1  0  0  0  0
  7 10  1  0  0  0  0
 10 11  1  0  0  0  0
 10 12  1  0  0  0  0
 10 13  1  0  0  0  0
 13 14  1  0  0  0  0
 13 15  1  0  0  0  0
 13 16  1  0  0  0  0
 16 17  1  0  0  0  0
 16 18  1  0  0  0  0
 16 19  1  0  0  0  0
 19 20  1  0  0  0  0
 19 21  1  0  0  0  0
 19 22  1  0  0  0  0
 22 23  1  0  0  0  0
 22 24  1  0  0  0  0
 22 25  1  0  0  0  0
M  END
> <VM2 Rank>
76

> <Conf_Id>
1124

> <Probability>
0.06

> <Sum Probability>
98.83

> <Delta G>
3.543

> <G>
-4.420

> <E>
-29.374

> <-TS>
24.955

> <U+W>
-49.942

> <U>
10.717

> <W>
-60.659

> <W(PB)>
-63.085

> <W(SA)>
2.426

> <Valence>
8.799

> <Coulomb>
1.200

> <VdW>
0.718

> <VdW6>
-10.234

> <VdW12>
10.951

> <Bond>
0.218

> <Angle>
3.002

> <Pdih>
5.578

> <Idih>
0.001

> <Tether>
0.000

$$$$
VeraChem MOL file


 25 24  0  0  0  0  0  0  0  0999 V2000     
   19.9350   19.8286   26.6997 C   0  0  0  0  0  0  0  0  0  0  0  0
   20.8081   20.3075   27.3968 O   0  5  0  0  0  0  0  0  0  0  0  0
   19.0240   20.4764   26.2230 O   0  0  0  0  0  0  0  0  0  0  0  0
   19.9706   18.3260   26.4345 C   0  0  0  0  0  0  0  0  0  0  0  0
   18.9990   18.0176   26.0320 H   0  0  0  0  0  0  0  0  0  0  0  0
   20.0774   17.8265   27.4043 H   0  0  0  0  0  0  0  0  0  0  0  0
   21.1215   17.8743   25.4941 C   0  0  0  0  0  0  0  0  0  0  0  0
   22.0815   18.1340   25.9613 H   0  0  0  0  0  0  0  0  0  0  0  0
   21.1076   16.7795   25.4080 H   0  0  0  0  0  0  0  0  0  0  0  0
   21.0710   18.4985   24.0780 C   0  0  0  0  0  0  0  0  0  0  0  0
   21.9569   18.1681   23.5191 H   0  0  0  0  0  0  0  0  0  0  0  0
   21.1449   19.5909   24.1606 H   0  0  0  0  0  0  0  0  0  0  0  0
   19.7990   18.1137   23.2840 C   0  0  0  0  0  0  0  0  0  0  0  0
   19.6673   17.0240   23.3234 H   0  0  0  0  0  0  0  0  0  0  0  0
   18.9131   18.5548   23.7601 H   0  0  0  0  0  0  0  0  0  0  0  0
   19.8462   18.5506   21.8004 C   0  0  0  0  0  0  0  0  0  0  0  0
   18.9632   18.1435   21.2892 H   0  0  0  0  0  0  0  0  0  0  0  0
   20.7222   18.1025   21.3119 H   0  0  0  0  0  0  0  0  0  0  0  0
   19.8726   20.0844   21.6130 C   0  0  0  0  0  0  0  0  0  0  0  0
   19.0265   20.5373   22.1484 H   0  0  0  0  0  0  0  0  0  0  0  0
   20.7884   20.5027   22.0510 H   0  0  0  0  0  0  0  0  0  0  0  0
   19.8050   20.4740   20.1225 C   0  0  0  0  0  0  0  0  0  0  0  0
   18.8803   20.1038   19.6608 H   0  0  0  0  0  0  0  0  0  0  0  0
   19.8280   21.5654   20.0067 H   0  0  0  0  0  0  0  0  0  0  0  0
   20.6560   20.0562   19.5688 H   0  0  0  0  0  0  0  0  0  0  0  0
  1  2  1  0  0  0  0
  1  3  2  0  0  0  0
  1  4  1  0  0  0  0
  4  5  1  0  0  0  0
  4  6  1  0  0  0  0
  4  7  1  0  0  0  0
  7  8  1  0  0  0  0
  7  9  1  0  0  0  0
  7 10  1  0  0  0  0
 10 11  1  0  0  0  0
 10 12  1  0  0  0  0
 10 13  1  0  0  0  0
 13 14  1  0  0  0  0
 13 15  1  0  0  0  0
 13 16  1  0  0  0  0
 16 17  1  0  0  0  0
 16 18  1  0  0  0  0
 16 19  1  0  0  0  0
 19 20  1  0  0  0  0
 19 21  1  0  0  0  0
 19 22  1  0  0  0  0
 22 23  1  0  0  0  0
 22 24  1  0  0  0  0
 22 25  1  0  0  0  0
M  END
> <VM2 Rank>
77

> <Conf_Id>
250

> <Probability>
0.05

> <Sum Probability>
98.88

> <Delta G>
3.663

> <G>
-4.299

> <E>
-29.297

> <-TS>
24.998

> <U+W>
-49.865

> <U>
10.632

> <W>
-60.496

> <W(PB)>
-62.929

> <W(SA)>
2.433

> <Valence>
8.788

> <Coulomb>
1.197

> <VdW>
0.647

> <VdW6>
-10.379

> <VdW12>
11.026

> <Bond>
0.219

> <Angle>
2.957

> <Pdih>
5.611

> <Idih>
0.001

> <Tether>
0.000

$$$$
VeraChem MOL file


 25 24  0  0  0  0  0  0  0  0999 V2000     
   20.2955   19.8518   26.6955 C   0  0  0  0  0  0  0  0  0  0  0  0
   21.1049   20.6099   26.1985 O   0  5  0  0  0  0  0  0  0  0  0  0
   19.3849   20.2163   27.4135 O   0  0  0  0  0  0  0  0  0  0  0  0
   20.4459   18.3565   26.4289 C   0  0  0  0  0  0  0  0  0  0  0  0
   20.4263   17.8489   27.4003 H   0  0  0  0  0  0  0  0  0  0  0  0
   21.4394   18.1742   26.0037 H   0  0  0  0  0  0  0  0  0  0  0  0
   19.3408   17.7602   25.5148 C   0  0  0  0  0  0  0  0  0  0  0  0
   19.4923   16.6759   25.4268 H   0  0  0  0  0  0  0  0  0  0  0  0
   18.3665   17.8959   26.0044 H   0  0  0  0  0  0  0  0  0  0  0  0
   19.2785   18.3836   24.0988 C   0  0  0  0  0  0  0  0  0  0  0  0
   19.0678   19.4577   24.1846 H   0  0  0  0  0  0  0  0  0  0  0  0
   18.4292   17.9420   23.5600 H   0  0  0  0  0  0  0  0  0  0  0  0
   20.5704   18.1629   23.2749 C   0  0  0  0  0  0  0  0  0  0  0  0
   21.4037   18.7139   23.7312 H   0  0  0  0  0  0  0  0  0  0  0  0
   20.8408   17.0989   23.3096 H   0  0  0  0  0  0  0  0  0  0  0  0
   20.4336   18.5882   21.7936 C   0  0  0  0  0  0  0  0  0  0  0  0
   19.6107   18.0315   21.3247 H   0  0  0  0  0  0  0  0  0  0  0  0
   21.3492   18.2961   21.2614 H   0  0  0  0  0  0  0  0  0  0  0  0
   20.2078   20.1059   21.6093 C   0  0  0  0  0  0  0  0  0  0  0  0
   19.2566   20.4048   22.0690 H   0  0  0  0  0  0  0  0  0  0  0  0
   21.0016   20.6635   22.1255 H   0  0  0  0  0  0  0  0  0  0  0  0
   20.1907   20.4989   20.1182 C   0  0  0  0  0  0  0  0  0  0  0  0
   20.0264   21.5783   20.0047 H   0  0  0  0  0  0  0  0  0  0  0  0
   21.1441   20.2487   19.6346 H   0  0  0  0  0  0  0  0  0  0  0  0
   19.3872   19.9755   19.5837 H   0  0  0  0  0  0  0  0  0  0  0  0
  1  2  1  0  0  0  0
  1  3  2  0  0  0  0
  1  4  1  0  0  0  0
  4  5  1  0  0  0  0
  4  6  1  0  0  0  0
  4  7  1  0  0  0  0
  7  8  1  0  0  0  0
  7  9  1  0  0  0  0
  7 10  1  0  0  0  0
 10 11  1  0  0  0  0
 10 12  1  0  0  0  0
 10 13  1  0  0  0  0
 13 14  1  0  0  0  0
 13 15  1  0  0  0  0
 13 16  1  0  0  0  0
 16 17  1  0  0  0  0
 16 18  1  0  0  0  0
 16 19  1  0  0  0  0
 19 20  1  0  0  0  0
 19 21  1  0  0  0  0
 19 22  1  0  0  0  0
 22 23  1  0  0  0  0
 22 24  1  0  0  0  0
 22 25  1  0  0  0  0
M  END
> <VM2 Rank>
78

> <Conf_Id>
831

> <Probability>
0.05

> <Sum Probability>
98.93

> <Delta G>
3.679

> <G>
-4.283

> <E>
-29.283

> <-TS>
25.000

> <U+W>
-49.851

> <U>
10.632

> <W>
-60.482

> <W(PB)>
-62.908

> <W(SA)>
2.426

> <Valence>
8.788

> <Coulomb>
1.197

> <VdW>
0.646

> <VdW6>
-10.379

> <VdW12>
11.025

> <Bond>
0.219

> <Angle>
2.957

> <Pdih>
5.611

> <Idih>
0.001

> <Tether>
0.000

$$$$
VeraChem MOL file


 25 24  0  0  0  0  0  0  0  0999 V2000     
   19.9006   19.8369   26.6520 C   0  0  0  0  0  0  0  0  0  0  0  0
   20.8831   20.5047   26.9096 O   0  5  0  0  0  0  0  0  0  0  0  0
   18.8006   20.3126   26.4497 O   0  0  0  0  0  0  0  0  0  0  0  0
   20.0389   18.3157   26.6472 C   0  0  0  0  0  0  0  0  0  0  0  0
   19.0570   17.8691   26.4492 H   0  0  0  0  0  0  0  0  0  0  0  0
   20.3140   18.0282   27.6686 H   0  0  0  0  0  0  0  0  0  0  0  0
   21.0975   17.7489   25.6597 C   0  0  0  0  0  0  0  0  0  0  0  0
   22.0207   18.3420   25.7192 H   0  0  0  0  0  0  0  0  0  0  0  0
   21.3663   16.7379   25.9944 H   0  0  0  0  0  0  0  0  0  0  0  0
   20.6249   17.6484   24.1881 C   0  0  0  0  0  0  0  0  0  0  0  0
   19.7087   17.0446   24.1343 H   0  0  0  0  0  0  0  0  0  0  0  0
   21.3893   17.1003   23.6202 H   0  0  0  0  0  0  0  0  0  0  0  0
   20.3864   19.0156   23.5080 C   0  0  0  0  0  0  0  0  0  0  0  0
   19.5359   19.5233   23.9800 H   0  0  0  0  0  0  0  0  0  0  0  0
   21.2658   19.6580   23.6528 H   0  0  0  0  0  0  0  0  0  0  0  0
   20.1016   18.8606   21.9982 C   0  0  0  0  0  0  0  0  0  0  0  0
   19.2249   18.2140   21.8553 H   0  0  0  0  0  0  0  0  0  0  0  0
   20.9508   18.3604   21.5129 H   0  0  0  0  0  0  0  0  0  0  0  0
   19.8520   20.2243   21.3204 C   0  0  0  0  0  0  0  0  0  0  0  0
   19.0019   20.7270   21.8022 H   0  0  0  0  0  0  0  0  0  0  0  0
   20.7276   20.8732   21.4608 H   0  0  0  0  0  0  0  0  0  0  0  0
   19.5673   20.0664   19.8132 C   0  0  0  0  0  0  0  0  0  0  0  0
   18.6767   19.4468   19.6446 H   0  0  0  0  0  0  0  0  0  0  0  0
   19.3923   21.0451   19.3479 H   0  0  0  0  0  0  0  0  0  0  0  0
   20.4155   19.5941   19.3006 H   0  0  0  0  0  0  0  0  0  0  0  0
  1  2  1  0  0  0  0
  1  3  2  0  0  0  0
  1  4  1  0  0  0  0
  4  5  1  0  0  0  0
  4  6  1  0  0  0  0
  4  7  1  0  0  0  0
  7  8  1  0  0  0  0
  7  9  1  0  0  0  0
  7 10  1  0  0  0  0
 10 11  1  0  0  0  0
 10 12  1  0  0  0  0
 10 13  1  0  0  0  0
 13 14  1  0  0  0  0
 13 15  1  0  0  0  0
 13 16  1  0  0  0  0
 16 17  1  0  0  0  0
 16 18  1  0  0  0  0
 16 19  1  0  0  0  0
 19 20  1  0  0  0  0
 19 21  1  0  0  0  0
 19 22  1  0  0  0  0
 22 23  1  0  0  0  0
 22 24  1  0  0  0  0
 22 25  1  0  0  0  0
M  END
> <VM2 Rank>
79

> <Conf_Id>
991

> <Probability>
0.05

> <Sum Probability>
98.97

> <Delta G>
3.691

> <G>
-4.272

> <E>
-29.298

> <-TS>
25.026

> <U+W>
-49.866

> <U>
10.903

> <W>
-60.768

> <W(PB)>
-63.222

> <W(SA)>
2.454

> <Valence>
9.445

> <Coulomb>
0.779

> <VdW>
0.679

> <VdW6>
-10.008

> <VdW12>
10.687

> <Bond>
0.201

> <Angle>
3.198

> <Pdih>
6.039

> <Idih>
0.006

> <Tether>
0.000

$$$$
VeraChem MOL file


 25 24  0  0  0  0  0  0  0  0999 V2000     
   20.6374   19.6695   26.6426 C   0  0  0  0  0  0  0  0  0  0  0  0
   20.0464   20.6948   26.9205 O   0  5  0  0  0  0  0  0  0  0  0  0
   21.8295   19.6245   26.4105 O   0  0  0  0  0  0  0  0  0  0  0  0
   19.8554   18.3573   26.6495 C   0  0  0  0  0  0  0  0  0  0  0  0
   19.5084   18.2110   27.6789 H   0  0  0  0  0  0  0  0  0  0  0  0
   20.5427   17.5315   26.4296 H   0  0  0  0  0  0  0  0  0  0  0  0
   18.6318   18.3092   25.6915 C   0  0  0  0  0  0  0  0  0  0  0  0
   17.9608   17.5118   26.0384 H   0  0  0  0  0  0  0  0  0  0  0  0
   18.0574   19.2427   25.7705 H   0  0  0  0  0  0  0  0  0  0  0  0
   18.9780   18.0227   24.2093 C   0  0  0  0  0  0  0  0  0  0  0  0
   18.0382   17.8622   23.6635 H   0  0  0  0  0  0  0  0  0  0  0  0
   19.5415   17.0825   24.1363 H   0  0  0  0  0  0  0  0  0  0  0  0
   19.7674   19.1562   23.5160 C   0  0  0  0  0  0  0  0  0  0  0  0
   19.2562   20.1149   23.6789 H   0  0  0  0  0  0  0  0  0  0  0  0
   20.7652   19.2436   23.9641 H   0  0  0  0  0  0  0  0  0  0  0  0
   19.9199   18.9019   22.0005 C   0  0  0  0  0  0  0  0  0  0  0  0
   18.9262   18.8211   21.5391 H   0  0  0  0  0  0  0  0  0  0  0  0
   20.4268   17.9406   21.8395 H   0  0  0  0  0  0  0  0  0  0  0  0
   20.7181   20.0273   21.3093 C   0  0  0  0  0  0  0  0  0  0  0  0
   20.2132   20.9904   21.4679 H   0  0  0  0  0  0  0  0  0  0  0  0
   21.7136   20.1100   21.7672 H   0  0  0  0  0  0  0  0  0  0  0  0
   20.8691   19.7705   19.7964 C   0  0  0  0  0  0  0  0  0  0  0  0
   21.4388   20.5799   19.3216 H   0  0  0  0  0  0  0  0  0  0  0  0
   21.3995   18.8276   19.6092 H   0  0  0  0  0  0  0  0  0  0  0  0
   19.8877   19.7149   19.3075 H   0  0  0  0  0  0  0  0  0  0  0  0
  1  2  1  0  0  0  0
  1  3  2  0  0  0  0
  1  4  1  0  0  0  0
  4  5  1  0  0  0  0
  4  6  1  0  0  0  0
  4  7  1  0  0  0  0
  7  8  1  0  0  0  0
  7  9  1  0  0  0  0
  7 10  1  0  0  0  0
 10 11  1  0  0  0  0
 10 12  1  0  0  0  0
 10 13  1  0  0  0  0
 13 14  1  0  0  0  0
 13 15  1  0  0  0  0
 13 16  1  0  0  0  0
 16 17  1  0  0  0  0
 16 18  1  0  0  0  0
 16 19  1  0  0  0  0
 19 20  1  0  0  0  0
 19 21  1  0  0  0  0
 19 22  1  0  0  0  0
 22 23  1  0  0  0  0
 22 24  1  0  0  0  0
 22 25  1  0  0  0  0
M  END
> <VM2 Rank>
80

> <Conf_Id>
1307

> <Probability>
0.05

> <Sum Probability>
99.02

> <Delta G>
3.707

> <G>
-4.255

> <E>
-29.282

> <-TS>
25.026

> <U+W>
-49.849

> <U>
10.903

> <W>
-60.752

> <W(PB)>
-63.220

> <W(SA)>
2.468

> <Valence>
9.445

> <Coulomb>
0.779

> <VdW>
0.680

> <VdW6>
-10.008

> <VdW12>
10.688

> <Bond>
0.201

> <Angle>
3.198

> <Pdih>
6.039

> <Idih>
0.006

> <Tether>
0.000

$$$$
VeraChem MOL file


 25 24  0  0  0  0  0  0  0  0999 V2000     
   20.2718   19.9683   26.9782 C   0  0  0  0  0  0  0  0  0  0  0  0
   21.2023   19.8128   27.7442 O   0  5  0  0  0  0  0  0  0  0  0  0
   19.2317   20.5165   27.2853 O   0  0  0  0  0  0  0  0  0  0  0  0
   20.4080   19.4240   25.5608 C   0  0  0  0  0  0  0  0  0  0  0  0
   21.4654   19.4770   25.2754 H   0  0  0  0  0  0  0  0  0  0  0  0
   19.8516   20.0929   24.8946 H   0  0  0  0  0  0  0  0  0  0  0  0
   19.8872   17.9711   25.4234 C   0  0  0  0  0  0  0  0  0  0  0  0
   20.3636   17.3519   26.1961 H   0  0  0  0  0  0  0  0  0  0  0  0
   18.8094   17.9521   25.6360 H   0  0  0  0  0  0  0  0  0  0  0  0
   20.1554   17.3242   24.0412 C   0  0  0  0  0  0  0  0  0  0  0  0
   19.7860   16.2904   24.0827 H   0  0  0  0  0  0  0  0  0  0  0  0
   21.2369   17.2475   23.8638 H   0  0  0  0  0  0  0  0  0  0  0  0
   19.4646   18.0361   22.8505 C   0  0  0  0  0  0  0  0  0  0  0  0
   19.1407   17.2732   22.1293 H   0  0  0  0  0  0  0  0  0  0  0  0
   18.5507   18.5412   23.1919 H   0  0  0  0  0  0  0  0  0  0  0  0
   20.3888   19.0336   22.1127 C   0  0  0  0  0  0  0  0  0  0  0  0
   21.2673   18.4987   21.7269 H   0  0  0  0  0  0  0  0  0  0  0  0
   20.7645   19.7936   22.8078 H   0  0  0  0  0  0  0  0  0  0  0  0
   19.6595   19.7292   20.9442 C   0  0  0  0  0  0  0  0  0  0  0  0
   19.2910   18.9748   20.2353 H   0  0  0  0  0  0  0  0  0  0  0  0
   18.7798   20.2667   21.3247 H   0  0  0  0  0  0  0  0  0  0  0  0
   20.5838   20.7182   20.2056 C   0  0  0  0  0  0  0  0  0  0  0  0
   21.4578   20.2016   19.7877 H   0  0  0  0  0  0  0  0  0  0  0  0
   20.0493   21.2034   19.3786 H   0  0  0  0  0  0  0  0  0  0  0  0
   20.9417   21.5031   20.8847 H   0  0  0  0  0  0  0  0  0  0  0  0
  1  2  1  0  0  0  0
  1  3  2  0  0  0  0
  1  4  1  0  0  0  0
  4  5  1  0  0  0  0
  4  6  1  0  0  0  0
  4  7  1  0  0  0  0
  7  8  1  0  0  0  0
  7  9  1  0  0  0  0
  7 10  1  0  0  0  0
 10 11  1  0  0  0  0
 10 12  1  0  0  0  0
 10 13  1  0  0  0  0
 13 14  1  0  0  0  0
 13 15  1  0  0  0  0
 13 16  1  0  0  0  0
 16 17  1  0  0  0  0
 16 18  1  0  0  0  0
 16 19  1  0  0  0  0
 19 20  1  0  0  0  0
 19 21  1  0  0  0  0
 19 22  1  0  0  0  0
 22 23  1  0  0  0  0
 22 24  1  0  0  0  0
 22 25  1  0  0  0  0
M  END
> <VM2 Rank>
81

> <Conf_Id>
935

> <Probability>
0.04

> <Sum Probability>
99.06

> <Delta G>
3.723

> <G>
-4.240

> <E>
-29.021

> <-TS>
24.782

> <U+W>
-49.589

> <U>
10.016

> <W>
-59.605

> <W(PB)>
-62.068

> <W(SA)>
2.462

> <Valence>
10.523

> <Coulomb>
-1.441

> <VdW>
0.934

> <VdW6>
-9.399

> <VdW12>
10.333

> <Bond>
0.199

> <Angle>
2.988

> <Pdih>
7.335

> <Idih>
0.001

> <Tether>
0.000

$$$$
VeraChem MOL file


 25 24  0  0  0  0  0  0  0  0999 V2000     
   20.3930   19.4813   27.1365 C   0  0  0  0  0  0  0  0  0  0  0  0
   21.4290   20.1160   27.1622 O   0  5  0  0  0  0  0  0  0  0  0  0
   20.0018   18.7939   28.0592 O   0  0  0  0  0  0  0  0  0  0  0  0
   19.5473   19.5337   25.8693 C   0  0  0  0  0  0  0  0  0  0  0  0
   19.6716   20.5283   25.4263 H   0  0  0  0  0  0  0  0  0  0  0  0
   18.4941   19.4345   26.1577 H   0  0  0  0  0  0  0  0  0  0  0  0
   19.9286   18.4312   24.8478 C   0  0  0  0  0  0  0  0  0  0  0  0
   20.9763   18.5583   24.5446 H   0  0  0  0  0  0  0  0  0  0  0  0
   19.8728   17.4537   25.3461 H   0  0  0  0  0  0  0  0  0  0  0  0
   19.0120   18.4020   23.5989 C   0  0  0  0  0  0  0  0  0  0  0  0
   17.9844   18.1816   23.9179 H   0  0  0  0  0  0  0  0  0  0  0  0
   19.3108   17.5619   22.9582 H   0  0  0  0  0  0  0  0  0  0  0  0
   19.0011   19.7061   22.7586 C   0  0  0  0  0  0  0  0  0  0  0  0
   18.3284   19.5679   21.9022 H   0  0  0  0  0  0  0  0  0  0  0  0
   18.5535   20.5147   23.3508 H   0  0  0  0  0  0  0  0  0  0  0  0
   20.3895   20.1728   22.2471 C   0  0  0  0  0  0  0  0  0  0  0  0
   21.0172   20.4498   23.1043 H   0  0  0  0  0  0  0  0  0  0  0  0
   20.2569   21.0952   21.6657 H   0  0  0  0  0  0  0  0  0  0  0  0
   21.1516   19.1411   21.3793 C   0  0  0  0  0  0  0  0  0  0  0  0
   22.1276   19.5656   21.1070 H   0  0  0  0  0  0  0  0  0  0  0  0
   21.3657   18.2382   21.9663 H   0  0  0  0  0  0  0  0  0  0  0  0
   20.3992   18.7559   20.0872 C   0  0  0  0  0  0  0  0  0  0  0  0
   20.1582   19.6466   19.4926 H   0  0  0  0  0  0  0  0  0  0  0  0
   21.0150   18.0914   19.4675 H   0  0  0  0  0  0  0  0  0  0  0  0
   19.4639   18.2285   20.3129 H   0  0  0  0  0  0  0  0  0  0  0  0
  1  2  1  0  0  0  0
  1  3  2  0  0  0  0
  1  4  1  0  0  0  0
  4  5  1  0  0  0  0
  4  6  1  0  0  0  0
  4  7  1  0  0  0  0
  7  8  1  0  0  0  0
  7  9  1  0  0  0  0
  7 10  1  0  0  0  0
 10 11  1  0  0  0  0
 10 12  1  0  0  0  0
 10 13  1  0  0  0  0
 13 14  1  0  0  0  0
 13 15  1  0  0  0  0
 13 16  1  0  0  0  0
 16 17  1  0  0  0  0
 16 18  1  0  0  0  0
 16 19  1  0  0  0  0
 19 20  1  0  0  0  0
 19 21  1  0  0  0  0
 19 22  1  0  0  0  0
 22 23  1  0  0  0  0
 22 24  1  0  0  0  0
 22 25  1  0  0  0  0
M  END
> <VM2 Rank>
82

> <Conf_Id>
788

> <Probability>
0.04

> <Sum Probability>
99.11

> <Delta G>
3.736

> <G>
-4.226

> <E>
-29.676

> <-TS>
25.450

> <U+W>
-50.244

> <U>
9.324

> <W>
-59.568

> <W(PB)>
-61.965

> <W(SA)>
2.397

> <Valence>
9.360

> <Coulomb>
-0.854

> <VdW>
0.818

> <VdW6>
-11.207

> <VdW12>
12.025

> <Bond>
0.279

> <Angle>
3.545

> <Pdih>
5.535

> <Idih>
0.001

> <Tether>
0.000

$$$$
VeraChem MOL file


 25 24  0  0  0  0  0  0  0  0999 V2000     
   19.7543   18.8237   27.0174 C   0  0  0  0  0  0  0  0  0  0  0  0
   20.5055   18.2718   27.7970 O   0  5  0  0  0  0  0  0  0  0  0  0
   18.6634   19.2597   27.3282 O   0  0  0  0  0  0  0  0  0  0  0  0
   20.2161   18.9997   25.5753 C   0  0  0  0  0  0  0  0  0  0  0  0
   19.3296   18.9385   24.9342 H   0  0  0  0  0  0  0  0  0  0  0  0
   20.8678   18.1555   25.3207 H   0  0  0  0  0  0  0  0  0  0  0  0
   20.9583   20.3399   25.3423 C   0  0  0  0  0  0  0  0  0  0  0  0
   20.2656   21.1729   25.5257 H   0  0  0  0  0  0  0  0  0  0  0  0
   21.7573   20.4345   26.0907 H   0  0  0  0  0  0  0  0  0  0  0  0
   21.5853   20.4864   23.9330 C   0  0  0  0  0  0  0  0  0  0  0  0
   22.3529   19.7157   23.7793 H   0  0  0  0  0  0  0  0  0  0  0  0
   22.1177   21.4470   23.9063 H   0  0  0  0  0  0  0  0  0  0  0  0
   20.5642   20.4680   22.7672 C   0  0  0  0  0  0  0  0  0  0  0  0
   19.5902   20.8402   23.1132 H   0  0  0  0  0  0  0  0  0  0  0  0
   20.9041   21.1725   21.9958 H   0  0  0  0  0  0  0  0  0  0  0  0
   20.4077   19.0756   22.1113 C   0  0  0  0  0  0  0  0  0  0  0  0
   20.1036   18.3326   22.8579 H   0  0  0  0  0  0  0  0  0  0  0  0
   21.3796   18.7469   21.7186 H   0  0  0  0  0  0  0  0  0  0  0  0
   19.3742   19.0980   20.9657 C   0  0  0  0  0  0  0  0  0  0  0  0
   18.3995   19.4255   21.3532 H   0  0  0  0  0  0  0  0  0  0  0  0
   19.6785   19.8312   20.2059 H   0  0  0  0  0  0  0  0  0  0  0  0
   19.2240   17.7112   20.3085 C   0  0  0  0  0  0  0  0  0  0  0  0
   18.8889   16.9642   21.0400 H   0  0  0  0  0  0  0  0  0  0  0  0
   18.4858   17.7455   19.4968 H   0  0  0  0  0  0  0  0  0  0  0  0
   20.1783   17.3720   19.8847 H   0  0  0  0  0  0  0  0  0  0  0  0
  1  2  1  0  0  0  0
  1  3  2  0  0  0  0
  1  4  1  0  0  0  0
  4  5  1  0  0  0  0
  4  6  1  0  0  0  0
  4  7  1  0  0  0  0
  7  8  1  0  0  0  0
  7  9  1  0  0  0  0
  7 10  1  0  0  0  0
 10 11  1  0  0  0  0
 10 12  1  0  0  0  0
 10 13  1  0  0  0  0
 13 14  1  0  0  0  0
 13 15  1  0  0  0  0
 13 16  1  0  0  0  0
 16 17  1  0  0  0  0
 16 18  1  0  0  0  0
 16 19  1  0  0  0  0
 19 20  1  0  0  0  0
 19 21  1  0  0  0  0
 19 22  1  0  0  0  0
 22 23  1  0  0  0  0
 22 24  1  0  0  0  0
 22 25  1  0  0  0  0
M  END
> <VM2 Rank>
83

> <Conf_Id>
614

> <Probability>
0.04

> <Sum Probability>
99.15

> <Delta G>
3.762

> <G>
-4.200

> <E>
-28.981

> <-TS>
24.781

> <U+W>
-49.549

> <U>
10.016

> <W>
-59.565

> <W(PB)>
-62.019

> <W(SA)>
2.454

> <Valence>
10.523

> <Coulomb>
-1.441

> <VdW>
0.934

> <VdW6>
-9.398

> <VdW12>
10.333

> <Bond>
0.199

> <Angle>
2.988

> <Pdih>
7.334

> <Idih>
0.001

> <Tether>
0.000

$$$$
VeraChem MOL file


 25 24  0  0  0  0  0  0  0  0999 V2000     
   20.3699   19.5170   27.1354 C   0  0  0  0  0  0  0  0  0  0  0  0
   21.3721   20.2037   27.1597 O   0  5  0  0  0  0  0  0  0  0  0  0
   19.5593   19.4772   28.0400 O   0  0  0  0  0  0  0  0  0  0  0  0
   20.1041   18.6738   25.8936 C   0  0  0  0  0  0  0  0  0  0  0  0
   19.5750   17.7654   26.2049 H   0  0  0  0  0  0  0  0  0  0  0  0
   21.0735   18.3635   25.4875 H   0  0  0  0  0  0  0  0  0  0  0  0
   19.2812   19.4310   24.8194 C   0  0  0  0  0  0  0  0  0  0  0  0
   18.3540   19.7991   25.2797 H   0  0  0  0  0  0  0  0  0  0  0  0
   19.8339   20.3225   24.4946 H   0  0  0  0  0  0  0  0  0  0  0  0
   18.9115   18.5573   23.5944 C   0  0  0  0  0  0  0  0  0  0  0  0
   18.2842   19.1473   22.9133 H   0  0  0  0  0  0  0  0  0  0  0  0
   18.2815   17.7228   23.9308 H   0  0  0  0  0  0  0  0  0  0  0  0
   20.1180   17.9813   22.8074 C   0  0  0  0  0  0  0  0  0  0  0  0
   20.6569   17.2666   23.4427 H   0  0  0  0  0  0  0  0  0  0  0  0
   19.7386   17.3901   21.9638 H   0  0  0  0  0  0  0  0  0  0  0  0
   21.1253   19.0365   22.2792 C   0  0  0  0  0  0  0  0  0  0  0  0
   21.9272   18.5159   21.7386 H   0  0  0  0  0  0  0  0  0  0  0  0
   21.6129   19.5300   23.1303 H   0  0  0  0  0  0  0  0  0  0  0  0
   20.5188   20.1183   21.3517 C   0  0  0  0  0  0  0  0  0  0  0  0
   19.7681   20.7057   21.8966 H   0  0  0  0  0  0  0  0  0  0  0  0
   21.3126   20.8241   21.0713 H   0  0  0  0  0  0  0  0  0  0  0  0
   19.8926   19.5380   20.0651 C   0  0  0  0  0  0  0  0  0  0  0  0
   20.6215   18.9307   19.5129 H   0  0  0  0  0  0  0  0  0  0  0  0
   19.0229   18.9093   20.2938 H   0  0  0  0  0  0  0  0  0  0  0  0
   19.5547   20.3462   19.4039 H   0  0  0  0  0  0  0  0  0  0  0  0
  1  2  1  0  0  0  0
  1  3  2  0  0  0  0
  1  4  1  0  0  0  0
  4  5  1  0  0  0  0
  4  6  1  0  0  0  0
  4  7  1  0  0  0  0
  7  8  1  0  0  0  0
  7  9  1  0  0  0  0
  7 10  1  0  0  0  0
 10 11  1  0  0  0  0
 10 12  1  0  0  0  0
 10 13  1  0  0  0  0
 13 14  1  0  0  0  0
 13 15  1  0  0  0  0
 13 16  1  0  0  0  0
 16 17  1  0  0  0  0
 16 18  1  0  0  0  0
 16 19  1  0  0  0  0
 19 20  1  0  0  0  0
 19 21  1  0  0  0  0
 19 22  1  0  0  0  0
 22 23  1  0  0  0  0
 22 24  1  0  0  0  0
 22 25  1  0  0  0  0
M  END
> <VM2 Rank>
84

> <Conf_Id>
156

> <Probability>
0.04

> <Sum Probability>
99.19

> <Delta G>
3.780

> <G>
-4.183

> <E>
-29.633

> <-TS>
25.450

> <U+W>
-50.201

> <U>
9.324

> <W>
-59.524

> <W(PB)>
-61.905

> <W(SA)>
2.381

> <Valence>
9.360

> <Coulomb>
-0.855

> <VdW>
0.818

> <VdW6>
-11.207

> <VdW12>
12.025

> <Bond>
0.279

> <Angle>
3.545

> <Pdih>
5.535

> <Idih>
0.001

> <Tether>
0.000

$$$$
VeraChem MOL file


 25 24  0  0  0  0  0  0  0  0999 V2000     
   19.5514   19.1587   26.9670 C   0  0  0  0  0  0  0  0  0  0  0  0
   20.0435   19.0195   28.0694 O   0  5  0  0  0  0  0  0  0  0  0  0
   18.4654   19.6685   26.7740 O   0  0  0  0  0  0  0  0  0  0  0  0
   20.3506   18.6868   25.7578 C   0  0  0  0  0  0  0  0  0  0  0  0
   19.6397   18.3476   24.9980 H   0  0  0  0  0  0  0  0  0  0  0  0
   20.9361   17.8106   26.0606 H   0  0  0  0  0  0  0  0  0  0  0  0
   21.2907   19.7853   25.1945 C   0  0  0  0  0  0  0  0  0  0  0  0
   20.7147   20.6893   24.9527 H   0  0  0  0  0  0  0  0  0  0  0  0
   21.9898   20.0731   25.9919 H   0  0  0  0  0  0  0  0  0  0  0  0
   22.1078   19.3236   23.9611 C   0  0  0  0  0  0  0  0  0  0  0  0
   22.2829   18.2399   24.0042 H   0  0  0  0  0  0  0  0  0  0  0  0
   23.1016   19.7886   24.0158 H   0  0  0  0  0  0  0  0  0  0  0  0
   21.4886   19.7081   22.5938 C   0  0  0  0  0  0  0  0  0  0  0  0
   21.4112   20.8017   22.5232 H   0  0  0  0  0  0  0  0  0  0  0  0
   22.1836   19.3970   21.8021 H   0  0  0  0  0  0  0  0  0  0  0  0
   20.1042   19.0783   22.3221 C   0  0  0  0  0  0  0  0  0  0  0  0
   19.3701   19.4810   23.0320 H   0  0  0  0  0  0  0  0  0  0  0  0
   20.1546   17.9930   22.4842 H   0  0  0  0  0  0  0  0  0  0  0  0
   19.6188   19.3629   20.8851 C   0  0  0  0  0  0  0  0  0  0  0  0
   19.5711   20.4480   20.7187 H   0  0  0  0  0  0  0  0  0  0  0  0
   20.3420   18.9603   20.1624 H   0  0  0  0  0  0  0  0  0  0  0  0
   18.2321   18.7423   20.6211 C   0  0  0  0  0  0  0  0  0  0  0  0
   17.4814   19.1510   21.3102 H   0  0  0  0  0  0  0  0  0  0  0  0
   17.9021   18.9541   19.5958 H   0  0  0  0  0  0  0  0  0  0  0  0
   18.2586   17.6524   20.7504 H   0  0  0  0  0  0  0  0  0  0  0  0
  1  2  1  0  0  0  0
  1  3  2  0  0  0  0
  1  4  1  0  0  0  0
  4  5  1  0  0  0  0
  4  6  1  0  0  0  0
  4  7  1  0  0  0  0
  7  8  1  0  0  0  0
  7  9  1  0  0  0  0
  7 10  1  0  0  0  0
 10 11  1  0  0  0  0
 10 12  1  0  0  0  0
 10 13  1  0  0  0  0
 13 14  1  0  0  0  0
 13 15  1  0  0  0  0
 13 16  1  0  0  0  0
 16 17  1  0  0  0  0
 16 18  1  0  0  0  0
 16 19  1  0  0  0  0
 19 20  1  0  0  0  0
 19 21  1  0  0  0  0
 19 22  1  0  0  0  0
 22 23  1  0  0  0  0
 22 24  1  0  0  0  0
 22 25  1  0  0  0  0
M  END
> <VM2 Rank>
85

> <Conf_Id>
1241

> <Probability>
0.04

> <Sum Probability>
99.23

> <Delta G>
3.841

> <G>
-4.121

> <E>
-28.910

> <-TS>
24.789

> <U+W>
-49.478

> <U>
10.344

> <W>
-59.822

> <W(PB)>
-62.262

> <W(SA)>
2.440

> <Valence>
10.527

> <Coulomb>
-1.067

> <VdW>
0.884

> <VdW6>
-9.456

> <VdW12>
10.339

> <Bond>
0.207

> <Angle>
3.009

> <Pdih>
7.310

> <Idih>
0.001

> <Tether>
0.000

$$$$
VeraChem MOL file


 25 24  0  0  0  0  0  0  0  0999 V2000     
   20.7675   19.2365   26.9529 C   0  0  0  0  0  0  0  0  0  0  0  0
   21.7752   19.8799   26.7355 O   0  5  0  0  0  0  0  0  0  0  0  0
   20.3225   19.0379   28.0662 O   0  0  0  0  0  0  0  0  0  0  0  0
   20.0072   18.6648   25.7618 C   0  0  0  0  0  0  0  0  0  0  0  0
   19.5452   17.7216   26.0769 H   0  0  0  0  0  0  0  0  0  0  0  0
   20.7378   18.4176   24.9854 H   0  0  0  0  0  0  0  0  0  0  0  0
   18.9221   19.6337   25.2219 C   0  0  0  0  0  0  0  0  0  0  0  0
   18.2106   19.8313   26.0356 H   0  0  0  0  0  0  0  0  0  0  0  0
   19.3725   20.6034   24.9682 H   0  0  0  0  0  0  0  0  0  0  0  0
   18.1424   19.0698   24.0069 C   0  0  0  0  0  0  0  0  0  0  0  0
   17.0989   19.4045   24.0851 H   0  0  0  0  0  0  0  0  0  0  0  0
   18.1078   17.9727   24.0525 H   0  0  0  0  0  0  0  0  0  0  0  0
   18.6760   19.5281   22.6264 C   0  0  0  0  0  0  0  0  0  0  0  0
   18.0082   19.1297   21.8503 H   0  0  0  0  0  0  0  0  0  0  0  0
   18.6117   20.6225   22.5555 H   0  0  0  0  0  0  0  0  0  0  0  0
   20.1227   19.0794   22.3219 C   0  0  0  0  0  0  0  0  0  0  0  0
   20.2147   17.9968   22.4835 H   0  0  0  0  0  0  0  0  0  0  0  0
   20.8156   19.5734   23.0154 H   0  0  0  0  0  0  0  0  0  0  0  0
   20.5347   19.4215   20.8746 C   0  0  0  0  0  0  0  0  0  0  0  0
   19.8523   18.9289   20.1681 H   0  0  0  0  0  0  0  0  0  0  0  0
   20.4399   20.5036   20.7088 H   0  0  0  0  0  0  0  0  0  0  0  0
   21.9828   18.9824   20.5779 C   0  0  0  0  0  0  0  0  0  0  0  0
   22.6909   19.4845   21.2501 H   0  0  0  0  0  0  0  0  0  0  0  0
   22.0984   17.8982   20.7061 H   0  0  0  0  0  0  0  0  0  0  0  0
   22.2594   19.2331   19.5456 H   0  0  0  0  0  0  0  0  0  0  0  0
  1  2  1  0  0  0  0
  1  3  2  0  0  0  0
  1  4  1  0  0  0  0
  4  5  1  0  0  0  0
  4  6  1  0  0  0  0
  4  7  1  0  0  0  0
  7  8  1  0  0  0  0
  7  9  1  0  0  0  0
  7 10  1  0  0  0  0
 10 11  1  0  0  0  0
 10 12  1  0  0  0  0
 10 13  1  0  0  0  0
 13 14  1  0  0  0  0
 13 15  1  0  0  0  0
 13 16  1  0  0  0  0
 16 17  1  0  0  0  0
 16 18  1  0  0  0  0
 16 19  1  0  0  0  0
 19 20  1  0  0  0  0
 19 21  1  0  0  0  0
 19 22  1  0  0  0  0
 22 23  1  0  0  0  0
 22 24  1  0  0  0  0
 22 25  1  0  0  0  0
M  END
> <VM2 Rank>
86

> <Conf_Id>
834

> <Probability>
0.04

> <Sum Probability>
99.26

> <Delta G>
3.863

> <G>
-4.099

> <E>
-28.888

> <-TS>
24.789

> <U+W>
-49.455

> <U>
10.344

> <W>
-59.800

> <W(PB)>
-62.239

> <W(SA)>
2.440

> <Valence>
10.527

> <Coulomb>
-1.066

> <VdW>
0.884

> <VdW6>
-9.456

> <VdW12>
10.339

> <Bond>
0.207

> <Angle>
3.009

> <Pdih>
7.310

> <Idih>
0.001

> <Tether>
0.000

$$$$
VeraChem MOL file


 25 24  0  0  0  0  0  0  0  0999 V2000     
   20.3481   19.8220   27.0877 C   0  0  0  0  0  0  0  0  0  0  0  0
   21.4742   20.2660   27.1941 O   0  5  0  0  0  0  0  0  0  0  0  0
   19.3695   20.3413   27.5871 O   0  0  0  0  0  0  0  0  0  0  0  0
   20.1492   18.5528   26.2669 C   0  0  0  0  0  0  0  0  0  0  0  0
   19.3199   17.9880   26.7093 H   0  0  0  0  0  0  0  0  0  0  0  0
   21.0512   17.9372   26.3670 H   0  0  0  0  0  0  0  0  0  0  0  0
   19.8633   18.8424   24.7728 C   0  0  0  0  0  0  0  0  0  0  0  0
   18.9616   19.4647   24.6893 H   0  0  0  0  0  0  0  0  0  0  0  0
   20.6988   19.4232   24.3602 H   0  0  0  0  0  0  0  0  0  0  0  0
   19.6781   17.5412   23.9606 C   0  0  0  0  0  0  0  0  0  0  0  0
   18.9243   16.9149   24.4569 H   0  0  0  0  0  0  0  0  0  0  0  0
   20.6141   16.9662   23.9744 H   0  0  0  0  0  0  0  0  0  0  0  0
   19.2336   17.7648   22.4933 C   0  0  0  0  0  0  0  0  0  0  0  0
   19.0858   16.7756   22.0388 H   0  0  0  0  0  0  0  0  0  0  0  0
   18.2504   18.2542   22.4676 H   0  0  0  0  0  0  0  0  0  0  0  0
   20.2475   18.5488   21.6217 C   0  0  0  0  0  0  0  0  0  0  0  0
   20.2358   18.1254   20.6081 H   0  0  0  0  0  0  0  0  0  0  0  0
   21.2670   18.4003   22.0030 H   0  0  0  0  0  0  0  0  0  0  0  0
   19.9265   20.0577   21.5160 C   0  0  0  0  0  0  0  0  0  0  0  0
   18.9266   20.1910   21.0805 H   0  0  0  0  0  0  0  0  0  0  0  0
   19.8987   20.5172   22.5114 H   0  0  0  0  0  0  0  0  0  0  0  0
   20.9629   20.7968   20.6458 C   0  0  0  0  0  0  0  0  0  0  0  0
   21.9696   20.7084   21.0749 H   0  0  0  0  0  0  0  0  0  0  0  0
   20.9865   20.3859   19.6280 H   0  0  0  0  0  0  0  0  0  0  0  0
   20.7175   21.8644   20.5748 H   0  0  0  0  0  0  0  0  0  0  0  0
  1  2  1  0  0  0  0
  1  3  2  0  0  0  0
  1  4  1  0  0  0  0
  4  5  1  0  0  0  0
  4  6  1  0  0  0  0
  4  7  1  0  0  0  0
  7  8  1  0  0  0  0
  7  9  1  0  0  0  0
  7 10  1  0  0  0  0
 10 11  1  0  0  0  0
 10 12  1  0  0  0  0
 10 13  1  0  0  0  0
 13 14  1  0  0  0  0
 13 15  1  0  0  0  0
 13 16  1  0  0  0  0
 16 17  1  0  0  0  0
 16 18  1  0  0  0  0
 16 19  1  0  0  0  0
 19 20  1  0  0  0  0
 19 21  1  0  0  0  0
 19 22  1  0  0  0  0
 22 23  1  0  0  0  0
 22 24  1  0  0  0  0
 22 25  1  0  0  0  0
M  END
> <VM2 Rank>
87

> <Conf_Id>
112

> <Probability>
0.04

> <Sum Probability>
99.30

> <Delta G>
3.864

> <G>
-4.098

> <E>
-28.880

> <-TS>
24.782

> <U+W>
-49.447

> <U>
10.480

> <W>
-59.927

> <W(PB)>
-62.373

> <W(SA)>
2.445

> <Valence>
10.552

> <Coulomb>
-0.995

> <VdW>
0.923

> <VdW6>
-9.371

> <VdW12>
10.294

> <Bond>
0.194

> <Angle>
2.991

> <Pdih>
7.366

> <Idih>
0.001

> <Tether>
0.000

$$$$
VeraChem MOL file


 25 24  0  0  0  0  0  0  0  0999 V2000     
   19.7425   19.6047   27.1883 C   0  0  0  0  0  0  0  0  0  0  0  0
   20.5884   19.9590   27.9856 O   0  5  0  0  0  0  0  0  0  0  0  0
   18.6154   20.0576   27.1565 O   0  0  0  0  0  0  0  0  0  0  0  0
   20.1230   18.5477   26.1577 C   0  0  0  0  0  0  0  0  0  0  0  0
   19.2273   17.9581   25.9281 H   0  0  0  0  0  0  0  0  0  0  0  0
   20.8496   17.8681   26.6187 H   0  0  0  0  0  0  0  0  0  0  0  0
   20.7080   19.1568   24.8598 C   0  0  0  0  0  0  0  0  0  0  0  0
   19.9764   19.8510   24.4290 H   0  0  0  0  0  0  0  0  0  0  0  0
   21.5965   19.7530   25.1099 H   0  0  0  0  0  0  0  0  0  0  0  0
   21.0904   18.0632   23.8344 C   0  0  0  0  0  0  0  0  0  0  0  0
   20.2259   17.4203   23.6195 H   0  0  0  0  0  0  0  0  0  0  0  0
   21.8481   17.4136   24.2937 H   0  0  0  0  0  0  0  0  0  0  0  0
   21.6683   18.6354   22.5152 C   0  0  0  0  0  0  0  0  0  0  0  0
   22.1604   19.5998   22.7010 H   0  0  0  0  0  0  0  0  0  0  0  0
   22.4607   17.9587   22.1675 H   0  0  0  0  0  0  0  0  0  0  0  0
   20.6392   18.7764   21.3653 C   0  0  0  0  0  0  0  0  0  0  0  0
   20.2236   17.7885   21.1243 H   0  0  0  0  0  0  0  0  0  0  0  0
   21.1724   19.1135   20.4658 H   0  0  0  0  0  0  0  0  0  0  0  0
   19.4855   19.7593   21.6610 C   0  0  0  0  0  0  0  0  0  0  0  0
   18.8672   19.3720   22.4814 H   0  0  0  0  0  0  0  0  0  0  0  0
   19.8943   20.7249   21.9888 H   0  0  0  0  0  0  0  0  0  0  0  0
   18.5923   19.9739   20.4223 C   0  0  0  0  0  0  0  0  0  0  0  0
   18.1503   19.0261   20.0883 H   0  0  0  0  0  0  0  0  0  0  0  0
   17.7732   20.6677   20.6519 H   0  0  0  0  0  0  0  0  0  0  0  0
   19.1698   20.3956   19.5892 H   0  0  0  0  0  0  0  0  0  0  0  0
  1  2  1  0  0  0  0
  1  3  2  0  0  0  0
  1  4  1  0  0  0  0
  4  5  1  0  0  0  0
  4  6  1  0  0  0  0
  4  7  1  0  0  0  0
  7  8  1  0  0  0  0
  7  9  1  0  0  0  0
  7 10  1  0  0  0  0
 10 11  1  0  0  0  0
 10 12  1  0  0  0  0
 10 13  1  0  0  0  0
 13 14  1  0  0  0  0
 13 15  1  0  0  0  0
 13 16  1  0  0  0  0
 16 17  1  0  0  0  0
 16 18  1  0  0  0  0
 16 19  1  0  0  0  0
 19 20  1  0  0  0  0
 19 21  1  0  0  0  0
 19 22  1  0  0  0  0
 22 23  1  0  0  0  0
 22 24  1  0  0  0  0
 22 25  1  0  0  0  0
M  END
> <VM2 Rank>
88

> <Conf_Id>
716

> <Probability>
0.03

> <Sum Probability>
99.33

> <Delta G>
3.906

> <G>
-4.056

> <E>
-28.831

> <-TS>
24.775

> <U+W>
-49.398

> <U>
10.175

> <W>
-59.573

> <W(PB)>
-62.030

> <W(SA)>
2.457

> <Valence>
10.554

> <Coulomb>
-1.316

> <VdW>
0.936

> <VdW6>
-9.356

> <VdW12>
10.292

> <Bond>
0.194

> <Angle>
2.996

> <Pdih>
7.363

> <Idih>
0.001

> <Tether>
0.000

$$$$
VeraChem MOL file


 25 24  0  0  0  0  0  0  0  0999 V2000     
   19.8964   19.1944   27.5097 C   0  0  0  0  0  0  0  0  0  0  0  0
   20.8613   19.3844   28.2235 O   0  5  0  0  0  0  0  0  0  0  0  0
   18.7596   19.4892   27.8217 O   0  0  0  0  0  0  0  0  0  0  0  0
   20.1277   18.5709   26.1379 C   0  0  0  0  0  0  0  0  0  0  0  0
   19.2461   17.9702   25.8837 H   0  0  0  0  0  0  0  0  0  0  0  0
   20.9778   17.8826   26.2153 H   0  0  0  0  0  0  0  0  0  0  0  0
   20.3921   19.6252   25.0348 C   0  0  0  0  0  0  0  0  0  0  0  0
   19.5376   20.3139   24.9790 H   0  0  0  0  0  0  0  0  0  0  0  0
   21.2694   20.2268   25.3104 H   0  0  0  0  0  0  0  0  0  0  0  0
   20.6218   18.9695   23.6559 C   0  0  0  0  0  0  0  0  0  0  0  0
   19.7476   18.3619   23.3934 H   0  0  0  0  0  0  0  0  0  0  0  0
   21.4765   18.2820   23.7166 H   0  0  0  0  0  0  0  0  0  0  0  0
   20.8910   20.0262   22.5589 C   0  0  0  0  0  0  0  0  0  0  0  0
   20.0701   20.7553   22.5202 H   0  0  0  0  0  0  0  0  0  0  0  0
   21.7894   20.5916   22.8420 H   0  0  0  0  0  0  0  0  0  0  0  0
   21.1207   19.4100   21.1553 C   0  0  0  0  0  0  0  0  0  0  0  0
   21.5498   18.4029   21.2468 H   0  0  0  0  0  0  0  0  0  0  0  0
   21.8805   20.0120   20.6385 H   0  0  0  0  0  0  0  0  0  0  0  0
   19.8632   19.3724   20.2519 C   0  0  0  0  0  0  0  0  0  0  0  0
   19.4926   20.3946   20.0941 H   0  0  0  0  0  0  0  0  0  0  0  0
   20.1563   18.9959   19.2622 H   0  0  0  0  0  0  0  0  0  0  0  0
   18.7193   18.4918   20.7964 C   0  0  0  0  0  0  0  0  0  0  0  0
   18.2856   18.9250   21.7063 H   0  0  0  0  0  0  0  0  0  0  0  0
   17.9144   18.4066   20.0551 H   0  0  0  0  0  0  0  0  0  0  0  0
   19.0764   17.4797   21.0269 H   0  0  0  0  0  0  0  0  0  0  0  0
  1  2  1  0  0  0  0
  1  3  2  0  0  0  0
  1  4  1  0  0  0  0
  4  5  1  0  0  0  0
  4  6  1  0  0  0  0
  4  7  1  0  0  0  0
  7  8  1  0  0  0  0
  7  9  1  0  0  0  0
  7 10  1  0  0  0  0
 10 11  1  0  0  0  0
 10 12  1  0  0  0  0
 10 13  1  0  0  0  0
 13 14  1  0  0  0  0
 13 15  1  0  0  0  0
 13 16  1  0  0  0  0
 16 17  1  0  0  0  0
 16 18  1  0  0  0  0
 16 19  1  0  0  0  0
 19 20  1  0  0  0  0
 19 21  1  0  0  0  0
 19 22  1  0  0  0  0
 22 23  1  0  0  0  0
 22 24  1  0  0  0  0
 22 25  1  0  0  0  0
M  END
> <VM2 Rank>
89

> <Conf_Id>
1003

> <Probability>
0.03

> <Sum Probability>
99.36

> <Delta G>
3.933

> <G>
-4.029

> <E>
-28.765

> <-TS>
24.736

> <U+W>
-49.332

> <U>
9.739

> <W>
-59.072

> <W(PB)>
-61.524

> <W(SA)>
2.453

> <Valence>
10.506

> <Coulomb>
-1.761

> <VdW>
0.994

> <VdW6>
-9.209

> <VdW12>
10.203

> <Bond>
0.193

> <Angle>
2.980

> <Pdih>
7.333

> <Idih>
0.001

> <Tether>
0.000

$$$$
VeraChem MOL file


 25 24  0  0  0  0  0  0  0  0999 V2000     
   20.0360   19.0481   27.5084 C   0  0  0  0  0  0  0  0  0  0  0  0
   21.0804   19.1184   28.1256 O   0  5  0  0  0  0  0  0  0  0  0  0
   18.9543   19.3385   27.9800 O   0  0  0  0  0  0  0  0  0  0  0  0
   20.0882   18.5908   26.0551 C   0  0  0  0  0  0  0  0  0  0  0  0
   19.1583   18.0535   25.8334 H   0  0  0  0  0  0  0  0  0  0  0  0
   20.9102   17.8720   25.9534 H   0  0  0  0  0  0  0  0  0  0  0  0
   20.2778   19.7636   25.0618 C   0  0  0  0  0  0  0  0  0  0  0  0
   19.4540   20.4804   25.1847 H   0  0  0  0  0  0  0  0  0  0  0  0
   21.2059   20.2989   25.3058 H   0  0  0  0  0  0  0  0  0  0  0  0
   20.3273   19.2740   23.5981 C   0  0  0  0  0  0  0  0  0  0  0  0
   19.3977   18.7371   23.3696 H   0  0  0  0  0  0  0  0  0  0  0  0
   21.1544   18.5615   23.4760 H   0  0  0  0  0  0  0  0  0  0  0  0
   20.5042   20.4470   22.6086 C   0  0  0  0  0  0  0  0  0  0  0  0
   19.6285   21.1078   22.6658 H   0  0  0  0  0  0  0  0  0  0  0  0
   21.3667   21.0509   22.9220 H   0  0  0  0  0  0  0  0  0  0  0  0
   20.7258   20.0123   21.1379 C   0  0  0  0  0  0  0  0  0  0  0  0
   21.6520   19.4276   21.0532 H   0  0  0  0  0  0  0  0  0  0  0  0
   20.8932   20.9229   20.5465 H   0  0  0  0  0  0  0  0  0  0  0  0
   19.5428   19.2378   20.5048 C   0  0  0  0  0  0  0  0  0  0  0  0
   18.5966   19.5335   20.9787 H   0  0  0  0  0  0  0  0  0  0  0  0
   19.4587   19.5278   19.4484 H   0  0  0  0  0  0  0  0  0  0  0  0
   19.7162   17.7036   20.5657 C   0  0  0  0  0  0  0  0  0  0  0  0
   19.7887   17.3411   21.5973 H   0  0  0  0  0  0  0  0  0  0  0  0
   18.8616   17.2018   20.0937 H   0  0  0  0  0  0  0  0  0  0  0  0
   20.6241   17.3922   20.0330 H   0  0  0  0  0  0  0  0  0  0  0  0
  1  2  1  0  0  0  0
  1  3  2  0  0  0  0
  1  4  1  0  0  0  0
  4  5  1  0  0  0  0
  4  6  1  0  0  0  0
  4  7  1  0  0  0  0
  7  8  1  0  0  0  0
  7  9  1  0  0  0  0
  7 10  1  0  0  0  0
 10 11  1  0  0  0  0
 10 12  1  0  0  0  0
 10 13  1  0  0  0  0
 13 14  1  0  0  0  0
 13 15  1  0  0  0  0
 13 16  1  0  0  0  0
 16 17  1  0  0  0  0
 16 18  1  0  0  0  0
 16 19  1  0  0  0  0
 19 20  1  0  0  0  0
 19 21  1  0  0  0  0
 19 22  1  0  0  0  0
 22 23  1  0  0  0  0
 22 24  1  0  0  0  0
 22 25  1  0  0  0  0
M  END
> <VM2 Rank>
90

> <Conf_Id>
1259

> <Probability>
0.03

> <Sum Probability>
99.39

> <Delta G>
3.934

> <G>
-4.029

> <E>
-28.762

> <-TS>
24.733

> <U+W>
-49.329

> <U>
9.707

> <W>
-59.037

> <W(PB)>
-61.493

> <W(SA)>
2.456

> <Valence>
10.529

> <Coulomb>
-1.841

> <VdW>
1.019

> <VdW6>
-9.201

> <VdW12>
10.221

> <Bond>
0.191

> <Angle>
3.009

> <Pdih>
7.328

> <Idih>
0.001

> <Tether>
0.000

$$$$
VeraChem MOL file


 25 24  0  0  0  0  0  0  0  0999 V2000     
   19.8956   19.7931   27.0928 C   0  0  0  0  0  0  0  0  0  0  0  0
   20.8112   20.4338   27.5703 O   0  5  0  0  0  0  0  0  0  0  0  0
   18.7248   20.0898   27.2258 O   0  0  0  0  0  0  0  0  0  0  0  0
   20.2359   18.5583   26.2659 C   0  0  0  0  0  0  0  0  0  0  0  0
   19.4223   17.8329   26.3857 H   0  0  0  0  0  0  0  0  0  0  0  0
   21.1404   18.1046   26.6884 H   0  0  0  0  0  0  0  0  0  0  0  0
   20.4482   18.8799   24.7660 C   0  0  0  0  0  0  0  0  0  0  0  0
   19.5363   19.3488   24.3736 H   0  0  0  0  0  0  0  0  0  0  0  0
   21.2611   19.6118   24.6628 H   0  0  0  0  0  0  0  0  0  0  0  0
   20.7791   17.6117   23.9478 C   0  0  0  0  0  0  0  0  0  0  0  0
   19.9247   16.9219   23.9824 H   0  0  0  0  0  0  0  0  0  0  0  0
   21.6180   17.0874   24.4257 H   0  0  0  0  0  0  0  0  0  0  0  0
   21.1574   17.8879   22.4710 C   0  0  0  0  0  0  0  0  0  0  0  0
   22.0693   18.4986   22.4232 H   0  0  0  0  0  0  0  0  0  0  0  0
   21.4195   16.9249   22.0118 H   0  0  0  0  0  0  0  0  0  0  0  0
   20.0319   18.5350   21.6244 C   0  0  0  0  0  0  0  0  0  0  0  0
   19.0487   18.2585   22.0291 H   0  0  0  0  0  0  0  0  0  0  0  0
   20.0738   18.1150   20.6101 H   0  0  0  0  0  0  0  0  0  0  0  0
   20.1556   20.0724   21.5133 C   0  0  0  0  0  0  0  0  0  0  0  0
   20.1481   20.5332   22.5084 H   0  0  0  0  0  0  0  0  0  0  0  0
   21.1199   20.3312   21.0546 H   0  0  0  0  0  0  0  0  0  0  0  0
   19.0134   20.6722   20.6687 C   0  0  0  0  0  0  0  0  0  0  0  0
   18.0365   20.4570   21.1214 H   0  0  0  0  0  0  0  0  0  0  0  0
   19.1192   21.7622   20.5935 H   0  0  0  0  0  0  0  0  0  0  0  0
   19.0183   20.2600   19.6512 H   0  0  0  0  0  0  0  0  0  0  0  0
  1  2  1  0  0  0  0
  1  3  2  0  0  0  0
  1  4  1  0  0  0  0
  4  5  1  0  0  0  0
  4  6  1  0  0  0  0
  4  7  1  0  0  0  0
  7  8  1  0  0  0  0
  7  9  1  0  0  0  0
  7 10  1  0  0  0  0
 10 11  1  0  0  0  0
 10 12  1  0  0  0  0
 10 13  1  0  0  0  0
 13 14  1  0  0  0  0
 13 15  1  0  0  0  0
 13 16  1  0  0  0  0
 16 17  1  0  0  0  0
 16 18  1  0  0  0  0
 16 19  1  0  0  0  0
 19 20  1  0  0  0  0
 19 21  1  0  0  0  0
 19 22  1  0  0  0  0
 22 23  1  0  0  0  0
 22 24  1  0  0  0  0
 22 25  1  0  0  0  0
M  END
> <VM2 Rank>
91

> <Conf_Id>
989

> <Probability>
0.03

> <Sum Probability>
99.42

> <Delta G>
3.940

> <G>
-4.022

> <E>
-28.804

> <-TS>
24.782

> <U+W>
-49.372

> <U>
10.480

> <W>
-59.852

> <W(PB)>
-62.311

> <W(SA)>
2.459

> <Valence>
10.552

> <Coulomb>
-0.995

> <VdW>
0.923

> <VdW6>
-9.371

> <VdW12>
10.295

> <Bond>
0.194

> <Angle>
2.991

> <Pdih>
7.367

> <Idih>
0.001

> <Tether>
0.000

$$$$
VeraChem MOL file


 25 24  0  0  0  0  0  0  0  0999 V2000     
   20.5262   19.6548   27.1793 C   0  0  0  0  0  0  0  0  0  0  0  0
   21.5855   20.2476   27.1221 O   0  5  0  0  0  0  0  0  0  0  0  0
   19.6607   19.8996   27.9964 O   0  0  0  0  0  0  0  0  0  0  0  0
   20.2599   18.5565   26.1561 C   0  0  0  0  0  0  0  0  0  0  0  0
   19.6366   17.7905   26.6327 H   0  0  0  0  0  0  0  0  0  0  0  0
   21.2179   18.0855   25.9051 H   0  0  0  0  0  0  0  0  0  0  0  0
   19.5723   19.0842   24.8729 C   0  0  0  0  0  0  0  0  0  0  0  0
   18.6211   19.5626   25.1443 H   0  0  0  0  0  0  0  0  0  0  0  0
   20.1993   19.8654   24.4265 H   0  0  0  0  0  0  0  0  0  0  0  0
   19.3089   17.9493   23.8550 C   0  0  0  0  0  0  0  0  0  0  0  0
   18.6509   17.2091   24.3307 H   0  0  0  0  0  0  0  0  0  0  0  0
   20.2431   17.4215   23.6193 H   0  0  0  0  0  0  0  0  0  0  0  0
   18.6326   18.4412   22.5502 C   0  0  0  0  0  0  0  0  0  0  0  0
   17.9251   17.6685   22.2199 H   0  0  0  0  0  0  0  0  0  0  0  0
   18.0260   19.3353   22.7487 H   0  0  0  0  0  0  0  0  0  0  0  0
   19.6086   18.7105   21.3771 C   0  0  0  0  0  0  0  0  0  0  0  0
   19.0162   18.9756   20.4907 H   0  0  0  0  0  0  0  0  0  0  0  0
   20.1410   17.7832   21.1253 H   0  0  0  0  0  0  0  0  0  0  0  0
   20.6343   19.8328   21.6477 C   0  0  0  0  0  0  0  0  0  0  0  0
   20.1134   20.7389   21.9862 H   0  0  0  0  0  0  0  0  0  0  0  0
   21.3155   19.5286   22.4532 H   0  0  0  0  0  0  0  0  0  0  0  0
   21.4641   20.1575   20.3891 C   0  0  0  0  0  0  0  0  0  0  0  0
   20.8187   20.5011   19.5701 H   0  0  0  0  0  0  0  0  0  0  0  0
   22.1933   20.9502   20.6008 H   0  0  0  0  0  0  0  0  0  0  0  0
   22.0154   19.2732   20.0437 H   0  0  0  0  0  0  0  0  0  0  0  0
  1  2  1  0  0  0  0
  1  3  2  0  0  0  0
  1  4  1  0  0  0  0
  4  5  1  0  0  0  0
  4  6  1  0  0  0  0
  4  7  1  0  0  0  0
  7  8  1  0  0  0  0
  7  9  1  0  0  0  0
  7 10  1  0  0  0  0
 10 11  1  0  0  0  0
 10 12  1  0  0  0  0
 10 13  1  0  0  0  0
 13 14  1  0  0  0  0
 13 15  1  0  0  0  0
 13 16  1  0  0  0  0
 16 17  1  0  0  0  0
 16 18  1  0  0  0  0
 16 19  1  0  0  0  0
 19 20  1  0  0  0  0
 19 21  1  0  0  0  0
 19 22  1  0  0  0  0
 22 23  1  0  0  0  0
 22 24  1  0  0  0  0
 22 25  1  0  0  0  0
M  END
> <VM2 Rank>
92

> <Conf_Id>
718

> <Probability>
0.03

> <Sum Probability>
99.45

> <Delta G>
3.946

> <G>
-4.017

> <E>
-28.791

> <-TS>
24.775

> <U+W>
-49.359

> <U>
10.175

> <W>
-59.533

> <W(PB)>
-62.003

> <W(SA)>
2.470

> <Valence>
10.554

> <Coulomb>
-1.316

> <VdW>
0.936

> <VdW6>
-9.356

> <VdW12>
10.292

> <Bond>
0.194

> <Angle>
2.996

> <Pdih>
7.363

> <Idih>
0.001

> <Tether>
0.000

$$$$
VeraChem MOL file


 25 24  0  0  0  0  0  0  0  0999 V2000     
   20.4333   19.2287   27.5035 C   0  0  0  0  0  0  0  0  0  0  0  0
   21.5304   19.6659   27.7896 O   0  5  0  0  0  0  0  0  0  0  0  0
   19.4688   19.2958   28.2395 O   0  0  0  0  0  0  0  0  0  0  0  0
   20.2516   18.5788   26.1364 C   0  0  0  0  0  0  0  0  0  0  0  0
   19.4978   17.7882   26.2325 H   0  0  0  0  0  0  0  0  0  0  0  0
   21.1962   18.0946   25.8612 H   0  0  0  0  0  0  0  0  0  0  0  0
   19.8300   19.5893   25.0413 C   0  0  0  0  0  0  0  0  0  0  0  0
   18.8900   20.0750   25.3378 H   0  0  0  0  0  0  0  0  0  0  0  0
   20.5886   20.3808   24.9668 H   0  0  0  0  0  0  0  0  0  0  0  0
   19.6538   18.9076   23.6671 C   0  0  0  0  0  0  0  0  0  0  0  0
   18.8951   18.1172   23.7465 H   0  0  0  0  0  0  0  0  0  0  0  0
   20.5918   18.4157   23.3836 H   0  0  0  0  0  0  0  0  0  0  0  0
   19.2272   19.9199   22.5781 C   0  0  0  0  0  0  0  0  0  0  0  0
   18.2710   20.3668   22.8826 H   0  0  0  0  0  0  0  0  0  0  0  0
   19.9476   20.7474   22.5217 H   0  0  0  0  0  0  0  0  0  0  0  0
   19.0457   19.2774   21.1793 C   0  0  0  0  0  0  0  0  0  0  0  0
   18.2037   19.7771   20.6809 H   0  0  0  0  0  0  0  0  0  0  0  0
   18.7504   18.2240   21.2791 H   0  0  0  0  0  0  0  0  0  0  0  0
   20.2766   19.3988   20.2472 C   0  0  0  0  0  0  0  0  0  0  0  0
   20.0112   18.9866   19.2639 H   0  0  0  0  0  0  0  0  0  0  0  0
   20.5104   20.4597   20.0824 H   0  0  0  0  0  0  0  0  0  0  0  0
   21.5355   18.6718   20.7640 C   0  0  0  0  0  0  0  0  0  0  0  0
   22.3275   18.6886   20.0043 H   0  0  0  0  0  0  0  0  0  0  0  0
   21.9313   19.1580   21.6643 H   0  0  0  0  0  0  0  0  0  0  0  0
   21.3155   17.6228   21.0011 H   0  0  0  0  0  0  0  0  0  0  0  0
  1  2  1  0  0  0  0
  1  3  2  0  0  0  0
  1  4  1  0  0  0  0
  4  5  1  0  0  0  0
  4  6  1  0  0  0  0
  4  7  1  0  0  0  0
  7  8  1  0  0  0  0
  7  9  1  0  0  0  0
  7 10  1  0  0  0  0
 10 11  1  0  0  0  0
 10 12  1  0  0  0  0
 10 13  1  0  0  0  0
 13 14  1  0  0  0  0
 13 15  1  0  0  0  0
 13 16  1  0  0  0  0
 16 17  1  0  0  0  0
 16 18  1  0  0  0  0
 16 19  1  0  0  0  0
 19 20  1  0  0  0  0
 19 21  1  0  0  0  0
 19 22  1  0  0  0  0
 22 23  1  0  0  0  0
 22 24  1  0  0  0  0
 22 25  1  0  0  0  0
M  END
> <VM2 Rank>
93

> <Conf_Id>
723

> <Probability>
0.03

> <Sum Probability>
99.48

> <Delta G>
3.949

> <G>
-4.013

> <E>
-28.749

> <-TS>
24.736

> <U+W>
-49.317

> <U>
9.739

> <W>
-59.056

> <W(PB)>
-61.488

> <W(SA)>
2.432

> <Valence>
10.506

> <Coulomb>
-1.761

> <VdW>
0.994

> <VdW6>
-9.209

> <VdW12>
10.203

> <Bond>
0.193

> <Angle>
2.979

> <Pdih>
7.333

> <Idih>
0.001

> <Tether>
0.000

$$$$
VeraChem MOL file


 25 24  0  0  0  0  0  0  0  0999 V2000     
   20.1748   19.6571   27.4903 C   0  0  0  0  0  0  0  0  0  0  0  0
   21.0934   19.1759   28.1239 O   0  5  0  0  0  0  0  0  0  0  0  0
   19.0803   19.8911   27.9635 O   0  0  0  0  0  0  0  0  0  0  0  0
   20.4014   19.9638   26.0143 C   0  0  0  0  0  0  0  0  0  0  0  0
   21.4522   20.2485   25.8828 H   0  0  0  0  0  0  0  0  0  0  0  0
   19.7933   20.8375   25.7507 H   0  0  0  0  0  0  0  0  0  0  0  0
   20.0514   18.7707   25.0913 C   0  0  0  0  0  0  0  0  0  0  0  0
   20.6591   17.9009   25.3771 H   0  0  0  0  0  0  0  0  0  0  0  0
   19.0001   18.4897   25.2439 H   0  0  0  0  0  0  0  0  0  0  0  0
   20.2892   19.1070   23.6031 C   0  0  0  0  0  0  0  0  0  0  0  0
   21.3417   19.3828   23.4516 H   0  0  0  0  0  0  0  0  0  0  0  0
   19.6810   19.9797   23.3327 H   0  0  0  0  0  0  0  0  0  0  0  0
   19.9279   17.9193   22.6837 C   0  0  0  0  0  0  0  0  0  0  0  0
   20.4478   17.0202   23.0419 H   0  0  0  0  0  0  0  0  0  0  0  0
   18.8533   17.7073   22.7669 H   0  0  0  0  0  0  0  0  0  0  0  0
   20.2970   18.1313   21.1938 C   0  0  0  0  0  0  0  0  0  0  0  0
   20.0459   17.2063   20.6570 H   0  0  0  0  0  0  0  0  0  0  0  0
   21.3839   18.2514   21.0882 H   0  0  0  0  0  0  0  0  0  0  0  0
   19.5580   19.3047   20.5029 C   0  0  0  0  0  0  0  0  0  0  0  0
   19.3430   19.0205   19.4635 H   0  0  0  0  0  0  0  0  0  0  0  0
   18.5833   19.4752   20.9806 H   0  0  0  0  0  0  0  0  0  0  0  0
   20.3795   20.6131   20.4791 C   0  0  0  0  0  0  0  0  0  0  0  0
   20.6152   20.9660   21.4894 H   0  0  0  0  0  0  0  0  0  0  0  0
   21.3257   20.4700   19.9413 H   0  0  0  0  0  0  0  0  0  0  0  0
   19.8205   21.4079   19.9687 H   0  0  0  0  0  0  0  0  0  0  0  0
  1  2  1  0  0  0  0
  1  3  2  0  0  0  0
  1  4  1  0  0  0  0
  4  5  1  0  0  0  0
  4  6  1  0  0  0  0
  4  7  1  0  0  0  0
  7  8  1  0  0  0  0
  7  9  1  0  0  0  0
  7 10  1  0  0  0  0
 10 11  1  0  0  0  0
 10 12  1  0  0  0  0
 10 13  1  0  0  0  0
 13 14  1  0  0  0  0
 13 15  1  0  0  0  0
 13 16  1  0  0  0  0
 16 17  1  0  0  0  0
 16 18  1  0  0  0  0
 16 19  1  0  0  0  0
 19 20  1  0  0  0  0
 19 21  1  0  0  0  0
 19 22  1  0  0  0  0
 22 23  1  0  0  0  0
 22 24  1  0  0  0  0
 22 25  1  0  0  0  0
M  END
> <VM2 Rank>
94

> <Conf_Id>
1048

> <Probability>
0.03

> <Sum Probability>
99.52

> <Delta G>
3.952

> <G>
-4.010

> <E>
-28.744

> <-TS>
24.733

> <U+W>
-49.311

> <U>
9.708

> <W>
-59.019

> <W(PB)>
-61.482

> <W(SA)>
2.463

> <Valence>
10.529

> <Coulomb>
-1.840

> <VdW>
1.019

> <VdW6>
-9.202

> <VdW12>
10.221

> <Bond>
0.191

> <Angle>
3.009

> <Pdih>
7.328

> <Idih>
0.001

> <Tether>
0.000

$$$$
VeraChem MOL file


 25 24  0  0  0  0  0  0  0  0999 V2000     
   19.9227   19.3686   27.1424 C   0  0  0  0  0  0  0  0  0  0  0  0
   20.8923   19.0949   27.8223 O   0  5  0  0  0  0  0  0  0  0  0  0
   18.8198   18.8903   27.3207 O   0  0  0  0  0  0  0  0  0  0  0  0
   20.0974   20.3847   26.0171 C   0  0  0  0  0  0  0  0  0  0  0  0
   20.6654   21.2293   26.4244 H   0  0  0  0  0  0  0  0  0  0  0  0
   19.1099   20.7713   25.7376 H   0  0  0  0  0  0  0  0  0  0  0  0
   20.8262   19.8253   24.7676 C   0  0  0  0  0  0  0  0  0  0  0  0
   21.0372   20.6590   24.0858 H   0  0  0  0  0  0  0  0  0  0  0  0
   21.7966   19.4068   25.0681 H   0  0  0  0  0  0  0  0  0  0  0  0
   19.9965   18.7482   24.0286 C   0  0  0  0  0  0  0  0  0  0  0  0
   19.0389   19.1752   23.7033 H   0  0  0  0  0  0  0  0  0  0  0  0
   19.7451   17.9417   24.7308 H   0  0  0  0  0  0  0  0  0  0  0  0
   20.7349   18.1233   22.8182 C   0  0  0  0  0  0  0  0  0  0  0  0
   21.6434   17.6221   23.1784 H   0  0  0  0  0  0  0  0  0  0  0  0
   20.1074   17.3294   22.3923 H   0  0  0  0  0  0  0  0  0  0  0  0
   21.1306   19.1185   21.6953 C   0  0  0  0  0  0  0  0  0  0  0  0
   21.6233   18.5581   20.8893 H   0  0  0  0  0  0  0  0  0  0  0  0
   21.8885   19.8150   22.0771 H   0  0  0  0  0  0  0  0  0  0  0  0
   19.9592   19.9322   21.0922 C   0  0  0  0  0  0  0  0  0  0  0  0
   19.5056   20.5695   21.8630 H   0  0  0  0  0  0  0  0  0  0  0  0
   20.3619   20.6151   20.3317 H   0  0  0  0  0  0  0  0  0  0  0  0
   18.8735   19.0480   20.4415 C   0  0  0  0  0  0  0  0  0  0  0  0
   18.1100   19.6704   19.9575 H   0  0  0  0  0  0  0  0  0  0  0  0
   19.3085   18.3902   19.6779 H   0  0  0  0  0  0  0  0  0  0  0  0
   18.3688   18.4224   21.1884 H   0  0  0  0  0  0  0  0  0  0  0  0
  1  2  1  0  0  0  0
  1  3  2  0  0  0  0
  1  4  1  0  0  0  0
  4  5  1  0  0  0  0
  4  6  1  0  0  0  0
  4  7  1  0  0  0  0
  7  8  1  0  0  0  0
  7  9  1  0  0  0  0
  7 10  1  0  0  0  0
 10 11  1  0  0  0  0
 10 12  1  0  0  0  0
 10 13  1  0  0  0  0
 13 14  1  0  0  0  0
 13 15  1  0  0  0  0
 13 16  1  0  0  0  0
 16 17  1  0  0  0  0
 16 18  1  0  0  0  0
 16 19  1  0  0  0  0
 19 20  1  0  0  0  0
 19 21  1  0  0  0  0
 19 22  1  0  0  0  0
 22 23  1  0  0  0  0
 22 24  1  0  0  0  0
 22 25  1  0  0  0  0
M  END
> <VM2 Rank>
95

> <Conf_Id>
864

> <Probability>
0.02

> <Sum Probability>
99.53

> <Delta G>
4.272

> <G>
-3.691

> <E>
-29.152

> <-TS>
25.462

> <U+W>
-49.720

> <U>
10.166

> <W>
-59.886

> <W(PB)>
-62.280

> <W(SA)>
2.394

> <Valence>
9.218

> <Coulomb>
0.150

> <VdW>
0.798

> <VdW6>
-11.033

> <VdW12>
11.831

> <Bond>
0.256

> <Angle>
3.425

> <Pdih>
5.536

> <Idih>
0.001

> <Tether>
0.000

$$$$
VeraChem MOL file


 25 24  0  0  0  0  0  0  0  0999 V2000     
   19.9515   19.7916   26.7083 C   0  0  0  0  0  0  0  0  0  0  0  0
   20.2084   19.3324   27.8040 O   0  5  0  0  0  0  0  0  0  0  0  0
   18.8711   20.2643   26.4143 O   0  0  0  0  0  0  0  0  0  0  0  0
   21.0565   19.7993   25.6557 C   0  0  0  0  0  0  0  0  0  0  0  0
   21.9473   20.2367   26.1210 H   0  0  0  0  0  0  0  0  0  0  0  0
   20.7650   20.4771   24.8451 H   0  0  0  0  0  0  0  0  0  0  0  0
   21.4068   18.3942   25.0940 C   0  0  0  0  0  0  0  0  0  0  0  0
   22.2544   18.4828   24.4022 H   0  0  0  0  0  0  0  0  0  0  0  0
   21.7580   17.7620   25.9211 H   0  0  0  0  0  0  0  0  0  0  0  0
   20.2290   17.6756   24.3861 C   0  0  0  0  0  0  0  0  0  0  0  0
   19.4396   17.4716   25.1224 H   0  0  0  0  0  0  0  0  0  0  0  0
   20.5745   16.6939   24.0349 H   0  0  0  0  0  0  0  0  0  0  0  0
   19.6074   18.4455   23.1940 C   0  0  0  0  0  0  0  0  0  0  0  0
   18.7835   17.8450   22.7857 H   0  0  0  0  0  0  0  0  0  0  0  0
   19.1542   19.3769   23.5566 H   0  0  0  0  0  0  0  0  0  0  0  0
   20.6195   18.7481   22.0620 C   0  0  0  0  0  0  0  0  0  0  0  0
   21.1346   17.8183   21.7851 H   0  0  0  0  0  0  0  0  0  0  0  0
   21.3925   19.4386   22.4239 H   0  0  0  0  0  0  0  0  0  0  0  0
   19.9611   19.3441   20.7961 C   0  0  0  0  0  0  0  0  0  0  0  0
   20.7214   19.4228   20.0068 H   0  0  0  0  0  0  0  0  0  0  0  0
   19.1918   18.6564   20.4186 H   0  0  0  0  0  0  0  0  0  0  0  0
   19.3416   20.7388   21.0314 C   0  0  0  0  0  0  0  0  0  0  0  0
   20.0869   21.4366   21.4346 H   0  0  0  0  0  0  0  0  0  0  0  0
   18.9632   21.1552   20.0889 H   0  0  0  0  0  0  0  0  0  0  0  0
   18.5007   20.6897   21.7346 H   0  0  0  0  0  0  0  0  0  0  0  0
  1  2  1  0  0  0  0
  1  3  2  0  0  0  0
  1  4  1  0  0  0  0
  4  5  1  0  0  0  0
  4  6  1  0  0  0  0
  4  7  1  0  0  0  0
  7  8  1  0  0  0  0
  7  9  1  0  0  0  0
  7 10  1  0  0  0  0
 10 11  1  0  0  0  0
 10 12  1  0  0  0  0
 10 13  1  0  0  0  0
 13 14  1  0  0  0  0
 13 15  1  0  0  0  0
 13 16  1  0  0  0  0
 16 17  1  0  0  0  0
 16 18  1  0  0  0  0
 16 19  1  0  0  0  0
 19 20  1  0  0  0  0
 19 21  1  0  0  0  0
 19 22  1  0  0  0  0
 22 23  1  0  0  0  0
 22 24  1  0  0  0  0
 22 25  1  0  0  0  0
M  END
> <VM2 Rank>
96

> <Conf_Id>
517

> <Probability>
0.02

> <Sum Probability>
99.55

> <Delta G>
4.299

> <G>
-3.663

> <E>
-29.036

> <-TS>
25.373

> <U+W>
-49.603

> <U>
10.961

> <W>
-60.565

> <W(PB)>
-62.940

> <W(SA)>
2.375

> <Valence>
9.203

> <Coulomb>
1.166

> <VdW>
0.592

> <VdW6>
-11.371

> <VdW12>
11.963

> <Bond>
0.260

> <Angle>
3.321

> <Pdih>
5.621

> <Idih>
0.001

> <Tether>
0.000

$$$$
VeraChem MOL file


 25 24  0  0  0  0  0  0  0  0999 V2000     
   19.9349   19.2304   27.1455 C   0  0  0  0  0  0  0  0  0  0  0  0
   20.8396   19.6980   27.8089 O   0  5  0  0  0  0  0  0  0  0  0  0
   18.7650   19.5173   27.3069 O   0  0  0  0  0  0  0  0  0  0  0  0
   20.2876   18.2112   26.0657 C   0  0  0  0  0  0  0  0  0  0  0  0
   19.3833   17.6470   25.8075 H   0  0  0  0  0  0  0  0  0  0  0  0
   20.9921   17.4969   26.5077 H   0  0  0  0  0  0  0  0  0  0  0  0
   20.9129   18.8326   24.7897 C   0  0  0  0  0  0  0  0  0  0  0  0
   21.7947   19.4262   25.0675 H   0  0  0  0  0  0  0  0  0  0  0  0
   21.2681   18.0188   24.1447 H   0  0  0  0  0  0  0  0  0  0  0  0
   19.9116   19.7153   24.0069 C   0  0  0  0  0  0  0  0  0  0  0  0
   19.5211   20.4962   24.6737 H   0  0  0  0  0  0  0  0  0  0  0  0
   19.0440   19.1145   23.7046 H   0  0  0  0  0  0  0  0  0  0  0  0
   20.5348   20.4048   22.7672 C   0  0  0  0  0  0  0  0  0  0  0  0
   19.7806   21.0578   22.3089 H   0  0  0  0  0  0  0  0  0  0  0  0
   21.3409   21.0718   23.1013 H   0  0  0  0  0  0  0  0  0  0  0  0
   21.1021   19.4447   21.6881 C   0  0  0  0  0  0  0  0  0  0  0  0
   21.9679   18.9082   22.0975 H   0  0  0  0  0  0  0  0  0  0  0  0
   21.4930   20.0460   20.8561 H   0  0  0  0  0  0  0  0  0  0  0  0
   20.0924   18.4137   21.1262 C   0  0  0  0  0  0  0  0  0  0  0  0
   20.6107   17.7782   20.3952 H   0  0  0  0  0  0  0  0  0  0  0  0
   19.7534   17.7422   21.9261 H   0  0  0  0  0  0  0  0  0  0  0  0
   18.8721   19.0660   20.4409 C   0  0  0  0  0  0  0  0  0  0  0  0
   18.2304   18.2994   19.9878 H   0  0  0  0  0  0  0  0  0  0  0  0
   18.2633   19.6268   21.1612 H   0  0  0  0  0  0  0  0  0  0  0  0
   19.1891   19.7549   19.6472 H   0  0  0  0  0  0  0  0  0  0  0  0
  1  2  1  0  0  0  0
  1  3  2  0  0  0  0
  1  4  1  0  0  0  0
  4  5  1  0  0  0  0
  4  6  1  0  0  0  0
  4  7  1  0  0  0  0
  7  8  1  0  0  0  0
  7  9  1  0  0  0  0
  7 10  1  0  0  0  0
 10 11  1  0  0  0  0
 10 12  1  0  0  0  0
 10 13  1  0  0  0  0
 13 14  1  0  0  0  0
 13 15  1  0  0  0  0
 13 16  1  0  0  0  0
 16 17  1  0  0  0  0
 16 18  1  0  0  0  0
 16 19  1  0  0  0  0
 19 20  1  0  0  0  0
 19 21  1  0  0  0  0
 19 22  1  0  0  0  0
 22 23  1  0  0  0  0
 22 24  1  0  0  0  0
 22 25  1  0  0  0  0
M  END
> <VM2 Rank>
97

> <Conf_Id>
1118

> <Probability>
0.02

> <Sum Probability>
99.57

> <Delta G>
4.302

> <G>
-3.661

> <E>
-29.123

> <-TS>
25.462

> <U+W>
-49.690

> <U>
10.165

> <W>
-59.855

> <W(PB)>
-62.264

> <W(SA)>
2.409

> <Valence>
9.218

> <Coulomb>
0.149

> <VdW>
0.798

> <VdW6>
-11.032

> <VdW12>
11.830

> <Bond>
0.256

> <Angle>
3.425

> <Pdih>
5.536

> <Idih>
0.001

> <Tether>
0.000

$$$$
VeraChem MOL file


 25 24  0  0  0  0  0  0  0  0999 V2000     
   20.0297   19.1419   26.9840 C   0  0  0  0  0  0  0  0  0  0  0  0
   20.8990   19.3887   27.7970 O   0  5  0  0  0  0  0  0  0  0  0  0
   18.8761   19.5056   27.1024 O   0  0  0  0  0  0  0  0  0  0  0  0
   20.4038   18.3054   25.7637 C   0  0  0  0  0  0  0  0  0  0  0  0
   19.4840   17.9368   25.2955 H   0  0  0  0  0  0  0  0  0  0  0  0
   20.9437   17.4228   26.1259 H   0  0  0  0  0  0  0  0  0  0  0  0
   21.2826   19.0559   24.7260 C   0  0  0  0  0  0  0  0  0  0  0  0
   22.2202   19.3589   25.2119 H   0  0  0  0  0  0  0  0  0  0  0  0
   21.5687   18.3622   23.9249 H   0  0  0  0  0  0  0  0  0  0  0  0
   20.6131   20.3123   24.1119 C   0  0  0  0  0  0  0  0  0  0  0  0
   21.3190   20.7880   23.4187 H   0  0  0  0  0  0  0  0  0  0  0  0
   20.4396   21.0493   24.9078 H   0  0  0  0  0  0  0  0  0  0  0  0
   19.2702   20.0529   23.3796 C   0  0  0  0  0  0  0  0  0  0  0  0
   18.5148   19.7389   24.1123 H   0  0  0  0  0  0  0  0  0  0  0  0
   18.9060   21.0043   22.9690 H   0  0  0  0  0  0  0  0  0  0  0  0
   19.3297   19.0061   22.2387 C   0  0  0  0  0  0  0  0  0  0  0  0
   18.3198   18.8908   21.8223 H   0  0  0  0  0  0  0  0  0  0  0  0
   19.6050   18.0241   22.6450 H   0  0  0  0  0  0  0  0  0  0  0  0
   20.3008   19.3914   21.1001 C   0  0  0  0  0  0  0  0  0  0  0  0
   20.0482   20.3908   20.7203 H   0  0  0  0  0  0  0  0  0  0  0  0
   21.3284   19.4442   21.4834 H   0  0  0  0  0  0  0  0  0  0  0  0
   20.2480   18.3739   19.9426 C   0  0  0  0  0  0  0  0  0  0  0  0
   20.9451   18.6598   19.1443 H   0  0  0  0  0  0  0  0  0  0  0  0
   20.5240   17.3698   20.2903 H   0  0  0  0  0  0  0  0  0  0  0  0
   19.2402   18.3222   19.5102 H   0  0  0  0  0  0  0  0  0  0  0  0
  1  2  1  0  0  0  0
  1  3  2  0  0  0  0
  1  4  1  0  0  0  0
  4  5  1  0  0  0  0
  4  6  1  0  0  0  0
  4  7  1  0  0  0  0
  7  8  1  0  0  0  0
  7  9  1  0  0  0  0
  7 10  1  0  0  0  0
 10 11  1  0  0  0  0
 10 12  1  0  0  0  0
 10 13  1  0  0  0  0
 13 14  1  0  0  0  0
 13 15  1  0  0  0  0
 13 16  1  0  0  0  0
 16 17  1  0  0  0  0
 16 18  1  0  0  0  0
 16 19  1  0  0  0  0
 19 20  1  0  0  0  0
 19 21  1  0  0  0  0
 19 22  1  0  0  0  0
 22 23  1  0  0  0  0
 22 24  1  0  0  0  0
 22 25  1  0  0  0  0
M  END
> <VM2 Rank>
98

> <Conf_Id>
244

> <Probability>
0.02

> <Sum Probability>
99.58

> <Delta G>
4.313

> <G>
-3.650

> <E>
-29.213

> <-TS>
25.563

> <U+W>
-49.780

> <U>
10.242

> <W>
-60.022

> <W(PB)>
-62.387

> <W(SA)>
2.365

> <Valence>
9.192

> <Coulomb>
0.540

> <VdW>
0.510

> <VdW6>
-11.540

> <VdW12>
12.049

> <Bond>
0.268

> <Angle>
3.481

> <Pdih>
5.442

> <Idih>
0.001

> <Tether>
0.000

$$$$
VeraChem MOL file


 25 24  0  0  0  0  0  0  0  0999 V2000     
   19.6503   19.2519   26.7279 C   0  0  0  0  0  0  0  0  0  0  0  0
   20.2095   19.3343   27.8041 O   0  5  0  0  0  0  0  0  0  0  0  0
   18.6715   19.9067   26.4275 O   0  0  0  0  0  0  0  0  0  0  0  0
   20.1918   18.2501   25.7120 C   0  0  0  0  0  0  0  0  0  0  0  0
   19.4373   18.0983   24.9316 H   0  0  0  0  0  0  0  0  0  0  0  0
   20.3024   17.2895   26.2281 H   0  0  0  0  0  0  0  0  0  0  0  0
   21.5532   18.6566   25.0845 C   0  0  0  0  0  0  0  0  0  0  0  0
   22.3009   18.7347   25.8857 H   0  0  0  0  0  0  0  0  0  0  0  0
   21.9019   17.8513   24.4251 H   0  0  0  0  0  0  0  0  0  0  0  0
   21.5235   19.9950   24.3019 C   0  0  0  0  0  0  0  0  0  0  0  0
   22.5289   20.1958   23.9077 H   0  0  0  0  0  0  0  0  0  0  0  0
   21.3048   20.8138   25.0010 H   0  0  0  0  0  0  0  0  0  0  0  0
   20.5055   20.0546   23.1356 C   0  0  0  0  0  0  0  0  0  0  0  0
   19.4865   19.9725   23.5349 H   0  0  0  0  0  0  0  0  0  0  0  0
   20.5704   21.0469   22.6694 H   0  0  0  0  0  0  0  0  0  0  0  0
   20.7451   18.9730   22.0539 C   0  0  0  0  0  0  0  0  0  0  0  0
   20.5752   17.9744   22.4770 H   0  0  0  0  0  0  0  0  0  0  0  0
   21.7977   19.0063   21.7421 H   0  0  0  0  0  0  0  0  0  0  0  0
   19.8535   19.1508   20.8030 C   0  0  0  0  0  0  0  0  0  0  0  0
   20.0225   20.1440   20.3644 H   0  0  0  0  0  0  0  0  0  0  0  0
   20.1615   18.4195   20.0432 H   0  0  0  0  0  0  0  0  0  0  0  0
   18.3492   18.9609   21.0957 C   0  0  0  0  0  0  0  0  0  0  0  0
   17.9709   19.7406   21.7687 H   0  0  0  0  0  0  0  0  0  0  0  0
   17.7674   19.0126   20.1664 H   0  0  0  0  0  0  0  0  0  0  0  0
   18.1597   17.9843   21.5598 H   0  0  0  0  0  0  0  0  0  0  0  0
  1  2  1  0  0  0  0
  1  3  2  0  0  0  0
  1  4  1  0  0  0  0
  4  5  1  0  0  0  0
  4  6  1  0  0  0  0
  4  7  1  0  0  0  0
  7  8  1  0  0  0  0
  7  9  1  0  0  0  0
  7 10  1  0  0  0  0
 10 11  1  0  0  0  0
 10 12  1  0  0  0  0
 10 13  1  0  0  0  0
 13 14  1  0  0  0  0
 13 15  1  0  0  0  0
 13 16  1  0  0  0  0
 16 17  1  0  0  0  0
 16 18  1  0  0  0  0
 16 19  1  0  0  0  0
 19 20  1  0  0  0  0
 19 21  1  0  0  0  0
 19 22  1  0  0  0  0
 22 23  1  0  0  0  0
 22 24  1  0  0  0  0
 22 25  1  0  0  0  0
M  END
> <VM2 Rank>
99

> <Conf_Id>
216

> <Probability>
0.02

> <Sum Probability>
99.60

> <Delta G>
4.340

> <G>
-3.623

> <E>
-28.995

> <-TS>
25.372

> <U+W>
-49.562

> <U>
10.961

> <W>
-60.523

> <W(PB)>
-62.908

> <W(SA)>
2.385

> <Valence>
9.203

> <Coulomb>
1.165

> <VdW>
0.592

> <VdW6>
-11.370

> <VdW12>
11.962

> <Bond>
0.260

> <Angle>
3.321

> <Pdih>
5.622

> <Idih>
0.001

> <Tether>
0.000

$$$$
VeraChem MOL file


 25 24  0  0  0  0  0  0  0  0999 V2000     
   20.1254   19.8340   26.7125 C   0  0  0  0  0  0  0  0  0  0  0  0
   21.2312   20.3029   26.8985 O   0  5  0  0  0  0  0  0  0  0  0  0
   19.1018   20.4881   26.7515 O   0  0  0  0  0  0  0  0  0  0  0  0
   20.0115   18.3364   26.4414 C   0  0  0  0  0  0  0  0  0  0  0  0
   19.1998   17.9500   27.0688 H   0  0  0  0  0  0  0  0  0  0  0  0
   20.9338   17.8480   26.7785 H   0  0  0  0  0  0  0  0  0  0  0  0
   19.7306   17.9864   24.9571 C   0  0  0  0  0  0  0  0  0  0  0  0
   19.5312   16.9096   24.8742 H   0  0  0  0  0  0  0  0  0  0  0  0
   18.8171   18.5048   24.6366 H   0  0  0  0  0  0  0  0  0  0  0  0
   20.9095   18.3605   24.0275 C   0  0  0  0  0  0  0  0  0  0  0  0
   21.8265   17.8888   24.4059 H   0  0  0  0  0  0  0  0  0  0  0  0
   21.0882   19.4432   24.0669 H   0  0  0  0  0  0  0  0  0  0  0  0
   20.7006   17.9166   22.5580 C   0  0  0  0  0  0  0  0  0  0  0  0
   21.6002   18.1679   21.9808 H   0  0  0  0  0  0  0  0  0  0  0  0
   20.6235   16.8214   22.5259 H   0  0  0  0  0  0  0  0  0  0  0  0
   19.4568   18.5215   21.8545 C   0  0  0  0  0  0  0  0  0  0  0  0
   18.5464   18.1349   22.3308 H   0  0  0  0  0  0  0  0  0  0  0  0
   19.4277   18.1558   20.8192 H   0  0  0  0  0  0  0  0  0  0  0  0
   19.3959   20.0689   21.8389 C   0  0  0  0  0  0  0  0  0  0  0  0
   18.4656   20.3780   21.3432 H   0  0  0  0  0  0  0  0  0  0  0  0
   19.3359   20.4552   22.8654 H   0  0  0  0  0  0  0  0  0  0  0  0
   20.5896   20.7187   21.1060 C   0  0  0  0  0  0  0  0  0  0  0  0
   20.6783   20.3340   20.0818 H   0  0  0  0  0  0  0  0  0  0  0  0
   20.4593   21.8071   21.0493 H   0  0  0  0  0  0  0  0  0  0  0  0
   21.5332   20.5232   21.6308 H   0  0  0  0  0  0  0  0  0  0  0  0
  1  2  1  0  0  0  0
  1  3  2  0  0  0  0
  1  4  1  0  0  0  0
  4  5  1  0  0  0  0
  4  6  1  0  0  0  0
  4  7  1  0  0  0  0
  7  8  1  0  0  0  0
  7  9  1  0  0  0  0
  7 10  1  0  0  0  0
 10 11  1  0  0  0  0
 10 12  1  0  0  0  0
 10 13  1  0  0  0  0
 13 14  1  0  0  0  0
 13 15  1  0  0  0  0
 13 16  1  0  0  0  0
 16 17  1  0  0  0  0
 16 18  1  0  0  0  0
 16 19  1  0  0  0  0
 19 20  1  0  0  0  0
 19 21  1  0  0  0  0
 19 22  1  0  0  0  0
 22 23  1  0  0  0  0
 22 24  1  0  0  0  0
 22 25  1  0  0  0  0
M  END
> <VM2 Rank>
100

> <Conf_Id>
1064

> <Probability>
0.01

> <Sum Probability>
99.61

> <Delta G>
4.434

> <G>
-3.528

> <E>
-29.003

> <-TS>
25.475

> <U+W>
-49.571

> <U>
11.216

> <W>
-60.787

> <W(PB)>
-63.158

> <W(SA)>
2.372

> <Valence>
9.147

> <Coulomb>
1.469

> <VdW>
0.600

> <VdW6>
-11.294

> <VdW12>
11.894

> <Bond>
0.253

> <Angle>
3.362

> <Pdih>
5.532

> <Idih>
0.001

> <Tether>
0.000

$$$$
VeraChem MOL file


 25 24  0  0  0  0  0  0  0  0999 V2000     
   19.8145   18.8731   26.7326 C   0  0  0  0  0  0  0  0  0  0  0  0
   20.4384   17.8529   26.9495 O   0  5  0  0  0  0  0  0  0  0  0  0
   18.6022   18.9442   26.7832 O   0  0  0  0  0  0  0  0  0  0  0  0
   20.5958   20.1423   26.4040 C   0  0  0  0  0  0  0  0  0  0  0  0
   21.6334   20.0103   26.7338 H   0  0  0  0  0  0  0  0  0  0  0  0
   20.1718   20.9541   27.0066 H   0  0  0  0  0  0  0  0  0  0  0  0
   20.5552   20.5345   24.9044 C   0  0  0  0  0  0  0  0  0  0  0  0
   19.5073   20.6377   24.5925 H   0  0  0  0  0  0  0  0  0  0  0  0
   21.0232   21.5200   24.7787 H   0  0  0  0  0  0  0  0  0  0  0  0
   21.2802   19.5061   24.0039 C   0  0  0  0  0  0  0  0  0  0  0  0
   20.7912   18.5264   24.0859 H   0  0  0  0  0  0  0  0  0  0  0  0
   22.3042   19.3651   24.3756 H   0  0  0  0  0  0  0  0  0  0  0  0
   21.3533   19.9328   22.5163 C   0  0  0  0  0  0  0  0  0  0  0  0
   21.9319   20.8634   22.4423 H   0  0  0  0  0  0  0  0  0  0  0  0
   21.9281   19.1808   21.9600 H   0  0  0  0  0  0  0  0  0  0  0  0
   19.9825   20.1454   21.8209 C   0  0  0  0  0  0  0  0  0  0  0  0
   20.1607   20.4198   20.7724 H   0  0  0  0  0  0  0  0  0  0  0  0
   19.4769   21.0095   22.2713 H   0  0  0  0  0  0  0  0  0  0  0  0
   19.0266   18.9277   21.8624 C   0  0  0  0  0  0  0  0  0  0  0  0
   18.7640   18.6885   22.9018 H   0  0  0  0  0  0  0  0  0  0  0  0
   18.0856   19.2039   21.3672 H   0  0  0  0  0  0  0  0  0  0  0  0
   19.6044   17.6750   21.1688 C   0  0  0  0  0  0  0  0  0  0  0  0
   20.4898   17.3001   21.6974 H   0  0  0  0  0  0  0  0  0  0  0  0
   18.8606   16.8680   21.1512 H   0  0  0  0  0  0  0  0  0  0  0  0
   19.8893   17.8962   20.1321 H   0  0  0  0  0  0  0  0  0  0  0  0
  1  2  1  0  0  0  0
  1  3  2  0  0  0  0
  1  4  1  0  0  0  0
  4  5  1  0  0  0  0
  4  6  1  0  0  0  0
  4  7  1  0  0  0  0
  7  8  1  0  0  0  0
  7  9  1  0  0  0  0
  7 10  1  0  0  0  0
 10 11  1  0  0  0  0
 10 12  1  0  0  0  0
 10 13  1  0  0  0  0
 13 14  1  0  0  0  0
 13 15  1  0  0  0  0
 13 16  1  0  0  0  0
 16 17  1  0  0  0  0
 16 18  1  0  0  0  0
 16 19  1  0  0  0  0
 19 20  1  0  0  0  0
 19 21  1  0  0  0  0
 19 22  1  0  0  0  0
 22 23  1  0  0  0  0
 22 24  1  0  0  0  0
 22 25  1  0  0  0  0
M  END
> <VM2 Rank>
101

> <Conf_Id>
221

> <Probability>
0.01

> <Sum Probability>
99.63

> <Delta G>
4.434

> <G>
-3.528

> <E>
-29.003

> <-TS>
25.475

> <U+W>
-49.571

> <U>
11.216

> <W>
-60.787

> <W(PB)>
-63.159

> <W(SA)>
2.372

> <Valence>
9.147

> <Coulomb>
1.469

> <VdW>
0.600

> <VdW6>
-11.294

> <VdW12>
11.894

> <Bond>
0.253

> <Angle>
3.362

> <Pdih>
5.531

> <Idih>
0.001

> <Tether>
0.000

$$$$
VeraChem MOL file


 25 24  0  0  0  0  0  0  0  0999 V2000     
   20.3894   19.6522   26.8575 C   0  0  0  0  0  0  0  0  0  0  0  0
   21.4605   20.1501   26.5710 O   0  5  0  0  0  0  0  0  0  0  0  0
   20.1828   19.0530   27.8947 O   0  0  0  0  0  0  0  0  0  0  0  0
   19.2312   19.8111   25.8765 C   0  0  0  0  0  0  0  0  0  0  0  0
   19.4924   20.5858   25.1465 H   0  0  0  0  0  0  0  0  0  0  0  0
   18.3745   20.1943   26.4428 H   0  0  0  0  0  0  0  0  0  0  0  0
   18.8252   18.4963   25.1565 C   0  0  0  0  0  0  0  0  0  0  0  0
   18.5049   17.7660   25.9123 H   0  0  0  0  0  0  0  0  0  0  0  0
   17.9441   18.6841   24.5295 H   0  0  0  0  0  0  0  0  0  0  0  0
   19.9508   17.8604   24.2999 C   0  0  0  0  0  0  0  0  0  0  0  0
   19.5656   16.9417   23.8370 H   0  0  0  0  0  0  0  0  0  0  0  0
   20.7670   17.5435   24.9636 H   0  0  0  0  0  0  0  0  0  0  0  0
   20.5407   18.7704   23.1930 C   0  0  0  0  0  0  0  0  0  0  0  0
   21.0230   19.6463   23.6470 H   0  0  0  0  0  0  0  0  0  0  0  0
   21.3396   18.2117   22.6897 H   0  0  0  0  0  0  0  0  0  0  0  0
   19.4957   19.2294   22.1463 C   0  0  0  0  0  0  0  0  0  0  0  0
   18.7019   19.7958   22.6495 H   0  0  0  0  0  0  0  0  0  0  0  0
   19.0149   18.3520   21.6930 H   0  0  0  0  0  0  0  0  0  0  0  0
   20.0914   20.1260   21.0357 C   0  0  0  0  0  0  0  0  0  0  0  0
   19.2687   20.5185   20.4223 H   0  0  0  0  0  0  0  0  0  0  0  0
   20.5843   20.9979   21.4877 H   0  0  0  0  0  0  0  0  0  0  0  0
   21.0853   19.3851   20.1149 C   0  0  0  0  0  0  0  0  0  0  0  0
   21.9861   19.0782   20.6605 H   0  0  0  0  0  0  0  0  0  0  0  0
   20.6241   18.4894   19.6788 H   0  0  0  0  0  0  0  0  0  0  0  0
   21.4031   20.0367   19.2907 H   0  0  0  0  0  0  0  0  0  0  0  0
  1  2  1  0  0  0  0
  1  3  2  0  0  0  0
  1  4  1  0  0  0  0
  4  5  1  0  0  0  0
  4  6  1  0  0  0  0
  4  7  1  0  0  0  0
  7  8  1  0  0  0  0
  7  9  1  0  0  0  0
  7 10  1  0  0  0  0
 10 11  1  0  0  0  0
 10 12  1  0  0  0  0
 10 13  1  0  0  0  0
 13 14  1  0  0  0  0
 13 15  1  0  0  0  0
 13 16  1  0  0  0  0
 16 17  1  0  0  0  0
 16 18  1  0  0  0  0
 16 19  1  0  0  0  0
 19 20  1  0  0  0  0
 19 21  1  0  0  0  0
 19 22  1  0  0  0  0
 22 23  1  0  0  0  0
 22 24  1  0  0  0  0
 22 25  1  0  0  0  0
M  END
> <VM2 Rank>
102

> <Conf_Id>
525

> <Probability>
0.01

> <Sum Probability>
99.64

> <Delta G>
4.445

> <G>
-3.518

> <E>
-28.841

> <-TS>
25.323

> <U+W>
-49.409

> <U>
10.879

> <W>
-60.287

> <W(PB)>
-62.677

> <W(SA)>
2.390

> <Valence>
9.320

> <Coulomb>
0.828

> <VdW>
0.731

> <VdW6>
-11.182

> <VdW12>
11.913

> <Bond>
0.267

> <Angle>
3.459

> <Pdih>
5.593

> <Idih>
0.001

> <Tether>
0.000

$$$$
VeraChem MOL file


 25 24  0  0  0  0  0  0  0  0999 V2000     
   20.5060   19.5071   26.8610 C   0  0  0  0  0  0  0  0  0  0  0  0
   21.2315   20.4356   26.5631 O   0  5  0  0  0  0  0  0  0  0  0  0
   19.8497   19.4683   27.8834 O   0  0  0  0  0  0  0  0  0  0  0  0
   20.4356   18.3107   25.9162 C   0  0  0  0  0  0  0  0  0  0  0  0
   20.6095   17.4103   26.5166 H   0  0  0  0  0  0  0  0  0  0  0  0
   21.2670   18.3749   25.2049 H   0  0  0  0  0  0  0  0  0  0  0  0
   19.0831   18.1747   25.1650 C   0  0  0  0  0  0  0  0  0  0  0  0
   19.0918   17.2541   24.5675 H   0  0  0  0  0  0  0  0  0  0  0  0
   18.2815   18.0440   25.9051 H   0  0  0  0  0  0  0  0  0  0  0  0
   18.7281   19.3828   24.2597 C   0  0  0  0  0  0  0  0  0  0  0  0
   18.5782   20.2690   24.8915 H   0  0  0  0  0  0  0  0  0  0  0  0
   17.7602   19.1899   23.7774 H   0  0  0  0  0  0  0  0  0  0  0  0
   19.7726   19.7268   23.1678 C   0  0  0  0  0  0  0  0  0  0  0  0
   19.4132   20.6108   22.6263 H   0  0  0  0  0  0  0  0  0  0  0  0
   20.7200   20.0233   23.6372 H   0  0  0  0  0  0  0  0  0  0  0  0
   20.0215   18.5744   22.1637 C   0  0  0  0  0  0  0  0  0  0  0  0
   19.0729   18.2798   21.6947 H   0  0  0  0  0  0  0  0  0  0  0  0
   20.3894   17.6936   22.7052 H   0  0  0  0  0  0  0  0  0  0  0  0
   21.0544   18.9267   21.0678 C   0  0  0  0  0  0  0  0  0  0  0  0
   22.0002   19.2343   21.5349 H   0  0  0  0  0  0  0  0  0  0  0  0
   21.2754   18.0195   20.4887 H   0  0  0  0  0  0  0  0  0  0  0  0
   20.5705   20.0269   20.0982 C   0  0  0  0  0  0  0  0  0  0  0  0
   20.4517   20.9898   20.6103 H   0  0  0  0  0  0  0  0  0  0  0  0
   21.2967   20.1702   19.2877 H   0  0  0  0  0  0  0  0  0  0  0  0
   19.6079   19.7559   19.6453 H   0  0  0  0  0  0  0  0  0  0  0  0
  1  2  1  0  0  0  0
  1  3  2  0  0  0  0
  1  4  1  0  0  0  0
  4  5  1  0  0  0  0
  4  6  1  0  0  0  0
  4  7  1  0  0  0  0
  7  8  1  0  0  0  0
  7  9  1  0  0  0  0
  7 10  1  0  0  0  0
 10 11  1  0  0  0  0
 10 12  1  0  0  0  0
 10 13  1  0  0  0  0
 13 14  1  0  0  0  0
 13 15  1  0  0  0  0
 13 16  1  0  0  0  0
 16 17  1  0  0  0  0
 16 18  1  0  0  0  0
 16 19  1  0  0  0  0
 19 20  1  0  0  0  0
 19 21  1  0  0  0  0
 19 22  1  0  0  0  0
 22 23  1  0  0  0  0
 22 24  1  0  0  0  0
 22 25  1  0  0  0  0
M  END
> <VM2 Rank>
103

> <Conf_Id>
1079

> <Probability>
0.01

> <Sum Probability>
99.65

> <Delta G>
4.505

> <G>
-3.458

> <E>
-28.782

> <-TS>
25.324

> <U+W>
-49.349

> <U>
10.879

> <W>
-60.228

> <W(PB)>
-62.635

> <W(SA)>
2.407

> <Valence>
9.320

> <Coulomb>
0.828

> <VdW>
0.731

> <VdW6>
-11.182

> <VdW12>
11.913

> <Bond>
0.267

> <Angle>
3.459

> <Pdih>
5.593

> <Idih>
0.001

> <Tether>
0.000

$$$$
VeraChem MOL file


 25 24  0  0  0  0  0  0  0  0999 V2000     
   19.7056   18.8889   26.9412 C   0  0  0  0  0  0  0  0  0  0  0  0
   20.4382   18.4907   27.8253 O   0  5  0  0  0  0  0  0  0  0  0  0
   18.5551   19.2344   27.1253 O   0  0  0  0  0  0  0  0  0  0  0  0
   20.2684   18.9818   25.5276 C   0  0  0  0  0  0  0  0  0  0  0  0
   19.4497   18.7691   24.8309 H   0  0  0  0  0  0  0  0  0  0  0  0
   21.0196   18.1923   25.4070 H   0  0  0  0  0  0  0  0  0  0  0  0
   20.8913   20.3669   25.2196 C   0  0  0  0  0  0  0  0  0  0  0  0
   20.1058   21.1337   25.2653 H   0  0  0  0  0  0  0  0  0  0  0  0
   21.6094   20.6148   26.0134 H   0  0  0  0  0  0  0  0  0  0  0  0
   21.6194   20.4506   23.8543 C   0  0  0  0  0  0  0  0  0  0  0  0
   22.4754   19.7622   23.8408 H   0  0  0  0  0  0  0  0  0  0  0  0
   22.0466   21.4590   23.7687 H   0  0  0  0  0  0  0  0  0  0  0  0
   20.7110   20.2047   22.6227 C   0  0  0  0  0  0  0  0  0  0  0  0
   19.6810   20.5013   22.8585 H   0  0  0  0  0  0  0  0  0  0  0  0
   21.0413   20.8648   21.8092 H   0  0  0  0  0  0  0  0  0  0  0  0
   20.7611   18.7442   22.1074 C   0  0  0  0  0  0  0  0  0  0  0  0
   20.4385   18.0467   22.8892 H   0  0  0  0  0  0  0  0  0  0  0  0
   21.8037   18.4858   21.8778 H   0  0  0  0  0  0  0  0  0  0  0  0
   19.9101   18.5135   20.8371 C   0  0  0  0  0  0  0  0  0  0  0  0
   20.2246   19.2090   20.0467 H   0  0  0  0  0  0  0  0  0  0  0  0
   20.1105   17.5019   20.4579 H   0  0  0  0  0  0  0  0  0  0  0  0
   18.3929   18.6584   21.0855 C   0  0  0  0  0  0  0  0  0  0  0  0
   17.8291   18.3968   20.1807 H   0  0  0  0  0  0  0  0  0  0  0  0
   18.0620   17.9935   21.8940 H   0  0  0  0  0  0  0  0  0  0  0  0
   18.1270   19.6877   21.3560 H   0  0  0  0  0  0  0  0  0  0  0  0
  1  2  1  0  0  0  0
  1  3  2  0  0  0  0
  1  4  1  0  0  0  0
  4  5  1  0  0  0  0
  4  6  1  0  0  0  0
  4  7  1  0  0  0  0
  7  8  1  0  0  0  0
  7  9  1  0  0  0  0
  7 10  1  0  0  0  0
 10 11  1  0  0  0  0
 10 12  1  0  0  0  0
 10 13  1  0  0  0  0
 13 14  1  0  0  0  0
 13 15  1  0  0  0  0
 13 16  1  0  0  0  0
 16 17  1  0  0  0  0
 16 18  1  0  0  0  0
 16 19  1  0  0  0  0
 19 20  1  0  0  0  0
 19 21  1  0  0  0  0
 19 22  1  0  0  0  0
 22 23  1  0  0  0  0
 22 24  1  0  0  0  0
 22 25  1  0  0  0  0
M  END
> <VM2 Rank>
104

> <Conf_Id>
282

> <Probability>
0.01

> <Sum Probability>
99.66

> <Delta G>
4.542

> <G>
-3.420

> <E>
-28.278

> <-TS>
24.858

> <U+W>
-48.845

> <U>
11.037

> <W>
-59.882

> <W(PB)>
-62.300

> <W(SA)>
2.418

> <Valence>
11.015

> <Coulomb>
-0.980

> <VdW>
1.002

> <VdW6>
-10.121

> <VdW12>
11.123

> <Bond>
0.236

> <Angle>
3.219

> <Pdih>
7.559

> <Idih>
0.001

> <Tether>
0.000

$$$$
VeraChem MOL file


 25 24  0  0  0  0  0  0  0  0999 V2000     
   20.0329   19.9355   26.9095 C   0  0  0  0  0  0  0  0  0  0  0  0
   20.8768   19.8935   27.7829 O   0  5  0  0  0  0  0  0  0  0  0  0
   18.8935   20.3167   27.0925 O   0  0  0  0  0  0  0  0  0  0  0  0
   20.4184   19.4612   25.5131 C   0  0  0  0  0  0  0  0  0  0  0  0
   21.4833   19.6746   25.3623 H   0  0  0  0  0  0  0  0  0  0  0  0
   19.8548   20.0635   24.7917 H   0  0  0  0  0  0  0  0  0  0  0  0
   20.1367   17.9535   25.2923 C   0  0  0  0  0  0  0  0  0  0  0  0
   20.5994   17.3848   26.1107 H   0  0  0  0  0  0  0  0  0  0  0  0
   19.0552   17.7741   25.3665 H   0  0  0  0  0  0  0  0  0  0  0  0
   20.6640   17.3955   23.9463 C   0  0  0  0  0  0  0  0  0  0  0  0
   20.4396   16.3203   23.9235 H   0  0  0  0  0  0  0  0  0  0  0  0
   21.7593   17.4721   23.9097 H   0  0  0  0  0  0  0  0  0  0  0  0
   20.0362   18.0467   22.6877 C   0  0  0  0  0  0  0  0  0  0  0  0
   19.9176   17.2726   21.9175 H   0  0  0  0  0  0  0  0  0  0  0  0
   19.0248   18.4029   22.9219 H   0  0  0  0  0  0  0  0  0  0  0  0
   20.9000   19.1879   22.0938 C   0  0  0  0  0  0  0  0  0  0  0  0
   21.8999   18.7934   21.8679 H   0  0  0  0  0  0  0  0  0  0  0  0
   21.0458   19.9864   22.8306 H   0  0  0  0  0  0  0  0  0  0  0  0
   20.3097   19.7922   20.7987 C   0  0  0  0  0  0  0  0  0  0  0  0
   21.0439   20.4869   20.3679 H   0  0  0  0  0  0  0  0  0  0  0  0
   20.1581   18.9994   20.0532 H   0  0  0  0  0  0  0  0  0  0  0  0
   18.9849   20.5513   21.0292 C   0  0  0  0  0  0  0  0  0  0  0  0
   19.1059   21.3293   21.7942 H   0  0  0  0  0  0  0  0  0  0  0  0
   18.6547   21.0373   20.1021 H   0  0  0  0  0  0  0  0  0  0  0  0
   18.1848   19.8734   21.3515 H   0  0  0  0  0  0  0  0  0  0  0  0
  1  2  1  0  0  0  0
  1  3  2  0  0  0  0
  1  4  1  0  0  0  0
  4  5  1  0  0  0  0
  4  6  1  0  0  0  0
  4  7  1  0  0  0  0
  7  8  1  0  0  0  0
  7  9  1  0  0  0  0
  7 10  1  0  0  0  0
 10 11  1  0  0  0  0
 10 12  1  0  0  0  0
 10 13  1  0  0  0  0
 13 14  1  0  0  0  0
 13 15  1  0  0  0  0
 13 16  1  0  0  0  0
 16 17  1  0  0  0  0
 16 18  1  0  0  0  0
 16 19  1  0  0  0  0
 19 20  1  0  0  0  0
 19 21  1  0  0  0  0
 19 22  1  0  0  0  0
 22 23  1  0  0  0  0
 22 24  1  0  0  0  0
 22 25  1  0  0  0  0
M  END
> <VM2 Rank>
105

> <Conf_Id>
1374

> <Probability>
0.01

> <Sum Probability>
99.67

> <Delta G>
4.545

> <G>
-3.418

> <E>
-28.275

> <-TS>
24.858

> <U+W>
-48.843

> <U>
11.037

> <W>
-59.880

> <W(PB)>
-62.286

> <W(SA)>
2.406

> <Valence>
11.015

> <Coulomb>
-0.980

> <VdW>
1.002

> <VdW6>
-10.121

> <VdW12>
11.123

> <Bond>
0.236

> <Angle>
3.219

> <Pdih>
7.560

> <Idih>
0.001

> <Tether>
0.000

$$$$
VeraChem MOL file


 25 24  0  0  0  0  0  0  0  0999 V2000     
   19.9508   19.6607   26.8829 C   0  0  0  0  0  0  0  0  0  0  0  0
   20.8699   20.4135   27.1401 O   0  5  0  0  0  0  0  0  0  0  0  0
   18.7815   19.9885   26.9339 O   0  0  0  0  0  0  0  0  0  0  0  0
   20.2770   18.2084   26.5399 C   0  0  0  0  0  0  0  0  0  0  0  0
   19.3404   17.6583   26.3885 H   0  0  0  0  0  0  0  0  0  0  0  0
   20.7507   17.7812   27.4313 H   0  0  0  0  0  0  0  0  0  0  0  0
   21.2221   18.0101   25.3213 C   0  0  0  0  0  0  0  0  0  0  0  0
   22.0518   18.7291   25.3687 H   0  0  0  0  0  0  0  0  0  0  0  0
   21.6802   17.0155   25.4078 H   0  0  0  0  0  0  0  0  0  0  0  0
   20.5289   18.0892   23.9382 C   0  0  0  0  0  0  0  0  0  0  0  0
   19.7017   17.3677   23.8978 H   0  0  0  0  0  0  0  0  0  0  0  0
   21.2566   17.7670   23.1831 H   0  0  0  0  0  0  0  0  0  0  0  0
   20.0061   19.5004   23.5754 C   0  0  0  0  0  0  0  0  0  0  0  0
   19.2298   19.7934   24.2925 H   0  0  0  0  0  0  0  0  0  0  0  0
   20.8161   20.2359   23.6740 H   0  0  0  0  0  0  0  0  0  0  0  0
   19.3939   19.5870   22.1565 C   0  0  0  0  0  0  0  0  0  0  0  0
   18.9007   20.5630   22.0521 H   0  0  0  0  0  0  0  0  0  0  0  0
   18.6064   18.8287   22.0482 H   0  0  0  0  0  0  0  0  0  0  0  0
   20.4318   19.4299   21.0218 C   0  0  0  0  0  0  0  0  0  0  0  0
   21.2473   20.1526   21.1631 H   0  0  0  0  0  0  0  0  0  0  0  0
   20.8815   18.4291   21.0533 H   0  0  0  0  0  0  0  0  0  0  0  0
   19.7909   19.6464   19.6360 C   0  0  0  0  0  0  0  0  0  0  0  0
   19.3644   20.6546   19.5529 H   0  0  0  0  0  0  0  0  0  0  0  0
   20.5390   19.5287   18.8412 H   0  0  0  0  0  0  0  0  0  0  0  0
   18.9886   18.9187   19.4568 H   0  0  0  0  0  0  0  0  0  0  0  0
  1  2  1  0  0  0  0
  1  3  2  0  0  0  0
  1  4  1  0  0  0  0
  4  5  1  0  0  0  0
  4  6  1  0  0  0  0
  4  7  1  0  0  0  0
  7  8  1  0  0  0  0
  7  9  1  0  0  0  0
  7 10  1  0  0  0  0
 10 11  1  0  0  0  0
 10 12  1  0  0  0  0
 10 13  1  0  0  0  0
 13 14  1  0  0  0  0
 13 15  1  0  0  0  0
 13 16  1  0  0  0  0
 16 17  1  0  0  0  0
 16 18  1  0  0  0  0
 16 19  1  0  0  0  0
 19 20  1  0  0  0  0
 19 21  1  0  0  0  0
 19 22  1  0  0  0  0
 22 23  1  0  0  0  0
 22 24  1  0  0  0  0
 22 25  1  0  0  0  0
M  END
> <VM2 Rank>
106

> <Conf_Id>
1348

> <Probability>
0.01

> <Sum Probability>
99.68

> <Delta G>
4.582

> <G>
-3.380

> <E>
-28.384

> <-TS>
25.004

> <U+W>
-48.951

> <U>
11.422

> <W>
-60.373

> <W(PB)>
-62.795

> <W(SA)>
2.422

> <Valence>
10.135

> <Coulomb>
0.369

> <VdW>
0.918

> <VdW6>
-10.483

> <VdW12>
11.401

> <Bond>
0.245

> <Angle>
3.538

> <Pdih>
6.347

> <Idih>
0.006

> <Tether>
0.000

$$$$
VeraChem MOL file


 25 24  0  0  0  0  0  0  0  0999 V2000     
   20.2734   19.4825   26.9777 C   0  0  0  0  0  0  0  0  0  0  0  0
   21.2897   20.1350   26.8425 O   0  5  0  0  0  0  0  0  0  0  0  0
   19.3511   19.8156   27.6959 O   0  0  0  0  0  0  0  0  0  0  0  0
   20.1593   18.1574   26.2294 C   0  0  0  0  0  0  0  0  0  0  0  0
   19.8680   17.3948   26.9610 H   0  0  0  0  0  0  0  0  0  0  0  0
   21.1529   17.8726   25.8657 H   0  0  0  0  0  0  0  0  0  0  0  0
   19.1301   18.1714   25.0659 C   0  0  0  0  0  0  0  0  0  0  0  0
   19.0726   17.1679   24.6232 H   0  0  0  0  0  0  0  0  0  0  0  0
   18.1347   18.3814   25.4811 H   0  0  0  0  0  0  0  0  0  0  0  0
   19.4305   19.2036   23.9511 C   0  0  0  0  0  0  0  0  0  0  0  0
   19.4571   20.2153   24.3783 H   0  0  0  0  0  0  0  0  0  0  0  0
   18.5930   19.1877   23.2423 H   0  0  0  0  0  0  0  0  0  0  0  0
   20.7510   18.9249   23.1922 C   0  0  0  0  0  0  0  0  0  0  0  0
   21.5886   18.9530   23.9009 H   0  0  0  0  0  0  0  0  0  0  0  0
   20.7348   17.9090   22.7768 H   0  0  0  0  0  0  0  0  0  0  0  0
   21.0488   19.9520   22.0703 C   0  0  0  0  0  0  0  0  0  0  0  0
   22.0303   19.7202   21.6351 H   0  0  0  0  0  0  0  0  0  0  0  0
   21.1454   20.9498   22.5197 H   0  0  0  0  0  0  0  0  0  0  0  0
   20.0024   20.0173   20.9300 C   0  0  0  0  0  0  0  0  0  0  0  0
   19.0360   20.3623   21.3203 H   0  0  0  0  0  0  0  0  0  0  0  0
   20.3239   20.7776   20.2049 H   0  0  0  0  0  0  0  0  0  0  0  0
   19.8166   18.6744   20.1911 C   0  0  0  0  0  0  0  0  0  0  0  0
   19.3832   17.9130   20.8518 H   0  0  0  0  0  0  0  0  0  0  0  0
   19.1396   18.7967   19.3358 H   0  0  0  0  0  0  0  0  0  0  0  0
   20.7759   18.2979   19.8129 H   0  0  0  0  0  0  0  0  0  0  0  0
  1  2  1  0  0  0  0
  1  3  2  0  0  0  0
  1  4  1  0  0  0  0
  4  5  1  0  0  0  0
  4  6  1  0  0  0  0
  4  7  1  0  0  0  0
  7  8  1  0  0  0  0
  7  9  1  0  0  0  0
  7 10  1  0  0  0  0
 10 11  1  0  0  0  0
 10 12  1  0  0  0  0
 10 13  1  0  0  0  0
 13 14  1  0  0  0  0
 13 15  1  0  0  0  0
 13 16  1  0  0  0  0
 16 17  1  0  0  0  0
 16 18  1  0  0  0  0
 16 19  1  0  0  0  0
 19 20  1  0  0  0  0
 19 21  1  0  0  0  0
 19 22  1  0  0  0  0
 22 23  1  0  0  0  0
 22 24  1  0  0  0  0
 22 25  1  0  0  0  0
M  END
> <VM2 Rank>
107

> <Conf_Id>
531

> <Probability>
0.01

> <Sum Probability>
99.70

> <Delta G>
4.599

> <G>
-3.363

> <E>
-28.566

> <-TS>
25.203

> <U+W>
-49.134

> <U>
11.036

> <W>
-60.169

> <W(PB)>
-62.563

> <W(SA)>
2.394

> <Valence>
9.325

> <Coulomb>
0.928

> <VdW>
0.783

> <VdW6>
-11.027

> <VdW12>
11.810

> <Bond>
0.268

> <Angle>
3.516

> <Pdih>
5.540

> <Idih>
0.001

> <Tether>
0.000

$$$$
VeraChem MOL file


 25 24  0  0  0  0  0  0  0  0999 V2000     
   19.6883   19.1967   26.7586 C   0  0  0  0  0  0  0  0  0  0  0  0
   20.1781   18.2263   27.3028 O   0  5  0  0  0  0  0  0  0  0  0  0
   18.4947   19.3290   26.5711 O   0  0  0  0  0  0  0  0  0  0  0  0
   20.6129   20.3408   26.3470 C   0  0  0  0  0  0  0  0  0  0  0  0
   21.0538   20.7294   27.2722 H   0  0  0  0  0  0  0  0  0  0  0  0
   20.0088   21.1516   25.9222 H   0  0  0  0  0  0  0  0  0  0  0  0
   21.7549   19.9505   25.3670 C   0  0  0  0  0  0  0  0  0  0  0  0
   22.5321   20.7243   25.4259 H   0  0  0  0  0  0  0  0  0  0  0  0
   22.2314   19.0179   25.6996 H   0  0  0  0  0  0  0  0  0  0  0  0
   21.3226   19.8273   23.8847 C   0  0  0  0  0  0  0  0  0  0  0  0
   22.2261   19.6985   23.2733 H   0  0  0  0  0  0  0  0  0  0  0  0
   20.8613   20.7699   23.5623 H   0  0  0  0  0  0  0  0  0  0  0  0
   20.3613   18.6466   23.6071 C   0  0  0  0  0  0  0  0  0  0  0  0
   20.7552   17.7409   24.0882 H   0  0  0  0  0  0  0  0  0  0  0  0
   19.3832   18.8436   24.0643 H   0  0  0  0  0  0  0  0  0  0  0  0
   20.1631   18.3591   22.0997 C   0  0  0  0  0  0  0  0  0  0  0  0
   19.5551   17.4501   21.9955 H   0  0  0  0  0  0  0  0  0  0  0  0
   21.1341   18.1380   21.6360 H   0  0  0  0  0  0  0  0  0  0  0  0
   19.4739   19.5149   21.3399 C   0  0  0  0  0  0  0  0  0  0  0  0
   18.5253   19.7683   21.8332 H   0  0  0  0  0  0  0  0  0  0  0  0
   20.1020   20.4150   21.3717 H   0  0  0  0  0  0  0  0  0  0  0  0
   19.2031   19.1428   19.8681 C   0  0  0  0  0  0  0  0  0  0  0  0
   20.1392   18.9112   19.3433 H   0  0  0  0  0  0  0  0  0  0  0  0
   18.5451   18.2667   19.7987 H   0  0  0  0  0  0  0  0  0  0  0  0
   18.7164   19.9744   19.3422 H   0  0  0  0  0  0  0  0  0  0  0  0
  1  2  1  0  0  0  0
  1  3  2  0  0  0  0
  1  4  1  0  0  0  0
  4  5  1  0  0  0  0
  4  6  1  0  0  0  0
  4  7  1  0  0  0  0
  7  8  1  0  0  0  0
  7  9  1  0  0  0  0
  7 10  1  0  0  0  0
 10 11  1  0  0  0  0
 10 12  1  0  0  0  0
 10 13  1  0  0  0  0
 13 14  1  0  0  0  0
 13 15  1  0  0  0  0
 13 16  1  0  0  0  0
 16 17  1  0  0  0  0
 16 18  1  0  0  0  0
 16 19  1  0  0  0  0
 19 20  1  0  0  0  0
 19 21  1  0  0  0  0
 19 22  1  0  0  0  0
 22 23  1  0  0  0  0
 22 24  1  0  0  0  0
 22 25  1  0  0  0  0
M  END
> <VM2 Rank>
108

> <Conf_Id>
537

> <Probability>
0.01

> <Sum Probability>
99.71

> <Delta G>
4.606

> <G>
-3.356

> <E>
-28.543

> <-TS>
25.187

> <U+W>
-49.111

> <U>
11.401

> <W>
-60.512

> <W(PB)>
-62.942

> <W(SA)>
2.430

> <Valence>
9.920

> <Coulomb>
0.705

> <VdW>
0.777

> <VdW6>
-10.717

> <VdW12>
11.493

> <Bond>
0.235

> <Angle>
3.375

> <Pdih>
6.304

> <Idih>
0.006

> <Tether>
0.000

$$$$
VeraChem MOL file


 25 24  0  0  0  0  0  0  0  0999 V2000     
   20.6220   19.2554   26.7479 C   0  0  0  0  0  0  0  0  0  0  0  0
   21.7849   19.5359   26.5330 O   0  5  0  0  0  0  0  0  0  0  0  0
   20.2703   18.2321   27.3018 O   0  0  0  0  0  0  0  0  0  0  0  0
   19.5521   20.2740   26.3593 C   0  0  0  0  0  0  0  0  0  0  0  0
   20.0399   21.1535   25.9220 H   0  0  0  0  0  0  0  0  0  0  0  0
   19.0874   20.6056   27.2949 H   0  0  0  0  0  0  0  0  0  0  0  0
   18.4458   19.7423   25.4051 C   0  0  0  0  0  0  0  0  0  0  0  0
   18.0976   18.7578   25.7472 H   0  0  0  0  0  0  0  0  0  0  0  0
   17.5793   20.4127   25.4831 H   0  0  0  0  0  0  0  0  0  0  0  0
   18.8559   19.6721   23.9132 C   0  0  0  0  0  0  0  0  0  0  0  0
   19.1879   20.6647   23.5817 H   0  0  0  0  0  0  0  0  0  0  0  0
   17.9619   19.4302   23.3225 H   0  0  0  0  0  0  0  0  0  0  0  0
   19.9511   18.6208   23.6118 C   0  0  0  0  0  0  0  0  0  0  0  0
   20.9070   18.9395   24.0467 H   0  0  0  0  0  0  0  0  0  0  0  0
   19.6850   17.6736   24.1005 H   0  0  0  0  0  0  0  0  0  0  0  0
   20.1490   18.3582   22.0999 C   0  0  0  0  0  0  0  0  0  0  0  0
   19.2029   18.0165   21.6583 H   0  0  0  0  0  0  0  0  0  0  0  0
   20.8636   17.5324   21.9804 H   0  0  0  0  0  0  0  0  0  0  0  0
   20.6702   19.5903   21.3261 C   0  0  0  0  0  0  0  0  0  0  0  0
   19.9352   20.4046   21.3737 H   0  0  0  0  0  0  0  0  0  0  0  0
   21.5906   19.9612   21.7978 H   0  0  0  0  0  0  0  0  0  0  0  0
   20.9516   19.2529   19.8479 C   0  0  0  0  0  0  0  0  0  0  0  0
   20.0401   18.9050   19.3445 H   0  0  0  0  0  0  0  0  0  0  0  0
   21.3180   20.1383   19.3122 H   0  0  0  0  0  0  0  0  0  0  0  0
   21.7125   18.4662   19.7621 H   0  0  0  0  0  0  0  0  0  0  0  0
  1  2  1  0  0  0  0
  1  3  2  0  0  0  0
  1  4  1  0  0  0  0
  4  5  1  0  0  0  0
  4  6  1  0  0  0  0
  4  7  1  0  0  0  0
  7  8  1  0  0  0  0
  7  9  1  0  0  0  0
  7 10  1  0  0  0  0
 10 11  1  0  0  0  0
 10 12  1  0  0  0  0
 10 13  1  0  0  0  0
 13 14  1  0  0  0  0
 13 15  1  0  0  0  0
 13 16  1  0  0  0  0
 16 17  1  0  0  0  0
 16 18  1  0  0  0  0
 16 19  1  0  0  0  0
 19 20  1  0  0  0  0
 19 21  1  0  0  0  0
 19 22  1  0  0  0  0
 22 23  1  0  0  0  0
 22 24  1  0  0  0  0
 22 25  1  0  0  0  0
M  END
> <VM2 Rank>
109

> <Conf_Id>
533

> <Probability>
0.01

> <Sum Probability>
99.72

> <Delta G>
4.620

> <G>
-3.343

> <E>
-28.530

> <-TS>
25.187

> <U+W>
-49.097

> <U>
11.401

> <W>
-60.498

> <W(PB)>
-62.925

> <W(SA)>
2.427

> <Valence>
9.920

> <Coulomb>
0.704

> <VdW>
0.777

> <VdW6>
-10.717

> <VdW12>
11.493

> <Bond>
0.235

> <Angle>
3.375

> <Pdih>
6.304

> <Idih>
0.006

> <Tether>
0.000

$$$$
VeraChem MOL file


 25 24  0  0  0  0  0  0  0  0999 V2000     
   20.3076   19.5669   27.3740 C   0  0  0  0  0  0  0  0  0  0  0  0
   21.3894   19.4549   27.9161 O   0  5  0  0  0  0  0  0  0  0  0  0
   19.2493   19.5337   27.9704 O   0  0  0  0  0  0  0  0  0  0  0  0
   20.2756   19.7350   25.8592 C   0  0  0  0  0  0  0  0  0  0  0  0
   21.1762   20.2836   25.5586 H   0  0  0  0  0  0  0  0  0  0  0  0
   19.4133   20.3641   25.6113 H   0  0  0  0  0  0  0  0  0  0  0  0
   20.1979   18.3811   25.1068 C   0  0  0  0  0  0  0  0  0  0  0  0
   21.0264   17.7421   25.4423 H   0  0  0  0  0  0  0  0  0  0  0  0
   19.2718   17.8595   25.3850 H   0  0  0  0  0  0  0  0  0  0  0  0
   20.2747   18.5266   23.5684 C   0  0  0  0  0  0  0  0  0  0  0  0
   20.3138   17.5234   23.1227 H   0  0  0  0  0  0  0  0  0  0  0  0
   21.2137   19.0291   23.3025 H   0  0  0  0  0  0  0  0  0  0  0  0
   19.0788   19.3013   22.9665 C   0  0  0  0  0  0  0  0  0  0  0  0
   18.1460   18.8910   23.3767 H   0  0  0  0  0  0  0  0  0  0  0  0
   19.1200   20.3521   23.2819 H   0  0  0  0  0  0  0  0  0  0  0  0
   18.9973   19.2416   21.4203 C   0  0  0  0  0  0  0  0  0  0  0  0
   18.0796   19.7648   21.1186 H   0  0  0  0  0  0  0  0  0  0  0  0
   18.8705   18.2021   21.0883 H   0  0  0  0  0  0  0  0  0  0  0  0
   20.1901   19.8995   20.6823 C   0  0  0  0  0  0  0  0  0  0  0  0
   19.8155   20.3740   19.7648 H   0  0  0  0  0  0  0  0  0  0  0  0
   20.6161   20.7082   21.2922 H   0  0  0  0  0  0  0  0  0  0  0  0
   21.2921   18.8933   20.2820 C   0  0  0  0  0  0  0  0  0  0  0  0
   20.8887   18.1147   19.6216 H   0  0  0  0  0  0  0  0  0  0  0  0
   22.1005   19.4042   19.7433 H   0  0  0  0  0  0  0  0  0  0  0  0
   21.7329   18.4007   21.1559 H   0  0  0  0  0  0  0  0  0  0  0  0
  1  2  1  0  0  0  0
  1  3  2  0  0  0  0
  1  4  1  0  0  0  0
  4  5  1  0  0  0  0
  4  6  1  0  0  0  0
  4  7  1  0  0  0  0
  7  8  1  0  0  0  0
  7  9  1  0  0  0  0
  7 10  1  0  0  0  0
 10 11  1  0  0  0  0
 10 12  1  0  0  0  0
 10 13  1  0  0  0  0
 13 14  1  0  0  0  0
 13 15  1  0  0  0  0
 13 16  1  0  0  0  0
 16 17  1  0  0  0  0
 16 18  1  0  0  0  0
 16 19  1  0  0  0  0
 19 20  1  0  0  0  0
 19 21  1  0  0  0  0
 19 22  1  0  0  0  0
 22 23  1  0  0  0  0
 22 24  1  0  0  0  0
 22 25  1  0  0  0  0
M  END
> <VM2 Rank>
110

> <Conf_Id>
463

> <Probability>
0.01

> <Sum Probability>
99.72

> <Delta G>
4.650

> <G>
-3.313

> <E>
-28.169

> <-TS>
24.857

> <U+W>
-48.737

> <U>
10.438

> <W>
-59.175

> <W(PB)>
-61.614

> <W(SA)>
2.439

> <Valence>
10.999

> <Coulomb>
-1.665

> <VdW>
1.104

> <VdW6>
-9.904

> <VdW12>
11.008

> <Bond>
0.232

> <Angle>
3.215

> <Pdih>
7.552

> <Idih>
0.001

> <Tether>
0.000

$$$$
VeraChem MOL file


 25 24  0  0  0  0  0  0  0  0999 V2000     
   20.3247   19.7464   27.2297 C   0  0  0  0  0  0  0  0  0  0  0  0
   21.3804   19.6072   27.8152 O   0  5  0  0  0  0  0  0  0  0  0  0
   19.2624   19.9276   27.7913 O   0  0  0  0  0  0  0  0  0  0  0  0
   20.3300   19.6660   25.7074 C   0  0  0  0  0  0  0  0  0  0  0  0
   21.2907   20.0550   25.3496 H   0  0  0  0  0  0  0  0  0  0  0  0
   19.5484   20.3379   25.3357 H   0  0  0  0  0  0  0  0  0  0  0  0
   20.1080   18.2237   25.1821 C   0  0  0  0  0  0  0  0  0  0  0  0
   20.8514   17.5616   25.6472 H   0  0  0  0  0  0  0  0  0  0  0  0
   19.1231   17.8610   25.5071 H   0  0  0  0  0  0  0  0  0  0  0  0
   20.2307   18.1029   23.6445 C   0  0  0  0  0  0  0  0  0  0  0  0
   20.1954   17.0382   23.3766 H   0  0  0  0  0  0  0  0  0  0  0  0
   21.2171   18.4643   23.3307 H   0  0  0  0  0  0  0  0  0  0  0  0
   19.1085   18.8477   22.8788 C   0  0  0  0  0  0  0  0  0  0  0  0
   18.1418   18.4604   23.2281 H   0  0  0  0  0  0  0  0  0  0  0  0
   19.1147   19.9186   23.1185 H   0  0  0  0  0  0  0  0  0  0  0  0
   19.1868   18.6591   21.3422 C   0  0  0  0  0  0  0  0  0  0  0  0
   18.1611   18.6094   20.9518 H   0  0  0  0  0  0  0  0  0  0  0  0
   19.6454   17.6910   21.0990 H   0  0  0  0  0  0  0  0  0  0  0  0
   19.9172   19.7975   20.5876 C   0  0  0  0  0  0  0  0  0  0  0  0
   19.8483   19.6009   19.5088 H   0  0  0  0  0  0  0  0  0  0  0  0
   19.3942   20.7482   20.7603 H   0  0  0  0  0  0  0  0  0  0  0  0
   21.4042   19.9559   20.9674 C   0  0  0  0  0  0  0  0  0  0  0  0
   21.9394   19.0024   20.8709 H   0  0  0  0  0  0  0  0  0  0  0  0
   21.8925   20.6868   20.3101 H   0  0  0  0  0  0  0  0  0  0  0  0
   21.5127   20.3149   21.9983 H   0  0  0  0  0  0  0  0  0  0  0  0
  1  2  1  0  0  0  0
  1  3  2  0  0  0  0
  1  4  1  0  0  0  0
  4  5  1  0  0  0  0
  4  6  1  0  0  0  0
  4  7  1  0  0  0  0
  7  8  1  0  0  0  0
  7  9  1  0  0  0  0
  7 10  1  0  0  0  0
 10 11  1  0  0  0  0
 10 12  1  0  0  0  0
 10 13  1  0  0  0  0
 13 14  1  0  0  0  0
 13 15  1  0  0  0  0
 13 16  1  0  0  0  0
 16 17  1  0  0  0  0
 16 18  1  0  0  0  0
 16 19  1  0  0  0  0
 19 20  1  0  0  0  0
 19 21  1  0  0  0  0
 19 22  1  0  0  0  0
 22 23  1  0  0  0  0
 22 24  1  0  0  0  0
 22 25  1  0  0  0  0
M  END
> <VM2 Rank>
111

> <Conf_Id>
825

> <Probability>
0.01

> <Sum Probability>
99.73

> <Delta G>
4.654

> <G>
-3.308

> <E>
-28.118

> <-TS>
24.810

> <U+W>
-48.686

> <U>
10.664

> <W>
-59.350

> <W(PB)>
-61.759

> <W(SA)>
2.410

> <Valence>
11.013

> <Coulomb>
-1.402

> <VdW>
1.052

> <VdW6>
-9.993

> <VdW12>
11.045

> <Bond>
0.241

> <Angle>
3.228

> <Pdih>
7.544

> <Idih>
0.001

> <Tether>
0.000

$$$$
VeraChem MOL file


 25 24  0  0  0  0  0  0  0  0999 V2000     
   20.3232   18.9305   26.8934 C   0  0  0  0  0  0  0  0  0  0  0  0
   21.4691   19.2390   27.1567 O   0  5  0  0  0  0  0  0  0  0  0  0
   19.9019   17.7927   26.9648 O   0  0  0  0  0  0  0  0  0  0  0  0
   19.3427   20.0387   26.5142 C   0  0  0  0  0  0  0  0  0  0  0  0
   19.2645   20.6927   27.3904 H   0  0  0  0  0  0  0  0  0  0  0  0
   18.3495   19.5996   26.3611 H   0  0  0  0  0  0  0  0  0  0  0  0
   19.7507   20.8931   25.2808 C   0  0  0  0  0  0  0  0  0  0  0  0
   19.2131   21.8491   25.3397 H   0  0  0  0  0  0  0  0  0  0  0  0
   20.8191   21.1444   25.3350 H   0  0  0  0  0  0  0  0  0  0  0  0
   19.4242   20.2544   23.9077 C   0  0  0  0  0  0  0  0  0  0  0  0
   19.5984   21.0159   23.1375 H   0  0  0  0  0  0  0  0  0  0  0  0
   18.3552   20.0062   23.8606 H   0  0  0  0  0  0  0  0  0  0  0  0
   20.2650   18.9960   23.5824 C   0  0  0  0  0  0  0  0  0  0  0  0
   21.3345   19.2236   23.6877 H   0  0  0  0  0  0  0  0  0  0  0  0
   20.0396   18.2115   24.3150 H   0  0  0  0  0  0  0  0  0  0  0  0
   19.9918   18.4173   22.1731 C   0  0  0  0  0  0  0  0  0  0  0  0
   18.9173   18.2205   22.0576 H   0  0  0  0  0  0  0  0  0  0  0  0
   20.4952   17.4439   22.0960 H   0  0  0  0  0  0  0  0  0  0  0  0
   20.4846   19.3249   21.0229 C   0  0  0  0  0  0  0  0  0  0  0  0
   19.9364   20.2758   21.0271 H   0  0  0  0  0  0  0  0  0  0  0  0
   21.5464   19.5661   21.1704 H   0  0  0  0  0  0  0  0  0  0  0  0
   20.2998   18.6475   19.6500 C   0  0  0  0  0  0  0  0  0  0  0  0
   20.8680   17.7098   19.5942 H   0  0  0  0  0  0  0  0  0  0  0  0
   19.2420   18.4191   19.4644 H   0  0  0  0  0  0  0  0  0  0  0  0
   20.6511   19.3047   18.8440 H   0  0  0  0  0  0  0  0  0  0  0  0
  1  2  1  0  0  0  0
  1  3  2  0  0  0  0
  1  4  1  0  0  0  0
  4  5  1  0  0  0  0
  4  6  1  0  0  0  0
  4  7  1  0  0  0  0
  7  8  1  0  0  0  0
  7  9  1  0  0  0  0
  7 10  1  0  0  0  0
 10 11  1  0  0  0  0
 10 12  1  0  0  0  0
 10 13  1  0  0  0  0
 13 14  1  0  0  0  0
 13 15  1  0  0  0  0
 13 16  1  0  0  0  0
 16 17  1  0  0  0  0
 16 18  1  0  0  0  0
 16 19  1  0  0  0  0
 19 20  1  0  0  0  0
 19 21  1  0  0  0  0
 19 22  1  0  0  0  0
 22 23  1  0  0  0  0
 22 24  1  0  0  0  0
 22 25  1  0  0  0  0
M  END
> <VM2 Rank>
112

> <Conf_Id>
764

> <Probability>
0.01

> <Sum Probability>
99.74

> <Delta G>
4.657

> <G>
-3.305

> <E>
-28.308

> <-TS>
25.003

> <U+W>
-48.876

> <U>
11.423

> <W>
-60.299

> <W(PB)>
-62.735

> <W(SA)>
2.436

> <Valence>
10.135

> <Coulomb>
0.370

> <VdW>
0.918

> <VdW6>
-10.483

> <VdW12>
11.401

> <Bond>
0.245

> <Angle>
3.539

> <Pdih>
6.346

> <Idih>
0.006

> <Tether>
0.000

$$$$
VeraChem MOL file


 25 24  0  0  0  0  0  0  0  0999 V2000     
   20.0107   19.4658   26.9808 C   0  0  0  0  0  0  0  0  0  0  0  0
   20.8995   19.9146   27.6780 O   0  5  0  0  0  0  0  0  0  0  0  0
   18.9168   19.9836   26.8699 O   0  0  0  0  0  0  0  0  0  0  0  0
   20.2751   18.1648   26.2281 C   0  0  0  0  0  0  0  0  0  0  0  0
   19.3177   17.7554   25.8871 H   0  0  0  0  0  0  0  0  0  0  0  0
   20.6779   17.4466   26.9517 H   0  0  0  0  0  0  0  0  0  0  0  0
   21.2670   18.3079   25.0412 C   0  0  0  0  0  0  0  0  0  0  0  0
   22.2369   18.6436   25.4336 H   0  0  0  0  0  0  0  0  0  0  0  0
   21.4416   17.3192   24.5959 H   0  0  0  0  0  0  0  0  0  0  0  0
   20.8119   19.2917   23.9350 C   0  0  0  0  0  0  0  0  0  0  0  0
   21.6282   19.3817   23.2072 H   0  0  0  0  0  0  0  0  0  0  0  0
   20.6664   20.2924   24.3642 H   0  0  0  0  0  0  0  0  0  0  0  0
   19.5207   18.8457   23.2062 C   0  0  0  0  0  0  0  0  0  0  0  0
   19.6569   17.8396   22.7889 H   0  0  0  0  0  0  0  0  0  0  0  0
   18.7030   18.7676   23.9340 H   0  0  0  0  0  0  0  0  0  0  0  0
   19.0686   19.8249   22.0931 C   0  0  0  0  0  0  0  0  0  0  0  0
   18.8555   20.8027   22.5462 H   0  0  0  0  0  0  0  0  0  0  0  0
   18.1151   19.4690   21.6799 H   0  0  0  0  0  0  0  0  0  0  0  0
   20.0718   20.0221   20.9294 C   0  0  0  0  0  0  0  0  0  0  0  0
   19.6394   20.7341   20.2131 H   0  0  0  0  0  0  0  0  0  0  0  0
   20.9948   20.4883   21.2982 H   0  0  0  0  0  0  0  0  0  0  0  0
   20.4109   18.7130   20.1842 C   0  0  0  0  0  0  0  0  0  0  0  0
   19.4993   18.2165   19.8273 H   0  0  0  0  0  0  0  0  0  0  0  0
   21.0471   18.9198   19.3140 H   0  0  0  0  0  0  0  0  0  0  0  0
   20.9529   18.0140   20.8336 H   0  0  0  0  0  0  0  0  0  0  0  0
  1  2  1  0  0  0  0
  1  3  2  0  0  0  0
  1  4  1  0  0  0  0
  4  5  1  0  0  0  0
  4  6  1  0  0  0  0
  4  7  1  0  0  0  0
  7  8  1  0  0  0  0
  7  9  1  0  0  0  0
  7 10  1  0  0  0  0
 10 11  1  0  0  0  0
 10 12  1  0  0  0  0
 10 13  1  0  0  0  0
 13 14  1  0  0  0  0
 13 15  1  0  0  0  0
 13 16  1  0  0  0  0
 16 17  1  0  0  0  0
 16 18  1  0  0  0  0
 16 19  1  0  0  0  0
 19 20  1  0  0  0  0
 19 21  1  0  0  0  0
 19 22  1  0  0  0  0
 22 23  1  0  0  0  0
 22 24  1  0  0  0  0
 22 25  1  0  0  0  0
M  END
> <VM2 Rank>
113

> <Conf_Id>
1019

> <Probability>
0.01

> <Sum Probability>
99.75

> <Delta G>
4.660

> <G>
-3.303

> <E>
-28.506

> <-TS>
25.203

> <U+W>
-49.073

> <U>
11.036

> <W>
-60.109

> <W(PB)>
-62.508

> <W(SA)>
2.399

> <Valence>
9.325

> <Coulomb>
0.928

> <VdW>
0.783

> <VdW6>
-11.027

> <VdW12>
11.810

> <Bond>
0.268

> <Angle>
3.515

> <Pdih>
5.540

> <Idih>
0.001

> <Tether>
0.000

$$$$
VeraChem MOL file


 25 24  0  0  0  0  0  0  0  0999 V2000     
   20.1200   19.8485   27.0978 C   0  0  0  0  0  0  0  0  0  0  0  0
   21.1718   20.4101   27.3327 O   0  5  0  0  0  0  0  0  0  0  0  0
   19.2964   19.5787   27.9497 O   0  0  0  0  0  0  0  0  0  0  0  0
   19.8279   19.4386   25.6589 C   0  0  0  0  0  0  0  0  0  0  0  0
   20.2784   20.1910   25.0018 H   0  0  0  0  0  0  0  0  0  0  0  0
   18.7425   19.4750   25.5081 H   0  0  0  0  0  0  0  0  0  0  0  0
   20.3700   18.0282   25.3150 C   0  0  0  0  0  0  0  0  0  0  0  0
   21.4649   18.0300   25.4063 H   0  0  0  0  0  0  0  0  0  0  0  0
   20.0002   17.3161   26.0658 H   0  0  0  0  0  0  0  0  0  0  0  0
   19.9676   17.5148   23.9095 C   0  0  0  0  0  0  0  0  0  0  0  0
   18.8754   17.4176   23.8408 H   0  0  0  0  0  0  0  0  0  0  0  0
   20.3650   16.4962   23.8030 H   0  0  0  0  0  0  0  0  0  0  0  0
   20.5060   18.3690   22.7337 C   0  0  0  0  0  0  0  0  0  0  0  0
   21.4315   18.8801   23.0318 H   0  0  0  0  0  0  0  0  0  0  0  0
   20.7801   17.6903   21.9155 H   0  0  0  0  0  0  0  0  0  0  0  0
   19.4726   19.3916   22.1987 C   0  0  0  0  0  0  0  0  0  0  0  0
   19.0884   20.0006   23.0253 H   0  0  0  0  0  0  0  0  0  0  0  0
   18.6068   18.8559   21.7865 H   0  0  0  0  0  0  0  0  0  0  0  0
   20.0500   20.3407   21.1229 C   0  0  0  0  0  0  0  0  0  0  0  0
   19.2912   21.0955   20.8748 H   0  0  0  0  0  0  0  0  0  0  0  0
   20.9089   20.8883   21.5349 H   0  0  0  0  0  0  0  0  0  0  0  0
   20.4707   19.6139   19.8271 C   0  0  0  0  0  0  0  0  0  0  0  0
   21.3099   18.9301   20.0059 H   0  0  0  0  0  0  0  0  0  0  0  0
   19.6355   19.0342   19.4129 H   0  0  0  0  0  0  0  0  0  0  0  0
   20.7891   20.3386   19.0666 H   0  0  0  0  0  0  0  0  0  0  0  0
  1  2  1  0  0  0  0
  1  3  2  0  0  0  0
  1  4  1  0  0  0  0
  4  5  1  0  0  0  0
  4  6  1  0  0  0  0
  4  7  1  0  0  0  0
  7  8  1  0  0  0  0
  7  9  1  0  0  0  0
  7 10  1  0  0  0  0
 10 11  1  0  0  0  0
 10 12  1  0  0  0  0
 10 13  1  0  0  0  0
 13 14  1  0  0  0  0
 13 15  1  0  0  0  0
 13 16  1  0  0  0  0
 16 17  1  0  0  0  0
 16 18  1  0  0  0  0
 16 19  1  0  0  0  0
 19 20  1  0  0  0  0
 19 21  1  0  0  0  0
 19 22  1  0  0  0  0
 22 23  1  0  0  0  0
 22 24  1  0  0  0  0
 22 25  1  0  0  0  0
M  END
> <VM2 Rank>
114

> <Conf_Id>
744

> <Probability>
0.01

> <Sum Probability>
99.76

> <Delta G>
4.661

> <G>
-3.302

> <E>
-28.222

> <-TS>
24.920

> <U+W>
-48.789

> <U>
10.710

> <W>
-59.499

> <W(PB)>
-61.940

> <W(SA)>
2.441

> <Valence>
11.065

> <Coulomb>
-1.442

> <VdW>
1.086

> <VdW6>
-9.992

> <VdW12>
11.079

> <Bond>
0.233

> <Angle>
3.173

> <Pdih>
7.658

> <Idih>
0.001

> <Tether>
0.000

$$$$
VeraChem MOL file


 25 24  0  0  0  0  0  0  0  0999 V2000     
   20.5961   19.1040   27.1175 C   0  0  0  0  0  0  0  0  0  0  0  0
   21.5417   19.8317   27.3478 O   0  5  0  0  0  0  0  0  0  0  0  0
   19.9853   18.5017   27.9782 O   0  0  0  0  0  0  0  0  0  0  0  0
   20.1360   18.9565   25.6717 C   0  0  0  0  0  0  0  0  0  0  0  0
   19.7170   17.9508   25.5485 H   0  0  0  0  0  0  0  0  0  0  0  0
   21.0236   19.0254   25.0326 H   0  0  0  0  0  0  0  0  0  0  0  0
   19.0922   20.0261   25.2621 C   0  0  0  0  0  0  0  0  0  0  0  0
   18.2729   20.0170   25.9943 H   0  0  0  0  0  0  0  0  0  0  0  0
   19.5513   21.0222   25.3271 H   0  0  0  0  0  0  0  0  0  0  0  0
   18.4913   19.8233   23.8483 C   0  0  0  0  0  0  0  0  0  0  0  0
   17.7366   20.6065   23.6941 H   0  0  0  0  0  0  0  0  0  0  0  0
   17.9462   18.8705   23.8023 H   0  0  0  0  0  0  0  0  0  0  0  0
   19.5206   19.9098   22.6929 C   0  0  0  0  0  0  0  0  0  0  0  0
   19.0398   20.4122   21.8435 H   0  0  0  0  0  0  0  0  0  0  0  0
   20.3658   20.5465   22.9878 H   0  0  0  0  0  0  0  0  0  0  0  0
   20.0274   18.5238   22.2217 C   0  0  0  0  0  0  0  0  0  0  0  0
   19.1877   17.9473   21.8104 H   0  0  0  0  0  0  0  0  0  0  0  0
   20.3986   17.9511   23.0796 H   0  0  0  0  0  0  0  0  0  0  0  0
   21.1569   18.6097   21.1689 C   0  0  0  0  0  0  0  0  0  0  0  0
   22.0044   19.1750   21.5805 H   0  0  0  0  0  0  0  0  0  0  0  0
   21.5290   17.5957   20.9676 H   0  0  0  0  0  0  0  0  0  0  0  0
   20.7054   19.2473   19.8369 C   0  0  0  0  0  0  0  0  0  0  0  0
   20.4332   20.3018   19.9698 H   0  0  0  0  0  0  0  0  0  0  0  0
   21.5149   19.2041   19.0969 H   0  0  0  0  0  0  0  0  0  0  0  0
   19.8388   18.7170   19.4213 H   0  0  0  0  0  0  0  0  0  0  0  0
  1  2  1  0  0  0  0
  1  3  2  0  0  0  0
  1  4  1  0  0  0  0
  4  5  1  0  0  0  0
  4  6  1  0  0  0  0
  4  7  1  0  0  0  0
  7  8  1  0  0  0  0
  7  9  1  0  0  0  0
  7 10  1  0  0  0  0
 10 11  1  0  0  0  0
 10 12  1  0  0  0  0
 10 13  1  0  0  0  0
 13 14  1  0  0  0  0
 13 15  1  0  0  0  0
 13 16  1  0  0  0  0
 16 17  1  0  0  0  0
 16 18  1  0  0  0  0
 16 19  1  0  0  0  0
 19 20  1  0  0  0  0
 19 21  1  0  0  0  0
 19 22  1  0  0  0  0
 22 23  1  0  0  0  0
 22 24  1  0  0  0  0
 22 25  1  0  0  0  0
M  END
> <VM2 Rank>
115

> <Conf_Id>
826

> <Probability>
0.01

> <Sum Probability>
99.77

> <Delta G>
4.661

> <G>
-3.301

> <E>
-28.221

> <-TS>
24.920

> <U+W>
-48.789

> <U>
10.710

> <W>
-59.498

> <W(PB)>
-61.911

> <W(SA)>
2.413

> <Valence>
11.065

> <Coulomb>
-1.442

> <VdW>
1.087

> <VdW6>
-9.992

> <VdW12>
11.079

> <Bond>
0.233

> <Angle>
3.172

> <Pdih>
7.658

> <Idih>
0.001

> <Tether>
0.000

$$$$
VeraChem MOL file


 25 24  0  0  0  0  0  0  0  0999 V2000     
   19.5551   19.0628   26.5037 C   0  0  0  0  0  0  0  0  0  0  0  0
   19.5896   17.8572   26.6558 O   0  5  0  0  0  0  0  0  0  0  0  0
   18.5244   19.6925   26.3677 O   0  0  0  0  0  0  0  0  0  0  0  0
   20.8702   19.8381   26.5575 C   0  0  0  0  0  0  0  0  0  0  0  0
   21.2721   19.6932   27.5669 H   0  0  0  0  0  0  0  0  0  0  0  0
   20.6571   20.9091   26.4552 H   0  0  0  0  0  0  0  0  0  0  0  0
   21.9412   19.4005   25.5190 C   0  0  0  0  0  0  0  0  0  0  0  0
   22.9214   19.7420   25.8781 H   0  0  0  0  0  0  0  0  0  0  0  0
   21.9991   18.3038   25.4803 H   0  0  0  0  0  0  0  0  0  0  0  0
   21.7357   19.9718   24.0940 C   0  0  0  0  0  0  0  0  0  0  0  0
   22.6212   19.7212   23.4940 H   0  0  0  0  0  0  0  0  0  0  0  0
   21.6931   21.0686   24.1383 H   0  0  0  0  0  0  0  0  0  0  0  0
   20.4795   19.4316   23.3735 C   0  0  0  0  0  0  0  0  0  0  0  0
   20.4733   18.3353   23.4305 H   0  0  0  0  0  0  0  0  0  0  0  0
   19.5755   19.7866   23.8839 H   0  0  0  0  0  0  0  0  0  0  0  0
   20.4319   19.8843   21.8956 C   0  0  0  0  0  0  0  0  0  0  0  0
   21.3027   19.4856   21.3574 H   0  0  0  0  0  0  0  0  0  0  0  0
   20.5151   20.9790   21.8550 H   0  0  0  0  0  0  0  0  0  0  0  0
   19.1357   19.4625   21.1652 C   0  0  0  0  0  0  0  0  0  0  0  0
   18.2628   19.8662   21.6967 H   0  0  0  0  0  0  0  0  0  0  0  0
   19.1293   19.9191   20.1659 H   0  0  0  0  0  0  0  0  0  0  0  0
   18.9896   17.9327   21.0142 C   0  0  0  0  0  0  0  0  0  0  0  0
   18.1027   17.6890   20.4151 H   0  0  0  0  0  0  0  0  0  0  0  0
   19.8657   17.5018   20.5124 H   0  0  0  0  0  0  0  0  0  0  0  0
   18.8757   17.4436   21.9898 H   0  0  0  0  0  0  0  0  0  0  0  0
  1  2  1  0  0  0  0
  1  3  2  0  0  0  0
  1  4  1  0  0  0  0
  4  5  1  0  0  0  0
  4  6  1  0  0  0  0
  4  7  1  0  0  0  0
  7  8  1  0  0  0  0
  7  9  1  0  0  0  0
  7 10  1  0  0  0  0
 10 11  1  0  0  0  0
 10 12  1  0  0  0  0
 10 13  1  0  0  0  0
 13 14  1  0  0  0  0
 13 15  1  0  0  0  0
 13 16  1  0  0  0  0
 16 17  1  0  0  0  0
 16 18  1  0  0  0  0
 16 19  1  0  0  0  0
 19 20  1  0  0  0  0
 19 21  1  0  0  0  0
 19 22  1  0  0  0  0
 22 23  1  0  0  0  0
 22 24  1  0  0  0  0
 22 25  1  0  0  0  0
M  END
> <VM2 Rank>
116

> <Conf_Id>
570

> <Probability>
0.01

> <Sum Probability>
99.78

> <Delta G>
4.661

> <G>
-3.301

> <E>
-28.442

> <-TS>
25.141

> <U+W>
-49.010

> <U>
12.313

> <W>
-61.323

> <W(PB)>
-63.724

> <W(SA)>
2.402

> <Valence>
9.950

> <Coulomb>
1.612

> <VdW>
0.751

> <VdW6>
-10.687

> <VdW12>
11.438

> <Bond>
0.232

> <Angle>
3.418

> <Pdih>
6.293

> <Idih>
0.007

> <Tether>
0.000

$$$$
VeraChem MOL file


 25 24  0  0  0  0  0  0  0  0999 V2000     
   20.6423   19.4671   27.0276 C   0  0  0  0  0  0  0  0  0  0  0  0
   21.5476   20.2543   26.8345 O   0  5  0  0  0  0  0  0  0  0  0  0
   20.1193   19.2950   28.1110 O   0  0  0  0  0  0  0  0  0  0  0  0
   20.1195   18.6656   25.8411 C   0  0  0  0  0  0  0  0  0  0  0  0
   19.7928   17.6869   26.2121 H   0  0  0  0  0  0  0  0  0  0  0  0
   20.9592   18.4854   25.1630 H   0  0  0  0  0  0  0  0  0  0  0  0
   18.9496   19.3738   25.1079 C   0  0  0  0  0  0  0  0  0  0  0  0
   18.1369   19.5211   25.8327 H   0  0  0  0  0  0  0  0  0  0  0  0
   19.2575   20.3784   24.7862 H   0  0  0  0  0  0  0  0  0  0  0  0
   18.3985   18.5700   23.9027 C   0  0  0  0  0  0  0  0  0  0  0  0
   17.3138   18.7353   23.8497 H   0  0  0  0  0  0  0  0  0  0  0  0
   18.5279   17.4922   24.0718 H   0  0  0  0  0  0  0  0  0  0  0  0
   18.9971   18.9701   22.5308 C   0  0  0  0  0  0  0  0  0  0  0  0
   18.4772   18.4007   21.7484 H   0  0  0  0  0  0  0  0  0  0  0  0
   18.7782   20.0289   22.3398 H   0  0  0  0  0  0  0  0  0  0  0  0
   20.5188   18.7215   22.4048 C   0  0  0  0  0  0  0  0  0  0  0  0
   20.7461   17.7026   22.7461 H   0  0  0  0  0  0  0  0  0  0  0  0
   21.0631   19.4082   23.0662 H   0  0  0  0  0  0  0  0  0  0  0  0
   21.0483   18.8876   20.9613 C   0  0  0  0  0  0  0  0  0  0  0  0
   22.1083   18.5996   20.9389 H   0  0  0  0  0  0  0  0  0  0  0  0
   20.5238   18.1926   20.2911 H   0  0  0  0  0  0  0  0  0  0  0  0
   20.9120   20.3290   20.4243 C   0  0  0  0  0  0  0  0  0  0  0  0
   21.4076   21.0453   21.0924 H   0  0  0  0  0  0  0  0  0  0  0  0
   21.3750   20.4149   19.4328 H   0  0  0  0  0  0  0  0  0  0  0  0
   19.8590   20.6213   20.3263 H   0  0  0  0  0  0  0  0  0  0  0  0
  1  2  1  0  0  0  0
  1  3  2  0  0  0  0
  1  4  1  0  0  0  0
  4  5  1  0  0  0  0
  4  6  1  0  0  0  0
  4  7  1  0  0  0  0
  7  8  1  0  0  0  0
  7  9  1  0  0  0  0
  7 10  1  0  0  0  0
 10 11  1  0  0  0  0
 10 12  1  0  0  0  0
 10 13  1  0  0  0  0
 13 14  1  0  0  0  0
 13 15  1  0  0  0  0
 13 16  1  0  0  0  0
 16 17  1  0  0  0  0
 16 18  1  0  0  0  0
 16 19  1  0  0  0  0
 19 20  1  0  0  0  0
 19 21  1  0  0  0  0
 19 22  1  0  0  0  0
 22 23  1  0  0  0  0
 22 24  1  0  0  0  0
 22 25  1  0  0  0  0
M  END
> <VM2 Rank>
117

> <Conf_Id>
477

> <Probability>
0.01

> <Sum Probability>
99.79

> <Delta G>
4.713

> <G>
-3.250

> <E>
-28.158

> <-TS>
24.909

> <U+W>
-48.726

> <U>
10.997

> <W>
-59.723

> <W(PB)>
-62.151

> <W(SA)>
2.428

> <Valence>
10.985

> <Coulomb>
-0.994

> <VdW>
1.006

> <VdW6>
-10.062

> <VdW12>
11.068

> <Bond>
0.238

> <Angle>
3.202

> <Pdih>
7.545

> <Idih>
0.001

> <Tether>
0.000

$$$$
VeraChem MOL file


 25 24  0  0  0  0  0  0  0  0999 V2000     
   20.1398   18.8944   27.2559 C   0  0  0  0  0  0  0  0  0  0  0  0
   21.1657   18.6176   27.8457 O   0  5  0  0  0  0  0  0  0  0  0  0
   19.1050   19.2025   27.8137 O   0  0  0  0  0  0  0  0  0  0  0  0
   20.1585   18.8758   25.7317 C   0  0  0  0  0  0  0  0  0  0  0  0
   19.1641   18.5674   25.3903 H   0  0  0  0  0  0  0  0  0  0  0  0
   20.8671   18.1035   25.4096 H   0  0  0  0  0  0  0  0  0  0  0  0
   20.5471   20.2468   25.1198 C   0  0  0  0  0  0  0  0  0  0  0  0
   19.8052   21.0033   25.4104 H   0  0  0  0  0  0  0  0  0  0  0  0
   21.5039   20.5676   25.5547 H   0  0  0  0  0  0  0  0  0  0  0  0
   20.6892   20.2154   23.5795 C   0  0  0  0  0  0  0  0  0  0  0  0
   21.4333   19.4602   23.3001 H   0  0  0  0  0  0  0  0  0  0  0  0
   21.0946   21.1814   23.2491 H   0  0  0  0  0  0  0  0  0  0  0  0
   19.3497   19.9586   22.8446 C   0  0  0  0  0  0  0  0  0  0  0  0
   18.9149   18.9974   23.1468 H   0  0  0  0  0  0  0  0  0  0  0  0
   18.6346   20.7312   23.1583 H   0  0  0  0  0  0  0  0  0  0  0  0
   19.4794   20.0073   21.3007 C   0  0  0  0  0  0  0  0  0  0  0  0
   20.2946   20.6824   21.0069 H   0  0  0  0  0  0  0  0  0  0  0  0
   18.5615   20.4543   20.8950 H   0  0  0  0  0  0  0  0  0  0  0  0
   19.6630   18.6264   20.6236 C   0  0  0  0  0  0  0  0  0  0  0  0
   18.7955   17.9896   20.8452 H   0  0  0  0  0  0  0  0  0  0  0  0
   19.6680   18.7702   19.5344 H   0  0  0  0  0  0  0  0  0  0  0  0
   20.9556   17.8891   21.0309 C   0  0  0  0  0  0  0  0  0  0  0  0
   21.8364   18.5278   20.8854 H   0  0  0  0  0  0  0  0  0  0  0  0
   20.9188   17.5786   22.0825 H   0  0  0  0  0  0  0  0  0  0  0  0
   21.0889   16.9843   20.4240 H   0  0  0  0  0  0  0  0  0  0  0  0
  1  2  1  0  0  0  0
  1  3  2  0  0  0  0
  1  4  1  0  0  0  0
  4  5  1  0  0  0  0
  4  6  1  0  0  0  0
  4  7  1  0  0  0  0
  7  8  1  0  0  0  0
  7  9  1  0  0  0  0
  7 10  1  0  0  0  0
 10 11  1  0  0  0  0
 10 12  1  0  0  0  0
 10 13  1  0  0  0  0
 13 14  1  0  0  0  0
 13 15  1  0  0  0  0
 13 16  1  0  0  0  0
 16 17  1  0  0  0  0
 16 18  1  0  0  0  0
 16 19  1  0  0  0  0
 19 20  1  0  0  0  0
 19 21  1  0  0  0  0
 19 22  1  0  0  0  0
 22 23  1  0  0  0  0
 22 24  1  0  0  0  0
 22 25  1  0  0  0  0
M  END
> <VM2 Rank>
118

> <Conf_Id>
526

> <Probability>
0.01

> <Sum Probability>
99.80

> <Delta G>
4.716

> <G>
-3.247

> <E>
-28.057

> <-TS>
24.811

> <U+W>
-48.625

> <U>
10.664

> <W>
-59.289

> <W(PB)>
-61.723

> <W(SA)>
2.435

> <Valence>
11.013

> <Coulomb>
-1.402

> <VdW>
1.052

> <VdW6>
-9.992

> <VdW12>
11.045

> <Bond>
0.241

> <Angle>
3.227

> <Pdih>
7.544

> <Idih>
0.001

> <Tether>
0.000

$$$$
VeraChem MOL file


 25 24  0  0  0  0  0  0  0  0999 V2000     
   20.7646   19.1363   26.4896 C   0  0  0  0  0  0  0  0  0  0  0  0
   21.7080   19.8860   26.3306 O   0  5  0  0  0  0  0  0  0  0  0  0
   20.8799   17.9357   26.6409 O   0  0  0  0  0  0  0  0  0  0  0  0
   19.3669   19.7468   26.5747 C   0  0  0  0  0  0  0  0  0  0  0  0
   19.4463   20.8355   26.4688 H   0  0  0  0  0  0  0  0  0  0  0  0
   19.0089   19.5559   27.5929 H   0  0  0  0  0  0  0  0  0  0  0  0
   18.3331   19.1810   25.5607 C   0  0  0  0  0  0  0  0  0  0  0  0
   18.4076   18.0853   25.5219 H   0  0  0  0  0  0  0  0  0  0  0  0
   17.3273   19.4017   25.9428 H   0  0  0  0  0  0  0  0  0  0  0  0
   18.4348   19.7708   24.1321 C   0  0  0  0  0  0  0  0  0  0  0  0
   18.3449   20.8648   24.1768 H   0  0  0  0  0  0  0  0  0  0  0  0
   17.5727   19.4136   23.5523 H   0  0  0  0  0  0  0  0  0  0  0  0
   19.7304   19.3861   23.3821 C   0  0  0  0  0  0  0  0  0  0  0  0
   20.5960   19.8494   23.8720 H   0  0  0  0  0  0  0  0  0  0  0  0
   19.8712   18.2989   23.4378 H   0  0  0  0  0  0  0  0  0  0  0  0
   19.6885   19.8387   21.9040 C   0  0  0  0  0  0  0  0  0  0  0  0
   19.4717   20.9151   21.8666 H   0  0  0  0  0  0  0  0  0  0  0  0
   18.8607   19.3360   21.3856 H   0  0  0  0  0  0  0  0  0  0  0  0
   21.0094   19.5767   21.1435 C   0  0  0  0  0  0  0  0  0  0  0  0
   20.9371   20.0288   20.1447 H   0  0  0  0  0  0  0  0  0  0  0  0
   21.8385   20.0849   21.6551 H   0  0  0  0  0  0  0  0  0  0  0  0
   21.3375   18.0759   20.9879 C   0  0  0  0  0  0  0  0  0  0  0  0
   20.5091   17.5403   20.5062 H   0  0  0  0  0  0  0  0  0  0  0  0
   22.2334   17.9410   20.3683 H   0  0  0  0  0  0  0  0  0  0  0  0
   21.5326   17.6062   21.9602 H   0  0  0  0  0  0  0  0  0  0  0  0
  1  2  1  0  0  0  0
  1  3  2  0  0  0  0
  1  4  1  0  0  0  0
  4  5  1  0  0  0  0
  4  6  1  0  0  0  0
  4  7  1  0  0  0  0
  7  8  1  0  0  0  0
  7  9  1  0  0  0  0
  7 10  1  0  0  0  0
 10 11  1  0  0  0  0
 10 12  1  0  0  0  0
 10 13  1  0  0  0  0
 13 14  1  0  0  0  0
 13 15  1  0  0  0  0
 13 16  1  0  0  0  0
 16 17  1  0  0  0  0
 16 18  1  0  0  0  0
 16 19  1  0  0  0  0
 19 20  1  0  0  0  0
 19 21  1  0  0  0  0
 19 22  1  0  0  0  0
 22 23  1  0  0  0  0
 22 24  1  0  0  0  0
 22 25  1  0  0  0  0
M  END
> <VM2 Rank>
119

> <Conf_Id>
228

> <Probability>
0.01

> <Sum Probability>
99.80

> <Delta G>
4.775

> <G>
-3.187

> <E>
-28.329

> <-TS>
25.142

> <U+W>
-48.897

> <U>
12.313

> <W>
-61.210

> <W(PB)>
-63.637

> <W(SA)>
2.427

> <Valence>
9.950

> <Coulomb>
1.612

> <VdW>
0.751

> <VdW6>
-10.688

> <VdW12>
11.439

> <Bond>
0.232

> <Angle>
3.418

> <Pdih>
6.293

> <Idih>
0.007

> <Tether>
0.000

$$$$
VeraChem MOL file


 25 24  0  0  0  0  0  0  0  0999 V2000     
   19.9894   19.8884   27.0284 C   0  0  0  0  0  0  0  0  0  0  0  0
   21.0405   20.1379   27.5850 O   0  5  0  0  0  0  0  0  0  0  0  0
   18.9128   19.8881   27.5921 O   0  0  0  0  0  0  0  0  0  0  0  0
   20.0259   19.5331   25.5464 C   0  0  0  0  0  0  0  0  0  0  0  0
   20.8400   20.1058   25.0883 H   0  0  0  0  0  0  0  0  0  0  0  0
   19.0872   19.8710   25.0915 H   0  0  0  0  0  0  0  0  0  0  0  0
   20.2269   18.0169   25.2975 C   0  0  0  0  0  0  0  0  0  0  0  0
   21.2065   17.7120   25.6908 H   0  0  0  0  0  0  0  0  0  0  0  0
   19.4766   17.4625   25.8781 H   0  0  0  0  0  0  0  0  0  0  0  0
   20.1080   17.5952   23.8114 C   0  0  0  0  0  0  0  0  0  0  0  0
   19.0967   17.8103   23.4451 H   0  0  0  0  0  0  0  0  0  0  0  0
   20.2130   16.5026   23.7686 H   0  0  0  0  0  0  0  0  0  0  0  0
   21.1802   18.2183   22.8781 C   0  0  0  0  0  0  0  0  0  0  0  0
   22.0891   18.4298   23.4577 H   0  0  0  0  0  0  0  0  0  0  0  0
   21.4757   17.4721   22.1281 H   0  0  0  0  0  0  0  0  0  0  0  0
   20.7308   19.5026   22.1357 C   0  0  0  0  0  0  0  0  0  0  0  0
   21.6178   19.9731   21.6902 H   0  0  0  0  0  0  0  0  0  0  0  0
   20.3190   20.2314   22.8437 H   0  0  0  0  0  0  0  0  0  0  0  0
   19.7013   19.2306   21.0148 C   0  0  0  0  0  0  0  0  0  0  0  0
   20.1103   18.4967   20.3068 H   0  0  0  0  0  0  0  0  0  0  0  0
   18.7867   18.7921   21.4342 H   0  0  0  0  0  0  0  0  0  0  0  0
   19.3371   20.5230   20.2565 C   0  0  0  0  0  0  0  0  0  0  0  0
   20.2253   20.9686   19.7896 H   0  0  0  0  0  0  0  0  0  0  0  0
   18.6068   20.3138   19.4641 H   0  0  0  0  0  0  0  0  0  0  0  0
   18.8974   21.2655   20.9353 H   0  0  0  0  0  0  0  0  0  0  0  0
  1  2  1  0  0  0  0
  1  3  2  0  0  0  0
  1  4  1  0  0  0  0
  4  5  1  0  0  0  0
  4  6  1  0  0  0  0
  4  7  1  0  0  0  0
  7  8  1  0  0  0  0
  7  9  1  0  0  0  0
  7 10  1  0  0  0  0
 10 11  1  0  0  0  0
 10 12  1  0  0  0  0
 10 13  1  0  0  0  0
 13 14  1  0  0  0  0
 13 15  1  0  0  0  0
 13 16  1  0  0  0  0
 16 17  1  0  0  0  0
 16 18  1  0  0  0  0
 16 19  1  0  0  0  0
 19 20  1  0  0  0  0
 19 21  1  0  0  0  0
 19 22  1  0  0  0  0
 22 23  1  0  0  0  0
 22 24  1  0  0  0  0
 22 25  1  0  0  0  0
M  END
> <VM2 Rank>
120

> <Conf_Id>
1082

> <Probability>
0.01

> <Sum Probability>
99.81

> <Delta G>
4.779

> <G>
-3.183

> <E>
-28.034

> <-TS>
24.851

> <U+W>
-48.602

> <U>
10.987

> <W>
-59.589

> <W(PB)>
-62.018

> <W(SA)>
2.430

> <Valence>
11.268

> <Coulomb>
-1.344

> <VdW>
1.063

> <VdW6>
-9.930

> <VdW12>
10.993

> <Bond>
0.245

> <Angle>
3.252

> <Pdih>
7.769

> <Idih>
0.001

> <Tether>
0.000

$$$$
VeraChem MOL file


 25 24  0  0  0  0  0  0  0  0999 V2000     
   20.2857   19.3835   27.4307 C   0  0  0  0  0  0  0  0  0  0  0  0
   21.3736   19.8512   27.7034 O   0  5  0  0  0  0  0  0  0  0  0  0
   19.6245   18.7209   28.2056 O   0  0  0  0  0  0  0  0  0  0  0  0
   19.7296   19.6218   26.0314 C   0  0  0  0  0  0  0  0  0  0  0  0
   20.0731   20.6082   25.7000 H   0  0  0  0  0  0  0  0  0  0  0  0
   18.6362   19.6641   26.1025 H   0  0  0  0  0  0  0  0  0  0  0  0
   20.1582   18.5258   25.0213 C   0  0  0  0  0  0  0  0  0  0  0  0
   21.2526   18.5244   24.9241 H   0  0  0  0  0  0  0  0  0  0  0  0
   19.8819   17.5433   25.4284 H   0  0  0  0  0  0  0  0  0  0  0  0
   19.5109   18.6835   23.6248 C   0  0  0  0  0  0  0  0  0  0  0  0
   18.4170   18.6674   23.7243 H   0  0  0  0  0  0  0  0  0  0  0  0
   19.7746   17.8068   23.0214 H   0  0  0  0  0  0  0  0  0  0  0  0
   19.9443   19.9760   22.8893 C   0  0  0  0  0  0  0  0  0  0  0  0
   19.5607   20.8407   23.4460 H   0  0  0  0  0  0  0  0  0  0  0  0
   21.0388   20.0688   22.8921 H   0  0  0  0  0  0  0  0  0  0  0  0
   19.4079   20.0612   21.4376 C   0  0  0  0  0  0  0  0  0  0  0  0
   19.1539   21.1093   21.2280 H   0  0  0  0  0  0  0  0  0  0  0  0
   18.4667   19.5021   21.3456 H   0  0  0  0  0  0  0  0  0  0  0  0
   20.4106   19.5988   20.3514 C   0  0  0  0  0  0  0  0  0  0  0  0
   19.9635   19.7789   19.3641 H   0  0  0  0  0  0  0  0  0  0  0  0
   21.3150   20.2212   20.3971 H   0  0  0  0  0  0  0  0  0  0  0  0
   20.8078   18.1112   20.4505 C   0  0  0  0  0  0  0  0  0  0  0  0
   19.9196   17.4663   20.4611 H   0  0  0  0  0  0  0  0  0  0  0  0
   21.4268   17.8211   19.5917 H   0  0  0  0  0  0  0  0  0  0  0  0
   21.3911   17.9171   21.3593 H   0  0  0  0  0  0  0  0  0  0  0  0
  1  2  1  0  0  0  0
  1  3  2  0  0  0  0
  1  4  1  0  0  0  0
  4  5  1  0  0  0  0
  4  6  1  0  0  0  0
  4  7  1  0  0  0  0
  7  8  1  0  0  0  0
  7  9  1  0  0  0  0
  7 10  1  0  0  0  0
 10 11  1  0  0  0  0
 10 12  1  0  0  0  0
 10 13  1  0  0  0  0
 13 14  1  0  0  0  0
 13 15  1  0  0  0  0
 13 16  1  0  0  0  0
 16 17  1  0  0  0  0
 16 18  1  0  0  0  0
 16 19  1  0  0  0  0
 19 20  1  0  0  0  0
 19 21  1  0  0  0  0
 19 22  1  0  0  0  0
 22 23  1  0  0  0  0
 22 24  1  0  0  0  0
 22 25  1  0  0  0  0
M  END
> <VM2 Rank>
121

> <Conf_Id>
148

> <Probability>
0.01

> <Sum Probability>
99.82

> <Delta G>
4.780

> <G>
-3.182

> <E>
-28.064

> <-TS>
24.881

> <U+W>
-48.631

> <U>
10.553

> <W>
-59.185

> <W(PB)>
-61.627

> <W(SA)>
2.443

> <Valence>
11.068

> <Coulomb>
-1.642

> <VdW>
1.127

> <VdW6>
-9.885

> <VdW12>
11.012

> <Bond>
0.238

> <Angle>
3.177

> <Pdih>
7.653

> <Idih>
0.001

> <Tether>
0.000

$$$$
VeraChem MOL file


 25 24  0  0  0  0  0  0  0  0999 V2000     
   20.2417   19.9045   27.0255 C   0  0  0  0  0  0  0  0  0  0  0  0
   21.3222   20.0422   27.5643 O   0  5  0  0  0  0  0  0  0  0  0  0
   19.1805   20.0189   27.6065 O   0  0  0  0  0  0  0  0  0  0  0  0
   20.2167   19.5453   25.5443 C   0  0  0  0  0  0  0  0  0  0  0  0
   21.0941   19.9993   25.0684 H   0  0  0  0  0  0  0  0  0  0  0  0
   19.3261   20.0091   25.1058 H   0  0  0  0  0  0  0  0  0  0  0  0
   20.2045   18.0155   25.2978 C   0  0  0  0  0  0  0  0  0  0  0  0
   21.0324   17.5619   25.8602 H   0  0  0  0  0  0  0  0  0  0  0  0
   19.2810   17.5890   25.7130 H   0  0  0  0  0  0  0  0  0  0  0  0
   20.3419   17.6102   23.8087 C   0  0  0  0  0  0  0  0  0  0  0  0
   20.3760   16.5130   23.7667 H   0  0  0  0  0  0  0  0  0  0  0  0
   21.3090   17.9518   23.4195 H   0  0  0  0  0  0  0  0  0  0  0  0
   19.1780   18.0904   22.9013 C   0  0  0  0  0  0  0  0  0  0  0  0
   18.9627   17.3114   22.1571 H   0  0  0  0  0  0  0  0  0  0  0  0
   18.2632   18.1853   23.5020 H   0  0  0  0  0  0  0  0  0  0  0  0
   19.4431   19.4202   22.1505 C   0  0  0  0  0  0  0  0  0  0  0  0
   19.7749   20.1966   22.8499 H   0  0  0  0  0  0  0  0  0  0  0  0
   18.4934   19.7734   21.7262 H   0  0  0  0  0  0  0  0  0  0  0  0
   20.4727   19.2799   21.0059 C   0  0  0  0  0  0  0  0  0  0  0  0
   21.4451   18.9620   21.4034 H   0  0  0  0  0  0  0  0  0  0  0  0
   20.1443   18.4988   20.3064 H   0  0  0  0  0  0  0  0  0  0  0  0
   20.6518   20.6070   20.2412 C   0  0  0  0  0  0  0  0  0  0  0  0
   21.0091   21.4004   20.9108 H   0  0  0  0  0  0  0  0  0  0  0  0
   21.3843   20.4913   19.4318 H   0  0  0  0  0  0  0  0  0  0  0  0
   19.7036   20.9353   19.7957 H   0  0  0  0  0  0  0  0  0  0  0  0
  1  2  1  0  0  0  0
  1  3  2  0  0  0  0
  1  4  1  0  0  0  0
  4  5  1  0  0  0  0
  4  6  1  0  0  0  0
  4  7  1  0  0  0  0
  7  8  1  0  0  0  0
  7  9  1  0  0  0  0
  7 10  1  0  0  0  0
 10 11  1  0  0  0  0
 10 12  1  0  0  0  0
 10 13  1  0  0  0  0
 13 14  1  0  0  0  0
 13 15  1  0  0  0  0
 13 16  1  0  0  0  0
 16 17  1  0  0  0  0
 16 18  1  0  0  0  0
 16 19  1  0  0  0  0
 19 20  1  0  0  0  0
 19 21  1  0  0  0  0
 19 22  1  0  0  0  0
 22 23  1  0  0  0  0
 22 24  1  0  0  0  0
 22 25  1  0  0  0  0
M  END
> <VM2 Rank>
122

> <Conf_Id>
1309

> <Probability>
0.01

> <Sum Probability>
99.83

> <Delta G>
4.784

> <G>
-3.178

> <E>
-28.029

> <-TS>
24.851

> <U+W>
-48.596

> <U>
10.987

> <W>
-59.583

> <W(PB)>
-62.028

> <W(SA)>
2.445

> <Valence>
11.268

> <Coulomb>
-1.344

> <VdW>
1.063

> <VdW6>
-9.930

> <VdW12>
10.992

> <Bond>
0.245

> <Angle>
3.252

> <Pdih>
7.770

> <Idih>
0.001

> <Tether>
0.000

$$$$
VeraChem MOL file


 25 24  0  0  0  0  0  0  0  0999 V2000     
   20.0214   19.3667   27.4337 C   0  0  0  0  0  0  0  0  0  0  0  0
   20.7788   18.7944   28.1923 O   0  5  0  0  0  0  0  0  0  0  0  0
   18.8895   19.6932   27.7320 O   0  0  0  0  0  0  0  0  0  0  0  0
   20.5106   19.6715   26.0224 C   0  0  0  0  0  0  0  0  0  0  0  0
   21.5911   19.8521   26.0684 H   0  0  0  0  0  0  0  0  0  0  0  0
   20.0373   20.6059   25.7004 H   0  0  0  0  0  0  0  0  0  0  0  0
   20.2012   18.5286   25.0208 C   0  0  0  0  0  0  0  0  0  0  0  0
   20.6089   17.5895   25.4200 H   0  0  0  0  0  0  0  0  0  0  0  0
   19.1138   18.3884   24.9488 H   0  0  0  0  0  0  0  0  0  0  0  0
   20.7910   18.7649   23.6100 C   0  0  0  0  0  0  0  0  0  0  0  0
   20.6267   17.8610   23.0116 H   0  0  0  0  0  0  0  0  0  0  0  0
   21.8801   18.8877   23.6843 H   0  0  0  0  0  0  0  0  0  0  0  0
   20.1806   19.9910   22.8866 C   0  0  0  0  0  0  0  0  0  0  0  0
   19.0835   19.9445   22.9147 H   0  0  0  0  0  0  0  0  0  0  0  0
   20.4643   20.8982   23.4355 H   0  0  0  0  0  0  0  0  0  0  0  0
   20.6683   20.1414   21.4230 C   0  0  0  0  0  0  0  0  0  0  0  0
   21.6703   19.7058   21.3085 H   0  0  0  0  0  0  0  0  0  0  0  0
   20.7825   21.2128   21.2091 H   0  0  0  0  0  0  0  0  0  0  0  0
   19.7074   19.5541   20.3596 C   0  0  0  0  0  0  0  0  0  0  0  0
   18.7329   20.0570   20.4270 H   0  0  0  0  0  0  0  0  0  0  0  0
   20.1053   19.7878   19.3625 H   0  0  0  0  0  0  0  0  0  0  0  0
   19.5042   18.0283   20.4656 C   0  0  0  0  0  0  0  0  0  0  0  0
   18.9713   17.7633   21.3874 H   0  0  0  0  0  0  0  0  0  0  0  0
   18.9073   17.6608   19.6210 H   0  0  0  0  0  0  0  0  0  0  0  0
   20.4669   17.5010   20.4549 H   0  0  0  0  0  0  0  0  0  0  0  0
  1  2  1  0  0  0  0
  1  3  2  0  0  0  0
  1  4  1  0  0  0  0
  4  5  1  0  0  0  0
  4  6  1  0  0  0  0
  4  7  1  0  0  0  0
  7  8  1  0  0  0  0
  7  9  1  0  0  0  0
  7 10  1  0  0  0  0
 10 11  1  0  0  0  0
 10 12  1  0  0  0  0
 10 13  1  0  0  0  0
 13 14  1  0  0  0  0
 13 15  1  0  0  0  0
 13 16  1  0  0  0  0
 16 17  1  0  0  0  0
 16 18  1  0  0  0  0
 16 19  1  0  0  0  0
 19 20  1  0  0  0  0
 19 21  1  0  0  0  0
 19 22  1  0  0  0  0
 22 23  1  0  0  0  0
 22 24  1  0  0  0  0
 22 25  1  0  0  0  0
M  END
> <VM2 Rank>
123

> <Conf_Id>
504

> <Probability>
0.01

> <Sum Probability>
99.83

> <Delta G>
4.792

> <G>
-3.170

> <E>
-28.052

> <-TS>
24.882

> <U+W>
-48.619

> <U>
10.553

> <W>
-59.173

> <W(PB)>
-61.592

> <W(SA)>
2.420

> <Valence>
11.068

> <Coulomb>
-1.642

> <VdW>
1.127

> <VdW6>
-9.885

> <VdW12>
11.012

> <Bond>
0.238

> <Angle>
3.177

> <Pdih>
7.652

> <Idih>
0.001

> <Tether>
0.000

$$$$
VeraChem MOL file


 25 24  0  0  0  0  0  0  0  0999 V2000     
   20.4117   19.7746   27.0202 C   0  0  0  0  0  0  0  0  0  0  0  0
   21.4264   20.4158   26.8306 O   0  5  0  0  0  0  0  0  0  0  0  0
   20.0739   19.3555   28.1097 O   0  0  0  0  0  0  0  0  0  0  0  0
   19.5239   19.4602   25.8216 C   0  0  0  0  0  0  0  0  0  0  0  0
   19.6030   20.2952   25.1186 H   0  0  0  0  0  0  0  0  0  0  0  0
   18.4844   19.4325   26.1691 H   0  0  0  0  0  0  0  0  0  0  0  0
   19.8923   18.1165   25.1387 C   0  0  0  0  0  0  0  0  0  0  0  0
   20.9502   18.1206   24.8415 H   0  0  0  0  0  0  0  0  0  0  0  0
   19.7884   17.3182   25.8867 H   0  0  0  0  0  0  0  0  0  0  0  0
   18.9947   17.7749   23.9222 C   0  0  0  0  0  0  0  0  0  0  0  0
   17.9929   18.2059   24.0543 H   0  0  0  0  0  0  0  0  0  0  0  0
   18.8502   16.6861   23.8998 H   0  0  0  0  0  0  0  0  0  0  0  0
   19.5789   18.1943   22.5498 C   0  0  0  0  0  0  0  0  0  0  0  0
   20.5379   17.6821   22.3973 H   0  0  0  0  0  0  0  0  0  0  0  0
   18.9050   17.8302   21.7624 H   0  0  0  0  0  0  0  0  0  0  0  0
   19.7701   19.7201   22.3803 C   0  0  0  0  0  0  0  0  0  0  0  0
   20.5662   20.0710   23.0498 H   0  0  0  0  0  0  0  0  0  0  0  0
   18.8481   20.2339   22.6842 H   0  0  0  0  0  0  0  0  0  0  0  0
   20.1118   20.1365   20.9307 C   0  0  0  0  0  0  0  0  0  0  0  0
   19.3135   19.8066   20.2516 H   0  0  0  0  0  0  0  0  0  0  0  0
   20.1333   21.2335   20.8744 H   0  0  0  0  0  0  0  0  0  0  0  0
   21.4692   19.5857   20.4424 C   0  0  0  0  0  0  0  0  0  0  0  0
   21.4568   18.4904   20.3785 H   0  0  0  0  0  0  0  0  0  0  0  0
   21.7048   19.9747   19.4434 H   0  0  0  0  0  0  0  0  0  0  0  0
   22.2800   19.8820   21.1206 H   0  0  0  0  0  0  0  0  0  0  0  0
  1  2  1  0  0  0  0
  1  3  2  0  0  0  0
  1  4  1  0  0  0  0
  4  5  1  0  0  0  0
  4  6  1  0  0  0  0
  4  7  1  0  0  0  0
  7  8  1  0  0  0  0
  7  9  1  0  0  0  0
  7 10  1  0  0  0  0
 10 11  1  0  0  0  0
 10 12  1  0  0  0  0
 10 13  1  0  0  0  0
 13 14  1  0  0  0  0
 13 15  1  0  0  0  0
 13 16  1  0  0  0  0
 16 17  1  0  0  0  0
 16 18  1  0  0  0  0
 16 19  1  0  0  0  0
 19 20  1  0  0  0  0
 19 21  1  0  0  0  0
 19 22  1  0  0  0  0
 22 23  1  0  0  0  0
 22 24  1  0  0  0  0
 22 25  1  0  0  0  0
M  END
> <VM2 Rank>
124

> <Conf_Id>
173

> <Probability>
0.01

> <Sum Probability>
99.84

> <Delta G>
4.799

> <G>
-3.163

> <E>
-28.071

> <-TS>
24.908

> <U+W>
-48.639

> <U>
10.997

> <W>
-59.636

> <W(PB)>
-62.078

> <W(SA)>
2.442

> <Valence>
10.985

> <Coulomb>
-0.994

> <VdW>
1.006

> <VdW6>
-10.062

> <VdW12>
11.068

> <Bond>
0.238

> <Angle>
3.202

> <Pdih>
7.544

> <Idih>
0.001

> <Tether>
0.000

$$$$
VeraChem MOL file


 25 24  0  0  0  0  0  0  0  0999 V2000     
   20.2127   19.2623   27.4701 C   0  0  0  0  0  0  0  0  0  0  0  0
   21.2762   19.2319   28.0573 O   0  5  0  0  0  0  0  0  0  0  0  0
   19.1798   19.6638   27.9687 O   0  0  0  0  0  0  0  0  0  0  0  0
   20.1773   18.7919   26.0204 C   0  0  0  0  0  0  0  0  0  0  0  0
   19.1957   18.3393   25.8420 H   0  0  0  0  0  0  0  0  0  0  0  0
   20.9273   18.0008   25.9016 H   0  0  0  0  0  0  0  0  0  0  0  0
   20.4454   19.9392   25.0116 C   0  0  0  0  0  0  0  0  0  0  0  0
   19.6615   20.7033   25.1057 H   0  0  0  0  0  0  0  0  0  0  0  0
   21.3904   20.4300   25.2830 H   0  0  0  0  0  0  0  0  0  0  0  0
   20.5409   19.4646   23.5417 C   0  0  0  0  0  0  0  0  0  0  0  0
   21.3077   18.6830   23.4546 H   0  0  0  0  0  0  0  0  0  0  0  0
   20.8836   20.3129   22.9360 H   0  0  0  0  0  0  0  0  0  0  0  0
   19.1979   18.9491   22.9716 C   0  0  0  0  0  0  0  0  0  0  0  0
   18.8127   18.1444   23.6101 H   0  0  0  0  0  0  0  0  0  0  0  0
   18.4530   19.7556   23.0083 H   0  0  0  0  0  0  0  0  0  0  0  0
   19.2908   18.4004   21.5253 C   0  0  0  0  0  0  0  0  0  0  0  0
   18.2977   18.0175   21.2533 H   0  0  0  0  0  0  0  0  0  0  0  0
   19.9631   17.5320   21.4951 H   0  0  0  0  0  0  0  0  0  0  0  0
   19.7130   19.4434   20.4604 C   0  0  0  0  0  0  0  0  0  0  0  0
   19.1482   19.2521   19.5375 H   0  0  0  0  0  0  0  0  0  0  0  0
   19.4330   20.4550   20.7851 H   0  0  0  0  0  0  0  0  0  0  0  0
   21.2189   19.3874   20.1189 C   0  0  0  0  0  0  0  0  0  0  0  0
   21.4915   18.4023   19.7186 H   0  0  0  0  0  0  0  0  0  0  0  0
   21.4686   20.1391   19.3590 H   0  0  0  0  0  0  0  0  0  0  0  0
   21.8443   19.5792   20.9982 H   0  0  0  0  0  0  0  0  0  0  0  0
  1  2  1  0  0  0  0
  1  3  2  0  0  0  0
  1  4  1  0  0  0  0
  4  5  1  0  0  0  0
  4  6  1  0  0  0  0
  4  7  1  0  0  0  0
  7  8  1  0  0  0  0
  7  9  1  0  0  0  0
  7 10  1  0  0  0  0
 10 11  1  0  0  0  0
 10 12  1  0  0  0  0
 10 13  1  0  0  0  0
 13 14  1  0  0  0  0
 13 15  1  0  0  0  0
 13 16  1  0  0  0  0
 16 17  1  0  0  0  0
 16 18  1  0  0  0  0
 16 19  1  0  0  0  0
 19 20  1  0  0  0  0
 19 21  1  0  0  0  0
 19 22  1  0  0  0  0
 22 23  1  0  0  0  0
 22 24  1  0  0  0  0
 22 25  1  0  0  0  0
M  END
> <VM2 Rank>
125

> <Conf_Id>
563

> <Probability>
0.01

> <Sum Probability>
99.85

> <Delta G>
4.856

> <G>
-3.107

> <E>
-27.896

> <-TS>
24.790

> <U+W>
-48.464

> <U>
10.617

> <W>
-59.081

> <W(PB)>
-61.515

> <W(SA)>
2.434

> <Valence>
11.188

> <Coulomb>
-1.778

> <VdW>
1.208

> <VdW6>
-9.786

> <VdW12>
10.993

> <Bond>
0.241

> <Angle>
3.293

> <Pdih>
7.653

> <Idih>
0.001

> <Tether>
0.000

$$$$
VeraChem MOL file


 25 24  0  0  0  0  0  0  0  0999 V2000     
   20.1047   19.8260   27.1022 C   0  0  0  0  0  0  0  0  0  0  0  0
   20.5148   19.3711   28.1519 O   0  5  0  0  0  0  0  0  0  0  0  0
   19.1677   20.5955   27.0222 O   0  0  0  0  0  0  0  0  0  0  0  0
   20.7903   19.3899   25.8125 C   0  0  0  0  0  0  0  0  0  0  0  0
   21.8516   19.2245   26.0330 H   0  0  0  0  0  0  0  0  0  0  0  0
   20.7387   20.2242   25.1060 H   0  0  0  0  0  0  0  0  0  0  0  0
   20.1672   18.1044   25.2067 C   0  0  0  0  0  0  0  0  0  0  0  0
   20.2724   17.2972   25.9448 H   0  0  0  0  0  0  0  0  0  0  0  0
   19.0873   18.2411   25.0563 H   0  0  0  0  0  0  0  0  0  0  0  0
   20.8419   17.6601   23.8840 C   0  0  0  0  0  0  0  0  0  0  0  0
   20.8815   16.5622   23.8723 H   0  0  0  0  0  0  0  0  0  0  0  0
   21.8875   17.9961   23.8580 H   0  0  0  0  0  0  0  0  0  0  0  0
   20.1070   18.1134   22.5973 C   0  0  0  0  0  0  0  0  0  0  0  0
   20.6349   17.6790   21.7392 H   0  0  0  0  0  0  0  0  0  0  0  0
   19.0953   17.6857   22.5857 H   0  0  0  0  0  0  0  0  0  0  0  0
   20.0160   19.6486   22.4244 C   0  0  0  0  0  0  0  0  0  0  0  0
   21.0184   20.0920   22.4951 H   0  0  0  0  0  0  0  0  0  0  0  0
   19.4247   20.0670   23.2489 H   0  0  0  0  0  0  0  0  0  0  0  0
   19.3499   20.0806   21.0970 C   0  0  0  0  0  0  0  0  0  0  0  0
   18.3577   19.6165   21.0107 H   0  0  0  0  0  0  0  0  0  0  0  0
   19.1825   21.1661   21.1258 H   0  0  0  0  0  0  0  0  0  0  0  0
   20.1935   19.7445   19.8478 C   0  0  0  0  0  0  0  0  0  0  0  0
   19.7238   20.1576   18.9457 H   0  0  0  0  0  0  0  0  0  0  0  0
   21.2019   20.1707   19.9284 H   0  0  0  0  0  0  0  0  0  0  0  0
   20.2876   18.6610   19.7051 H   0  0  0  0  0  0  0  0  0  0  0  0
  1  2  1  0  0  0  0
  1  3  2  0  0  0  0
  1  4  1  0  0  0  0
  4  5  1  0  0  0  0
  4  6  1  0  0  0  0
  4  7  1  0  0  0  0
  7  8  1  0  0  0  0
  7  9  1  0  0  0  0
  7 10  1  0  0  0  0
 10 11  1  0  0  0  0
 10 12  1  0  0  0  0
 10 13  1  0  0  0  0
 13 14  1  0  0  0  0
 13 15  1  0  0  0  0
 13 16  1  0  0  0  0
 16 17  1  0  0  0  0
 16 18  1  0  0  0  0
 16 19  1  0  0  0  0
 19 20  1  0  0  0  0
 19 21  1  0  0  0  0
 19 22  1  0  0  0  0
 22 23  1  0  0  0  0
 22 24  1  0  0  0  0
 22 25  1  0  0  0  0
M  END
> <VM2 Rank>
126

> <Conf_Id>
285

> <Probability>
0.01

> <Sum Probability>
99.86

> <Delta G>
4.871

> <G>
-3.091

> <E>
-27.945

> <-TS>
24.853

> <U+W>
-48.512

> <U>
10.982

> <W>
-59.494

> <W(PB)>
-61.921

> <W(SA)>
2.427

> <Valence>
11.160

> <Coulomb>
-1.272

> <VdW>
1.094

> <VdW6>
-9.961

> <VdW12>
11.055

> <Bond>
0.244

> <Angle>
3.277

> <Pdih>
7.638

> <Idih>
0.001

> <Tether>
0.000

$$$$
VeraChem MOL file


 25 24  0  0  0  0  0  0  0  0999 V2000     
   20.2472   19.3778   27.4665 C   0  0  0  0  0  0  0  0  0  0  0  0
   21.1630   18.8534   28.0691 O   0  5  0  0  0  0  0  0  0  0  0  0
   19.1717   19.6371   27.9694 O   0  0  0  0  0  0  0  0  0  0  0  0
   20.4509   19.7072   25.9920 C   0  0  0  0  0  0  0  0  0  0  0  0
   21.5096   19.9495   25.8412 H   0  0  0  0  0  0  0  0  0  0  0  0
   19.8751   20.6127   25.7715 H   0  0  0  0  0  0  0  0  0  0  0  0
   20.0291   18.5454   25.0549 C   0  0  0  0  0  0  0  0  0  0  0  0
   20.5549   17.6334   25.3698 H   0  0  0  0  0  0  0  0  0  0  0  0
   18.9564   18.3428   25.1789 H   0  0  0  0  0  0  0  0  0  0  0  0
   20.3441   18.8055   23.5622 C   0  0  0  0  0  0  0  0  0  0  0  0
   20.1554   17.8753   23.0116 H   0  0  0  0  0  0  0  0  0  0  0  0
   21.4123   19.0324   23.4438 H   0  0  0  0  0  0  0  0  0  0  0  0
   19.4940   19.9394   22.9409 C   0  0  0  0  0  0  0  0  0  0  0  0
   18.4296   19.6769   23.0109 H   0  0  0  0  0  0  0  0  0  0  0  0
   19.6239   20.8583   23.5258 H   0  0  0  0  0  0  0  0  0  0  0  0
   19.8478   20.2638   21.4675 C   0  0  0  0  0  0  0  0  0  0  0  0
   20.8854   20.6180   21.3992 H   0  0  0  0  0  0  0  0  0  0  0  0
   19.2227   21.1123   21.1573 H   0  0  0  0  0  0  0  0  0  0  0  0
   19.6107   19.1015   20.4710 C   0  0  0  0  0  0  0  0  0  0  0  0
   18.8275   18.4295   20.8481 H   0  0  0  0  0  0  0  0  0  0  0  0
   19.2275   19.5182   19.5293 H   0  0  0  0  0  0  0  0  0  0  0  0
   20.8946   18.3031   20.1524 C   0  0  0  0  0  0  0  0  0  0  0  0
   20.6783   17.4958   19.4410 H   0  0  0  0  0  0  0  0  0  0  0  0
   21.6559   18.9528   19.7014 H   0  0  0  0  0  0  0  0  0  0  0  0
   21.3274   17.8502   21.0517 H   0  0  0  0  0  0  0  0  0  0  0  0
  1  2  1  0  0  0  0
  1  3  2  0  0  0  0
  1  4  1  0  0  0  0
  4  5  1  0  0  0  0
  4  6  1  0  0  0  0
  4  7  1  0  0  0  0
  7  8  1  0  0  0  0
  7  9  1  0  0  0  0
  7 10  1  0  0  0  0
 10 11  1  0  0  0  0
 10 12  1  0  0  0  0
 10 13  1  0  0  0  0
 13 14  1  0  0  0  0
 13 15  1  0  0  0  0
 13 16  1  0  0  0  0
 16 17  1  0  0  0  0
 16 18  1  0  0  0  0
 16 19  1  0  0  0  0
 19 20  1  0  0  0  0
 19 21  1  0  0  0  0
 19 22  1  0  0  0  0
 22 23  1  0  0  0  0
 22 24  1  0  0  0  0
 22 25  1  0  0  0  0
M  END
> <VM2 Rank>
127

> <Conf_Id>
1318

> <Probability>
0.01

> <Sum Probability>
99.86

> <Delta G>
4.875

> <G>
-3.088

> <E>
-27.878

> <-TS>
24.790

> <U+W>
-48.445

> <U>
10.617

> <W>
-59.063

> <W(PB)>
-61.494

> <W(SA)>
2.432

> <Valence>
11.187

> <Coulomb>
-1.778

> <VdW>
1.208

> <VdW6>
-9.786

> <VdW12>
10.994

> <Bond>
0.241

> <Angle>
3.294

> <Pdih>
7.653

> <Idih>
0.001

> <Tether>
0.000

$$$$
VeraChem MOL file


 25 24  0  0  0  0  0  0  0  0999 V2000     
   20.1249   19.7909   27.1376 C   0  0  0  0  0  0  0  0  0  0  0  0
   21.1586   20.3180   27.4987 O   0  5  0  0  0  0  0  0  0  0  0  0
   19.0203   20.2099   27.4220 O   0  0  0  0  0  0  0  0  0  0  0  0
   20.2192   18.5450   26.2640 C   0  0  0  0  0  0  0  0  0  0  0  0
   19.3583   17.9045   26.4898 H   0  0  0  0  0  0  0  0  0  0  0  0
   21.1204   17.9924   26.5555 H   0  0  0  0  0  0  0  0  0  0  0  0
   20.2583   18.8738   24.7513 C   0  0  0  0  0  0  0  0  0  0  0  0
   19.3556   19.4415   24.4901 H   0  0  0  0  0  0  0  0  0  0  0  0
   21.1211   19.5211   24.5420 H   0  0  0  0  0  0  0  0  0  0  0  0
   20.3422   17.5956   23.8873 C   0  0  0  0  0  0  0  0  0  0  0  0
   19.4359   16.9929   24.0367 H   0  0  0  0  0  0  0  0  0  0  0  0
   21.1823   16.9814   24.2393 H   0  0  0  0  0  0  0  0  0  0  0  0
   20.5382   17.8654   22.3744 C   0  0  0  0  0  0  0  0  0  0  0  0
   21.4908   18.3843   22.2107 H   0  0  0  0  0  0  0  0  0  0  0  0
   20.6413   16.8920   21.8759 H   0  0  0  0  0  0  0  0  0  0  0  0
   19.3685   18.6299   21.6989 C   0  0  0  0  0  0  0  0  0  0  0  0
   18.4369   18.4282   22.2450 H   0  0  0  0  0  0  0  0  0  0  0  0
   19.2137   18.2232   20.6902 H   0  0  0  0  0  0  0  0  0  0  0  0
   19.5766   20.1603   21.5789 C   0  0  0  0  0  0  0  0  0  0  0  0
   18.6229   20.6216   21.2879 H   0  0  0  0  0  0  0  0  0  0  0  0
   19.8427   20.5921   22.5514 H   0  0  0  0  0  0  0  0  0  0  0  0
   20.6462   20.5452   20.5329 C   0  0  0  0  0  0  0  0  0  0  0  0
   20.3970   20.1330   19.5465 H   0  0  0  0  0  0  0  0  0  0  0  0
   20.7112   21.6366   20.4350 H   0  0  0  0  0  0  0  0  0  0  0  0
   21.6397   20.1774   20.8167 H   0  0  0  0  0  0  0  0  0  0  0  0
  1  2  1  0  0  0  0
  1  3  2  0  0  0  0
  1  4  1  0  0  0  0
  4  5  1  0  0  0  0
  4  6  1  0  0  0  0
  4  7  1  0  0  0  0
  7  8  1  0  0  0  0
  7  9  1  0  0  0  0
  7 10  1  0  0  0  0
 10 11  1  0  0  0  0
 10 12  1  0  0  0  0
 10 13  1  0  0  0  0
 13 14  1  0  0  0  0
 13 15  1  0  0  0  0
 13 16  1  0  0  0  0
 16 17  1  0  0  0  0
 16 18  1  0  0  0  0
 16 19  1  0  0  0  0
 19 20  1  0  0  0  0
 19 21  1  0  0  0  0
 19 22  1  0  0  0  0
 22 23  1  0  0  0  0
 22 24  1  0  0  0  0
 22 25  1  0  0  0  0
M  END
> <VM2 Rank>
128

> <Conf_Id>
248

> <Probability>
0.01

> <Sum Probability>
99.87

> <Delta G>
4.878

> <G>
-3.084

> <E>
-27.937

> <-TS>
24.852

> <U+W>
-48.504

> <U>
11.373

> <W>
-59.878

> <W(PB)>
-62.302

> <W(SA)>
2.424

> <Valence>
11.258

> <Coulomb>
-0.951

> <VdW>
1.066

> <VdW6>
-9.862

> <VdW12>
10.928

> <Bond>
0.236

> <Angle>
3.227

> <Pdih>
7.794

> <Idih>
0.001

> <Tether>
0.000

$$$$
VeraChem MOL file


 25 24  0  0  0  0  0  0  0  0999 V2000     
   19.8523   19.7008   27.0971 C   0  0  0  0  0  0  0  0  0  0  0  0
   20.6512   19.8354   28.0029 O   0  5  0  0  0  0  0  0  0  0  0  0
   18.8359   20.3585   26.9927 O   0  0  0  0  0  0  0  0  0  0  0  0
   20.1529   18.6637   26.0209 C   0  0  0  0  0  0  0  0  0  0  0  0
   19.1964   18.2684   25.6621 H   0  0  0  0  0  0  0  0  0  0  0  0
   20.6902   17.8322   26.4923 H   0  0  0  0  0  0  0  0  0  0  0  0
   20.9866   19.2426   24.8477 C   0  0  0  0  0  0  0  0  0  0  0  0
   20.4382   20.0732   24.3870 H   0  0  0  0  0  0  0  0  0  0  0  0
   21.9103   19.6737   25.2579 H   0  0  0  0  0  0  0  0  0  0  0  0
   21.3668   18.1813   23.7842 C   0  0  0  0  0  0  0  0  0  0  0  0
   21.8141   17.3207   24.3001 H   0  0  0  0  0  0  0  0  0  0  0  0
   22.1579   18.5802   23.1348 H   0  0  0  0  0  0  0  0  0  0  0  0
   20.1846   17.6842   22.9101 C   0  0  0  0  0  0  0  0  0  0  0  0
   20.3411   16.6171   22.7016 H   0  0  0  0  0  0  0  0  0  0  0  0
   19.2376   17.7427   23.4605 H   0  0  0  0  0  0  0  0  0  0  0  0
   20.0423   18.4081   21.5476 C   0  0  0  0  0  0  0  0  0  0  0  0
   19.2363   17.9215   20.9817 H   0  0  0  0  0  0  0  0  0  0  0  0
   20.9597   18.2662   20.9602 H   0  0  0  0  0  0  0  0  0  0  0  0
   19.7336   19.9169   21.6614 C   0  0  0  0  0  0  0  0  0  0  0  0
   18.8678   20.0704   22.3202 H   0  0  0  0  0  0  0  0  0  0  0  0
   20.5854   20.4381   22.1174 H   0  0  0  0  0  0  0  0  0  0  0  0
   19.4465   20.5424   20.2814 C   0  0  0  0  0  0  0  0  0  0  0  0
   18.5757   20.0696   19.8087 H   0  0  0  0  0  0  0  0  0  0  0  0
   19.2374   21.6156   20.3794 H   0  0  0  0  0  0  0  0  0  0  0  0
   20.3075   20.4246   19.6104 H   0  0  0  0  0  0  0  0  0  0  0  0
  1  2  1  0  0  0  0
  1  3  2  0  0  0  0
  1  4  1  0  0  0  0
  4  5  1  0  0  0  0
  4  6  1  0  0  0  0
  4  7  1  0  0  0  0
  7  8  1  0  0  0  0
  7  9  1  0  0  0  0
  7 10  1  0  0  0  0
 10 11  1  0  0  0  0
 10 12  1  0  0  0  0
 10 13  1  0  0  0  0
 13 14  1  0  0  0  0
 13 15  1  0  0  0  0
 13 16  1  0  0  0  0
 16 17  1  0  0  0  0
 16 18  1  0  0  0  0
 16 19  1  0  0  0  0
 19 20  1  0  0  0  0
 19 21  1  0  0  0  0
 19 22  1  0  0  0  0
 22 23  1  0  0  0  0
 22 24  1  0  0  0  0
 22 25  1  0  0  0  0
M  END
> <VM2 Rank>
129

> <Conf_Id>
1232

> <Probability>
0.01

> <Sum Probability>
99.87

> <Delta G>
4.883

> <G>
-3.080

> <E>
-27.925

> <-TS>
24.845

> <U+W>
-48.492

> <U>
11.197

> <W>
-59.689

> <W(PB)>
-62.122

> <W(SA)>
2.433

> <Valence>
11.280

> <Coulomb>
-1.129

> <VdW>
1.046

> <VdW6>
-9.930

> <VdW12>
10.976

> <Bond>
0.250

> <Angle>
3.254

> <Pdih>
7.775

> <Idih>
0.001

> <Tether>
0.000

$$$$
VeraChem MOL file


 25 24  0  0  0  0  0  0  0  0999 V2000     
   20.1220   19.7907   27.1376 C   0  0  0  0  0  0  0  0  0  0  0  0
   21.1704   20.3475   27.3975 O   0  5  0  0  0  0  0  0  0  0  0  0
   19.0381   20.1822   27.5229 O   0  0  0  0  0  0  0  0  0  0  0  0
   20.1675   18.5417   26.2646 C   0  0  0  0  0  0  0  0  0  0  0  0
   19.3512   17.8790   26.5759 H   0  0  0  0  0  0  0  0  0  0  0  0
   21.1082   18.0166   26.4696 H   0  0  0  0  0  0  0  0  0  0  0  0
   20.0520   18.8605   24.7537 C   0  0  0  0  0  0  0  0  0  0  0  0
   19.1090   19.3921   24.5652 H   0  0  0  0  0  0  0  0  0  0  0  0
   20.8686   19.5384   24.4726 H   0  0  0  0  0  0  0  0  0  0  0  0
   20.1120   17.5808   23.8900 C   0  0  0  0  0  0  0  0  0  0  0  0
   19.3655   16.8649   24.2603 H   0  0  0  0  0  0  0  0  0  0  0  0
   21.0910   17.0990   24.0176 H   0  0  0  0  0  0  0  0  0  0  0  0
   19.8484   17.8212   22.3823 C   0  0  0  0  0  0  0  0  0  0  0  0
   19.8589   16.8418   21.8850 H   0  0  0  0  0  0  0  0  0  0  0  0
   18.8338   18.2140   22.2414 H   0  0  0  0  0  0  0  0  0  0  0  0
   20.8951   18.7277   21.6812 C   0  0  0  0  0  0  0  0  0  0  0  0
   21.0772   18.3427   20.6686 H   0  0  0  0  0  0  0  0  0  0  0  0
   21.8571   18.6474   22.2054 H   0  0  0  0  0  0  0  0  0  0  0  0
   20.4906   20.2189   21.5683 C   0  0  0  0  0  0  0  0  0  0  0  0
   20.1940   20.6146   22.5473 H   0  0  0  0  0  0  0  0  0  0  0  0
   21.3707   20.7977   21.2562 H   0  0  0  0  0  0  0  0  0  0  0  0
   19.3569   20.4626   20.5478 C   0  0  0  0  0  0  0  0  0  0  0  0
   18.4253   19.9713   20.8539 H   0  0  0  0  0  0  0  0  0  0  0  0
   19.1508   21.5366   20.4531 H   0  0  0  0  0  0  0  0  0  0  0  0
   19.6339   20.0842   19.5553 H   0  0  0  0  0  0  0  0  0  0  0  0
  1  2  1  0  0  0  0
  1  3  2  0  0  0  0
  1  4  1  0  0  0  0
  4  5  1  0  0  0  0
  4  6  1  0  0  0  0
  4  7  1  0  0  0  0
  7  8  1  0  0  0  0
  7  9  1  0  0  0  0
  7 10  1  0  0  0  0
 10 11  1  0  0  0  0
 10 12  1  0  0  0  0
 10 13  1  0  0  0  0
 13 14  1  0  0  0  0
 13 15  1  0  0  0  0
 13 16  1  0  0  0  0
 16 17  1  0  0  0  0
 16 18  1  0  0  0  0
 16 19  1  0  0  0  0
 19 20  1  0  0  0  0
 19 21  1  0  0  0  0
 19 22  1  0  0  0  0
 22 23  1  0  0  0  0
 22 24  1  0  0  0  0
 22 25  1  0  0  0  0
M  END
> <VM2 Rank>
130

> <Conf_Id>
1013

> <Probability>
0.01

> <Sum Probability>
99.88

> <Delta G>
4.902

> <G>
-3.061

> <E>
-27.914

> <-TS>
24.853

> <U+W>
-48.481

> <U>
11.373

> <W>
-59.855

> <W(PB)>
-62.293

> <W(SA)>
2.438

> <Valence>
11.258

> <Coulomb>
-0.951

> <VdW>
1.066

> <VdW6>
-9.862

> <VdW12>
10.928

> <Bond>
0.236

> <Angle>
3.228

> <Pdih>
7.794

> <Idih>
0.001

> <Tether>
0.000

$$$$
VeraChem MOL file


 25 24  0  0  0  0  0  0  0  0999 V2000     
   20.4031   19.7360   27.0906 C   0  0  0  0  0  0  0  0  0  0  0  0
   21.3245   20.5180   26.9635 O   0  5  0  0  0  0  0  0  0  0  0  0
   19.6150   19.7689   28.0150 O   0  0  0  0  0  0  0  0  0  0  0  0
   20.2123   18.6675   26.0201 C   0  0  0  0  0  0  0  0  0  0  0  0
   19.7966   17.7750   26.5025 H   0  0  0  0  0  0  0  0  0  0  0  0
   21.2029   18.3969   25.6386 H   0  0  0  0  0  0  0  0  0  0  0  0
   19.2847   19.1338   24.8674 C   0  0  0  0  0  0  0  0  0  0  0  0
   18.3234   19.4443   25.2995 H   0  0  0  0  0  0  0  0  0  0  0  0
   19.7120   20.0268   24.3953 H   0  0  0  0  0  0  0  0  0  0  0  0
   19.0183   18.0310   23.8113 C   0  0  0  0  0  0  0  0  0  0  0  0
   18.1681   18.3251   23.1809 H   0  0  0  0  0  0  0  0  0  0  0  0
   18.6962   17.1213   24.3362 H   0  0  0  0  0  0  0  0  0  0  0  0
   20.2336   17.6871   22.9094 C   0  0  0  0  0  0  0  0  0  0  0  0
   21.1780   17.8663   23.4380 H   0  0  0  0  0  0  0  0  0  0  0  0
   20.2094   16.6085   22.7029 H   0  0  0  0  0  0  0  0  0  0  0  0
   20.2514   18.4215   21.5452 C   0  0  0  0  0  0  0  0  0  0  0  0
   19.3462   18.1633   20.9788 H   0  0  0  0  0  0  0  0  0  0  0  0
   21.0996   18.0406   20.9602 H   0  0  0  0  0  0  0  0  0  0  0  0
   20.3683   19.9574   21.6543 C   0  0  0  0  0  0  0  0  0  0  0  0
   19.4678   20.3667   22.1306 H   0  0  0  0  0  0  0  0  0  0  0  0
   21.2225   20.2207   22.2934 H   0  0  0  0  0  0  0  0  0  0  0  0
   20.5418   20.6126   20.2691 C   0  0  0  0  0  0  0  0  0  0  0  0
   19.6877   20.3854   19.6179 H   0  0  0  0  0  0  0  0  0  0  0  0
   20.6149   21.7038   20.3641 H   0  0  0  0  0  0  0  0  0  0  0  0
   21.4545   20.2537   19.7758 H   0  0  0  0  0  0  0  0  0  0  0  0
  1  2  1  0  0  0  0
  1  3  2  0  0  0  0
  1  4  1  0  0  0  0
  4  5  1  0  0  0  0
  4  6  1  0  0  0  0
  4  7  1  0  0  0  0
  7  8  1  0  0  0  0
  7  9  1  0  0  0  0
  7 10  1  0  0  0  0
 10 11  1  0  0  0  0
 10 12  1  0  0  0  0
 10 13  1  0  0  0  0
 13 14  1  0  0  0  0
 13 15  1  0  0  0  0
 13 16  1  0  0  0  0
 16 17  1  0  0  0  0
 16 18  1  0  0  0  0
 16 19  1  0  0  0  0
 19 20  1  0  0  0  0
 19 21  1  0  0  0  0
 19 22  1  0  0  0  0
 22 23  1  0  0  0  0
 22 24  1  0  0  0  0
 22 25  1  0  0  0  0
M  END
> <VM2 Rank>
131

> <Conf_Id>
1231

> <Probability>
0.01

> <Sum Probability>
99.89

> <Delta G>
4.905

> <G>
-3.057

> <E>
-27.902

> <-TS>
24.845

> <U+W>
-48.470

> <U>
11.197

> <W>
-59.667

> <W(PB)>
-62.100

> <W(SA)>
2.433

> <Valence>
11.279

> <Coulomb>
-1.128

> <VdW>
1.047

> <VdW6>
-9.931

> <VdW12>
10.977

> <Bond>
0.250

> <Angle>
3.254

> <Pdih>
7.773

> <Idih>
0.001

> <Tether>
0.000

$$$$
VeraChem MOL file


 25 24  0  0  0  0  0  0  0  0999 V2000     
   20.7765   18.9583   26.4111 C   0  0  0  0  0  0  0  0  0  0  0  0
   21.4502   19.9295   26.6954 O   0  5  0  0  0  0  0  0  0  0  0  0
   21.2485   17.8833   26.0968 O   0  0  0  0  0  0  0  0  0  0  0  0
   19.2572   19.0722   26.5230 C   0  0  0  0  0  0  0  0  0  0  0  0
   19.0399   19.2627   27.5803 H   0  0  0  0  0  0  0  0  0  0  0  0
   18.8081   18.1016   26.2801 H   0  0  0  0  0  0  0  0  0  0  0  0
   18.6107   20.1951   25.6634 C   0  0  0  0  0  0  0  0  0  0  0  0
   17.6256   20.4251   26.0913 H   0  0  0  0  0  0  0  0  0  0  0  0
   19.2002   21.1185   25.7491 H   0  0  0  0  0  0  0  0  0  0  0  0
   18.4041   19.8339   24.1714 C   0  0  0  0  0  0  0  0  0  0  0  0
   17.8136   20.6342   23.7049 H   0  0  0  0  0  0  0  0  0  0  0  0
   17.8008   18.9191   24.0927 H   0  0  0  0  0  0  0  0  0  0  0  0
   19.7188   19.6577   23.3780 C   0  0  0  0  0  0  0  0  0  0  0  0
   20.3663   20.5304   23.5387 H   0  0  0  0  0  0  0  0  0  0  0  0
   20.2582   18.7816   23.7565 H   0  0  0  0  0  0  0  0  0  0  0  0
   19.4533   19.4803   21.8648 C   0  0  0  0  0  0  0  0  0  0  0  0
   18.8592   20.3306   21.5032 H   0  0  0  0  0  0  0  0  0  0  0  0
   18.8437   18.5815   21.6994 H   0  0  0  0  0  0  0  0  0  0  0  0
   20.7460   19.3914   21.0205 C   0  0  0  0  0  0  0  0  0  0  0  0
   20.4726   19.3879   19.9563 H   0  0  0  0  0  0  0  0  0  0  0  0
   21.3563   20.2909   21.1812 H   0  0  0  0  0  0  0  0  0  0  0  0
   21.5878   18.1323   21.3216 C   0  0  0  0  0  0  0  0  0  0  0  0
   21.9800   18.1481   22.3465 H   0  0  0  0  0  0  0  0  0  0  0  0
   20.9896   17.2205   21.1961 H   0  0  0  0  0  0  0  0  0  0  0  0
   22.4451   18.0711   20.6388 H   0  0  0  0  0  0  0  0  0  0  0  0
  1  2  1  0  0  0  0
  1  3  2  0  0  0  0
  1  4  1  0  0  0  0
  4  5  1  0  0  0  0
  4  6  1  0  0  0  0
  4  7  1  0  0  0  0
  7  8  1  0  0  0  0
  7  9  1  0  0  0  0
  7 10  1  0  0  0  0
 10 11  1  0  0  0  0
 10 12  1  0  0  0  0
 10 13  1  0  0  0  0
 13 14  1  0  0  0  0
 13 15  1  0  0  0  0
 13 16  1  0  0  0  0
 16 17  1  0  0  0  0
 16 18  1  0  0  0  0
 16 19  1  0  0  0  0
 19 20  1  0  0  0  0
 19 21  1  0  0  0  0
 19 22  1  0  0  0  0
 22 23  1  0  0  0  0
 22 24  1  0  0  0  0
 22 25  1  0  0  0  0
M  END
> <VM2 Rank>
132

> <Conf_Id>
751

> <Probability>
0.01

> <Sum Probability>
99.89

> <Delta G>
4.906

> <G>
-3.056

> <E>
-28.214

> <-TS>
25.158

> <U+W>
-48.781

> <U>
12.472

> <W>
-61.253

> <W(PB)>
-63.646

> <W(SA)>
2.393

> <Valence>
9.941

> <Coulomb>
1.807

> <VdW>
0.724

> <VdW6>
-10.776

> <VdW12>
11.499

> <Bond>
0.236

> <Angle>
3.415

> <Pdih>
6.282

> <Idih>
0.007

> <Tether>
0.000

$$$$
VeraChem MOL file


 25 24  0  0  0  0  0  0  0  0999 V2000     
   19.7723   18.7683   26.7792 C   0  0  0  0  0  0  0  0  0  0  0  0
   20.4733   18.5291   27.7426 O   0  5  0  0  0  0  0  0  0  0  0  0
   18.5733   18.9539   26.8486 O   0  0  0  0  0  0  0  0  0  0  0  0
   20.4378   18.8621   25.4110 C   0  0  0  0  0  0  0  0  0  0  0  0
   19.7224   18.4965   24.6686 H   0  0  0  0  0  0  0  0  0  0  0  0
   21.2903   18.1727   25.4016 H   0  0  0  0  0  0  0  0  0  0  0  0
   20.9116   20.3003   25.0724 C   0  0  0  0  0  0  0  0  0  0  0  0
   20.0618   20.9958   25.1074 H   0  0  0  0  0  0  0  0  0  0  0  0
   21.6014   20.6217   25.8650 H   0  0  0  0  0  0  0  0  0  0  0  0
   21.6427   20.4132   23.7099 C   0  0  0  0  0  0  0  0  0  0  0  0
   22.1770   19.4819   23.4811 H   0  0  0  0  0  0  0  0  0  0  0  0
   22.4238   21.1790   23.8114 H   0  0  0  0  0  0  0  0  0  0  0  0
   20.7406   20.8366   22.5204 C   0  0  0  0  0  0  0  0  0  0  0  0
   20.2932   21.8137   22.7478 H   0  0  0  0  0  0  0  0  0  0  0  0
   21.3766   20.9970   21.6392 H   0  0  0  0  0  0  0  0  0  0  0  0
   19.6091   19.8518   22.1388 C   0  0  0  0  0  0  0  0  0  0  0  0
   19.0224   20.3001   21.3255 H   0  0  0  0  0  0  0  0  0  0  0  0
   18.9141   19.7357   22.9797 H   0  0  0  0  0  0  0  0  0  0  0  0
   20.1259   18.4714   21.6733 C   0  0  0  0  0  0  0  0  0  0  0  0
   20.8167   18.6017   20.8290 H   0  0  0  0  0  0  0  0  0  0  0  0
   20.6944   17.9867   22.4771 H   0  0  0  0  0  0  0  0  0  0  0  0
   18.9665   17.5473   21.2499 C   0  0  0  0  0  0  0  0  0  0  0  0
   18.3977   17.9852   20.4193 H   0  0  0  0  0  0  0  0  0  0  0  0
   19.3492   16.5721   20.9218 H   0  0  0  0  0  0  0  0  0  0  0  0
   18.2761   17.3767   22.0863 H   0  0  0  0  0  0  0  0  0  0  0  0
  1  2  1  0  0  0  0
  1  3  2  0  0  0  0
  1  4  1  0  0  0  0
  4  5  1  0  0  0  0
  4  6  1  0  0  0  0
  4  7  1  0  0  0  0
  7  8  1  0  0  0  0
  7  9  1  0  0  0  0
  7 10  1  0  0  0  0
 10 11  1  0  0  0  0
 10 12  1  0  0  0  0
 10 13  1  0  0  0  0
 13 14  1  0  0  0  0
 13 15  1  0  0  0  0
 13 16  1  0  0  0  0
 16 17  1  0  0  0  0
 16 18  1  0  0  0  0
 16 19  1  0  0  0  0
 19 20  1  0  0  0  0
 19 21  1  0  0  0  0
 19 22  1  0  0  0  0
 22 23  1  0  0  0  0
 22 24  1  0  0  0  0
 22 25  1  0  0  0  0
M  END
> <VM2 Rank>
133

> <Conf_Id>
168

> <Probability>
0.01

> <Sum Probability>
99.90

> <Delta G>
4.940

> <G>
-3.022

> <E>
-28.285

> <-TS>
25.263

> <U+W>
-48.853

> <U>
11.279

> <W>
-60.131

> <W(PB)>
-62.516

> <W(SA)>
2.385

> <Valence>
11.119

> <Coulomb>
-0.438

> <VdW>
0.598

> <VdW6>
-10.693

> <VdW12>
11.291

> <Bond>
0.252

> <Angle>
3.623

> <Pdih>
7.244

> <Idih>
0.001

> <Tether>
0.000

$$$$
VeraChem MOL file


 25 24  0  0  0  0  0  0  0  0999 V2000     
   20.0215   20.0019   26.7359 C   0  0  0  0  0  0  0  0  0  0  0  0
   20.7728   20.0135   27.6910 O   0  5  0  0  0  0  0  0  0  0  0  0
   18.8457   20.3017   26.8008 O   0  0  0  0  0  0  0  0  0  0  0  0
   20.5803   19.5656   25.3865 C   0  0  0  0  0  0  0  0  0  0  0  0
   21.6333   19.8678   25.3427 H   0  0  0  0  0  0  0  0  0  0  0  0
   20.0531   20.1294   24.6113 H   0  0  0  0  0  0  0  0  0  0  0  0
   20.4543   18.0370   25.1515 C   0  0  0  0  0  0  0  0  0  0  0  0
   20.9759   17.5271   25.9734 H   0  0  0  0  0  0  0  0  0  0  0  0
   19.4018   17.7297   25.2215 H   0  0  0  0  0  0  0  0  0  0  0  0
   21.0659   17.5581   23.8098 C   0  0  0  0  0  0  0  0  0  0  0  0
   21.4902   16.5581   23.9732 H   0  0  0  0  0  0  0  0  0  0  0  0
   21.9164   18.1917   23.5263 H   0  0  0  0  0  0  0  0  0  0  0  0
   20.0542   17.4388   22.6393 C   0  0  0  0  0  0  0  0  0  0  0  0
   20.5663   16.9857   21.7795 H   0  0  0  0  0  0  0  0  0  0  0  0
   19.2661   16.7293   22.9257 H   0  0  0  0  0  0  0  0  0  0  0  0
   19.3880   18.7573   22.1772 C   0  0  0  0  0  0  0  0  0  0  0  0
   18.8040   19.1900   22.9991 H   0  0  0  0  0  0  0  0  0  0  0  0
   18.6622   18.5182   21.3882 H   0  0  0  0  0  0  0  0  0  0  0  0
   20.3931   19.7946   21.6269 C   0  0  0  0  0  0  0  0  0  0  0  0
   21.1163   20.0736   22.4038 H   0  0  0  0  0  0  0  0  0  0  0  0
   20.9676   19.3503   20.8025 H   0  0  0  0  0  0  0  0  0  0  0  0
   19.6772   21.0654   21.1271 C   0  0  0  0  0  0  0  0  0  0  0  0
   20.4034   21.7914   20.7392 H   0  0  0  0  0  0  0  0  0  0  0  0
   18.9715   20.8277   20.3204 H   0  0  0  0  0  0  0  0  0  0  0  0
   19.1187   21.5462   21.9410 H   0  0  0  0  0  0  0  0  0  0  0  0
  1  2  1  0  0  0  0
  1  3  2  0  0  0  0
  1  4  1  0  0  0  0
  4  5  1  0  0  0  0
  4  6  1  0  0  0  0
  4  7  1  0  0  0  0
  7  8  1  0  0  0  0
  7  9  1  0  0  0  0
  7 10  1  0  0  0  0
 10 11  1  0  0  0  0
 10 12  1  0  0  0  0
 10 13  1  0  0  0  0
 13 14  1  0  0  0  0
 13 15  1  0  0  0  0
 13 16  1  0  0  0  0
 16 17  1  0  0  0  0
 16 18  1  0  0  0  0
 16 19  1  0  0  0  0
 19 20  1  0  0  0  0
 19 21  1  0  0  0  0
 19 22  1  0  0  0  0
 22 23  1  0  0  0  0
 22 24  1  0  0  0  0
 22 25  1  0  0  0  0
M  END
> <VM2 Rank>
134

> <Conf_Id>
256

> <Probability>
0.01

> <Sum Probability>
99.90

> <Delta G>
4.957

> <G>
-3.006

> <E>
-28.269

> <-TS>
25.264

> <U+W>
-48.837

> <U>
11.279

> <W>
-60.116

> <W(PB)>
-62.521

> <W(SA)>
2.405

> <Valence>
11.119

> <Coulomb>
-0.437

> <VdW>
0.597

> <VdW6>
-10.693

> <VdW12>
11.291

> <Bond>
0.252

> <Angle>
3.622

> <Pdih>
7.244

> <Idih>
0.001

> <Tether>
0.000

$$$$
VeraChem MOL file


 25 24  0  0  0  0  0  0  0  0999 V2000     
   19.5640   18.8830   26.4250 C   0  0  0  0  0  0  0  0  0  0  0  0
   19.2217   17.7573   26.1201 O   0  5  0  0  0  0  0  0  0  0  0  0
   18.7820   19.7636   26.7262 O   0  0  0  0  0  0  0  0  0  0  0  0
   21.0598   19.1842   26.5021 C   0  0  0  0  0  0  0  0  0  0  0  0
   21.6199   18.2763   26.2477 H   0  0  0  0  0  0  0  0  0  0  0  0
   21.2760   19.4016   27.5545 H   0  0  0  0  0  0  0  0  0  0  0  0
   21.5423   20.3772   25.6296 C   0  0  0  0  0  0  0  0  0  0  0  0
   20.8453   21.2207   25.7302 H   0  0  0  0  0  0  0  0  0  0  0  0
   22.5010   20.7280   26.0350 H   0  0  0  0  0  0  0  0  0  0  0  0
   21.7577   20.0423   24.1327 C   0  0  0  0  0  0  0  0  0  0  0  0
   22.4676   19.2092   24.0387 H   0  0  0  0  0  0  0  0  0  0  0  0
   22.2336   20.9089   23.6538 H   0  0  0  0  0  0  0  0  0  0  0  0
   20.4570   19.7036   23.3696 C   0  0  0  0  0  0  0  0  0  0  0  0
   20.0392   18.7679   23.7590 H   0  0  0  0  0  0  0  0  0  0  0  0
   19.7103   20.4896   23.5465 H   0  0  0  0  0  0  0  0  0  0  0  0
   20.7074   19.5585   21.8504 C   0  0  0  0  0  0  0  0  0  0  0  0
   21.4197   18.7420   21.6695 H   0  0  0  0  0  0  0  0  0  0  0  0
   21.1830   20.4754   21.4764 H   0  0  0  0  0  0  0  0  0  0  0  0
   19.4165   19.3089   21.0360 C   0  0  0  0  0  0  0  0  0  0  0  0
   18.7032   20.1259   21.2122 H   0  0  0  0  0  0  0  0  0  0  0  0
   19.6635   19.3381   19.9658 H   0  0  0  0  0  0  0  0  0  0  0  0
   18.7446   17.9554   21.3543 C   0  0  0  0  0  0  0  0  0  0  0  0
   19.4482   17.1247   21.2134 H   0  0  0  0  0  0  0  0  0  0  0  0
   18.3774   17.9236   22.3881 H   0  0  0  0  0  0  0  0  0  0  0  0
   17.8859   17.7875   20.6916 H   0  0  0  0  0  0  0  0  0  0  0  0
  1  2  1  0  0  0  0
  1  3  2  0  0  0  0
  1  4  1  0  0  0  0
  4  5  1  0  0  0  0
  4  6  1  0  0  0  0
  4  7  1  0  0  0  0
  7  8  1  0  0  0  0
  7  9  1  0  0  0  0
  7 10  1  0  0  0  0
 10 11  1  0  0  0  0
 10 12  1  0  0  0  0
 10 13  1  0  0  0  0
 13 14  1  0  0  0  0
 13 15  1  0  0  0  0
 13 16  1  0  0  0  0
 16 17  1  0  0  0  0
 16 18  1  0  0  0  0
 16 19  1  0  0  0  0
 19 20  1  0  0  0  0
 19 21  1  0  0  0  0
 19 22  1  0  0  0  0
 22 23  1  0  0  0  0
 22 24  1  0  0  0  0
 22 25  1  0  0  0  0
M  END
> <VM2 Rank>
135

> <Conf_Id>
1339

> <Probability>
0.01

> <Sum Probability>
99.91

> <Delta G>
4.989

> <G>
-2.973

> <E>
-28.131

> <-TS>
25.158

> <U+W>
-48.698

> <U>
12.472

> <W>
-61.170

> <W(PB)>
-63.568

> <W(SA)>
2.398

> <Valence>
9.941

> <Coulomb>
1.807

> <VdW>
0.724

> <VdW6>
-10.776

> <VdW12>
11.499

> <Bond>
0.236

> <Angle>
3.415

> <Pdih>
6.282

> <Idih>
0.007

> <Tether>
0.000

$$$$
VeraChem MOL file


 25 24  0  0  0  0  0  0  0  0999 V2000     
   20.4865   19.3100   27.3363 C   0  0  0  0  0  0  0  0  0  0  0  0
   21.6052   19.7663   27.4662 O   0  5  0  0  0  0  0  0  0  0  0  0
   19.5907   19.4845   28.1387 O   0  0  0  0  0  0  0  0  0  0  0  0
   20.1842   18.4893   26.0875 C   0  0  0  0  0  0  0  0  0  0  0  0
   19.4434   17.7257   26.3530 H   0  0  0  0  0  0  0  0  0  0  0  0
   21.1013   17.9639   25.7950 H   0  0  0  0  0  0  0  0  0  0  0  0
   19.6654   19.3527   24.9113 C   0  0  0  0  0  0  0  0  0  0  0  0
   18.7538   19.8801   25.2245 H   0  0  0  0  0  0  0  0  0  0  0  0
   20.4130   20.1217   24.6780 H   0  0  0  0  0  0  0  0  0  0  0  0
   19.3669   18.4948   23.6591 C   0  0  0  0  0  0  0  0  0  0  0  0
   18.6426   17.7152   23.9316 H   0  0  0  0  0  0  0  0  0  0  0  0
   20.2783   17.9723   23.3444 H   0  0  0  0  0  0  0  0  0  0  0  0
   18.7818   19.3157   22.4822 C   0  0  0  0  0  0  0  0  0  0  0  0
   18.3428   18.6324   21.7425 H   0  0  0  0  0  0  0  0  0  0  0  0
   17.9447   19.9167   22.8627 H   0  0  0  0  0  0  0  0  0  0  0  0
   19.7955   20.2552   21.7758 C   0  0  0  0  0  0  0  0  0  0  0  0
   20.5734   20.5887   22.4736 H   0  0  0  0  0  0  0  0  0  0  0  0
   19.2605   21.1648   21.4708 H   0  0  0  0  0  0  0  0  0  0  0  0
   20.4528   19.6548   20.5084 C   0  0  0  0  0  0  0  0  0  0  0  0
   19.6756   19.4029   19.7738 H   0  0  0  0  0  0  0  0  0  0  0  0
   21.0787   20.4273   20.0408 H   0  0  0  0  0  0  0  0  0  0  0  0
   21.3240   18.4108   20.7805 C   0  0  0  0  0  0  0  0  0  0  0  0
   20.7101   17.5608   21.1030 H   0  0  0  0  0  0  0  0  0  0  0  0
   21.8562   18.1079   19.8696 H   0  0  0  0  0  0  0  0  0  0  0  0
   22.0716   18.6161   21.5577 H   0  0  0  0  0  0  0  0  0  0  0  0
  1  2  1  0  0  0  0
  1  3  2  0  0  0  0
  1  4  1  0  0  0  0
  4  5  1  0  0  0  0
  4  6  1  0  0  0  0
  4  7  1  0  0  0  0
  7  8  1  0  0  0  0
  7  9  1  0  0  0  0
  7 10  1  0  0  0  0
 10 11  1  0  0  0  0
 10 12  1  0  0  0  0
 10 13  1  0  0  0  0
 13 14  1  0  0  0  0
 13 15  1  0  0  0  0
 13 16  1  0  0  0  0
 16 17  1  0  0  0  0
 16 18  1  0  0  0  0
 16 19  1  0  0  0  0
 19 20  1  0  0  0  0
 19 21  1  0  0  0  0
 19 22  1  0  0  0  0
 22 23  1  0  0  0  0
 22 24  1  0  0  0  0
 22 25  1  0  0  0  0
M  END
> <VM2 Rank>
136

> <Conf_Id>
223

> <Probability>
0.01

> <Sum Probability>
99.91

> <Delta G>
5.018

> <G>
-2.944

> <E>
-27.762

> <-TS>
24.817

> <U+W>
-48.329

> <U>
11.068

> <W>
-59.398

> <W(PB)>
-61.845

> <W(SA)>
2.447

> <Valence>
11.256

> <Coulomb>
-1.285

> <VdW>
1.098

> <VdW6>
-9.790

> <VdW12>
10.888

> <Bond>
0.240

> <Angle>
3.223

> <Pdih>
7.792

> <Idih>
0.001

> <Tether>
0.000

$$$$
VeraChem MOL file


 25 24  0  0  0  0  0  0  0  0999 V2000     
   19.8295   19.2680   27.3439 C   0  0  0  0  0  0  0  0  0  0  0  0
   20.7140   19.5560   28.1259 O   0  5  0  0  0  0  0  0  0  0  0  0
   18.6652   19.5788   27.5002 O   0  0  0  0  0  0  0  0  0  0  0  0
   20.2048   18.4906   26.0873 C   0  0  0  0  0  0  0  0  0  0  0  0
   19.3555   17.8524   25.8153 H   0  0  0  0  0  0  0  0  0  0  0  0
   21.0427   17.8278   26.3346 H   0  0  0  0  0  0  0  0  0  0  0  0
   20.5824   19.4112   24.9007 C   0  0  0  0  0  0  0  0  0  0  0  0
   19.7380   20.0786   24.6858 H   0  0  0  0  0  0  0  0  0  0  0  0
   21.4265   20.0507   25.1936 H   0  0  0  0  0  0  0  0  0  0  0  0
   20.9586   18.5964   23.6407 C   0  0  0  0  0  0  0  0  0  0  0  0
   20.1140   17.9619   23.3464 H   0  0  0  0  0  0  0  0  0  0  0  0
   21.7823   17.9157   23.8953 H   0  0  0  0  0  0  0  0  0  0  0  0
   21.4074   19.4833   22.4518 C   0  0  0  0  0  0  0  0  0  0  0  0
   22.1698   20.1865   22.8138 H   0  0  0  0  0  0  0  0  0  0  0  0
   21.9125   18.8603   21.7013 H   0  0  0  0  0  0  0  0  0  0  0  0
   20.2664   20.2853   21.7703 C   0  0  0  0  0  0  0  0  0  0  0  0
   20.6742   21.2551   21.4546 H   0  0  0  0  0  0  0  0  0  0  0  0
   19.4687   20.5180   22.4863 H   0  0  0  0  0  0  0  0  0  0  0  0
   19.6620   19.6043   20.5175 C   0  0  0  0  0  0  0  0  0  0  0  0
   18.9324   20.2903   20.0655 H   0  0  0  0  0  0  0  0  0  0  0  0
   20.4478   19.4523   19.7648 H   0  0  0  0  0  0  0  0  0  0  0  0
   18.9626   18.2600   20.8076 C   0  0  0  0  0  0  0  0  0  0  0  0
   19.6869   17.4955   21.1147 H   0  0  0  0  0  0  0  0  0  0  0  0
   18.2130   18.3697   21.6021 H   0  0  0  0  0  0  0  0  0  0  0  0
   18.4525   17.8906   19.9087 H   0  0  0  0  0  0  0  0  0  0  0  0
  1  2  1  0  0  0  0
  1  3  2  0  0  0  0
  1  4  1  0  0  0  0
  4  5  1  0  0  0  0
  4  6  1  0  0  0  0
  4  7  1  0  0  0  0
  7  8  1  0  0  0  0
  7  9  1  0  0  0  0
  7 10  1  0  0  0  0
 10 11  1  0  0  0  0
 10 12  1  0  0  0  0
 10 13  1  0  0  0  0
 13 14  1  0  0  0  0
 13 15  1  0  0  0  0
 13 16  1  0  0  0  0
 16 17  1  0  0  0  0
 16 18  1  0  0  0  0
 16 19  1  0  0  0  0
 19 20  1  0  0  0  0
 19 21  1  0  0  0  0
 19 22  1  0  0  0  0
 22 23  1  0  0  0  0
 22 24  1  0  0  0  0
 22 25  1  0  0  0  0
M  END
> <VM2 Rank>
137

> <Conf_Id>
1093

> <Probability>
0.01

> <Sum Probability>
99.92

> <Delta G>
5.026

> <G>
-2.936

> <E>
-27.753

> <-TS>
24.818

> <U+W>
-48.321

> <U>
11.068

> <W>
-59.389

> <W(PB)>
-61.842

> <W(SA)>
2.453

> <Valence>
11.256

> <Coulomb>
-1.286

> <VdW>
1.098

> <VdW6>
-9.790

> <VdW12>
10.888

> <Bond>
0.240

> <Angle>
3.222

> <Pdih>
7.793

> <Idih>
0.001

> <Tether>
0.000

$$$$
VeraChem MOL file


 25 24  0  0  0  0  0  0  0  0999 V2000     
   19.7042   19.1816   27.0937 C   0  0  0  0  0  0  0  0  0  0  0  0
   20.2039   18.3130   27.7811 O   0  5  0  0  0  0  0  0  0  0  0  0
   18.5361   19.5089   27.1659 O   0  0  0  0  0  0  0  0  0  0  0  0
   20.5880   19.8880   26.0718 C   0  0  0  0  0  0  0  0  0  0  0  0
   21.6012   19.9540   26.4860 H   0  0  0  0  0  0  0  0  0  0  0  0
   20.2185   20.9136   25.9526 H   0  0  0  0  0  0  0  0  0  0  0  0
   20.6155   19.1681   24.7011 C   0  0  0  0  0  0  0  0  0  0  0  0
   20.9778   18.1403   24.8405 H   0  0  0  0  0  0  0  0  0  0  0  0
   19.5907   19.0913   24.3197 H   0  0  0  0  0  0  0  0  0  0  0  0
   21.5202   19.9040   23.6849 C   0  0  0  0  0  0  0  0  0  0  0  0
   22.5321   19.9613   24.1090 H   0  0  0  0  0  0  0  0  0  0  0  0
   21.1837   20.9417   23.5560 H   0  0  0  0  0  0  0  0  0  0  0  0
   21.6089   19.1983   22.3074 C   0  0  0  0  0  0  0  0  0  0  0  0
   22.6288   19.3389   21.9244 H   0  0  0  0  0  0  0  0  0  0  0  0
   21.4878   18.1131   22.4213 H   0  0  0  0  0  0  0  0  0  0  0  0
   20.6367   19.7494   21.2309 C   0  0  0  0  0  0  0  0  0  0  0  0
   20.8753   19.2751   20.2693 H   0  0  0  0  0  0  0  0  0  0  0  0
   20.8331   20.8212   21.0927 H   0  0  0  0  0  0  0  0  0  0  0  0
   19.1285   19.5538   21.5148 C   0  0  0  0  0  0  0  0  0  0  0  0
   18.8457   20.0781   22.4363 H   0  0  0  0  0  0  0  0  0  0  0  0
   18.5574   20.0346   20.7088 H   0  0  0  0  0  0  0  0  0  0  0  0
   18.7109   18.0690   21.5943 C   0  0  0  0  0  0  0  0  0  0  0  0
   19.1958   17.5597   22.4361 H   0  0  0  0  0  0  0  0  0  0  0  0
   17.6256   17.9820   21.7323 H   0  0  0  0  0  0  0  0  0  0  0  0
   18.9785   17.5370   20.6722 H   0  0  0  0  0  0  0  0  0  0  0  0
  1  2  1  0  0  0  0
  1  3  2  0  0  0  0
  1  4  1  0  0  0  0
  4  5  1  0  0  0  0
  4  6  1  0  0  0  0
  4  7  1  0  0  0  0
  7  8  1  0  0  0  0
  7  9  1  0  0  0  0
  7 10  1  0  0  0  0
 10 11  1  0  0  0  0
 10 12  1  0  0  0  0
 10 13  1  0  0  0  0
 13 14  1  0  0  0  0
 13 15  1  0  0  0  0
 13 16  1  0  0  0  0
 16 17  1  0  0  0  0
 16 18  1  0  0  0  0
 16 19  1  0  0  0  0
 19 20  1  0  0  0  0
 19 21  1  0  0  0  0
 19 22  1  0  0  0  0
 22 23  1  0  0  0  0
 22 24  1  0  0  0  0
 22 25  1  0  0  0  0
M  END
> <VM2 Rank>
138

> <Conf_Id>
1002

> <Probability>
0.00

> <Sum Probability>
99.92

> <Delta G>
5.086

> <G>
-2.876

> <E>
-28.079

> <-TS>
25.203

> <U+W>
-48.646

> <U>
11.386

> <W>
-60.033

> <W(PB)>
-62.431

> <W(SA)>
2.398

> <Valence>
11.144

> <Coulomb>
-0.493

> <VdW>
0.736

> <VdW6>
-10.363

> <VdW12>
11.100

> <Bond>
0.234

> <Angle>
3.542

> <Pdih>
7.366

> <Idih>
0.000

> <Tether>
0.000

$$$$
VeraChem MOL file


 25 24  0  0  0  0  0  0  0  0999 V2000     
   20.5721   19.5050   27.0707 C   0  0  0  0  0  0  0  0  0  0  0  0
   21.6519   20.0619   27.0503 O   0  5  0  0  0  0  0  0  0  0  0  0
   19.7233   19.7127   27.9153 O   0  0  0  0  0  0  0  0  0  0  0  0
   20.2578   18.5023   25.9663 C   0  0  0  0  0  0  0  0  0  0  0  0
   19.6190   17.7180   26.3897 H   0  0  0  0  0  0  0  0  0  0  0  0
   21.1974   18.0263   25.6608 H   0  0  0  0  0  0  0  0  0  0  0  0
   19.5675   19.1526   24.7423 C   0  0  0  0  0  0  0  0  0  0  0  0
   18.6333   19.6329   25.0642 H   0  0  0  0  0  0  0  0  0  0  0  0
   20.2149   19.9474   24.3501 H   0  0  0  0  0  0  0  0  0  0  0  0
   19.2648   18.1147   23.6365 C   0  0  0  0  0  0  0  0  0  0  0  0
   18.6442   17.3151   24.0631 H   0  0  0  0  0  0  0  0  0  0  0  0
   20.1917   17.6309   23.3043 H   0  0  0  0  0  0  0  0  0  0  0  0
   18.5176   18.7127   22.4202 C   0  0  0  0  0  0  0  0  0  0  0  0
   18.2621   17.8976   21.7297 H   0  0  0  0  0  0  0  0  0  0  0  0
   17.5591   19.1236   22.7655 H   0  0  0  0  0  0  0  0  0  0  0  0
   19.2721   19.8156   21.6311 C   0  0  0  0  0  0  0  0  0  0  0  0
   19.4683   20.6864   22.2700 H   0  0  0  0  0  0  0  0  0  0  0  0
   18.5904   20.1768   20.8490 H   0  0  0  0  0  0  0  0  0  0  0  0
   20.5766   19.3445   20.9397 C   0  0  0  0  0  0  0  0  0  0  0  0
   20.5079   18.2787   20.6821 H   0  0  0  0  0  0  0  0  0  0  0  0
   20.6791   19.8823   19.9871 H   0  0  0  0  0  0  0  0  0  0  0  0
   21.8493   19.6120   21.7736 C   0  0  0  0  0  0  0  0  0  0  0  0
   21.8429   19.0578   22.7186 H   0  0  0  0  0  0  0  0  0  0  0  0
   22.7440   19.3071   21.2156 H   0  0  0  0  0  0  0  0  0  0  0  0
   21.9470   20.6801   22.0069 H   0  0  0  0  0  0  0  0  0  0  0  0
  1  2  1  0  0  0  0
  1  3  2  0  0  0  0
  1  4  1  0  0  0  0
  4  5  1  0  0  0  0
  4  6  1  0  0  0  0
  4  7  1  0  0  0  0
  7  8  1  0  0  0  0
  7  9  1  0  0  0  0
  7 10  1  0  0  0  0
 10 11  1  0  0  0  0
 10 12  1  0  0  0  0
 10 13  1  0  0  0  0
 13 14  1  0  0  0  0
 13 15  1  0  0  0  0
 13 16  1  0  0  0  0
 16 17  1  0  0  0  0
 16 18  1  0  0  0  0
 16 19  1  0  0  0  0
 19 20  1  0  0  0  0
 19 21  1  0  0  0  0
 19 22  1  0  0  0  0
 22 23  1  0  0  0  0
 22 24  1  0  0  0  0
 22 25  1  0  0  0  0
M  END
> <VM2 Rank>
139

> <Conf_Id>
797

> <Probability>
0.00

> <Sum Probability>
99.93

> <Delta G>
5.122

> <G>
-2.840

> <E>
-28.050

> <-TS>
25.210

> <U+W>
-48.618

> <U>
11.356

> <W>
-59.975

> <W(PB)>
-62.370

> <W(SA)>
2.396

> <Valence>
11.110

> <Coulomb>
-0.410

> <VdW>
0.657

> <VdW6>
-10.516

> <VdW12>
11.173

> <Bond>
0.235

> <Angle>
3.588

> <Pdih>
7.287

> <Idih>
0.000

> <Tether>
0.000

$$$$
VeraChem MOL file


 25 24  0  0  0  0  0  0  0  0999 V2000     
   19.7071   19.7929   26.7118 C   0  0  0  0  0  0  0  0  0  0  0  0
   19.9271   19.4198   27.8474 O   0  5  0  0  0  0  0  0  0  0  0  0
   18.6899   20.3670   26.3767 O   0  0  0  0  0  0  0  0  0  0  0  0
   20.7570   19.5063   25.6446 C   0  0  0  0  0  0  0  0  0  0  0  0
   21.7444   19.5380   26.1201 H   0  0  0  0  0  0  0  0  0  0  0  0
   20.7229   20.3235   24.9161 H   0  0  0  0  0  0  0  0  0  0  0  0
   20.5441   18.1375   24.9472 C   0  0  0  0  0  0  0  0  0  0  0  0
   20.5475   17.3510   25.7144 H   0  0  0  0  0  0  0  0  0  0  0  0
   19.5495   18.1003   24.4850 H   0  0  0  0  0  0  0  0  0  0  0  0
   21.6318   17.8052   23.8976 C   0  0  0  0  0  0  0  0  0  0  0  0
   21.4571   16.7886   23.5198 H   0  0  0  0  0  0  0  0  0  0  0  0
   22.6074   17.7735   24.4016 H   0  0  0  0  0  0  0  0  0  0  0  0
   21.7302   18.7754   22.6907 C   0  0  0  0  0  0  0  0  0  0  0  0
   21.9895   19.7883   23.0249 H   0  0  0  0  0  0  0  0  0  0  0  0
   22.5807   18.4448   22.0791 H   0  0  0  0  0  0  0  0  0  0  0  0
   20.4770   18.8077   21.7782 C   0  0  0  0  0  0  0  0  0  0  0  0
   19.9602   17.8389   21.8120 H   0  0  0  0  0  0  0  0  0  0  0  0
   20.8109   18.9391   20.7399 H   0  0  0  0  0  0  0  0  0  0  0  0
   19.4927   19.9526   22.1121 C   0  0  0  0  0  0  0  0  0  0  0  0
   19.1176   19.8540   23.1376 H   0  0  0  0  0  0  0  0  0  0  0  0
   20.0167   20.9167   22.0592 H   0  0  0  0  0  0  0  0  0  0  0  0
   18.2960   19.9698   21.1397 C   0  0  0  0  0  0  0  0  0  0  0  0
   18.6322   20.1110   20.1042 H   0  0  0  0  0  0  0  0  0  0  0  0
   17.7342   19.0281   21.1929 H   0  0  0  0  0  0  0  0  0  0  0  0
   17.6085   20.7889   21.3876 H   0  0  0  0  0  0  0  0  0  0  0  0
  1  2  1  0  0  0  0
  1  3  2  0  0  0  0
  1  4  1  0  0  0  0
  4  5  1  0  0  0  0
  4  6  1  0  0  0  0
  4  7  1  0  0  0  0
  7  8  1  0  0  0  0
  7  9  1  0  0  0  0
  7 10  1  0  0  0  0
 10 11  1  0  0  0  0
 10 12  1  0  0  0  0
 10 13  1  0  0  0  0
 13 14  1  0  0  0  0
 13 15  1  0  0  0  0
 13 16  1  0  0  0  0
 16 17  1  0  0  0  0
 16 18  1  0  0  0  0
 16 19  1  0  0  0  0
 19 20  1  0  0  0  0
 19 21  1  0  0  0  0
 19 22  1  0  0  0  0
 22 23  1  0  0  0  0
 22 24  1  0  0  0  0
 22 25  1  0  0  0  0
M  END
> <VM2 Rank>
140

> <Conf_Id>
571

> <Probability>
0.00

> <Sum Probability>
99.93

> <Delta G>
5.135

> <G>
-2.827

> <E>
-28.108

> <-TS>
25.281

> <U+W>
-48.675

> <U>
11.616

> <W>
-60.291

> <W(PB)>
-62.674

> <W(SA)>
2.383

> <Valence>
11.123

> <Coulomb>
-0.039

> <VdW>
0.532

> <VdW6>
-10.780

> <VdW12>
11.312

> <Bond>
0.247

> <Angle>
3.570

> <Pdih>
7.305

> <Idih>
0.001

> <Tether>
0.000

$$$$
VeraChem MOL file


 25 24  0  0  0  0  0  0  0  0999 V2000     
   20.3979   19.8545   26.4634 C   0  0  0  0  0  0  0  0  0  0  0  0
   21.2491   20.5333   25.9236 O   0  5  0  0  0  0  0  0  0  0  0  0
   19.5405   20.3078   27.1963 O   0  0  0  0  0  0  0  0  0  0  0  0
   20.4284   18.3447   26.2410 C   0  0  0  0  0  0  0  0  0  0  0  0
   20.4383   17.8706   27.2293 H   0  0  0  0  0  0  0  0  0  0  0  0
   21.3771   18.0800   25.7604 H   0  0  0  0  0  0  0  0  0  0  0  0
   19.2280   17.7977   25.4208 C   0  0  0  0  0  0  0  0  0  0  0  0
   19.3019   16.7036   25.3599 H   0  0  0  0  0  0  0  0  0  0  0  0
   18.2994   18.0135   25.9672 H   0  0  0  0  0  0  0  0  0  0  0  0
   19.1123   18.3818   23.9915 C   0  0  0  0  0  0  0  0  0  0  0  0
   18.9800   19.4701   24.0542 H   0  0  0  0  0  0  0  0  0  0  0  0
   18.2020   17.9839   23.5232 H   0  0  0  0  0  0  0  0  0  0  0  0
   20.3291   18.0515   23.0935 C   0  0  0  0  0  0  0  0  0  0  0  0
   21.2276   18.5476   23.4821 H   0  0  0  0  0  0  0  0  0  0  0  0
   20.5282   16.9725   23.1419 H   0  0  0  0  0  0  0  0  0  0  0  0
   20.1225   18.4456   21.6092 C   0  0  0  0  0  0  0  0  0  0  0  0
   19.2866   17.8628   21.1990 H   0  0  0  0  0  0  0  0  0  0  0  0
   21.0111   18.1444   21.0381 H   0  0  0  0  0  0  0  0  0  0  0  0
   19.8522   19.9499   21.3577 C   0  0  0  0  0  0  0  0  0  0  0  0
   19.7127   20.1050   20.2791 H   0  0  0  0  0  0  0  0  0  0  0  0
   18.9081   20.2488   21.8321 H   0  0  0  0  0  0  0  0  0  0  0  0
   20.9931   20.8672   21.8490 C   0  0  0  0  0  0  0  0  0  0  0  0
   21.9538   20.5702   21.4090 H   0  0  0  0  0  0  0  0  0  0  0  0
   20.7977   21.9094   21.5658 H   0  0  0  0  0  0  0  0  0  0  0  0
   21.0893   20.8328   22.9424 H   0  0  0  0  0  0  0  0  0  0  0  0
  1  2  1  0  0  0  0
  1  3  2  0  0  0  0
  1  4  1  0  0  0  0
  4  5  1  0  0  0  0
  4  6  1  0  0  0  0
  4  7  1  0  0  0  0
  7  8  1  0  0  0  0
  7  9  1  0  0  0  0
  7 10  1  0  0  0  0
 10 11  1  0  0  0  0
 10 12  1  0  0  0  0
 10 13  1  0  0  0  0
 13 14  1  0  0  0  0
 13 15  1  0  0  0  0
 13 16  1  0  0  0  0
 16 17  1  0  0  0  0
 16 18  1  0  0  0  0
 16 19  1  0  0  0  0
 19 20  1  0  0  0  0
 19 21  1  0  0  0  0
 19 22  1  0  0  0  0
 22 23  1  0  0  0  0
 22 24  1  0  0  0  0
 22 25  1  0  0  0  0
M  END
> <VM2 Rank>
141

> <Conf_Id>
827

> <Probability>
0.00

> <Sum Probability>
99.94

> <Delta G>
5.137

> <G>
-2.825

> <E>
-28.329

> <-TS>
25.504

> <U+W>
-48.897

> <U>
12.037

> <W>
-60.933

> <W(PB)>
-63.292

> <W(SA)>
2.358

> <Valence>
9.200

> <Coulomb>
2.437

> <VdW>
0.400

> <VdW6>
-11.697

> <VdW12>
12.097

> <Bond>
0.260

> <Angle>
3.326

> <Pdih>
5.612

> <Idih>
0.002

> <Tether>
0.000

$$$$
VeraChem MOL file


 25 24  0  0  0  0  0  0  0  0999 V2000     
   19.8195   19.3182   27.1054 C   0  0  0  0  0  0  0  0  0  0  0  0
   20.6074   19.9063   27.8200 O   0  5  0  0  0  0  0  0  0  0  0  0
   18.6448   19.6154   27.0120 O   0  0  0  0  0  0  0  0  0  0  0  0
   20.3314   18.1290   26.2975 C   0  0  0  0  0  0  0  0  0  0  0  0
   19.4733   17.5182   25.9917 H   0  0  0  0  0  0  0  0  0  0  0  0
   20.9369   17.5113   26.9710 H   0  0  0  0  0  0  0  0  0  0  0  0
   21.1755   18.5250   25.0583 C   0  0  0  0  0  0  0  0  0  0  0  0
   22.0152   19.1582   25.3768 H   0  0  0  0  0  0  0  0  0  0  0  0
   21.6123   17.6174   24.6201 H   0  0  0  0  0  0  0  0  0  0  0  0
   20.3440   19.2593   23.9826 C   0  0  0  0  0  0  0  0  0  0  0  0
   19.9201   20.1787   24.4094 H   0  0  0  0  0  0  0  0  0  0  0  0
   19.4949   18.6307   23.6892 H   0  0  0  0  0  0  0  0  0  0  0  0
   21.2007   19.6190   22.7458 C   0  0  0  0  0  0  0  0  0  0  0  0
   22.0191   20.2733   23.0760 H   0  0  0  0  0  0  0  0  0  0  0  0
   21.6759   18.7183   22.3341 H   0  0  0  0  0  0  0  0  0  0  0  0
   20.4024   20.3520   21.6378 C   0  0  0  0  0  0  0  0  0  0  0  0
   21.0650   21.0963   21.1753 H   0  0  0  0  0  0  0  0  0  0  0  0
   19.5744   20.9233   22.0793 H   0  0  0  0  0  0  0  0  0  0  0  0
   19.8727   19.4345   20.5079 C   0  0  0  0  0  0  0  0  0  0  0  0
   19.3977   20.0633   19.7423 H   0  0  0  0  0  0  0  0  0  0  0  0
   20.7170   18.9341   20.0139 H   0  0  0  0  0  0  0  0  0  0  0  0
   18.8545   18.3753   20.9787 C   0  0  0  0  0  0  0  0  0  0  0  0
   18.0307   18.8405   21.5355 H   0  0  0  0  0  0  0  0  0  0  0  0
   18.4257   17.8458   20.1182 H   0  0  0  0  0  0  0  0  0  0  0  0
   19.3322   17.6264   21.6227 H   0  0  0  0  0  0  0  0  0  0  0  0
  1  2  1  0  0  0  0
  1  3  2  0  0  0  0
  1  4  1  0  0  0  0
  4  5  1  0  0  0  0
  4  6  1  0  0  0  0
  4  7  1  0  0  0  0
  7  8  1  0  0  0  0
  7  9  1  0  0  0  0
  7 10  1  0  0  0  0
 10 11  1  0  0  0  0
 10 12  1  0  0  0  0
 10 13  1  0  0  0  0
 13 14  1  0  0  0  0
 13 15  1  0  0  0  0
 13 16  1  0  0  0  0
 16 17  1  0  0  0  0
 16 18  1  0  0  0  0
 16 19  1  0  0  0  0
 19 20  1  0  0  0  0
 19 21  1  0  0  0  0
 19 22  1  0  0  0  0
 22 23  1  0  0  0  0
 22 24  1  0  0  0  0
 22 25  1  0  0  0  0
M  END
> <VM2 Rank>
142

> <Conf_Id>
1233

> <Probability>
0.00

> <Sum Probability>
99.94

> <Delta G>
5.300

> <G>
-2.662

> <E>
-27.708

> <-TS>
25.046

> <U+W>
-48.276

> <U>
11.935

> <W>
-60.211

> <W(PB)>
-62.649

> <W(SA)>
2.438

> <Valence>
10.764

> <Coulomb>
0.351

> <VdW>
0.820

> <VdW6>
-10.096

> <VdW12>
10.916

> <Bond>
0.214

> <Angle>
3.143

> <Pdih>
7.406

> <Idih>
0.001

> <Tether>
0.000

$$$$
VeraChem MOL file


 25 24  0  0  0  0  0  0  0  0999 V2000     
   19.9983   19.5179   27.1950 C   0  0  0  0  0  0  0  0  0  0  0  0
   21.0306   19.5361   27.8363 O   0  5  0  0  0  0  0  0  0  0  0  0
   19.0236   18.8628   27.5079 O   0  0  0  0  0  0  0  0  0  0  0  0
   19.9179   20.3791   25.9377 C   0  0  0  0  0  0  0  0  0  0  0  0
   20.3240   21.3658   26.1897 H   0  0  0  0  0  0  0  0  0  0  0  0
   18.8619   20.5265   25.6812 H   0  0  0  0  0  0  0  0  0  0  0  0
   20.6870   19.7972   24.7233 C   0  0  0  0  0  0  0  0  0  0  0  0
   20.6967   20.5450   23.9219 H   0  0  0  0  0  0  0  0  0  0  0  0
   21.7358   19.6304   25.0053 H   0  0  0  0  0  0  0  0  0  0  0  0
   20.0703   18.4734   24.2090 C   0  0  0  0  0  0  0  0  0  0  0  0
   19.0001   18.6056   23.9989 H   0  0  0  0  0  0  0  0  0  0  0  0
   20.1322   17.7278   25.0136 H   0  0  0  0  0  0  0  0  0  0  0  0
   20.7920   17.9064   22.9602 C   0  0  0  0  0  0  0  0  0  0  0  0
   21.8440   18.2230   22.9512 H   0  0  0  0  0  0  0  0  0  0  0  0
   20.8113   16.8112   23.0448 H   0  0  0  0  0  0  0  0  0  0  0  0
   20.1191   18.2573   21.6093 C   0  0  0  0  0  0  0  0  0  0  0  0
   19.0978   17.8528   21.5948 H   0  0  0  0  0  0  0  0  0  0  0  0
   20.6656   17.7414   20.8080 H   0  0  0  0  0  0  0  0  0  0  0  0
   20.0762   19.7683   21.2937 C   0  0  0  0  0  0  0  0  0  0  0  0
   19.4330   20.2824   22.0199 H   0  0  0  0  0  0  0  0  0  0  0  0
   21.0834   20.1967   21.3896 H   0  0  0  0  0  0  0  0  0  0  0  0
   19.5378   20.0356   19.8736 C   0  0  0  0  0  0  0  0  0  0  0  0
   18.5207   19.6387   19.7584 H   0  0  0  0  0  0  0  0  0  0  0  0
   19.5063   21.1136   19.6687 H   0  0  0  0  0  0  0  0  0  0  0  0
   20.1776   19.5655   19.1154 H   0  0  0  0  0  0  0  0  0  0  0  0
  1  2  1  0  0  0  0
  1  3  2  0  0  0  0
  1  4  1  0  0  0  0
  4  5  1  0  0  0  0
  4  6  1  0  0  0  0
  4  7  1  0  0  0  0
  7  8  1  0  0  0  0
  7  9  1  0  0  0  0
  7 10  1  0  0  0  0
 10 11  1  0  0  0  0
 10 12  1  0  0  0  0
 10 13  1  0  0  0  0
 13 14  1  0  0  0  0
 13 15  1  0  0  0  0
 13 16  1  0  0  0  0
 16 17  1  0  0  0  0
 16 18  1  0  0  0  0
 16 19  1  0  0  0  0
 19 20  1  0  0  0  0
 19 21  1  0  0  0  0
 19 22  1  0  0  0  0
 22 23  1  0  0  0  0
 22 24  1  0  0  0  0
 22 25  1  0  0  0  0
M  END
> <VM2 Rank>
143

> <Conf_Id>
1185

> <Probability>
0.00

> <Sum Probability>
99.94

> <Delta G>
5.309

> <G>
-2.653

> <E>
-27.733

> <-TS>
25.081

> <U+W>
-48.301

> <U>
11.345

> <W>
-59.646

> <W(PB)>
-62.071

> <W(SA)>
2.425

> <Valence>
10.839

> <Coulomb>
-0.332

> <VdW>
0.838

> <VdW6>
-10.154

> <VdW12>
10.992

> <Bond>
0.219

> <Angle>
3.144

> <Pdih>
7.476

> <Idih>
0.000

> <Tether>
0.000

$$$$
VeraChem MOL file


 25 24  0  0  0  0  0  0  0  0999 V2000     
   20.1195   19.0867   27.2051 C   0  0  0  0  0  0  0  0  0  0  0  0
   21.0024   19.6363   27.8340 O   0  5  0  0  0  0  0  0  0  0  0  0
   18.9426   19.1510   27.5013 O   0  0  0  0  0  0  0  0  0  0  0  0
   20.5147   18.2560   25.9874 C   0  0  0  0  0  0  0  0  0  0  0  0
   19.6931   17.5693   25.7504 H   0  0  0  0  0  0  0  0  0  0  0  0
   21.3720   17.6371   26.2769 H   0  0  0  0  0  0  0  0  0  0  0  0
   20.8830   19.1000   24.7395 C   0  0  0  0  0  0  0  0  0  0  0  0
   21.6880   19.8006   25.0013 H   0  0  0  0  0  0  0  0  0  0  0  0
   21.2904   18.4327   23.9713 H   0  0  0  0  0  0  0  0  0  0  0  0
   19.6735   19.8853   24.1759 C   0  0  0  0  0  0  0  0  0  0  0  0
   19.3282   20.5881   24.9467 H   0  0  0  0  0  0  0  0  0  0  0  0
   18.8313   19.2062   23.9849 H   0  0  0  0  0  0  0  0  0  0  0  0
   20.0096   20.6904   22.8951 C   0  0  0  0  0  0  0  0  0  0  0  0
   19.4548   21.6379   22.9318 H   0  0  0  0  0  0  0  0  0  0  0  0
   21.0725   20.9678   22.8870 H   0  0  0  0  0  0  0  0  0  0  0  0
   19.6342   19.9822   21.5689 C   0  0  0  0  0  0  0  0  0  0  0  0
   19.8419   20.6719   20.7395 H   0  0  0  0  0  0  0  0  0  0  0  0
   18.5520   19.7946   21.5494 H   0  0  0  0  0  0  0  0  0  0  0  0
   20.3884   18.6579   21.3197 C   0  0  0  0  0  0  0  0  0  0  0  0
   21.4700   18.8212   21.4217 H   0  0  0  0  0  0  0  0  0  0  0  0
   20.0982   17.9161   22.0752 H   0  0  0  0  0  0  0  0  0  0  0  0
   20.0852   18.0881   19.9192 C   0  0  0  0  0  0  0  0  0  0  0  0
   20.3957   18.7892   19.1335 H   0  0  0  0  0  0  0  0  0  0  0  0
   20.6221   17.1437   19.7616 H   0  0  0  0  0  0  0  0  0  0  0  0
   19.0117   17.8919   19.7993 H   0  0  0  0  0  0  0  0  0  0  0  0
  1  2  1  0  0  0  0
  1  3  2  0  0  0  0
  1  4  1  0  0  0  0
  4  5  1  0  0  0  0
  4  6  1  0  0  0  0
  4  7  1  0  0  0  0
  7  8  1  0  0  0  0
  7  9  1  0  0  0  0
  7 10  1  0  0  0  0
 10 11  1  0  0  0  0
 10 12  1  0  0  0  0
 10 13  1  0  0  0  0
 13 14  1  0  0  0  0
 13 15  1  0  0  0  0
 13 16  1  0  0  0  0
 16 17  1  0  0  0  0
 16 18  1  0  0  0  0
 16 19  1  0  0  0  0
 19 20  1  0  0  0  0
 19 21  1  0  0  0  0
 19 22  1  0  0  0  0
 22 23  1  0  0  0  0
 22 24  1  0  0  0  0
 22 25  1  0  0  0  0
M  END
> <VM2 Rank>
144

> <Conf_Id>
876

> <Probability>
0.00

> <Sum Probability>
99.95

> <Delta G>
5.317

> <G>
-2.645

> <E>
-27.725

> <-TS>
25.080

> <U+W>
-48.293

> <U>
11.345

> <W>
-59.638

> <W(PB)>
-62.075

> <W(SA)>
2.437

> <Valence>
10.840

> <Coulomb>
-0.333

> <VdW>
0.838

> <VdW6>
-10.154

> <VdW12>
10.991

> <Bond>
0.219

> <Angle>
3.144

> <Pdih>
7.476

> <Idih>
0.000

> <Tether>
0.000

$$$$
VeraChem MOL file


 25 24  0  0  0  0  0  0  0  0999 V2000     
   20.5585   19.2512   26.9631 C   0  0  0  0  0  0  0  0  0  0  0  0
   21.7677   19.1400   26.9130 O   0  5  0  0  0  0  0  0  0  0  0  0
   19.8416   18.5155   27.6126 O   0  0  0  0  0  0  0  0  0  0  0  0
   19.9085   20.3913   26.1841 C   0  0  0  0  0  0  0  0  0  0  0  0
   20.5073   21.2926   26.3599 H   0  0  0  0  0  0  0  0  0  0  0  0
   18.9151   20.5827   26.6075 H   0  0  0  0  0  0  0  0  0  0  0  0
   19.8009   20.1301   24.6593 C   0  0  0  0  0  0  0  0  0  0  0  0
   19.4429   21.0427   24.1644 H   0  0  0  0  0  0  0  0  0  0  0  0
   20.8040   19.9209   24.2648 H   0  0  0  0  0  0  0  0  0  0  0  0
   18.8490   18.9586   24.3245 C   0  0  0  0  0  0  0  0  0  0  0  0
   17.8907   19.1202   24.8368 H   0  0  0  0  0  0  0  0  0  0  0  0
   19.2596   18.0240   24.7309 H   0  0  0  0  0  0  0  0  0  0  0  0
   18.5683   18.7792   22.8115 C   0  0  0  0  0  0  0  0  0  0  0  0
   17.8436   17.9604   22.7053 H   0  0  0  0  0  0  0  0  0  0  0  0
   18.0693   19.6724   22.4115 H   0  0  0  0  0  0  0  0  0  0  0  0
   19.8156   18.4322   21.9592 C   0  0  0  0  0  0  0  0  0  0  0  0
   19.5154   17.7236   21.1752 H   0  0  0  0  0  0  0  0  0  0  0  0
   20.5597   17.9091   22.5753 H   0  0  0  0  0  0  0  0  0  0  0  0
   20.4528   19.6641   21.2755 C   0  0  0  0  0  0  0  0  0  0  0  0
   19.7130   20.1448   20.6208 H   0  0  0  0  0  0  0  0  0  0  0  0
   20.7438   20.4123   22.0226 H   0  0  0  0  0  0  0  0  0  0  0  0
   21.6902   19.2719   20.4431 C   0  0  0  0  0  0  0  0  0  0  0  0
   21.4240   18.5521   19.6580 H   0  0  0  0  0  0  0  0  0  0  0  0
   22.1268   20.1552   19.9593 H   0  0  0  0  0  0  0  0  0  0  0  0
   22.4618   18.8172   21.0782 H   0  0  0  0  0  0  0  0  0  0  0  0
  1  2  1  0  0  0  0
  1  3  2  0  0  0  0
  1  4  1  0  0  0  0
  4  5  1  0  0  0  0
  4  6  1  0  0  0  0
  4  7  1  0  0  0  0
  7  8  1  0  0  0  0
  7  9  1  0  0  0  0
  7 10  1  0  0  0  0
 10 11  1  0  0  0  0
 10 12  1  0  0  0  0
 10 13  1  0  0  0  0
 13 14  1  0  0  0  0
 13 15  1  0  0  0  0
 13 16  1  0  0  0  0
 16 17  1  0  0  0  0
 16 18  1  0  0  0  0
 16 19  1  0  0  0  0
 19 20  1  0  0  0  0
 19 21  1  0  0  0  0
 19 22  1  0  0  0  0
 22 23  1  0  0  0  0
 22 24  1  0  0  0  0
 22 25  1  0  0  0  0
M  END
> <VM2 Rank>
145

> <Conf_Id>
469

> <Probability>
0.00

> <Sum Probability>
99.95

> <Delta G>
5.327

> <G>
-2.636

> <E>
-27.714

> <-TS>
25.078

> <U+W>
-48.281

> <U>
12.004

> <W>
-60.285

> <W(PB)>
-62.708

> <W(SA)>
2.423

> <Valence>
10.797

> <Coulomb>
0.449

> <VdW>
0.758

> <VdW6>
-10.233

> <VdW12>
10.990

> <Bond>
0.215

> <Angle>
3.136

> <Pdih>
7.446

> <Idih>
0.001

> <Tether>
0.000

$$$$
VeraChem MOL file


 25 24  0  0  0  0  0  0  0  0999 V2000     
   19.8571   19.1375   27.1077 C   0  0  0  0  0  0  0  0  0  0  0  0
   20.8107   18.9291   27.8319 O   0  5  0  0  0  0  0  0  0  0  0  0
   18.8988   18.3944   27.0269 O   0  0  0  0  0  0  0  0  0  0  0  0
   19.8564   20.4128   26.2695 C   0  0  0  0  0  0  0  0  0  0  0  0
   20.1621   21.2364   26.9254 H   0  0  0  0  0  0  0  0  0  0  0  0
   18.8274   20.6234   25.9536 H   0  0  0  0  0  0  0  0  0  0  0  0
   20.7945   20.3572   25.0359 C   0  0  0  0  0  0  0  0  0  0  0  0
   20.8355   21.3531   24.5744 H   0  0  0  0  0  0  0  0  0  0  0  0
   21.8154   20.1186   25.3651 H   0  0  0  0  0  0  0  0  0  0  0  0
   20.3298   19.3272   23.9818 C   0  0  0  0  0  0  0  0  0  0  0  0
   19.3020   19.5583   23.6779 H   0  0  0  0  0  0  0  0  0  0  0  0
   20.3053   18.3254   24.4321 H   0  0  0  0  0  0  0  0  0  0  0  0
   21.2650   19.3099   22.7497 C   0  0  0  0  0  0  0  0  0  0  0  0
   21.3440   20.3155   22.3147 H   0  0  0  0  0  0  0  0  0  0  0  0
   22.2746   19.0437   23.0911 H   0  0  0  0  0  0  0  0  0  0  0  0
   20.8303   18.2939   21.6629 C   0  0  0  0  0  0  0  0  0  0  0  0
   20.2963   17.4505   22.1216 H   0  0  0  0  0  0  0  0  0  0  0  0
   21.7368   17.8646   21.2147 H   0  0  0  0  0  0  0  0  0  0  0  0
   19.9844   18.8977   20.5145 C   0  0  0  0  0  0  0  0  0  0  0  0
   20.5617   19.6813   20.0048 H   0  0  0  0  0  0  0  0  0  0  0  0
   19.8029   18.1141   19.7661 H   0  0  0  0  0  0  0  0  0  0  0  0
   18.6262   19.4743   20.9653 C   0  0  0  0  0  0  0  0  0  0  0  0
   18.7628   20.3663   21.5892 H   0  0  0  0  0  0  0  0  0  0  0  0
   18.0261   19.7688   20.0947 H   0  0  0  0  0  0  0  0  0  0  0  0
   18.0532   18.7325   21.5368 H   0  0  0  0  0  0  0  0  0  0  0  0
  1  2  1  0  0  0  0
  1  3  2  0  0  0  0
  1  4  1  0  0  0  0
  4  5  1  0  0  0  0
  4  6  1  0  0  0  0
  4  7  1  0  0  0  0
  7  8  1  0  0  0  0
  7  9  1  0  0  0  0
  7 10  1  0  0  0  0
 10 11  1  0  0  0  0
 10 12  1  0  0  0  0
 10 13  1  0  0  0  0
 13 14  1  0  0  0  0
 13 15  1  0  0  0  0
 13 16  1  0  0  0  0
 16 17  1  0  0  0  0
 16 18  1  0  0  0  0
 16 19  1  0  0  0  0
 19 20  1  0  0  0  0
 19 21  1  0  0  0  0
 19 22  1  0  0  0  0
 22 23  1  0  0  0  0
 22 24  1  0  0  0  0
 22 25  1  0  0  0  0
M  END
> <VM2 Rank>
146

> <Conf_Id>
144

> <Probability>
0.00

> <Sum Probability>
99.95

> <Delta G>
5.338

> <G>
-2.625

> <E>
-27.671

> <-TS>
25.047

> <U+W>
-48.239

> <U>
11.936

> <W>
-60.175

> <W(PB)>
-62.618

> <W(SA)>
2.444

> <Valence>
10.764

> <Coulomb>
0.352

> <VdW>
0.820

> <VdW6>
-10.096

> <VdW12>
10.916

> <Bond>
0.214

> <Angle>
3.143

> <Pdih>
7.406

> <Idih>
0.001

> <Tether>
0.000

$$$$
VeraChem MOL file


 25 24  0  0  0  0  0  0  0  0999 V2000     
   20.0180   19.3218   26.9637 C   0  0  0  0  0  0  0  0  0  0  0  0
   20.8917   19.6651   27.7360 O   0  5  0  0  0  0  0  0  0  0  0  0
   18.8749   19.7312   27.0175 O   0  0  0  0  0  0  0  0  0  0  0  0
   20.3710   18.2982   25.8883 C   0  0  0  0  0  0  0  0  0  0  0  0
   19.4422   17.8897   25.4741 H   0  0  0  0  0  0  0  0  0  0  0  0
   20.8823   17.4657   26.3855 H   0  0  0  0  0  0  0  0  0  0  0  0
   21.2763   18.8549   24.7558 C   0  0  0  0  0  0  0  0  0  0  0  0
   22.2212   19.1999   25.1976 H   0  0  0  0  0  0  0  0  0  0  0  0
   21.5432   18.0387   24.0722 H   0  0  0  0  0  0  0  0  0  0  0  0
   20.6488   20.0228   23.9518 C   0  0  0  0  0  0  0  0  0  0  0  0
   21.3736   20.3690   23.2034 H   0  0  0  0  0  0  0  0  0  0  0  0
   20.4895   20.8756   24.6256 H   0  0  0  0  0  0  0  0  0  0  0  0
   19.3063   19.6921   23.2486 C   0  0  0  0  0  0  0  0  0  0  0  0
   18.5395   19.4969   24.0101 H   0  0  0  0  0  0  0  0  0  0  0  0
   18.9602   20.5851   22.7124 H   0  0  0  0  0  0  0  0  0  0  0  0
   19.3536   18.4921   22.2663 C   0  0  0  0  0  0  0  0  0  0  0  0
   18.3547   18.3568   21.8303 H   0  0  0  0  0  0  0  0  0  0  0  0
   19.5596   17.5718   22.8282 H   0  0  0  0  0  0  0  0  0  0  0  0
   20.3857   18.6216   21.1190 C   0  0  0  0  0  0  0  0  0  0  0  0
   21.4023   18.6790   21.5298 H   0  0  0  0  0  0  0  0  0  0  0  0
   20.3533   17.7053   20.5138 H   0  0  0  0  0  0  0  0  0  0  0  0
   20.1267   19.8342   20.1990 C   0  0  0  0  0  0  0  0  0  0  0  0
   20.2563   20.7798   20.7402 H   0  0  0  0  0  0  0  0  0  0  0  0
   20.8295   19.8340   19.3559 H   0  0  0  0  0  0  0  0  0  0  0  0
   19.1080   19.8072   19.7910 H   0  0  0  0  0  0  0  0  0  0  0  0
  1  2  1  0  0  0  0
  1  3  2  0  0  0  0
  1  4  1  0  0  0  0
  4  5  1  0  0  0  0
  4  6  1  0  0  0  0
  4  7  1  0  0  0  0
  7  8  1  0  0  0  0
  7  9  1  0  0  0  0
  7 10  1  0  0  0  0
 10 11  1  0  0  0  0
 10 12  1  0  0  0  0
 10 13  1  0  0  0  0
 13 14  1  0  0  0  0
 13 15  1  0  0  0  0
 13 16  1  0  0  0  0
 16 17  1  0  0  0  0
 16 18  1  0  0  0  0
 16 19  1  0  0  0  0
 19 20  1  0  0  0  0
 19 21  1  0  0  0  0
 19 22  1  0  0  0  0
 22 23  1  0  0  0  0
 22 24  1  0  0  0  0
 22 25  1  0  0  0  0
M  END
> <VM2 Rank>
147

> <Conf_Id>
146

> <Probability>
0.00

> <Sum Probability>
99.96

> <Delta G>
5.345

> <G>
-2.618

> <E>
-28.450

> <-TS>
25.832

> <U+W>
-49.017

> <U>
11.078

> <W>
-60.096

> <W(PB)>
-62.453

> <W(SA)>
2.357

> <Valence>
9.623

> <Coulomb>
0.949

> <VdW>
0.506

> <VdW6>
-12.338

> <VdW12>
12.845

> <Bond>
0.307

> <Angle>
3.790

> <Pdih>
5.525

> <Idih>
0.001

> <Tether>
0.000

$$$$
VeraChem MOL file


 25 24  0  0  0  0  0  0  0  0999 V2000     
   19.9354   19.2360   27.1833 C   0  0  0  0  0  0  0  0  0  0  0  0
   20.9934   19.4030   27.7577 O   0  5  0  0  0  0  0  0  0  0  0  0
   18.9140   19.8294   27.4692 O   0  0  0  0  0  0  0  0  0  0  0  0
   19.8793   18.2107   26.0542 C   0  0  0  0  0  0  0  0  0  0  0  0
   18.9838   17.5986   26.2132 H   0  0  0  0  0  0  0  0  0  0  0  0
   20.7425   17.5404   26.1458 H   0  0  0  0  0  0  0  0  0  0  0  0
   19.8338   18.8347   24.6351 C   0  0  0  0  0  0  0  0  0  0  0  0
   19.6378   18.0333   23.9115 H   0  0  0  0  0  0  0  0  0  0  0  0
   18.9924   19.5386   24.5729 H   0  0  0  0  0  0  0  0  0  0  0  0
   21.1504   19.5534   24.2586 C   0  0  0  0  0  0  0  0  0  0  0  0
   21.9722   18.8247   24.2440 H   0  0  0  0  0  0  0  0  0  0  0  0
   21.4009   20.2820   25.0418 H   0  0  0  0  0  0  0  0  0  0  0  0
   21.1015   20.3014   22.9026 C   0  0  0  0  0  0  0  0  0  0  0  0
   20.3469   21.0990   22.9397 H   0  0  0  0  0  0  0  0  0  0  0  0
   22.0663   20.8102   22.7716 H   0  0  0  0  0  0  0  0  0  0  0  0
   20.8642   19.3930   21.6694 C   0  0  0  0  0  0  0  0  0  0  0  0
   21.2346   18.3786   21.8709 H   0  0  0  0  0  0  0  0  0  0  0  0
   21.4647   19.7768   20.8333 H   0  0  0  0  0  0  0  0  0  0  0  0
   19.3859   19.3473   21.2184 C   0  0  0  0  0  0  0  0  0  0  0  0
   18.7434   19.0001   22.0365 H   0  0  0  0  0  0  0  0  0  0  0  0
   19.0484   20.3613   20.9629 H   0  0  0  0  0  0  0  0  0  0  0  0
   19.1951   18.4250   19.9975 C   0  0  0  0  0  0  0  0  0  0  0  0
   19.4943   17.3953   20.2334 H   0  0  0  0  0  0  0  0  0  0  0  0
   18.1428   18.4090   19.6854 H   0  0  0  0  0  0  0  0  0  0  0  0
   19.7960   18.7703   19.1461 H   0  0  0  0  0  0  0  0  0  0  0  0
  1  2  1  0  0  0  0
  1  3  2  0  0  0  0
  1  4  1  0  0  0  0
  4  5  1  0  0  0  0
  4  6  1  0  0  0  0
  4  7  1  0  0  0  0
  7  8  1  0  0  0  0
  7  9  1  0  0  0  0
  7 10  1  0  0  0  0
 10 11  1  0  0  0  0
 10 12  1  0  0  0  0
 10 13  1  0  0  0  0
 13 14  1  0  0  0  0
 13 15  1  0  0  0  0
 13 16  1  0  0  0  0
 16 17  1  0  0  0  0
 16 18  1  0  0  0  0
 16 19  1  0  0  0  0
 19 20  1  0  0  0  0
 19 21  1  0  0  0  0
 19 22  1  0  0  0  0
 22 23  1  0  0  0  0
 22 24  1  0  0  0  0
 22 25  1  0  0  0  0
M  END
> <VM2 Rank>
148

> <Conf_Id>
574

> <Probability>
0.00

> <Sum Probability>
99.96

> <Delta G>
5.351

> <G>
-2.611

> <E>
-27.722

> <-TS>
25.111

> <U+W>
-48.290

> <U>
11.468

> <W>
-59.758

> <W(PB)>
-62.184

> <W(SA)>
2.426

> <Valence>
10.870

> <Coulomb>
-0.266

> <VdW>
0.864

> <VdW6>
-10.146

> <VdW12>
11.010

> <Bond>
0.218

> <Angle>
3.178

> <Pdih>
7.473

> <Idih>
0.001

> <Tether>
0.000

$$$$
VeraChem MOL file


 25 24  0  0  0  0  0  0  0  0999 V2000     
   20.2839   19.3388   26.9607 C   0  0  0  0  0  0  0  0  0  0  0  0
   21.3668   19.8900   26.9887 O   0  5  0  0  0  0  0  0  0  0  0  0
   19.3917   19.5696   27.7533 O   0  0  0  0  0  0  0  0  0  0  0  0
   20.0390   18.2770   25.8922 C   0  0  0  0  0  0  0  0  0  0  0  0
   19.6491   17.3872   26.3998 H   0  0  0  0  0  0  0  0  0  0  0  0
   21.0024   17.9891   25.4562 H   0  0  0  0  0  0  0  0  0  0  0  0
   19.0446   18.7127   24.7816 C   0  0  0  0  0  0  0  0  0  0  0  0
   18.8678   17.8682   24.1032 H   0  0  0  0  0  0  0  0  0  0  0  0
   18.0740   18.9357   25.2455 H   0  0  0  0  0  0  0  0  0  0  0  0
   19.5002   19.9496   23.9651 C   0  0  0  0  0  0  0  0  0  0  0  0
   19.5655   20.8167   24.6363 H   0  0  0  0  0  0  0  0  0  0  0  0
   18.7203   20.1999   23.2340 H   0  0  0  0  0  0  0  0  0  0  0  0
   20.8573   19.7908   23.2307 C   0  0  0  0  0  0  0  0  0  0  0  0
   21.0749   20.7198   22.6880 H   0  0  0  0  0  0  0  0  0  0  0  0
   21.6599   19.6956   23.9740 H   0  0  0  0  0  0  0  0  0  0  0  0
   20.9400   18.5932   22.2479 C   0  0  0  0  0  0  0  0  0  0  0  0
   20.8655   17.6549   22.8130 H   0  0  0  0  0  0  0  0  0  0  0  0
   21.9378   18.5850   21.7888 H   0  0  0  0  0  0  0  0  0  0  0  0
   19.8737   18.5890   21.1249 C   0  0  0  0  0  0  0  0  0  0  0  0
   20.0082   17.6833   20.5177 H   0  0  0  0  0  0  0  0  0  0  0  0
   18.8678   18.5176   21.5590 H   0  0  0  0  0  0  0  0  0  0  0  0
   19.9556   19.8233   20.2009 C   0  0  0  0  0  0  0  0  0  0  0  0
   19.2392   19.7328   19.3742 H   0  0  0  0  0  0  0  0  0  0  0  0
   19.7196   20.7456   20.7464 H   0  0  0  0  0  0  0  0  0  0  0  0
   20.9598   19.9252   19.7695 H   0  0  0  0  0  0  0  0  0  0  0  0
  1  2  1  0  0  0  0
  1  3  2  0  0  0  0
  1  4  1  0  0  0  0
  4  5  1  0  0  0  0
  4  6  1  0  0  0  0
  4  7  1  0  0  0  0
  7  8  1  0  0  0  0
  7  9  1  0  0  0  0
  7 10  1  0  0  0  0
 10 11  1  0  0  0  0
 10 12  1  0  0  0  0
 10 13  1  0  0  0  0
 13 14  1  0  0  0  0
 13 15  1  0  0  0  0
 13 16  1  0  0  0  0
 16 17  1  0  0  0  0
 16 18  1  0  0  0  0
 16 19  1  0  0  0  0
 19 20  1  0  0  0  0
 19 21  1  0  0  0  0
 19 22  1  0  0  0  0
 22 23  1  0  0  0  0
 22 24  1  0  0  0  0
 22 25  1  0  0  0  0
M  END
> <VM2 Rank>
149

> <Conf_Id>
1373

> <Probability>
0.00

> <Sum Probability>
99.96

> <Delta G>
5.352

> <G>
-2.611

> <E>
-28.443

> <-TS>
25.833

> <U+W>
-49.011

> <U>
11.078

> <W>
-60.089

> <W(PB)>
-62.437

> <W(SA)>
2.348

> <Valence>
9.623

> <Coulomb>
0.949

> <VdW>
0.506

> <VdW6>
-12.338

> <VdW12>
12.844

> <Bond>
0.307

> <Angle>
3.790

> <Pdih>
5.525

> <Idih>
0.001

> <Tether>
0.000

$$$$
VeraChem MOL file


 25 24  0  0  0  0  0  0  0  0999 V2000     
   19.8965   19.7936   26.8221 C   0  0  0  0  0  0  0  0  0  0  0  0
   20.3175   19.4889   27.9209 O   0  5  0  0  0  0  0  0  0  0  0  0
   18.7247   20.0172   26.5898 O   0  0  0  0  0  0  0  0  0  0  0  0
   20.8994   19.9237   25.6788 C   0  0  0  0  0  0  0  0  0  0  0  0
   21.7354   20.5282   26.0494 H   0  0  0  0  0  0  0  0  0  0  0  0
   20.4305   20.4979   24.8736 H   0  0  0  0  0  0  0  0  0  0  0  0
   21.4403   18.5635   25.1568 C   0  0  0  0  0  0  0  0  0  0  0  0
   22.2932   18.7345   24.4862 H   0  0  0  0  0  0  0  0  0  0  0  0
   21.8391   18.0052   26.0152 H   0  0  0  0  0  0  0  0  0  0  0  0
   20.3782   17.6878   24.4420 C   0  0  0  0  0  0  0  0  0  0  0  0
   19.3783   17.8824   24.8532 H   0  0  0  0  0  0  0  0  0  0  0  0
   20.5938   16.6355   24.6717 H   0  0  0  0  0  0  0  0  0  0  0  0
   20.3522   17.8313   22.8994 C   0  0  0  0  0  0  0  0  0  0  0  0
   21.3284   17.5401   22.4884 H   0  0  0  0  0  0  0  0  0  0  0  0
   19.6234   17.1127   22.5003 H   0  0  0  0  0  0  0  0  0  0  0  0
   19.9860   19.2464   22.3991 C   0  0  0  0  0  0  0  0  0  0  0  0
   20.7771   19.9530   22.6810 H   0  0  0  0  0  0  0  0  0  0  0  0
   19.0601   19.5811   22.8868 H   0  0  0  0  0  0  0  0  0  0  0  0
   19.8054   19.2825   20.8669 C   0  0  0  0  0  0  0  0  0  0  0  0
   20.7287   18.9429   20.3773 H   0  0  0  0  0  0  0  0  0  0  0  0
   19.0109   18.5838   20.5704 H   0  0  0  0  0  0  0  0  0  0  0  0
   19.4528   20.6990   20.3702 C   0  0  0  0  0  0  0  0  0  0  0  0
   20.2465   21.4135   20.6250 H   0  0  0  0  0  0  0  0  0  0  0  0
   19.3271   20.7067   19.2797 H   0  0  0  0  0  0  0  0  0  0  0  0
   18.5163   21.0516   20.8220 H   0  0  0  0  0  0  0  0  0  0  0  0
  1  2  1  0  0  0  0
  1  3  2  0  0  0  0
  1  4  1  0  0  0  0
  4  5  1  0  0  0  0
  4  6  1  0  0  0  0
  4  7  1  0  0  0  0
  7  8  1  0  0  0  0
  7  9  1  0  0  0  0
  7 10  1  0  0  0  0
 10 11  1  0  0  0  0
 10 12  1  0  0  0  0
 10 13  1  0  0  0  0
 13 14  1  0  0  0  0
 13 15  1  0  0  0  0
 13 16  1  0  0  0  0
 16 17  1  0  0  0  0
 16 18  1  0  0  0  0
 16 19  1  0  0  0  0
 19 20  1  0  0  0  0
 19 21  1  0  0  0  0
 19 22  1  0  0  0  0
 22 23  1  0  0  0  0
 22 24  1  0  0  0  0
 22 25  1  0  0  0  0
M  END
> <VM2 Rank>
150

> <Conf_Id>
191

> <Probability>
0.00

> <Sum Probability>
99.96

> <Delta G>
5.373

> <G>
-2.589

> <E>
-27.736

> <-TS>
25.147

> <U+W>
-48.304

> <U>
11.917

> <W>
-60.221

> <W(PB)>
-62.639

> <W(SA)>
2.418

> <Valence>
10.867

> <Coulomb>
0.269

> <VdW>
0.781

> <VdW6>
-10.299

> <VdW12>
11.079

> <Bond>
0.238

> <Angle>
3.230

> <Pdih>
7.398

> <Idih>
0.001

> <Tether>
0.000

$$$$
VeraChem MOL file


 25 24  0  0  0  0  0  0  0  0999 V2000     
   19.8066   18.9535   26.9406 C   0  0  0  0  0  0  0  0  0  0  0  0
   20.7159   18.5491   27.6383 O   0  5  0  0  0  0  0  0  0  0  0  0
   18.8045   18.3089   26.7011 O   0  0  0  0  0  0  0  0  0  0  0  0
   19.9222   20.3565   26.3513 C   0  0  0  0  0  0  0  0  0  0  0  0
   20.2524   21.0240   27.1559 H   0  0  0  0  0  0  0  0  0  0  0  0
   18.9227   20.6927   26.0496 H   0  0  0  0  0  0  0  0  0  0  0  0
   20.9050   20.4594   25.1561 C   0  0  0  0  0  0  0  0  0  0  0  0
   21.0261   21.5166   24.8838 H   0  0  0  0  0  0  0  0  0  0  0  0
   21.8948   20.0971   25.4670 H   0  0  0  0  0  0  0  0  0  0  0  0
   20.4214   19.6675   23.9204 C   0  0  0  0  0  0  0  0  0  0  0  0
   19.4241   20.0259   23.6349 H   0  0  0  0  0  0  0  0  0  0  0  0
   20.3230   18.6037   24.1768 H   0  0  0  0  0  0  0  0  0  0  0  0
   21.3899   19.8227   22.7270 C   0  0  0  0  0  0  0  0  0  0  0  0
   21.4114   20.8738   22.4086 H   0  0  0  0  0  0  0  0  0  0  0  0
   22.4082   19.5808   23.0608 H   0  0  0  0  0  0  0  0  0  0  0  0
   21.0519   18.9235   21.5111 C   0  0  0  0  0  0  0  0  0  0  0  0
   21.1208   17.8645   21.7952 H   0  0  0  0  0  0  0  0  0  0  0  0
   21.8345   19.0812   20.7564 H   0  0  0  0  0  0  0  0  0  0  0  0
   19.6807   19.2135   20.8510 C   0  0  0  0  0  0  0  0  0  0  0  0
   19.3991   20.2645   21.0036 H   0  0  0  0  0  0  0  0  0  0  0  0
   19.7781   19.0780   19.7650 H   0  0  0  0  0  0  0  0  0  0  0  0
   18.5550   18.2794   21.3490 C   0  0  0  0  0  0  0  0  0  0  0  0
   18.7959   17.2299   21.1353 H   0  0  0  0  0  0  0  0  0  0  0  0
   18.3919   18.3752   22.4285 H   0  0  0  0  0  0  0  0  0  0  0  0
   17.6090   18.5158   20.8450 H   0  0  0  0  0  0  0  0  0  0  0  0
  1  2  1  0  0  0  0
  1  3  2  0  0  0  0
  1  4  1  0  0  0  0
  4  5  1  0  0  0  0
  4  6  1  0  0  0  0
  4  7  1  0  0  0  0
  7  8  1  0  0  0  0
  7  9  1  0  0  0  0
  7 10  1  0  0  0  0
 10 11  1  0  0  0  0
 10 12  1  0  0  0  0
 10 13  1  0  0  0  0
 13 14  1  0  0  0  0
 13 15  1  0  0  0  0
 13 16  1  0  0  0  0
 16 17  1  0  0  0  0
 16 18  1  0  0  0  0
 16 19  1  0  0  0  0
 19 20  1  0  0  0  0
 19 21  1  0  0  0  0
 19 22  1  0  0  0  0
 22 23  1  0  0  0  0
 22 24  1  0  0  0  0
 22 25  1  0  0  0  0
M  END
> <VM2 Rank>
151

> <Conf_Id>
841

> <Probability>
0.00

> <Sum Probability>
99.97

> <Delta G>
5.408

> <G>
-2.554

> <E>
-27.607

> <-TS>
25.054

> <U+W>
-48.175

> <U>
12.391

> <W>
-60.566

> <W(PB)>
-62.990

> <W(SA)>
2.424

> <Valence>
10.775

> <Coulomb>
0.820

> <VdW>
0.796

> <VdW6>
-10.157

> <VdW12>
10.953

> <Bond>
0.213

> <Angle>
3.162

> <Pdih>
7.399

> <Idih>
0.001

> <Tether>
0.000

$$$$
VeraChem MOL file


 25 24  0  0  0  0  0  0  0  0999 V2000     
   20.3459   18.7476   26.8316 C   0  0  0  0  0  0  0  0  0  0  0  0
   21.3837   19.1049   27.3534 O   0  5  0  0  0  0  0  0  0  0  0  0
   20.0808   17.5873   26.5860 O   0  0  0  0  0  0  0  0  0  0  0  0
   19.3104   19.8146   26.4869 C   0  0  0  0  0  0  0  0  0  0  0  0
   19.2143   20.4719   27.3590 H   0  0  0  0  0  0  0  0  0  0  0  0
   18.3381   19.3266   26.3481 H   0  0  0  0  0  0  0  0  0  0  0  0
   19.6679   20.6604   25.2372 C   0  0  0  0  0  0  0  0  0  0  0  0
   18.9450   21.4821   25.1448 H   0  0  0  0  0  0  0  0  0  0  0  0
   20.6551   21.1217   25.3796 H   0  0  0  0  0  0  0  0  0  0  0  0
   19.6632   19.8272   23.9357 C   0  0  0  0  0  0  0  0  0  0  0  0
   18.6783   19.3596   23.8016 H   0  0  0  0  0  0  0  0  0  0  0  0
   20.3979   19.0167   24.0251 H   0  0  0  0  0  0  0  0  0  0  0  0
   19.9988   20.6929   22.7010 C   0  0  0  0  0  0  0  0  0  0  0  0
   19.3373   21.5698   22.6894 H   0  0  0  0  0  0  0  0  0  0  0  0
   21.0224   21.0804   22.7949 H   0  0  0  0  0  0  0  0  0  0  0  0
   19.8495   19.9557   21.3462 C   0  0  0  0  0  0  0  0  0  0  0  0
   20.0570   20.6837   20.5501 H   0  0  0  0  0  0  0  0  0  0  0  0
   18.8064   19.6435   21.2001 H   0  0  0  0  0  0  0  0  0  0  0  0
   20.8022   18.7490   21.1553 C   0  0  0  0  0  0  0  0  0  0  0  0
   21.1107   18.7090   20.1015 H   0  0  0  0  0  0  0  0  0  0  0  0
   21.7226   18.8943   21.7376 H   0  0  0  0  0  0  0  0  0  0  0  0
   20.1505   17.3944   21.5129 C   0  0  0  0  0  0  0  0  0  0  0  0
   19.2663   17.2098   20.8892 H   0  0  0  0  0  0  0  0  0  0  0  0
   20.8577   16.5721   21.3442 H   0  0  0  0  0  0  0  0  0  0  0  0
   19.8379   17.3556   22.5627 H   0  0  0  0  0  0  0  0  0  0  0  0
  1  2  1  0  0  0  0
  1  3  2  0  0  0  0
  1  4  1  0  0  0  0
  4  5  1  0  0  0  0
  4  6  1  0  0  0  0
  4  7  1  0  0  0  0
  7  8  1  0  0  0  0
  7  9  1  0  0  0  0
  7 10  1  0  0  0  0
 10 11  1  0  0  0  0
 10 12  1  0  0  0  0
 10 13  1  0  0  0  0
 13 14  1  0  0  0  0
 13 15  1  0  0  0  0
 13 16  1  0  0  0  0
 16 17  1  0  0  0  0
 16 18  1  0  0  0  0
 16 19  1  0  0  0  0
 19 20  1  0  0  0  0
 19 21  1  0  0  0  0
 19 22  1  0  0  0  0
 22 23  1  0  0  0  0
 22 24  1  0  0  0  0
 22 25  1  0  0  0  0
M  END
> <VM2 Rank>
152

> <Conf_Id>
792

> <Probability>
0.00

> <Sum Probability>
99.97

> <Delta G>
5.481

> <G>
-2.481

> <E>
-27.540

> <-TS>
25.059

> <U+W>
-48.107

> <U>
12.670

> <W>
-60.777

> <W(PB)>
-63.216

> <W(SA)>
2.438

> <Valence>
10.771

> <Coulomb>
1.134

> <VdW>
0.764

> <VdW6>
-10.207

> <VdW12>
10.972

> <Bond>
0.213

> <Angle>
3.170

> <Pdih>
7.388

> <Idih>
0.001

> <Tether>
0.000

$$$$
VeraChem MOL file


 25 24  0  0  0  0  0  0  0  0999 V2000     
   19.7439   19.5543   26.9320 C   0  0  0  0  0  0  0  0  0  0  0  0
   20.5481   20.1568   27.6158 O   0  5  0  0  0  0  0  0  0  0  0  0
   18.6311   19.9711   26.6776 O   0  0  0  0  0  0  0  0  0  0  0  0
   20.1484   18.1894   26.3819 C   0  0  0  0  0  0  0  0  0  0  0  0
   19.2407   17.6458   26.0927 H   0  0  0  0  0  0  0  0  0  0  0  0
   20.6070   17.6272   27.2038 H   0  0  0  0  0  0  0  0  0  0  0  0
   21.1347   18.2581   25.1871 C   0  0  0  0  0  0  0  0  0  0  0  0
   22.0275   18.8254   25.4848 H   0  0  0  0  0  0  0  0  0  0  0  0
   21.4721   17.2414   24.9441 H   0  0  0  0  0  0  0  0  0  0  0  0
   20.5016   18.8983   23.9312 C   0  0  0  0  0  0  0  0  0  0  0  0
   20.1851   19.9257   24.1581 H   0  0  0  0  0  0  0  0  0  0  0  0
   19.6006   18.3341   23.6587 H   0  0  0  0  0  0  0  0  0  0  0  0
   21.4847   18.9132   22.7397 C   0  0  0  0  0  0  0  0  0  0  0  0
   22.4303   19.3690   23.0637 H   0  0  0  0  0  0  0  0  0  0  0  0
   21.7236   17.8806   22.4507 H   0  0  0  0  0  0  0  0  0  0  0  0
   20.9721   19.6890   21.5003 C   0  0  0  0  0  0  0  0  0  0  0  0
   21.7725   19.6751   20.7480 H   0  0  0  0  0  0  0  0  0  0  0  0
   20.8203   20.7470   21.7545 H   0  0  0  0  0  0  0  0  0  0  0  0
   19.6919   19.1043   20.8526 C   0  0  0  0  0  0  0  0  0  0  0  0
   19.7624   19.2268   19.7630 H   0  0  0  0  0  0  0  0  0  0  0  0
   19.6328   18.0224   21.0350 H   0  0  0  0  0  0  0  0  0  0  0  0
   18.3965   19.7995   21.3278 C   0  0  0  0  0  0  0  0  0  0  0  0
   18.4163   20.8698   21.0846 H   0  0  0  0  0  0  0  0  0  0  0  0
   17.5210   19.3593   20.8334 H   0  0  0  0  0  0  0  0  0  0  0  0
   18.2535   19.7020   22.4101 H   0  0  0  0  0  0  0  0  0  0  0  0
  1  2  1  0  0  0  0
  1  3  2  0  0  0  0
  1  4  1  0  0  0  0
  4  5  1  0  0  0  0
  4  6  1  0  0  0  0
  4  7  1  0  0  0  0
  7  8  1  0  0  0  0
  7  9  1  0  0  0  0
  7 10  1  0  0  0  0
 10 11  1  0  0  0  0
 10 12  1  0  0  0  0
 10 13  1  0  0  0  0
 13 14  1  0  0  0  0
 13 15  1  0  0  0  0
 13 16  1  0  0  0  0
 16 17  1  0  0  0  0
 16 18  1  0  0  0  0
 16 19  1  0  0  0  0
 19 20  1  0  0  0  0
 19 21  1  0  0  0  0
 19 22  1  0  0  0  0
 22 23  1  0  0  0  0
 22 24  1  0  0  0  0
 22 25  1  0  0  0  0
M  END
> <VM2 Rank>
153

> <Conf_Id>
513

> <Probability>
0.00

> <Sum Probability>
99.97

> <Delta G>
5.489

> <G>
-2.474

> <E>
-27.527

> <-TS>
25.053

> <U+W>
-48.094

> <U>
12.391

> <W>
-60.485

> <W(PB)>
-62.925

> <W(SA)>
2.439

> <Valence>
10.774

> <Coulomb>
0.820

> <VdW>
0.796

> <VdW6>
-10.157

> <VdW12>
10.953

> <Bond>
0.213

> <Angle>
3.162

> <Pdih>
7.399

> <Idih>
0.001

> <Tether>
0.000

$$$$
VeraChem MOL file


 25 24  0  0  0  0  0  0  0  0999 V2000     
   20.6618   19.0276   26.6865 C   0  0  0  0  0  0  0  0  0  0  0  0
   21.8558   19.1632   26.5048 O   0  5  0  0  0  0  0  0  0  0  0  0
   20.1561   18.0030   27.1007 O   0  0  0  0  0  0  0  0  0  0  0  0
   19.7515   20.2188   26.4007 C   0  0  0  0  0  0  0  0  0  0  0  0
   20.2174   21.1026   26.8520 H   0  0  0  0  0  0  0  0  0  0  0  0
   18.7969   20.0633   26.9178 H   0  0  0  0  0  0  0  0  0  0  0  0
   19.5089   20.4751   24.8909 C   0  0  0  0  0  0  0  0  0  0  0  0
   18.9741   21.4271   24.7734 H   0  0  0  0  0  0  0  0  0  0  0  0
   20.4762   20.5985   24.3890 H   0  0  0  0  0  0  0  0  0  0  0  0
   18.6855   19.3466   24.2231 C   0  0  0  0  0  0  0  0  0  0  0  0
   17.7106   19.2907   24.7262 H   0  0  0  0  0  0  0  0  0  0  0  0
   19.1660   18.3714   24.3820 H   0  0  0  0  0  0  0  0  0  0  0  0
   18.4476   19.5775   22.7093 C   0  0  0  0  0  0  0  0  0  0  0  0
   17.4383   19.2206   22.4630 H   0  0  0  0  0  0  0  0  0  0  0  0
   18.4475   20.6524   22.4826 H   0  0  0  0  0  0  0  0  0  0  0  0
   19.4431   18.8383   21.7799 C   0  0  0  0  0  0  0  0  0  0  0  0
   19.1397   19.0155   20.7391 H   0  0  0  0  0  0  0  0  0  0  0  0
   19.3599   17.7554   21.9448 H   0  0  0  0  0  0  0  0  0  0  0  0
   20.9157   19.2701   21.9535 C   0  0  0  0  0  0  0  0  0  0  0  0
   20.9943   20.3631   21.8760 H   0  0  0  0  0  0  0  0  0  0  0  0
   21.2715   18.9883   22.9537 H   0  0  0  0  0  0  0  0  0  0  0  0
   21.8270   18.6137   20.8966 C   0  0  0  0  0  0  0  0  0  0  0  0
   21.5235   18.9021   19.8817 H   0  0  0  0  0  0  0  0  0  0  0  0
   22.8701   18.9243   21.0394 H   0  0  0  0  0  0  0  0  0  0  0  0
   21.7863   17.5190   20.9691 H   0  0  0  0  0  0  0  0  0  0  0  0
  1  2  1  0  0  0  0
  1  3  2  0  0  0  0
  1  4  1  0  0  0  0
  4  5  1  0  0  0  0
  4  6  1  0  0  0  0
  4  7  1  0  0  0  0
  7  8  1  0  0  0  0
  7  9  1  0  0  0  0
  7 10  1  0  0  0  0
 10 11  1  0  0  0  0
 10 12  1  0  0  0  0
 10 13  1  0  0  0  0
 13 14  1  0  0  0  0
 13 15  1  0  0  0  0
 13 16  1  0  0  0  0
 16 17  1  0  0  0  0
 16 18  1  0  0  0  0
 16 19  1  0  0  0  0
 19 20  1  0  0  0  0
 19 21  1  0  0  0  0
 19 22  1  0  0  0  0
 22 23  1  0  0  0  0
 22 24  1  0  0  0  0
 22 25  1  0  0  0  0
M  END
> <VM2 Rank>
154

> <Conf_Id>
743

> <Probability>
0.00

> <Sum Probability>
99.97

> <Delta G>
5.492

> <G>
-2.471

> <E>
-27.597

> <-TS>
25.126

> <U+W>
-48.165

> <U>
12.689

> <W>
-60.854

> <W(PB)>
-63.277

> <W(SA)>
2.424

> <Valence>
10.791

> <Coulomb>
1.261

> <VdW>
0.637

> <VdW6>
-10.463

> <VdW12>
11.099

> <Bond>
0.216

> <Angle>
3.125

> <Pdih>
7.449

> <Idih>
0.001

> <Tether>
0.000

$$$$
VeraChem MOL file


 25 24  0  0  0  0  0  0  0  0999 V2000     
   19.9548   19.7953   26.8431 C   0  0  0  0  0  0  0  0  0  0  0  0
   20.8352   20.5794   27.1382 O   0  5  0  0  0  0  0  0  0  0  0  0
   18.7803   20.0988   26.7694 O   0  0  0  0  0  0  0  0  0  0  0  0
   20.3450   18.3446   26.5740 C   0  0  0  0  0  0  0  0  0  0  0  0
   19.4480   17.7192   26.6588 H   0  0  0  0  0  0  0  0  0  0  0  0
   21.0255   18.0342   27.3756 H   0  0  0  0  0  0  0  0  0  0  0  0
   21.0268   18.1196   25.1995 C   0  0  0  0  0  0  0  0  0  0  0  0
   21.9062   18.7736   25.1184 H   0  0  0  0  0  0  0  0  0  0  0  0
   21.3954   17.0861   25.1488 H   0  0  0  0  0  0  0  0  0  0  0  0
   20.0717   18.3793   24.0128 C   0  0  0  0  0  0  0  0  0  0  0  0
   19.7054   19.4119   24.0578 H   0  0  0  0  0  0  0  0  0  0  0  0
   19.1903   17.7303   24.1050 H   0  0  0  0  0  0  0  0  0  0  0  0
   20.7639   18.1156   22.6548 C   0  0  0  0  0  0  0  0  0  0  0  0
   21.6802   18.7156   22.5701 H   0  0  0  0  0  0  0  0  0  0  0  0
   21.0827   17.0645   22.6316 H   0  0  0  0  0  0  0  0  0  0  0  0
   19.8435   18.3769   21.4354 C   0  0  0  0  0  0  0  0  0  0  0  0
   18.7931   18.2045   21.7070 H   0  0  0  0  0  0  0  0  0  0  0  0
   20.0785   17.6308   20.6641 H   0  0  0  0  0  0  0  0  0  0  0  0
   20.0037   19.7771   20.7931 C   0  0  0  0  0  0  0  0  0  0  0  0
   21.0378   19.9062   20.4449 H   0  0  0  0  0  0  0  0  0  0  0  0
   19.3698   19.8241   19.8969 H   0  0  0  0  0  0  0  0  0  0  0  0
   19.6281   20.9474   21.7258 C   0  0  0  0  0  0  0  0  0  0  0  0
   20.3402   21.0362   22.5558 H   0  0  0  0  0  0  0  0  0  0  0  0
   19.6422   21.8969   21.1754 H   0  0  0  0  0  0  0  0  0  0  0  0
   18.6217   20.8120   22.1427 H   0  0  0  0  0  0  0  0  0  0  0  0
  1  2  1  0  0  0  0
  1  3  2  0  0  0  0
  1  4  1  0  0  0  0
  4  5  1  0  0  0  0
  4  6  1  0  0  0  0
  4  7  1  0  0  0  0
  7  8  1  0  0  0  0
  7  9  1  0  0  0  0
  7 10  1  0  0  0  0
 10 11  1  0  0  0  0
 10 12  1  0  0  0  0
 10 13  1  0  0  0  0
 13 14  1  0  0  0  0
 13 15  1  0  0  0  0
 13 16  1  0  0  0  0
 16 17  1  0  0  0  0
 16 18  1  0  0  0  0
 16 19  1  0  0  0  0
 19 20  1  0  0  0  0
 19 21  1  0  0  0  0
 19 22  1  0  0  0  0
 22 23  1  0  0  0  0
 22 24  1  0  0  0  0
 22 25  1  0  0  0  0
M  END
> <VM2 Rank>
155

> <Conf_Id>
217

> <Probability>
0.00

> <Sum Probability>
99.98

> <Delta G>
5.502

> <G>
-2.460

> <E>
-27.521

> <-TS>
25.061

> <U+W>
-48.089

> <U>
12.640

> <W>
-60.729

> <W(PB)>
-63.138

> <W(SA)>
2.409

> <Valence>
10.756

> <Coulomb>
1.146

> <VdW>
0.738

> <VdW6>
-10.212

> <VdW12>
10.950

> <Bond>
0.214

> <Angle>
3.129

> <Pdih>
7.413

> <Idih>
0.001

> <Tether>
0.000

$$$$
VeraChem MOL file


 25 24  0  0  0  0  0  0  0  0999 V2000     
   20.0661   18.9295   27.1363 C   0  0  0  0  0  0  0  0  0  0  0  0
   21.1245   18.9552   27.7330 O   0  5  0  0  0  0  0  0  0  0  0  0
   18.9848   18.8646   27.6870 O   0  0  0  0  0  0  0  0  0  0  0  0
   20.0954   19.0053   25.6140 C   0  0  0  0  0  0  0  0  0  0  0  0
   19.2320   18.4506   25.2277 H   0  0  0  0  0  0  0  0  0  0  0  0
   21.0003   18.4889   25.2761 H   0  0  0  0  0  0  0  0  0  0  0  0
   20.0790   20.4615   25.0854 C   0  0  0  0  0  0  0  0  0  0  0  0
   19.2620   21.0048   25.5800 H   0  0  0  0  0  0  0  0  0  0  0  0
   21.0080   20.9657   25.3850 H   0  0  0  0  0  0  0  0  0  0  0  0
   19.8884   20.5857   23.5526 C   0  0  0  0  0  0  0  0  0  0  0  0
   19.8419   21.6574   23.3160 H   0  0  0  0  0  0  0  0  0  0  0  0
   18.9111   20.1816   23.2637 H   0  0  0  0  0  0  0  0  0  0  0  0
   21.0250   19.9610   22.6993 C   0  0  0  0  0  0  0  0  0  0  0  0
   21.1665   20.5752   21.8007 H   0  0  0  0  0  0  0  0  0  0  0  0
   21.9728   20.0356   23.2493 H   0  0  0  0  0  0  0  0  0  0  0  0
   20.8048   18.4874   22.2587 C   0  0  0  0  0  0  0  0  0  0  0  0
   20.7225   17.8410   23.1395 H   0  0  0  0  0  0  0  0  0  0  0  0
   21.7053   18.1499   21.7280 H   0  0  0  0  0  0  0  0  0  0  0  0
   19.5779   18.2353   21.3461 C   0  0  0  0  0  0  0  0  0  0  0  0
   19.5461   17.1660   21.0960 H   0  0  0  0  0  0  0  0  0  0  0  0
   18.6472   18.4434   21.8890 H   0  0  0  0  0  0  0  0  0  0  0  0
   19.6070   19.0483   20.0337 C   0  0  0  0  0  0  0  0  0  0  0  0
   20.5443   18.8804   19.4877 H   0  0  0  0  0  0  0  0  0  0  0  0
   18.7764   18.7522   19.3801 H   0  0  0  0  0  0  0  0  0  0  0  0
   19.5081   20.1235   20.2290 H   0  0  0  0  0  0  0  0  0  0  0  0
  1  2  1  0  0  0  0
  1  3  2  0  0  0  0
  1  4  1  0  0  0  0
  4  5  1  0  0  0  0
  4  6  1  0  0  0  0
  4  7  1  0  0  0  0
  7  8  1  0  0  0  0
  7  9  1  0  0  0  0
  7 10  1  0  0  0  0
 10 11  1  0  0  0  0
 10 12  1  0  0  0  0
 10 13  1  0  0  0  0
 13 14  1  0  0  0  0
 13 15  1  0  0  0  0
 13 16  1  0  0  0  0
 16 17  1  0  0  0  0
 16 18  1  0  0  0  0
 16 19  1  0  0  0  0
 19 20  1  0  0  0  0
 19 21  1  0  0  0  0
 19 22  1  0  0  0  0
 22 23  1  0  0  0  0
 22 24  1  0  0  0  0
 22 25  1  0  0  0  0
M  END
> <VM2 Rank>
156

> <Conf_Id>
233

> <Probability>
0.00

> <Sum Probability>
99.98

> <Delta G>
5.599

> <G>
-2.364

> <E>
-27.068

> <-TS>
24.704

> <U+W>
-47.636

> <U>
11.838

> <W>
-59.473

> <W(PB)>
-61.864

> <W(SA)>
2.390

> <Valence>
11.761

> <Coulomb>
-1.046

> <VdW>
1.123

> <VdW6>
-10.751

> <VdW12>
11.874

> <Bond>
0.310

> <Angle>
4.048

> <Pdih>
7.403

> <Idih>
0.001

> <Tether>
0.000

$$$$
VeraChem MOL file


 25 24  0  0  0  0  0  0  0  0999 V2000     
   19.9283   19.5226   27.1313 C   0  0  0  0  0  0  0  0  0  0  0  0
   20.7559   19.5117   28.0212 O   0  5  0  0  0  0  0  0  0  0  0  0
   18.8954   20.1609   27.1809 O   0  0  0  0  0  0  0  0  0  0  0  0
   20.2117   18.7069   25.8751 C   0  0  0  0  0  0  0  0  0  0  0  0
   19.2511   18.3512   25.4854 H   0  0  0  0  0  0  0  0  0  0  0  0
   20.7941   17.8244   26.1654 H   0  0  0  0  0  0  0  0  0  0  0  0
   20.9707   19.5170   24.7925 C   0  0  0  0  0  0  0  0  0  0  0  0
   20.3609   20.3748   24.4807 H   0  0  0  0  0  0  0  0  0  0  0  0
   21.8777   19.9429   25.2431 H   0  0  0  0  0  0  0  0  0  0  0  0
   21.3859   18.6753   23.5585 C   0  0  0  0  0  0  0  0  0  0  0  0
   22.1197   17.9247   23.8821 H   0  0  0  0  0  0  0  0  0  0  0  0
   21.9216   19.3250   22.8579 H   0  0  0  0  0  0  0  0  0  0  0  0
   20.2320   17.9383   22.8241 C   0  0  0  0  0  0  0  0  0  0  0  0
   20.6504   17.3429   22.0014 H   0  0  0  0  0  0  0  0  0  0  0  0
   19.7960   17.2057   23.5155 H   0  0  0  0  0  0  0  0  0  0  0  0
   19.0895   18.8353   22.2751 C   0  0  0  0  0  0  0  0  0  0  0  0
   18.8873   19.6750   22.9504 H   0  0  0  0  0  0  0  0  0  0  0  0
   18.1687   18.2363   22.2756 H   0  0  0  0  0  0  0  0  0  0  0  0
   19.2936   19.3540   20.8298 C   0  0  0  0  0  0  0  0  0  0  0  0
   19.4041   18.5036   20.1429 H   0  0  0  0  0  0  0  0  0  0  0  0
   18.3795   19.8796   20.5212 H   0  0  0  0  0  0  0  0  0  0  0  0
   20.4900   20.3120   20.6575 C   0  0  0  0  0  0  0  0  0  0  0  0
   21.4414   19.7719   20.7286 H   0  0  0  0  0  0  0  0  0  0  0  0
   20.4586   20.7903   19.6700 H   0  0  0  0  0  0  0  0  0  0  0  0
   20.4763   21.1030   21.4186 H   0  0  0  0  0  0  0  0  0  0  0  0
  1  2  1  0  0  0  0
  1  3  2  0  0  0  0
  1  4  1  0  0  0  0
  4  5  1  0  0  0  0
  4  6  1  0  0  0  0
  4  7  1  0  0  0  0
  7  8  1  0  0  0  0
  7  9  1  0  0  0  0
  7 10  1  0  0  0  0
 10 11  1  0  0  0  0
 10 12  1  0  0  0  0
 10 13  1  0  0  0  0
 13 14  1  0  0  0  0
 13 15  1  0  0  0  0
 13 16  1  0  0  0  0
 16 17  1  0  0  0  0
 16 18  1  0  0  0  0
 16 19  1  0  0  0  0
 19 20  1  0  0  0  0
 19 21  1  0  0  0  0
 19 22  1  0  0  0  0
 22 23  1  0  0  0  0
 22 24  1  0  0  0  0
 22 25  1  0  0  0  0
M  END
> <VM2 Rank>
157

> <Conf_Id>
1324

> <Probability>
0.00

> <Sum Probability>
99.98

> <Delta G>
5.626

> <G>
-2.337

> <E>
-26.933

> <-TS>
24.596

> <U+W>
-47.500

> <U>
12.179

> <W>
-59.679

> <W(PB)>
-62.055

> <W(SA)>
2.376

> <Valence>
11.760

> <Coulomb>
-0.592

> <VdW>
1.011

> <VdW6>
-10.896

> <VdW12>
11.907

> <Bond>
0.319

> <Angle>
4.243

> <Pdih>
7.197

> <Idih>
0.001

> <Tether>
0.000

$$$$
VeraChem MOL file


 25 24  0  0  0  0  0  0  0  0999 V2000     
   20.1410   18.8999   26.7866 C   0  0  0  0  0  0  0  0  0  0  0  0
   21.1941   18.3169   26.9553 O   0  5  0  0  0  0  0  0  0  0  0  0
   19.0541   18.3864   26.9665 O   0  0  0  0  0  0  0  0  0  0  0  0
   20.1900   20.3750   26.3928 C   0  0  0  0  0  0  0  0  0  0  0  0
   21.2377   20.6922   26.3262 H   0  0  0  0  0  0  0  0  0  0  0  0
   19.7468   20.9305   27.2274 H   0  0  0  0  0  0  0  0  0  0  0  0
   19.4320   20.7387   25.0848 C   0  0  0  0  0  0  0  0  0  0  0  0
   18.4604   20.2260   25.0588 H   0  0  0  0  0  0  0  0  0  0  0  0
   19.2052   21.8129   25.1137 H   0  0  0  0  0  0  0  0  0  0  0  0
   20.2150   20.4592   23.7776 C   0  0  0  0  0  0  0  0  0  0  0  0
   21.1853   20.9729   23.8100 H   0  0  0  0  0  0  0  0  0  0  0  0
   19.6523   20.9112   22.9512 H   0  0  0  0  0  0  0  0  0  0  0  0
   20.4312   18.9554   23.4815 C   0  0  0  0  0  0  0  0  0  0  0  0
   21.0375   18.5128   24.2808 H   0  0  0  0  0  0  0  0  0  0  0  0
   19.4682   18.4288   23.5018 H   0  0  0  0  0  0  0  0  0  0  0  0
   21.1578   18.6850   22.1391 C   0  0  0  0  0  0  0  0  0  0  0  0
   21.3352   17.6046   22.0501 H   0  0  0  0  0  0  0  0  0  0  0  0
   22.1513   19.1524   22.1724 H   0  0  0  0  0  0  0  0  0  0  0  0
   20.4189   19.1724   20.8678 C   0  0  0  0  0  0  0  0  0  0  0  0
   20.3365   20.2671   20.8717 H   0  0  0  0  0  0  0  0  0  0  0  0
   21.0303   18.9193   19.9908 H   0  0  0  0  0  0  0  0  0  0  0  0
   19.0189   18.5451   20.6939 C   0  0  0  0  0  0  0  0  0  0  0  0
   19.0745   17.4489   20.7116 H   0  0  0  0  0  0  0  0  0  0  0  0
   18.3359   18.8689   21.4895 H   0  0  0  0  0  0  0  0  0  0  0  0
   18.5789   18.8467   19.7347 H   0  0  0  0  0  0  0  0  0  0  0  0
  1  2  1  0  0  0  0
  1  3  2  0  0  0  0
  1  4  1  0  0  0  0
  4  5  1  0  0  0  0
  4  6  1  0  0  0  0
  4  7  1  0  0  0  0
  7  8  1  0  0  0  0
  7  9  1  0  0  0  0
  7 10  1  0  0  0  0
 10 11  1  0  0  0  0
 10 12  1  0  0  0  0
 10 13  1  0  0  0  0
 13 14  1  0  0  0  0
 13 15  1  0  0  0  0
 13 16  1  0  0  0  0
 16 17  1  0  0  0  0
 16 18  1  0  0  0  0
 16 19  1  0  0  0  0
 19 20  1  0  0  0  0
 19 21  1  0  0  0  0
 19 22  1  0  0  0  0
 22 23  1  0  0  0  0
 22 24  1  0  0  0  0
 22 25  1  0  0  0  0
M  END
> <VM2 Rank>
158

> <Conf_Id>
1332

> <Probability>
0.00

> <Sum Probability>
99.98

> <Delta G>
5.679

> <G>
-2.283

> <E>
-27.597

> <-TS>
25.314

> <U+W>
-48.164

> <U>
12.473

> <W>
-60.637

> <W(PB)>
-63.028

> <W(SA)>
2.391

> <Valence>
10.550

> <Coulomb>
1.041

> <VdW>
0.881

> <VdW6>
-11.389

> <VdW12>
12.271

> <Bond>
0.286

> <Angle>
3.974

> <Pdih>
6.285

> <Idih>
0.006

> <Tether>
0.000

$$$$
VeraChem MOL file


 25 24  0  0  0  0  0  0  0  0999 V2000     
   20.5134   19.6993   26.5247 C   0  0  0  0  0  0  0  0  0  0  0  0
   21.4866   20.3570   26.2121 O   0  5  0  0  0  0  0  0  0  0  0  0
   19.5674   20.1519   27.1395 O   0  0  0  0  0  0  0  0  0  0  0  0
   20.5132   18.2095   26.1876 C   0  0  0  0  0  0  0  0  0  0  0  0
   20.5224   17.6764   27.1453 H   0  0  0  0  0  0  0  0  0  0  0  0
   21.4526   17.9595   25.6799 H   0  0  0  0  0  0  0  0  0  0  0  0
   19.3007   17.7193   25.3469 C   0  0  0  0  0  0  0  0  0  0  0  0
   19.2200   16.6309   25.4709 H   0  0  0  0  0  0  0  0  0  0  0  0
   18.3694   18.1394   25.7513 H   0  0  0  0  0  0  0  0  0  0  0  0
   19.4034   18.0152   23.8301 C   0  0  0  0  0  0  0  0  0  0  0  0
   18.5839   17.4903   23.3207 H   0  0  0  0  0  0  0  0  0  0  0  0
   20.3363   17.5877   23.4396 H   0  0  0  0  0  0  0  0  0  0  0  0
   19.3253   19.5197   23.4766 C   0  0  0  0  0  0  0  0  0  0  0  0
   18.4731   19.9690   24.0044 H   0  0  0  0  0  0  0  0  0  0  0  0
   20.2193   20.0396   23.8413 H   0  0  0  0  0  0  0  0  0  0  0  0
   19.1597   19.7855   21.9590 C   0  0  0  0  0  0  0  0  0  0  0  0
   19.0715   20.8685   21.7985 H   0  0  0  0  0  0  0  0  0  0  0  0
   18.2083   19.3510   21.6233 H   0  0  0  0  0  0  0  0  0  0  0  0
   20.3007   19.2379   21.0662 C   0  0  0  0  0  0  0  0  0  0  0  0
   20.3457   18.1432   21.1387 H   0  0  0  0  0  0  0  0  0  0  0  0
   20.0635   19.4634   20.0174 H   0  0  0  0  0  0  0  0  0  0  0  0
   21.6826   19.8389   21.4032 C   0  0  0  0  0  0  0  0  0  0  0  0
   22.4392   19.4875   20.6900 H   0  0  0  0  0  0  0  0  0  0  0  0
   21.6560   20.9353   21.3567 H   0  0  0  0  0  0  0  0  0  0  0  0
   22.0107   19.5450   22.4085 H   0  0  0  0  0  0  0  0  0  0  0  0
  1  2  1  0  0  0  0
  1  3  2  0  0  0  0
  1  4  1  0  0  0  0
  4  5  1  0  0  0  0
  4  6  1  0  0  0  0
  4  7  1  0  0  0  0
  7  8  1  0  0  0  0
  7  9  1  0  0  0  0
  7 10  1  0  0  0  0
 10 11  1  0  0  0  0
 10 12  1  0  0  0  0
 10 13  1  0  0  0  0
 13 14  1  0  0  0  0
 13 15  1  0  0  0  0
 13 16  1  0  0  0  0
 16 17  1  0  0  0  0
 16 18  1  0  0  0  0
 16 19  1  0  0  0  0
 19 20  1  0  0  0  0
 19 21  1  0  0  0  0
 19 22  1  0  0  0  0
 22 23  1  0  0  0  0
 22 24  1  0  0  0  0
 22 25  1  0  0  0  0
M  END
> <VM2 Rank>
159

> <Conf_Id>
551

> <Probability>
0.00

> <Sum Probability>
99.98

> <Delta G>
5.862

> <G>
-2.100

> <E>
-27.543

> <-TS>
25.442

> <U+W>
-48.110

> <U>
12.721

> <W>
-60.831

> <W(PB)>
-63.185

> <W(SA)>
2.354

> <Valence>
10.325

> <Coulomb>
1.750

> <VdW>
0.646

> <VdW6>
-11.745

> <VdW12>
12.390

> <Bond>
0.275

> <Angle>
3.728

> <Pdih>
6.316

> <Idih>
0.007

> <Tether>
0.000

$$$$
VeraChem MOL file


 25 24  0  0  0  0  0  0  0  0999 V2000     
   20.7606   19.4888   26.4282 C   0  0  0  0  0  0  0  0  0  0  0  0
   21.8099   19.6333   25.8329 O   0  5  0  0  0  0  0  0  0  0  0  0
   20.6606   18.8673   27.4683 O   0  0  0  0  0  0  0  0  0  0  0  0
   19.5107   20.1664   25.8702 C   0  0  0  0  0  0  0  0  0  0  0  0
   19.7843   20.7560   24.9885 H   0  0  0  0  0  0  0  0  0  0  0  0
   19.1721   20.8832   26.6271 H   0  0  0  0  0  0  0  0  0  0  0  0
   18.3491   19.1920   25.5367 C   0  0  0  0  0  0  0  0  0  0  0  0
   18.0744   18.6518   26.4533 H   0  0  0  0  0  0  0  0  0  0  0  0
   17.4624   19.7738   25.2512 H   0  0  0  0  0  0  0  0  0  0  0  0
   18.6574   18.1559   24.4257 C   0  0  0  0  0  0  0  0  0  0  0  0
   17.8127   17.4545   24.3885 H   0  0  0  0  0  0  0  0  0  0  0  0
   19.5330   17.5509   24.6986 H   0  0  0  0  0  0  0  0  0  0  0  0
   18.8343   18.7630   23.0104 C   0  0  0  0  0  0  0  0  0  0  0  0
   18.3724   18.0830   22.2816 H   0  0  0  0  0  0  0  0  0  0  0  0
   18.2851   19.7112   22.9334 H   0  0  0  0  0  0  0  0  0  0  0  0
   20.3132   18.9658   22.6067 C   0  0  0  0  0  0  0  0  0  0  0  0
   20.8399   18.0029   22.6531 H   0  0  0  0  0  0  0  0  0  0  0  0
   20.8152   19.6312   23.3188 H   0  0  0  0  0  0  0  0  0  0  0  0
   20.4409   19.5528   21.1851 C   0  0  0  0  0  0  0  0  0  0  0  0
   19.9503   18.8858   20.4627 H   0  0  0  0  0  0  0  0  0  0  0  0
   19.9179   20.5179   21.1354 H   0  0  0  0  0  0  0  0  0  0  0  0
   21.9163   19.7486   20.7818 C   0  0  0  0  0  0  0  0  0  0  0  0
   22.4560   18.7927   20.7913 H   0  0  0  0  0  0  0  0  0  0  0  0
   21.9888   20.1692   19.7704 H   0  0  0  0  0  0  0  0  0  0  0  0
   22.4237   20.4352   21.4722 H   0  0  0  0  0  0  0  0  0  0  0  0
  1  2  1  0  0  0  0
  1  3  2  0  0  0  0
  1  4  1  0  0  0  0
  4  5  1  0  0  0  0
  4  6  1  0  0  0  0
  4  7  1  0  0  0  0
  7  8  1  0  0  0  0
  7  9  1  0  0  0  0
  7 10  1  0  0  0  0
 10 11  1  0  0  0  0
 10 12  1  0  0  0  0
 10 13  1  0  0  0  0
 13 14  1  0  0  0  0
 13 15  1  0  0  0  0
 13 16  1  0  0  0  0
 16 17  1  0  0  0  0
 16 18  1  0  0  0  0
 16 19  1  0  0  0  0
 19 20  1  0  0  0  0
 19 21  1  0  0  0  0
 19 22  1  0  0  0  0
 22 23  1  0  0  0  0
 22 24  1  0  0  0  0
 22 25  1  0  0  0  0
M  END
> <VM2 Rank>
160

> <Conf_Id>
215

> <Probability>
0.00

> <Sum Probability>
99.98

> <Delta G>
5.972

> <G>
-1.991

> <E>
-27.118

> <-TS>
25.127

> <U+W>
-47.685

> <U>
13.358

> <W>
-61.043

> <W(PB)>
-63.441

> <W(SA)>
2.397

> <Valence>
11.157

> <Coulomb>
1.807

> <VdW>
0.394

> <VdW6>
-10.846

> <VdW12>
11.240

> <Bond>
0.228

> <Angle>
3.384

> <Pdih>
7.541

> <Idih>
0.004

> <Tether>
0.000

$$$$
VeraChem MOL file


 25 24  0  0  0  0  0  0  0  0999 V2000     
   20.5389   19.3089   26.9854 C   0  0  0  0  0  0  0  0  0  0  0  0
   21.6944   19.6828   26.9439 O   0  5  0  0  0  0  0  0  0  0  0  0
   20.0718   18.6676   27.9060 O   0  0  0  0  0  0  0  0  0  0  0  0
   19.6295   19.6466   25.8095 C   0  0  0  0  0  0  0  0  0  0  0  0
   19.9551   20.6104   25.4021 H   0  0  0  0  0  0  0  0  0  0  0  0
   18.6114   19.7814   26.1935 H   0  0  0  0  0  0  0  0  0  0  0  0
   19.6460   18.5569   24.7065 C   0  0  0  0  0  0  0  0  0  0  0  0
   20.6644   18.4564   24.3097 H   0  0  0  0  0  0  0  0  0  0  0  0
   19.4004   17.5884   25.1633 H   0  0  0  0  0  0  0  0  0  0  0  0
   18.6450   18.8278   23.5548 C   0  0  0  0  0  0  0  0  0  0  0  0
   17.6283   18.8445   23.9701 H   0  0  0  0  0  0  0  0  0  0  0  0
   18.6601   17.9849   22.8529 H   0  0  0  0  0  0  0  0  0  0  0  0
   18.8784   20.1471   22.7755 C   0  0  0  0  0  0  0  0  0  0  0  0
   18.1079   20.2352   21.9977 H   0  0  0  0  0  0  0  0  0  0  0  0
   18.7072   20.9946   23.4518 H   0  0  0  0  0  0  0  0  0  0  0  0
   20.2735   20.3143   22.1167 C   0  0  0  0  0  0  0  0  0  0  0  0
   21.0692   20.2691   22.8718 H   0  0  0  0  0  0  0  0  0  0  0  0
   20.3165   21.3336   21.7096 H   0  0  0  0  0  0  0  0  0  0  0  0
   20.5690   19.3331   20.9540 C   0  0  0  0  0  0  0  0  0  0  0  0
   19.6399   19.0758   20.4272 H   0  0  0  0  0  0  0  0  0  0  0  0
   21.2028   19.8487   20.2194 H   0  0  0  0  0  0  0  0  0  0  0  0
   21.3064   18.0490   21.3937 C   0  0  0  0  0  0  0  0  0  0  0  0
   21.5548   17.4325   20.5202 H   0  0  0  0  0  0  0  0  0  0  0  0
   22.2439   18.2928   21.9100 H   0  0  0  0  0  0  0  0  0  0  0  0
   20.6960   17.4375   22.0666 H   0  0  0  0  0  0  0  0  0  0  0  0
  1  2  1  0  0  0  0
  1  3  2  0  0  0  0
  1  4  1  0  0  0  0
  4  5  1  0  0  0  0
  4  6  1  0  0  0  0
  4  7  1  0  0  0  0
  7  8  1  0  0  0  0
  7  9  1  0  0  0  0
  7 10  1  0  0  0  0
 10 11  1  0  0  0  0
 10 12  1  0  0  0  0
 10 13  1  0  0  0  0
 13 14  1  0  0  0  0
 13 15  1  0  0  0  0
 13 16  1  0  0  0  0
 16 17  1  0  0  0  0
 16 18  1  0  0  0  0
 16 19  1  0  0  0  0
 19 20  1  0  0  0  0
 19 21  1  0  0  0  0
 19 22  1  0  0  0  0
 22 23  1  0  0  0  0
 22 24  1  0  0  0  0
 22 25  1  0  0  0  0
M  END
> <VM2 Rank>
161

> <Conf_Id>
799

> <Probability>
0.00

> <Sum Probability>
99.98

> <Delta G>
5.972

> <G>
-1.990

> <E>
-27.416

> <-TS>
25.426

> <U+W>
-47.984

> <U>
12.079

> <W>
-60.063

> <W(PB)>
-62.444

> <W(SA)>
2.381

> <Valence>
11.557

> <Coulomb>
-0.145

> <VdW>
0.666

> <VdW6>
-11.344

> <VdW12>
12.010

> <Bond>
0.285

> <Angle>
4.008

> <Pdih>
7.263

> <Idih>
0.000

> <Tether>
0.000

$$$$
VeraChem MOL file


 25 24  0  0  0  0  0  0  0  0999 V2000     
   19.9920   19.9587   26.1668 C   0  0  0  0  0  0  0  0  0  0  0  0
   20.9479   20.7095   26.1821 O   0  5  0  0  0  0  0  0  0  0  0  0
   18.8498   20.3295   25.9782 O   0  0  0  0  0  0  0  0  0  0  0  0
   20.2244   18.4897   26.5149 C   0  0  0  0  0  0  0  0  0  0  0  0
   19.6376   18.2917   27.4193 H   0  0  0  0  0  0  0  0  0  0  0  0
   21.2773   18.3492   26.7875 H   0  0  0  0  0  0  0  0  0  0  0  0
   19.8108   17.4742   25.4128 C   0  0  0  0  0  0  0  0  0  0  0  0
   19.6392   16.5036   25.8973 H   0  0  0  0  0  0  0  0  0  0  0  0
   18.8441   17.7619   24.9786 H   0  0  0  0  0  0  0  0  0  0  0  0
   20.8697   17.2576   24.3002 C   0  0  0  0  0  0  0  0  0  0  0  0
   20.5344   16.4345   23.6546 H   0  0  0  0  0  0  0  0  0  0  0  0
   21.8052   16.9143   24.7625 H   0  0  0  0  0  0  0  0  0  0  0  0
   21.1771   18.4867   23.4100 C   0  0  0  0  0  0  0  0  0  0  0  0
   21.5990   19.2967   24.0181 H   0  0  0  0  0  0  0  0  0  0  0  0
   21.9628   18.2057   22.6956 H   0  0  0  0  0  0  0  0  0  0  0  0
   19.9498   19.0026   22.6238 C   0  0  0  0  0  0  0  0  0  0  0  0
   19.1797   19.3547   23.3228 H   0  0  0  0  0  0  0  0  0  0  0  0
   19.5088   18.1782   22.0474 H   0  0  0  0  0  0  0  0  0  0  0  0
   20.3279   20.1559   21.6708 C   0  0  0  0  0  0  0  0  0  0  0  0
   20.7644   20.9823   22.2490 H   0  0  0  0  0  0  0  0  0  0  0  0
   21.0984   19.8170   20.9646 H   0  0  0  0  0  0  0  0  0  0  0  0
   19.1037   20.6696   20.8865 C   0  0  0  0  0  0  0  0  0  0  0  0
   18.6642   19.8698   20.2762 H   0  0  0  0  0  0  0  0  0  0  0  0
   18.3300   21.0443   21.5696 H   0  0  0  0  0  0  0  0  0  0  0  0
   19.3901   21.4900   20.2157 H   0  0  0  0  0  0  0  0  0  0  0  0
  1  2  1  0  0  0  0
  1  3  2  0  0  0  0
  1  4  1  0  0  0  0
  4  5  1  0  0  0  0
  4  6  1  0  0  0  0
  4  7  1  0  0  0  0
  7  8  1  0  0  0  0
  7  9  1  0  0  0  0
  7 10  1  0  0  0  0
 10 11  1  0  0  0  0
 10 12  1  0  0  0  0
 10 13  1  0  0  0  0
 13 14  1  0  0  0  0
 13 15  1  0  0  0  0
 13 16  1  0  0  0  0
 16 17  1  0  0  0  0
 16 18  1  0  0  0  0
 16 19  1  0  0  0  0
 19 20  1  0  0  0  0
 19 21  1  0  0  0  0
 19 22  1  0  0  0  0
 22 23  1  0  0  0  0
 22 24  1  0  0  0  0
 22 25  1  0  0  0  0
M  END
> <VM2 Rank>
162

> <Conf_Id>
740

> <Probability>
0.00

> <Sum Probability>
99.99

> <Delta G>
5.999

> <G>
-1.964

> <E>
-27.680

> <-TS>
25.717

> <U+W>
-48.248

> <U>
13.046

> <W>
-61.294

> <W(PB)>
-63.665

> <W(SA)>
2.371

> <Valence>
10.098

> <Coulomb>
2.795

> <VdW>
0.153

> <VdW6>
-11.572

> <VdW12>
11.725

> <Bond>
0.240

> <Angle>
3.695

> <Pdih>
6.146

> <Idih>
0.017

> <Tether>
0.000

$$$$
VeraChem MOL file


 25 24  0  0  0  0  0  0  0  0999 V2000     
   20.7799   18.9308   26.1624 C   0  0  0  0  0  0  0  0  0  0  0  0
   21.7533   19.6588   26.1774 O   0  5  0  0  0  0  0  0  0  0  0  0
   20.8404   17.7326   25.9663 O   0  0  0  0  0  0  0  0  0  0  0  0
   19.4231   19.5347   26.5198 C   0  0  0  0  0  0  0  0  0  0  0  0
   19.5622   20.5864   26.7979 H   0  0  0  0  0  0  0  0  0  0  0  0
   19.0833   19.0142   27.4226 H   0  0  0  0  0  0  0  0  0  0  0  0
   18.3304   19.4056   25.4215 C   0  0  0  0  0  0  0  0  0  0  0  0
   18.3551   18.3999   24.9814 H   0  0  0  0  0  0  0  0  0  0  0  0
   17.3506   19.4893   25.9108 H   0  0  0  0  0  0  0  0  0  0  0  0
   18.3916   20.4909   24.3150 C   0  0  0  0  0  0  0  0  0  0  0  0
   18.3052   21.4807   24.7834 H   0  0  0  0  0  0  0  0  0  0  0  0
   17.5068   20.3848   23.6726 H   0  0  0  0  0  0  0  0  0  0  0  0
   19.6544   20.4735   23.4190 C   0  0  0  0  0  0  0  0  0  0  0  0
   19.5841   21.3093   22.7098 H   0  0  0  0  0  0  0  0  0  0  0  0
   20.5489   20.6667   24.0244 H   0  0  0  0  0  0  0  0  0  0  0  0
   19.8301   19.1588   22.6245 C   0  0  0  0  0  0  0  0  0  0  0  0
   18.9168   18.9505   22.0509 H   0  0  0  0  0  0  0  0  0  0  0  0
   19.9731   18.3196   23.3180 H   0  0  0  0  0  0  0  0  0  0  0  0
   21.0377   19.2297   21.6665 C   0  0  0  0  0  0  0  0  0  0  0  0
   20.9077   20.0659   20.9657 H   0  0  0  0  0  0  0  0  0  0  0  0
   21.9518   19.4331   22.2418 H   0  0  0  0  0  0  0  0  0  0  0  0
   21.2121   17.9186   20.8738 C   0  0  0  0  0  0  0  0  0  0  0  0
   20.3229   17.7057   20.2662 H   0  0  0  0  0  0  0  0  0  0  0  0
   22.0758   17.9859   20.1995 H   0  0  0  0  0  0  0  0  0  0  0  0
   21.3759   17.0702   21.5512 H   0  0  0  0  0  0  0  0  0  0  0  0
  1  2  1  0  0  0  0
  1  3  2  0  0  0  0
  1  4  1  0  0  0  0
  4  5  1  0  0  0  0
  4  6  1  0  0  0  0
  4  7  1  0  0  0  0
  7  8  1  0  0  0  0
  7  9  1  0  0  0  0
  7 10  1  0  0  0  0
 10 11  1  0  0  0  0
 10 12  1  0  0  0  0
 10 13  1  0  0  0  0
 13 14  1  0  0  0  0
 13 15  1  0  0  0  0
 13 16  1  0  0  0  0
 16 17  1  0  0  0  0
 16 18  1  0  0  0  0
 16 19  1  0  0  0  0
 19 20  1  0  0  0  0
 19 21  1  0  0  0  0
 19 22  1  0  0  0  0
 22 23  1  0  0  0  0
 22 24  1  0  0  0  0
 22 25  1  0  0  0  0
M  END
> <VM2 Rank>
163

> <Conf_Id>
91

> <Probability>
0.00

> <Sum Probability>
99.99

> <Delta G>
6.028

> <G>
-1.935

> <E>
-27.651

> <-TS>
25.716

> <U+W>
-48.218

> <U>
13.047

> <W>
-61.265

> <W(PB)>
-63.654

> <W(SA)>
2.389

> <Valence>
10.098

> <Coulomb>
2.796

> <VdW>
0.153

> <VdW6>
-11.572

> <VdW12>
11.725

> <Bond>
0.240

> <Angle>
3.695

> <Pdih>
6.145

> <Idih>
0.018

> <Tether>
0.000

$$$$
VeraChem MOL file


 25 24  0  0  0  0  0  0  0  0999 V2000     
   19.5141   19.4091   26.4426 C   0  0  0  0  0  0  0  0  0  0  0  0
   19.7163   18.8069   27.4792 O   0  5  0  0  0  0  0  0  0  0  0  0
   18.4414   19.4182   25.8719 O   0  0  0  0  0  0  0  0  0  0  0  0
   20.6544   20.2395   25.8570 C   0  0  0  0  0  0  0  0  0  0  0  0
   20.9165   20.9945   26.6069 H   0  0  0  0  0  0  0  0  0  0  0  0
   20.2879   20.7882   24.9828 H   0  0  0  0  0  0  0  0  0  0  0  0
   21.9225   19.4203   25.4954 C   0  0  0  0  0  0  0  0  0  0  0  0
   22.7212   20.1097   25.1904 H   0  0  0  0  0  0  0  0  0  0  0  0
   22.2849   18.9207   26.4046 H   0  0  0  0  0  0  0  0  0  0  0  0
   21.7231   18.3517   24.3903 C   0  0  0  0  0  0  0  0  0  0  0  0
   20.9381   17.6406   24.6823 H   0  0  0  0  0  0  0  0  0  0  0  0
   22.6491   17.7634   24.3326 H   0  0  0  0  0  0  0  0  0  0  0  0
   21.4378   18.9293   22.9803 C   0  0  0  0  0  0  0  0  0  0  0  0
   21.8600   19.9395   22.8921 H   0  0  0  0  0  0  0  0  0  0  0  0
   21.9656   18.3125   22.2400 H   0  0  0  0  0  0  0  0  0  0  0  0
   19.9362   18.9417   22.6111 C   0  0  0  0  0  0  0  0  0  0  0  0
   19.3703   19.5389   23.3355 H   0  0  0  0  0  0  0  0  0  0  0  0
   19.5375   17.9197   22.6681 H   0  0  0  0  0  0  0  0  0  0  0  0
   19.7022   19.5056   21.1936 C   0  0  0  0  0  0  0  0  0  0  0  0
   20.0970   20.5292   21.1333 H   0  0  0  0  0  0  0  0  0  0  0  0
   20.2568   18.9053   20.4591 H   0  0  0  0  0  0  0  0  0  0  0  0
   18.2050   19.5117   20.8247 C   0  0  0  0  0  0  0  0  0  0  0  0
   17.6305   20.1293   21.5276 H   0  0  0  0  0  0  0  0  0  0  0  0
   18.0563   19.9180   19.8159 H   0  0  0  0  0  0  0  0  0  0  0  0
   17.7915   18.4949   20.8455 H   0  0  0  0  0  0  0  0  0  0  0  0
  1  2  1  0  0  0  0
  1  3  2  0  0  0  0
  1  4  1  0  0  0  0
  4  5  1  0  0  0  0
  4  6  1  0  0  0  0
  4  7  1  0  0  0  0
  7  8  1  0  0  0  0
  7  9  1  0  0  0  0
  7 10  1  0  0  0  0
 10 11  1  0  0  0  0
 10 12  1  0  0  0  0
 10 13  1  0  0  0  0
 13 14  1  0  0  0  0
 13 15  1  0  0  0  0
 13 16  1  0  0  0  0
 16 17  1  0  0  0  0
 16 18  1  0  0  0  0
 16 19  1  0  0  0  0
 19 20  1  0  0  0  0
 19 21  1  0  0  0  0
 19 22  1  0  0  0  0
 22 23  1  0  0  0  0
 22 24  1  0  0  0  0
 22 25  1  0  0  0  0
M  END
> <VM2 Rank>
164

> <Conf_Id>
159

> <Probability>
0.00

> <Sum Probability>
99.99

> <Delta G>
6.045

> <G>
-1.918

> <E>
-27.045

> <-TS>
25.128

> <U+W>
-47.613

> <U>
13.358

> <W>
-60.971

> <W(PB)>
-63.383

> <W(SA)>
2.412

> <Valence>
11.157

> <Coulomb>
1.807

> <VdW>
0.393

> <VdW6>
-10.846

> <VdW12>
11.239

> <Bond>
0.228

> <Angle>
3.384

> <Pdih>
7.541

> <Idih>
0.004

> <Tether>
0.000

$$$$
VeraChem MOL file


 25 24  0  0  0  0  0  0  0  0999 V2000     
   20.5278   19.2217   26.9318 C   0  0  0  0  0  0  0  0  0  0  0  0
   21.4814   19.9599   26.7814 O   0  5  0  0  0  0  0  0  0  0  0  0
   19.8755   19.1665   27.9560 O   0  0  0  0  0  0  0  0  0  0  0  0
   20.1409   18.2951   25.7823 C   0  0  0  0  0  0  0  0  0  0  0  0
   20.0112   17.2921   26.2053 H   0  0  0  0  0  0  0  0  0  0  0  0
   20.9856   18.2348   25.0893 H   0  0  0  0  0  0  0  0  0  0  0  0
   18.8383   18.7136   25.0452 C   0  0  0  0  0  0  0  0  0  0  0  0
   18.5210   17.9111   24.3657 H   0  0  0  0  0  0  0  0  0  0  0  0
   18.0403   18.8069   25.7949 H   0  0  0  0  0  0  0  0  0  0  0  0
   18.9457   20.0495   24.2641 C   0  0  0  0  0  0  0  0  0  0  0  0
   19.6561   20.7280   24.7556 H   0  0  0  0  0  0  0  0  0  0  0  0
   17.9706   20.5527   24.3161 H   0  0  0  0  0  0  0  0  0  0  0  0
   19.3093   19.8963   22.7657 C   0  0  0  0  0  0  0  0  0  0  0  0
   18.5418   19.2875   22.2699 H   0  0  0  0  0  0  0  0  0  0  0  0
   19.2663   20.8893   22.2982 H   0  0  0  0  0  0  0  0  0  0  0  0
   20.7068   19.2835   22.5118 C   0  0  0  0  0  0  0  0  0  0  0  0
   20.7105   18.2294   22.8175 H   0  0  0  0  0  0  0  0  0  0  0  0
   21.4451   19.8003   23.1402 H   0  0  0  0  0  0  0  0  0  0  0  0
   21.1587   19.3809   21.0361 C   0  0  0  0  0  0  0  0  0  0  0  0
   21.1774   20.4337   20.7224 H   0  0  0  0  0  0  0  0  0  0  0  0
   22.1921   19.0158   20.9586 H   0  0  0  0  0  0  0  0  0  0  0  0
   20.2687   18.5673   20.0716 C   0  0  0  0  0  0  0  0  0  0  0  0
   19.2478   18.9678   20.0358 H   0  0  0  0  0  0  0  0  0  0  0  0
   20.6754   18.6012   19.0526 H   0  0  0  0  0  0  0  0  0  0  0  0
   20.2154   17.5150   20.3797 H   0  0  0  0  0  0  0  0  0  0  0  0
  1  2  1  0  0  0  0
  1  3  2  0  0  0  0
  1  4  1  0  0  0  0
  4  5  1  0  0  0  0
  4  6  1  0  0  0  0
  4  7  1  0  0  0  0
  7  8  1  0  0  0  0
  7  9  1  0  0  0  0
  7 10  1  0  0  0  0
 10 11  1  0  0  0  0
 10 12  1  0  0  0  0
 10 13  1  0  0  0  0
 13 14  1  0  0  0  0
 13 15  1  0  0  0  0
 13 16  1  0  0  0  0
 16 17  1  0  0  0  0
 16 18  1  0  0  0  0
 16 19  1  0  0  0  0
 19 20  1  0  0  0  0
 19 21  1  0  0  0  0
 19 22  1  0  0  0  0
 22 23  1  0  0  0  0
 22 24  1  0  0  0  0
 22 25  1  0  0  0  0
M  END
> <VM2 Rank>
165

> <Conf_Id>
1353

> <Probability>
0.00

> <Sum Probability>
99.99

> <Delta G>
6.241

> <G>
-1.722

> <E>
-26.981

> <-TS>
25.260

> <U+W>
-47.549

> <U>
12.456

> <W>
-60.006

> <W(PB)>
-62.416

> <W(SA)>
2.410

> <Valence>
11.319

> <Coulomb>
0.249

> <VdW>
0.888

> <VdW6>
-10.932

> <VdW12>
11.819

> <Bond>
0.269

> <Angle>
3.445

> <Pdih>
7.604

> <Idih>
0.001

> <Tether>
0.000

$$$$
VeraChem MOL file


 25 24  0  0  0  0  0  0  0  0999 V2000     
   19.5291   19.4313   26.6733 C   0  0  0  0  0  0  0  0  0  0  0  0
   19.9348   19.2342   27.8019 O   0  5  0  0  0  0  0  0  0  0  0  0
   18.6411   20.2162   26.4046 O   0  0  0  0  0  0  0  0  0  0  0  0
   20.1866   18.6680   25.5295 C   0  0  0  0  0  0  0  0  0  0  0  0
   19.4157   18.4660   24.7779 H   0  0  0  0  0  0  0  0  0  0  0  0
   20.5242   17.6987   25.9149 H   0  0  0  0  0  0  0  0  0  0  0  0
   21.3783   19.4377   24.9026 C   0  0  0  0  0  0  0  0  0  0  0  0
   21.0407   20.4110   24.5247 H   0  0  0  0  0  0  0  0  0  0  0  0
   22.1061   19.6597   25.6951 H   0  0  0  0  0  0  0  0  0  0  0  0
   22.0978   18.6514   23.7804 C   0  0  0  0  0  0  0  0  0  0  0  0
   22.4960   17.7199   24.2052 H   0  0  0  0  0  0  0  0  0  0  0  0
   22.9728   19.2284   23.4516 H   0  0  0  0  0  0  0  0  0  0  0  0
   21.2362   18.2992   22.5389 C   0  0  0  0  0  0  0  0  0  0  0  0
   21.8650   17.6937   21.8723 H   0  0  0  0  0  0  0  0  0  0  0  0
   20.4045   17.6440   22.8220 H   0  0  0  0  0  0  0  0  0  0  0  0
   20.7355   19.5243   21.7267 C   0  0  0  0  0  0  0  0  0  0  0  0
   20.7390   19.2625   20.6598 H   0  0  0  0  0  0  0  0  0  0  0  0
   21.4544   20.3483   21.8305 H   0  0  0  0  0  0  0  0  0  0  0  0
   19.3167   20.0302   22.0906 C   0  0  0  0  0  0  0  0  0  0  0  0
   19.2463   20.2592   23.1605 H   0  0  0  0  0  0  0  0  0  0  0  0
   19.1416   20.9791   21.5654 H   0  0  0  0  0  0  0  0  0  0  0  0
   18.1969   19.0414   21.6976 C   0  0  0  0  0  0  0  0  0  0  0  0
   17.2112   19.4822   21.8947 H   0  0  0  0  0  0  0  0  0  0  0  0
   18.2481   18.7937   20.6294 H   0  0  0  0  0  0  0  0  0  0  0  0
   18.2623   18.1085   22.2703 H   0  0  0  0  0  0  0  0  0  0  0  0
  1  2  1  0  0  0  0
  1  3  2  0  0  0  0
  1  4  1  0  0  0  0
  4  5  1  0  0  0  0
  4  6  1  0  0  0  0
  4  7  1  0  0  0  0
  7  8  1  0  0  0  0
  7  9  1  0  0  0  0
  7 10  1  0  0  0  0
 10 11  1  0  0  0  0
 10 12  1  0  0  0  0
 10 13  1  0  0  0  0
 13 14  1  0  0  0  0
 13 15  1  0  0  0  0
 13 16  1  0  0  0  0
 16 17  1  0  0  0  0
 16 18  1  0  0  0  0
 16 19  1  0  0  0  0
 19 20  1  0  0  0  0
 19 21  1  0  0  0  0
 19 22  1  0  0  0  0
 22 23  1  0  0  0  0
 22 24  1  0  0  0  0
 22 25  1  0  0  0  0
M  END
> <VM2 Rank>
166

> <Conf_Id>
1083

> <Probability>
0.00

> <Sum Probability>
99.99

> <Delta G>
6.256

> <G>
-1.707

> <E>
-27.165

> <-TS>
25.458

> <U+W>
-47.733

> <U>
12.724

> <W>
-60.457

> <W(PB)>
-62.797

> <W(SA)>
2.340

> <Valence>
11.802

> <Coulomb>
0.382

> <VdW>
0.540

> <VdW6>
-11.531

> <VdW12>
12.070

> <Bond>
0.296

> <Angle>
3.953

> <Pdih>
7.553

> <Idih>
0.001

> <Tether>
0.000

$$$$
VeraChem MOL file


 25 24  0  0  0  0  0  0  0  0999 V2000     
   19.7394   19.6560   26.8712 C   0  0  0  0  0  0  0  0  0  0  0  0
   19.9700   19.0419   27.8942 O   0  5  0  0  0  0  0  0  0  0  0  0
   18.7442   20.3325   26.7020 O   0  0  0  0  0  0  0  0  0  0  0  0
   20.7463   19.5577   25.7308 C   0  0  0  0  0  0  0  0  0  0  0  0
   21.7473   19.4676   26.1689 H   0  0  0  0  0  0  0  0  0  0  0  0
   20.7174   20.5041   25.1802 H   0  0  0  0  0  0  0  0  0  0  0  0
   20.4654   18.3597   24.7861 C   0  0  0  0  0  0  0  0  0  0  0  0
   20.4377   17.4421   25.3896 H   0  0  0  0  0  0  0  0  0  0  0  0
   19.4655   18.4662   24.3504 H   0  0  0  0  0  0  0  0  0  0  0  0
   21.5332   18.1842   23.6762 C   0  0  0  0  0  0  0  0  0  0  0  0
   21.3944   17.2103   23.1875 H   0  0  0  0  0  0  0  0  0  0  0  0
   22.5193   18.1348   24.1578 H   0  0  0  0  0  0  0  0  0  0  0  0
   21.5635   19.3007   22.5973 C   0  0  0  0  0  0  0  0  0  0  0  0
   21.2778   20.2709   23.0191 H   0  0  0  0  0  0  0  0  0  0  0  0
   22.6069   19.4225   22.2762 H   0  0  0  0  0  0  0  0  0  0  0  0
   20.7296   18.9978   21.3243 C   0  0  0  0  0  0  0  0  0  0  0  0
   21.0900   18.0606   20.8789 H   0  0  0  0  0  0  0  0  0  0  0  0
   20.9335   19.7800   20.5804 H   0  0  0  0  0  0  0  0  0  0  0  0
   19.1987   18.8973   21.5230 C   0  0  0  0  0  0  0  0  0  0  0  0
   18.7387   18.6430   20.5583 H   0  0  0  0  0  0  0  0  0  0  0  0
   18.9588   18.0658   22.1974 H   0  0  0  0  0  0  0  0  0  0  0  0
   18.5628   20.2062   22.0409 C   0  0  0  0  0  0  0  0  0  0  0  0
   18.7928   21.0453   21.3718 H   0  0  0  0  0  0  0  0  0  0  0  0
   17.4712   20.1071   22.0969 H   0  0  0  0  0  0  0  0  0  0  0  0
   18.9253   20.4594   23.0450 H   0  0  0  0  0  0  0  0  0  0  0  0
  1  2  1  0  0  0  0
  1  3  2  0  0  0  0
  1  4  1  0  0  0  0
  4  5  1  0  0  0  0
  4  6  1  0  0  0  0
  4  7  1  0  0  0  0
  7  8  1  0  0  0  0
  7  9  1  0  0  0  0
  7 10  1  0  0  0  0
 10 11  1  0  0  0  0
 10 12  1  0  0  0  0
 10 13  1  0  0  0  0
 13 14  1  0  0  0  0
 13 15  1  0  0  0  0
 13 16  1  0  0  0  0
 16 17  1  0  0  0  0
 16 18  1  0  0  0  0
 16 19  1  0  0  0  0
 19 20  1  0  0  0  0
 19 21  1  0  0  0  0
 19 22  1  0  0  0  0
 22 23  1  0  0  0  0
 22 24  1  0  0  0  0
 22 25  1  0  0  0  0
M  END
> <VM2 Rank>
167

> <Conf_Id>
1054

> <Probability>
0.00

> <Sum Probability>
99.99

> <Delta G>
6.274

> <G>
-1.688

> <E>
-27.073

> <-TS>
25.385

> <U+W>
-47.640

> <U>
12.577

> <W>
-60.217

> <W(PB)>
-62.546

> <W(SA)>
2.329

> <Valence>
11.827

> <Coulomb>
0.089

> <VdW>
0.661

> <VdW6>
-11.300

> <VdW12>
11.961

> <Bond>
0.300

> <Angle>
3.988

> <Pdih>
7.539

> <Idih>
0.000

> <Tether>
0.000

$$$$
VeraChem MOL file


 25 24  0  0  0  0  0  0  0  0999 V2000     
   20.3746   19.4409   27.0510 C   0  0  0  0  0  0  0  0  0  0  0  0
   21.3013   20.2222   27.1401 O   0  5  0  0  0  0  0  0  0  0  0  0
   19.3196   19.5789   27.6384 O   0  0  0  0  0  0  0  0  0  0  0  0
   20.5559   18.2083   26.1697 C   0  0  0  0  0  0  0  0  0  0  0  0
   19.8205   17.4521   26.4700 H   0  0  0  0  0  0  0  0  0  0  0  0
   21.5463   17.7916   26.3873 H   0  0  0  0  0  0  0  0  0  0  0  0
   20.4381   18.4981   24.6509 C   0  0  0  0  0  0  0  0  0  0  0  0
   21.1688   19.2717   24.3803 H   0  0  0  0  0  0  0  0  0  0  0  0
   20.7061   17.5917   24.0916 H   0  0  0  0  0  0  0  0  0  0  0  0
   19.0171   18.9500   24.2421 C   0  0  0  0  0  0  0  0  0  0  0  0
   18.7835   19.9102   24.7225 H   0  0  0  0  0  0  0  0  0  0  0  0
   18.2872   18.2272   24.6315 H   0  0  0  0  0  0  0  0  0  0  0  0
   18.8085   19.0775   22.7122 C   0  0  0  0  0  0  0  0  0  0  0  0
   18.9474   18.0992   22.2358 H   0  0  0  0  0  0  0  0  0  0  0  0
   17.7559   19.3426   22.5437 H   0  0  0  0  0  0  0  0  0  0  0  0
   19.6911   20.1564   22.0297 C   0  0  0  0  0  0  0  0  0  0  0  0
   19.9343   20.9425   22.7576 H   0  0  0  0  0  0  0  0  0  0  0  0
   19.1034   20.6517   21.2448 H   0  0  0  0  0  0  0  0  0  0  0  0
   20.9972   19.6198   21.3928 C   0  0  0  0  0  0  0  0  0  0  0  0
   21.6349   20.4746   21.1290 H   0  0  0  0  0  0  0  0  0  0  0  0
   21.5654   19.0251   22.1183 H   0  0  0  0  0  0  0  0  0  0  0  0
   20.7496   18.7818   20.1190 C   0  0  0  0  0  0  0  0  0  0  0  0
   20.1899   19.3592   19.3718 H   0  0  0  0  0  0  0  0  0  0  0  0
   21.7034   18.4811   19.6667 H   0  0  0  0  0  0  0  0  0  0  0  0
   20.1841   17.8684   20.3398 H   0  0  0  0  0  0  0  0  0  0  0  0
  1  2  1  0  0  0  0
  1  3  2  0  0  0  0
  1  4  1  0  0  0  0
  4  5  1  0  0  0  0
  4  6  1  0  0  0  0
  4  7  1  0  0  0  0
  7  8  1  0  0  0  0
  7  9  1  0  0  0  0
  7 10  1  0  0  0  0
 10 11  1  0  0  0  0
 10 12  1  0  0  0  0
 10 13  1  0  0  0  0
 13 14  1  0  0  0  0
 13 15  1  0  0  0  0
 13 16  1  0  0  0  0
 16 17  1  0  0  0  0
 16 18  1  0  0  0  0
 16 19  1  0  0  0  0
 19 20  1  0  0  0  0
 19 21  1  0  0  0  0
 19 22  1  0  0  0  0
 22 23  1  0  0  0  0
 22 24  1  0  0  0  0
 22 25  1  0  0  0  0
M  END
> <VM2 Rank>
168

> <Conf_Id>
706

> <Probability>
0.00

> <Sum Probability>
99.99

> <Delta G>
6.290

> <G>
-1.672

> <E>
-26.816

> <-TS>
25.143

> <U+W>
-47.383

> <U>
12.751

> <W>
-60.134

> <W(PB)>
-62.535

> <W(SA)>
2.401

> <Valence>
11.503

> <Coulomb>
0.344

> <VdW>
0.904

> <VdW6>
-10.720

> <VdW12>
11.623

> <Bond>
0.257

> <Angle>
3.380

> <Pdih>
7.866

> <Idih>
0.001

> <Tether>
0.000

$$$$
VeraChem MOL file


 25 24  0  0  0  0  0  0  0  0999 V2000     
   19.9171   19.4121   27.0562 C   0  0  0  0  0  0  0  0  0  0  0  0
   20.9594   19.6840   27.6191 O   0  5  0  0  0  0  0  0  0  0  0  0
   18.9010   20.0695   27.1677 O   0  0  0  0  0  0  0  0  0  0  0  0
   19.8736   18.1649   26.1779 C   0  0  0  0  0  0  0  0  0  0  0  0
   18.9493   17.6263   26.4177 H   0  0  0  0  0  0  0  0  0  0  0  0
   20.7057   17.5087   26.4603 H   0  0  0  0  0  0  0  0  0  0  0  0
   19.9187   18.4646   24.6571 C   0  0  0  0  0  0  0  0  0  0  0  0
   19.7548   17.5306   24.1030 H   0  0  0  0  0  0  0  0  0  0  0  0
   19.0899   19.1390   24.4044 H   0  0  0  0  0  0  0  0  0  0  0  0
   21.2613   19.0921   24.2162 C   0  0  0  0  0  0  0  0  0  0  0  0
   22.0856   18.4680   24.5874 H   0  0  0  0  0  0  0  0  0  0  0  0
   21.3825   20.0748   24.6925 H   0  0  0  0  0  0  0  0  0  0  0  0
   21.4165   19.2428   22.6821 C   0  0  0  0  0  0  0  0  0  0  0  0
   22.4230   19.6385   22.4896 H   0  0  0  0  0  0  0  0  0  0  0  0
   21.3912   18.2541   22.2075 H   0  0  0  0  0  0  0  0  0  0  0  0
   20.3890   20.2006   22.0220 C   0  0  0  0  0  0  0  0  0  0  0  0
   20.8911   20.7655   21.2247 H   0  0  0  0  0  0  0  0  0  0  0  0
   20.0651   20.9504   22.7567 H   0  0  0  0  0  0  0  0  0  0  0  0
   19.1470   19.5022   21.4143 C   0  0  0  0  0  0  0  0  0  0  0  0
   18.6757   18.8410   22.1516 H   0  0  0  0  0  0  0  0  0  0  0  0
   18.4002   20.2691   21.1670 H   0  0  0  0  0  0  0  0  0  0  0  0
   19.4693   18.7012   20.1334 C   0  0  0  0  0  0  0  0  0  0  0  0
   20.1511   17.8672   20.3392 H   0  0  0  0  0  0  0  0  0  0  0  0
   18.5510   18.2815   19.7027 H   0  0  0  0  0  0  0  0  0  0  0  0
   19.9337   19.3443   19.3746 H   0  0  0  0  0  0  0  0  0  0  0  0
  1  2  1  0  0  0  0
  1  3  2  0  0  0  0
  1  4  1  0  0  0  0
  4  5  1  0  0  0  0
  4  6  1  0  0  0  0
  4  7  1  0  0  0  0
  7  8  1  0  0  0  0
  7  9  1  0  0  0  0
  7 10  1  0  0  0  0
 10 11  1  0  0  0  0
 10 12  1  0  0  0  0
 10 13  1  0  0  0  0
 13 14  1  0  0  0  0
 13 15  1  0  0  0  0
 13 16  1  0  0  0  0
 16 17  1  0  0  0  0
 16 18  1  0  0  0  0
 16 19  1  0  0  0  0
 19 20  1  0  0  0  0
 19 21  1  0  0  0  0
 19 22  1  0  0  0  0
 22 23  1  0  0  0  0
 22 24  1  0  0  0  0
 22 25  1  0  0  0  0
M  END
> <VM2 Rank>
169

> <Conf_Id>
422

> <Probability>
0.00

> <Sum Probability>
99.99

> <Delta G>
6.311

> <G>
-1.652

> <E>
-26.796

> <-TS>
25.144

> <U+W>
-47.364

> <U>
12.751

> <W>
-60.114

> <W(PB)>
-62.501

> <W(SA)>
2.387

> <Valence>
11.503

> <Coulomb>
0.344

> <VdW>
0.904

> <VdW6>
-10.719

> <VdW12>
11.623

> <Bond>
0.257

> <Angle>
3.378

> <Pdih>
7.868

> <Idih>
0.001

> <Tether>
0.000

$$$$
VeraChem MOL file


 25 24  0  0  0  0  0  0  0  0999 V2000     
   20.5155   19.7056   26.8623 C   0  0  0  0  0  0  0  0  0  0  0  0
   21.4122   20.5032   26.6713 O   0  5  0  0  0  0  0  0  0  0  0  0
   20.3888   19.0685   27.8894 O   0  0  0  0  0  0  0  0  0  0  0  0
   19.5034   19.4782   25.7452 C   0  0  0  0  0  0  0  0  0  0  0  0
   19.3986   20.4197   25.1956 H   0  0  0  0  0  0  0  0  0  0  0  0
   18.5324   19.2618   26.2062 H   0  0  0  0  0  0  0  0  0  0  0  0
   19.9128   18.3245   24.7924 C   0  0  0  0  0  0  0  0  0  0  0  0
   20.8807   18.5569   24.3340 H   0  0  0  0  0  0  0  0  0  0  0  0
   20.0712   17.4187   25.3937 H   0  0  0  0  0  0  0  0  0  0  0  0
   18.8508   18.0127   23.7072 C   0  0  0  0  0  0  0  0  0  0  0  0
   17.8904   17.8388   24.2113 H   0  0  0  0  0  0  0  0  0  0  0  0
   19.1013   17.0638   23.2140 H   0  0  0  0  0  0  0  0  0  0  0  0
   18.6536   19.1147   22.6310 C   0  0  0  0  0  0  0  0  0  0  0  0
   17.5961   19.1022   22.3342 H   0  0  0  0  0  0  0  0  0  0  0  0
   18.8231   20.1140   23.0475 H   0  0  0  0  0  0  0  0  0  0  0  0
   19.4897   18.9187   21.3386 C   0  0  0  0  0  0  0  0  0  0  0  0
   19.1709   19.6676   20.6009 H   0  0  0  0  0  0  0  0  0  0  0  0
   19.2414   17.9426   20.9001 H   0  0  0  0  0  0  0  0  0  0  0  0
   21.0252   19.0141   21.5018 C   0  0  0  0  0  0  0  0  0  0  0  0
   21.3844   18.2208   22.1692 H   0  0  0  0  0  0  0  0  0  0  0  0
   21.4914   18.8189   20.5264 H   0  0  0  0  0  0  0  0  0  0  0  0
   21.5011   20.3939   22.0069 C   0  0  0  0  0  0  0  0  0  0  0  0
   21.1324   20.6006   23.0194 H   0  0  0  0  0  0  0  0  0  0  0  0
   22.5974   20.4345   22.0377 H   0  0  0  0  0  0  0  0  0  0  0  0
   21.1510   21.1960   21.3444 H   0  0  0  0  0  0  0  0  0  0  0  0
  1  2  1  0  0  0  0
  1  3  2  0  0  0  0
  1  4  1  0  0  0  0
  4  5  1  0  0  0  0
  4  6  1  0  0  0  0
  4  7  1  0  0  0  0
  7  8  1  0  0  0  0
  7  9  1  0  0  0  0
  7 10  1  0  0  0  0
 10 11  1  0  0  0  0
 10 12  1  0  0  0  0
 10 13  1  0  0  0  0
 13 14  1  0  0  0  0
 13 15  1  0  0  0  0
 13 16  1  0  0  0  0
 16 17  1  0  0  0  0
 16 18  1  0  0  0  0
 16 19  1  0  0  0  0
 19 20  1  0  0  0  0
 19 21  1  0  0  0  0
 19 22  1  0  0  0  0
 22 23  1  0  0  0  0
 22 24  1  0  0  0  0
 22 25  1  0  0  0  0
M  END
> <VM2 Rank>
170

> <Conf_Id>
703

> <Probability>
0.00

> <Sum Probability>
99.99

> <Delta G>
6.325

> <G>
-1.638

> <E>
-27.023

> <-TS>
25.385

> <U+W>
-47.590

> <U>
12.576

> <W>
-60.167

> <W(PB)>
-62.529

> <W(SA)>
2.363

> <Valence>
11.827

> <Coulomb>
0.088

> <VdW>
0.661

> <VdW6>
-11.300

> <VdW12>
11.961

> <Bond>
0.300

> <Angle>
3.988

> <Pdih>
7.540

> <Idih>
0.000

> <Tether>
0.000

$$$$
VeraChem MOL file


 25 24  0  0  0  0  0  0  0  0999 V2000     
   20.3792   19.4326   27.1312 C   0  0  0  0  0  0  0  0  0  0  0  0
   21.3188   20.1849   27.2995 O   0  5  0  0  0  0  0  0  0  0  0  0
   19.3205   19.5371   27.7189 O   0  0  0  0  0  0  0  0  0  0  0  0
   20.5475   18.2817   26.1432 C   0  0  0  0  0  0  0  0  0  0  0  0
   19.7839   17.5233   26.3546 H   0  0  0  0  0  0  0  0  0  0  0  0
   21.5201   17.8177   26.3449 H   0  0  0  0  0  0  0  0  0  0  0  0
   20.4782   18.7110   24.6544 C   0  0  0  0  0  0  0  0  0  0  0  0
   21.2166   19.5032   24.4683 H   0  0  0  0  0  0  0  0  0  0  0  0
   20.7638   17.8528   24.0332 H   0  0  0  0  0  0  0  0  0  0  0  0
   19.0698   19.1973   24.2402 C   0  0  0  0  0  0  0  0  0  0  0  0
   18.7445   19.9895   24.9282 H   0  0  0  0  0  0  0  0  0  0  0  0
   18.3503   18.3755   24.3569 H   0  0  0  0  0  0  0  0  0  0  0  0
   18.9910   19.7511   22.7954 C   0  0  0  0  0  0  0  0  0  0  0  0
   17.9673   20.1168   22.6372 H   0  0  0  0  0  0  0  0  0  0  0  0
   19.6381   20.6319   22.7009 H   0  0  0  0  0  0  0  0  0  0  0  0
   19.3068   18.7109   21.6876 C   0  0  0  0  0  0  0  0  0  0  0  0
   18.6339   18.8826   20.8364 H   0  0  0  0  0  0  0  0  0  0  0  0
   19.0685   17.7032   22.0540 H   0  0  0  0  0  0  0  0  0  0  0  0
   20.7657   18.7410   21.1678 C   0  0  0  0  0  0  0  0  0  0  0  0
   21.4748   18.6864   22.0028 H   0  0  0  0  0  0  0  0  0  0  0  0
   20.9388   17.8441   20.5573 H   0  0  0  0  0  0  0  0  0  0  0  0
   21.0755   19.9864   20.3080 C   0  0  0  0  0  0  0  0  0  0  0  0
   20.9947   20.9110   20.8924 H   0  0  0  0  0  0  0  0  0  0  0  0
   22.0970   19.9328   19.9098 H   0  0  0  0  0  0  0  0  0  0  0  0
   20.3858   20.0575   19.4571 H   0  0  0  0  0  0  0  0  0  0  0  0
  1  2  1  0  0  0  0
  1  3  2  0  0  0  0
  1  4  1  0  0  0  0
  4  5  1  0  0  0  0
  4  6  1  0  0  0  0
  4  7  1  0  0  0  0
  7  8  1  0  0  0  0
  7  9  1  0  0  0  0
  7 10  1  0  0  0  0
 10 11  1  0  0  0  0
 10 12  1  0  0  0  0
 10 13  1  0  0  0  0
 13 14  1  0  0  0  0
 13 15  1  0  0  0  0
 13 16  1  0  0  0  0
 16 17  1  0  0  0  0
 16 18  1  0  0  0  0
 16 19  1  0  0  0  0
 19 20  1  0  0  0  0
 19 21  1  0  0  0  0
 19 22  1  0  0  0  0
 22 23  1  0  0  0  0
 22 24  1  0  0  0  0
 22 25  1  0  0  0  0
M  END
> <VM2 Rank>
171

> <Conf_Id>
278

> <Probability>
0.00

> <Sum Probability>
99.99

> <Delta G>
6.347

> <G>
-1.615

> <E>
-26.798

> <-TS>
25.183

> <U+W>
-47.366

> <U>
12.643

> <W>
-60.009

> <W(PB)>
-62.424

> <W(SA)>
2.415

> <Valence>
11.578

> <Coulomb>
0.067

> <VdW>
0.998

> <VdW6>
-10.640

> <VdW12>
11.638

> <Bond>
0.260

> <Angle>
3.401

> <Pdih>
7.917

> <Idih>
0.001

> <Tether>
0.000

$$$$
VeraChem MOL file


 25 24  0  0  0  0  0  0  0  0999 V2000     
   19.8750   19.2343   27.1493 C   0  0  0  0  0  0  0  0  0  0  0  0
   20.7307   19.7224   27.8611 O   0  5  0  0  0  0  0  0  0  0  0  0
   18.6961   19.5209   27.2216 O   0  0  0  0  0  0  0  0  0  0  0  0
   20.3039   18.1899   26.1224 C   0  0  0  0  0  0  0  0  0  0  0  0
   19.4209   17.6155   25.8172 H   0  0  0  0  0  0  0  0  0  0  0  0
   20.9781   17.4899   26.6296 H   0  0  0  0  0  0  0  0  0  0  0  0
   21.0136   18.7821   24.8770 C   0  0  0  0  0  0  0  0  0  0  0  0
   21.8754   19.3816   25.2015 H   0  0  0  0  0  0  0  0  0  0  0  0
   21.4141   17.9552   24.2776 H   0  0  0  0  0  0  0  0  0  0  0  0
   20.0676   19.6502   24.0119 C   0  0  0  0  0  0  0  0  0  0  0  0
   19.6722   20.4679   24.6299 H   0  0  0  0  0  0  0  0  0  0  0  0
   19.2012   19.0542   23.7013 H   0  0  0  0  0  0  0  0  0  0  0  0
   20.7683   20.2700   22.7764 C   0  0  0  0  0  0  0  0  0  0  0  0
   20.1471   21.0812   22.3731 H   0  0  0  0  0  0  0  0  0  0  0  0
   21.6987   20.7487   23.1109 H   0  0  0  0  0  0  0  0  0  0  0  0
   21.0988   19.2635   21.6420 C   0  0  0  0  0  0  0  0  0  0  0  0
   21.2682   18.2580   22.0465 H   0  0  0  0  0  0  0  0  0  0  0  0
   22.0519   19.5651   21.1866 H   0  0  0  0  0  0  0  0  0  0  0  0
   20.0419   19.2003   20.5116 C   0  0  0  0  0  0  0  0  0  0  0  0
   19.9371   20.1912   20.0486 H   0  0  0  0  0  0  0  0  0  0  0  0
   20.4134   18.5307   19.7237 H   0  0  0  0  0  0  0  0  0  0  0  0
   18.6570   18.7005   20.9727 C   0  0  0  0  0  0  0  0  0  0  0  0
   17.9912   18.5643   20.1108 H   0  0  0  0  0  0  0  0  0  0  0  0
   18.7392   17.7375   21.4932 H   0  0  0  0  0  0  0  0  0  0  0  0
   18.1806   19.4220   21.6480 H   0  0  0  0  0  0  0  0  0  0  0  0
  1  2  1  0  0  0  0
  1  3  2  0  0  0  0
  1  4  1  0  0  0  0
  4  5  1  0  0  0  0
  4  6  1  0  0  0  0
  4  7  1  0  0  0  0
  7  8  1  0  0  0  0
  7  9  1  0  0  0  0
  7 10  1  0  0  0  0
 10 11  1  0  0  0  0
 10 12  1  0  0  0  0
 10 13  1  0  0  0  0
 13 14  1  0  0  0  0
 13 15  1  0  0  0  0
 13 16  1  0  0  0  0
 16 17  1  0  0  0  0
 16 18  1  0  0  0  0
 16 19  1  0  0  0  0
 19 20  1  0  0  0  0
 19 21  1  0  0  0  0
 19 22  1  0  0  0  0
 22 23  1  0  0  0  0
 22 24  1  0  0  0  0
 22 25  1  0  0  0  0
M  END
> <VM2 Rank>
172

> <Conf_Id>
387

> <Probability>
0.00

> <Sum Probability>
99.99

> <Delta G>
6.389

> <G>
-1.574

> <E>
-26.710

> <-TS>
25.136

> <U+W>
-47.278

> <U>
12.718

> <W>
-59.995

> <W(PB)>
-62.409

> <W(SA)>
2.414

> <Valence>
11.548

> <Coulomb>
0.194

> <VdW>
0.975

> <VdW6>
-10.624

> <VdW12>
11.599

> <Bond>
0.265

> <Angle>
3.381

> <Pdih>
7.902

> <Idih>
0.000

> <Tether>
0.000

$$$$
VeraChem MOL file


 25 24  0  0  0  0  0  0  0  0999 V2000     
   20.4931   19.5893   26.9180 C   0  0  0  0  0  0  0  0  0  0  0  0
   21.6760   19.7002   26.6624 O   0  5  0  0  0  0  0  0  0  0  0  0
   20.0710   19.1781   27.9812 O   0  0  0  0  0  0  0  0  0  0  0  0
   19.4799   20.0109   25.8571 C   0  0  0  0  0  0  0  0  0  0  0  0
   19.9940   20.6356   25.1196 H   0  0  0  0  0  0  0  0  0  0  0  0
   18.7411   20.6519   26.3519 H   0  0  0  0  0  0  0  0  0  0  0  0
   18.7521   18.8205   25.1728 C   0  0  0  0  0  0  0  0  0  0  0  0
   18.3203   18.1878   25.9607 H   0  0  0  0  0  0  0  0  0  0  0  0
   17.9018   19.1915   24.5850 H   0  0  0  0  0  0  0  0  0  0  0  0
   19.6691   17.9475   24.2767 C   0  0  0  0  0  0  0  0  0  0  0  0
   19.3513   16.9012   24.3808 H   0  0  0  0  0  0  0  0  0  0  0  0
   20.7057   17.9799   24.6390 H   0  0  0  0  0  0  0  0  0  0  0  0
   19.6269   18.2992   22.7682 C   0  0  0  0  0  0  0  0  0  0  0  0
   20.2475   17.5671   22.2366 H   0  0  0  0  0  0  0  0  0  0  0  0
   18.6036   18.1681   22.3909 H   0  0  0  0  0  0  0  0  0  0  0  0
   20.1173   19.7289   22.4364 C   0  0  0  0  0  0  0  0  0  0  0  0
   21.1155   19.8893   22.8664 H   0  0  0  0  0  0  0  0  0  0  0  0
   19.4469   20.4559   22.9115 H   0  0  0  0  0  0  0  0  0  0  0  0
   20.1490   20.0336   20.9203 C   0  0  0  0  0  0  0  0  0  0  0  0
   19.1584   19.8471   20.4830 H   0  0  0  0  0  0  0  0  0  0  0  0
   20.3520   21.1045   20.7822 H   0  0  0  0  0  0  0  0  0  0  0  0
   21.2185   19.2258   20.1529 C   0  0  0  0  0  0  0  0  0  0  0  0
   22.2126   19.3707   20.5955 H   0  0  0  0  0  0  0  0  0  0  0  0
   20.9924   18.1525   20.1574 H   0  0  0  0  0  0  0  0  0  0  0  0
   21.2649   19.5500   19.1053 H   0  0  0  0  0  0  0  0  0  0  0  0
  1  2  1  0  0  0  0
  1  3  2  0  0  0  0
  1  4  1  0  0  0  0
  4  5  1  0  0  0  0
  4  6  1  0  0  0  0
  4  7  1  0  0  0  0
  7  8  1  0  0  0  0
  7  9  1  0  0  0  0
  7 10  1  0  0  0  0
 10 11  1  0  0  0  0
 10 12  1  0  0  0  0
 10 13  1  0  0  0  0
 13 14  1  0  0  0  0
 13 15  1  0  0  0  0
 13 16  1  0  0  0  0
 16 17  1  0  0  0  0
 16 18  1  0  0  0  0
 16 19  1  0  0  0  0
 19 20  1  0  0  0  0
 19 21  1  0  0  0  0
 19 22  1  0  0  0  0
 22 23  1  0  0  0  0
 22 24  1  0  0  0  0
 22 25  1  0  0  0  0
M  END
> <VM2 Rank>
173

> <Conf_Id>
543

> <Probability>
0.00

> <Sum Probability>
99.99

> <Delta G>
6.389

> <G>
-1.573

> <E>
-26.781

> <-TS>
25.208

> <U+W>
-47.349

> <U>
12.780

> <W>
-60.128

> <W(PB)>
-62.546

> <W(SA)>
2.418

> <Valence>
11.506

> <Coulomb>
0.275

> <VdW>
0.999

> <VdW6>
-10.780

> <VdW12>
11.779

> <Bond>
0.274

> <Angle>
3.484

> <Pdih>
7.747

> <Idih>
0.001

> <Tether>
0.000

$$$$
VeraChem MOL file


 25 24  0  0  0  0  0  0  0  0999 V2000     
   19.8666   19.2985   27.1482 C   0  0  0  0  0  0  0  0  0  0  0  0
   20.8146   19.0628   27.8714 O   0  5  0  0  0  0  0  0  0  0  0  0
   18.7970   18.7278   27.2340 O   0  0  0  0  0  0  0  0  0  0  0  0
   20.0242   20.3842   26.0873 C   0  0  0  0  0  0  0  0  0  0  0  0
   20.4993   21.2465   26.5696 H   0  0  0  0  0  0  0  0  0  0  0  0
   19.0267   20.7090   25.7676 H   0  0  0  0  0  0  0  0  0  0  0  0
   20.8650   19.9501   24.8584 C   0  0  0  0  0  0  0  0  0  0  0  0
   21.0476   20.8317   24.2317 H   0  0  0  0  0  0  0  0  0  0  0  0
   21.8482   19.5964   25.1983 H   0  0  0  0  0  0  0  0  0  0  0  0
   20.1706   18.8456   24.0249 C   0  0  0  0  0  0  0  0  0  0  0  0
   19.1836   19.1950   23.6992 H   0  0  0  0  0  0  0  0  0  0  0  0
   19.9906   17.9747   24.6698 H   0  0  0  0  0  0  0  0  0  0  0  0
   21.0093   18.3831   22.8066 C   0  0  0  0  0  0  0  0  0  0  0  0
   22.0289   18.1642   23.1521 H   0  0  0  0  0  0  0  0  0  0  0  0
   20.6134   17.4296   22.4316 H   0  0  0  0  0  0  0  0  0  0  0  0
   21.0807   19.4041   21.6397 C   0  0  0  0  0  0  0  0  0  0  0  0
   22.0808   19.3376   21.1902 H   0  0  0  0  0  0  0  0  0  0  0  0
   20.9904   20.4321   22.0117 H   0  0  0  0  0  0  0  0  0  0  0  0
   20.0464   19.1640   20.5123 C   0  0  0  0  0  0  0  0  0  0  0  0
   20.2407   19.8802   19.7021 H   0  0  0  0  0  0  0  0  0  0  0  0
   20.1959   18.1645   20.0811 H   0  0  0  0  0  0  0  0  0  0  0  0
   18.5784   19.3138   20.9631 C   0  0  0  0  0  0  0  0  0  0  0  0
   18.4140   20.2825   21.4527 H   0  0  0  0  0  0  0  0  0  0  0  0
   17.9032   19.2510   20.1001 H   0  0  0  0  0  0  0  0  0  0  0  0
   18.2962   18.5174   21.6628 H   0  0  0  0  0  0  0  0  0  0  0  0
  1  2  1  0  0  0  0
  1  3  2  0  0  0  0
  1  4  1  0  0  0  0
  4  5  1  0  0  0  0
  4  6  1  0  0  0  0
  4  7  1  0  0  0  0
  7  8  1  0  0  0  0
  7  9  1  0  0  0  0
  7 10  1  0  0  0  0
 10 11  1  0  0  0  0
 10 12  1  0  0  0  0
 10 13  1  0  0  0  0
 13 14  1  0  0  0  0
 13 15  1  0  0  0  0
 13 16  1  0  0  0  0
 16 17  1  0  0  0  0
 16 18  1  0  0  0  0
 16 19  1  0  0  0  0
 19 20  1  0  0  0  0
 19 21  1  0  0  0  0
 19 22  1  0  0  0  0
 22 23  1  0  0  0  0
 22 24  1  0  0  0  0
 22 25  1  0  0  0  0
M  END
> <VM2 Rank>
174

> <Conf_Id>
65

> <Probability>
0.00

> <Sum Probability>
99.99

> <Delta G>
6.405

> <G>
-1.557

> <E>
-26.694

> <-TS>
25.137

> <U+W>
-47.262

> <U>
12.718

> <W>
-59.980

> <W(PB)>
-62.377

> <W(SA)>
2.397

> <Valence>
11.548

> <Coulomb>
0.195

> <VdW>
0.975

> <VdW6>
-10.625

> <VdW12>
11.600

> <Bond>
0.265

> <Angle>
3.380

> <Pdih>
7.903

> <Idih>
0.001

> <Tether>
0.000

$$$$
VeraChem MOL file


 25 24  0  0  0  0  0  0  0  0999 V2000     
   20.2901   19.8122   26.3972 C   0  0  0  0  0  0  0  0  0  0  0  0
   21.2922   20.4536   26.1478 O   0  5  0  0  0  0  0  0  0  0  0  0
   19.2505   20.3133   26.7788 O   0  0  0  0  0  0  0  0  0  0  0  0
   20.3757   18.2887   26.3333 C   0  0  0  0  0  0  0  0  0  0  0  0
   19.4518   17.8623   26.7421 H   0  0  0  0  0  0  0  0  0  0  0  0
   21.1834   17.9967   27.0143 H   0  0  0  0  0  0  0  0  0  0  0  0
   20.6660   17.6992   24.9244 C   0  0  0  0  0  0  0  0  0  0  0  0
   21.4584   18.2760   24.4293 H   0  0  0  0  0  0  0  0  0  0  0  0
   21.0764   16.6898   25.0613 H   0  0  0  0  0  0  0  0  0  0  0  0
   19.4224   17.5752   24.0059 C   0  0  0  0  0  0  0  0  0  0  0  0
   18.6590   16.9769   24.5213 H   0  0  0  0  0  0  0  0  0  0  0  0
   19.6988   16.9935   23.1169 H   0  0  0  0  0  0  0  0  0  0  0  0
   18.7812   18.9124   23.5527 C   0  0  0  0  0  0  0  0  0  0  0  0
   17.9215   18.6854   22.9080 H   0  0  0  0  0  0  0  0  0  0  0  0
   18.3646   19.4310   24.4253 H   0  0  0  0  0  0  0  0  0  0  0  0
   19.7266   19.8787   22.7953 C   0  0  0  0  0  0  0  0  0  0  0  0
   20.5461   20.1954   23.4538 H   0  0  0  0  0  0  0  0  0  0  0  0
   19.1649   20.7907   22.5523 H   0  0  0  0  0  0  0  0  0  0  0  0
   20.3046   19.2820   21.4923 C   0  0  0  0  0  0  0  0  0  0  0  0
   20.9349   18.4133   21.7241 H   0  0  0  0  0  0  0  0  0  0  0  0
   19.4857   18.9239   20.8534 H   0  0  0  0  0  0  0  0  0  0  0  0
   21.1438   20.3187   20.7184 C   0  0  0  0  0  0  0  0  0  0  0  0
   21.5512   19.8783   19.7992 H   0  0  0  0  0  0  0  0  0  0  0  0
   20.5340   21.1872   20.4371 H   0  0  0  0  0  0  0  0  0  0  0  0
   21.9860   20.6736   21.3269 H   0  0  0  0  0  0  0  0  0  0  0  0
  1  2  1  0  0  0  0
  1  3  2  0  0  0  0
  1  4  1  0  0  0  0
  4  5  1  0  0  0  0
  4  6  1  0  0  0  0
  4  7  1  0  0  0  0
  7  8  1  0  0  0  0
  7  9  1  0  0  0  0
  7 10  1  0  0  0  0
 10 11  1  0  0  0  0
 10 12  1  0  0  0  0
 10 13  1  0  0  0  0
 13 14  1  0  0  0  0
 13 15  1  0  0  0  0
 13 16  1  0  0  0  0
 16 17  1  0  0  0  0
 16 18  1  0  0  0  0
 16 19  1  0  0  0  0
 19 20  1  0  0  0  0
 19 21  1  0  0  0  0
 19 22  1  0  0  0  0
 22 23  1  0  0  0  0
 22 24  1  0  0  0  0
 22 25  1  0  0  0  0
M  END
> <VM2 Rank>
175

> <Conf_Id>
239

> <Probability>
0.00

> <Sum Probability>
99.99

> <Delta G>
6.407

> <G>
-1.555

> <E>
-27.545

> <-TS>
25.989

> <U+W>
-48.112

> <U>
13.027

> <W>
-61.139

> <W(PB)>
-63.503

> <W(SA)>
2.364

> <Valence>
10.559

> <Coulomb>
2.239

> <VdW>
0.229

> <VdW6>
-12.344

> <VdW12>
12.573

> <Bond>
0.282

> <Angle>
4.052

> <Pdih>
6.208

> <Idih>
0.016

> <Tether>
0.000

$$$$
VeraChem MOL file


 25 24  0  0  0  0  0  0  0  0999 V2000     
   19.9385   19.7896   26.4012 C   0  0  0  0  0  0  0  0  0  0  0  0
   20.9142   20.4196   26.7598 O   0  5  0  0  0  0  0  0  0  0  0  0
   18.8574   20.2976   26.1758 O   0  0  0  0  0  0  0  0  0  0  0  0
   20.0466   18.2676   26.3370 C   0  0  0  0  0  0  0  0  0  0  0  0
   19.2985   17.8759   27.0360 H   0  0  0  0  0  0  0  0  0  0  0  0
   21.0264   17.9631   26.7240 H   0  0  0  0  0  0  0  0  0  0  0  0
   19.8017   17.6438   24.9343 C   0  0  0  0  0  0  0  0  0  0  0  0
   19.5267   16.5904   25.0791 H   0  0  0  0  0  0  0  0  0  0  0  0
   18.9309   18.1140   24.4584 H   0  0  0  0  0  0  0  0  0  0  0  0
   21.0295   17.6784   23.9873 C   0  0  0  0  0  0  0  0  0  0  0  0
   20.8093   17.0648   23.1041 H   0  0  0  0  0  0  0  0  0  0  0  0
   21.8747   17.1832   24.4843 H   0  0  0  0  0  0  0  0  0  0  0  0
   21.4841   19.0859   23.5215 C   0  0  0  0  0  0  0  0  0  0  0  0
   21.8509   19.6547   24.3851 H   0  0  0  0  0  0  0  0  0  0  0  0
   22.3507   18.9696   22.8569 H   0  0  0  0  0  0  0  0  0  0  0  0
   20.4057   19.9223   22.7875 C   0  0  0  0  0  0  0  0  0  0  0  0
   20.8407   20.8982   22.5329 H   0  0  0  0  0  0  0  0  0  0  0  0
   19.5679   20.1327   23.4651 H   0  0  0  0  0  0  0  0  0  0  0  0
   19.8789   19.2547   21.4972 C   0  0  0  0  0  0  0  0  0  0  0  0
   20.7219   19.0031   20.8391 H   0  0  0  0  0  0  0  0  0  0  0  0
   19.3702   18.3130   21.7422 H   0  0  0  0  0  0  0  0  0  0  0  0
   18.8965   20.1745   20.7444 C   0  0  0  0  0  0  0  0  0  0  0  0
   19.3839   21.1133   20.4502 H   0  0  0  0  0  0  0  0  0  0  0  0
   18.5276   19.6843   19.8342 H   0  0  0  0  0  0  0  0  0  0  0  0
   18.0303   20.4200   21.3727 H   0  0  0  0  0  0  0  0  0  0  0  0
  1  2  1  0  0  0  0
  1  3  2  0  0  0  0
  1  4  1  0  0  0  0
  4  5  1  0  0  0  0
  4  6  1  0  0  0  0
  4  7  1  0  0  0  0
  7  8  1  0  0  0  0
  7  9  1  0  0  0  0
  7 10  1  0  0  0  0
 10 11  1  0  0  0  0
 10 12  1  0  0  0  0
 10 13  1  0  0  0  0
 13 14  1  0  0  0  0
 13 15  1  0  0  0  0
 13 16  1  0  0  0  0
 16 17  1  0  0  0  0
 16 18  1  0  0  0  0
 16 19  1  0  0  0  0
 19 20  1  0  0  0  0
 19 21  1  0  0  0  0
 19 22  1  0  0  0  0
 22 23  1  0  0  0  0
 22 24  1  0  0  0  0
 22 25  1  0  0  0  0
M  END
> <VM2 Rank>
176

> <Conf_Id>
1098

> <Probability>
0.00

> <Sum Probability>
99.99

> <Delta G>
6.416

> <G>
-1.546

> <E>
-27.536

> <-TS>
25.989

> <U+W>
-48.103

> <U>
13.027

> <W>
-61.131

> <W(PB)>
-63.486

> <W(SA)>
2.355

> <Valence>
10.559

> <Coulomb>
2.239

> <VdW>
0.229

> <VdW6>
-12.344

> <VdW12>
12.573

> <Bond>
0.282

> <Angle>
4.052

> <Pdih>
6.208

> <Idih>
0.016

> <Tether>
0.000

$$$$
VeraChem MOL file


 25 24  0  0  0  0  0  0  0  0999 V2000     
   19.9883   19.0661   27.0527 C   0  0  0  0  0  0  0  0  0  0  0  0
   20.9392   19.4000   27.7322 O   0  5  0  0  0  0  0  0  0  0  0  0
   18.8412   19.3829   27.2996 O   0  0  0  0  0  0  0  0  0  0  0  0
   20.2490   18.1827   25.8359 C   0  0  0  0  0  0  0  0  0  0  0  0
   19.3086   17.6983   25.5466 H   0  0  0  0  0  0  0  0  0  0  0  0
   20.9331   17.3858   26.1502 H   0  0  0  0  0  0  0  0  0  0  0  0
   20.8557   18.9377   24.6247 C   0  0  0  0  0  0  0  0  0  0  0  0
   21.7784   19.4461   24.9366 H   0  0  0  0  0  0  0  0  0  0  0  0
   21.1432   18.2015   23.8640 H   0  0  0  0  0  0  0  0  0  0  0  0
   19.8731   19.9656   24.0135 C   0  0  0  0  0  0  0  0  0  0  0  0
   19.5845   20.6876   24.7896 H   0  0  0  0  0  0  0  0  0  0  0  0
   18.9440   19.4690   23.7078 H   0  0  0  0  0  0  0  0  0  0  0  0
   20.4686   20.7522   22.8209 C   0  0  0  0  0  0  0  0  0  0  0  0
   19.7460   21.5196   22.5117 H   0  0  0  0  0  0  0  0  0  0  0  0
   21.3546   21.2994   23.1704 H   0  0  0  0  0  0  0  0  0  0  0  0
   20.8648   19.9125   21.5774 C   0  0  0  0  0  0  0  0  0  0  0  0
   21.6541   19.1923   21.8289 H   0  0  0  0  0  0  0  0  0  0  0  0
   21.3210   20.6022   20.8543 H   0  0  0  0  0  0  0  0  0  0  0  0
   19.6846   19.1996   20.8699 C   0  0  0  0  0  0  0  0  0  0  0  0
   18.7555   19.7684   21.0121 H   0  0  0  0  0  0  0  0  0  0  0  0
   19.8779   19.1970   19.7883 H   0  0  0  0  0  0  0  0  0  0  0  0
   19.4885   17.7345   21.3191 C   0  0  0  0  0  0  0  0  0  0  0  0
   19.2323   17.6639   22.3819 H   0  0  0  0  0  0  0  0  0  0  0  0
   18.6763   17.2648   20.7496 H   0  0  0  0  0  0  0  0  0  0  0  0
   20.4005   17.1478   21.1494 H   0  0  0  0  0  0  0  0  0  0  0  0
  1  2  1  0  0  0  0
  1  3  2  0  0  0  0
  1  4  1  0  0  0  0
  4  5  1  0  0  0  0
  4  6  1  0  0  0  0
  4  7  1  0  0  0  0
  7  8  1  0  0  0  0
  7  9  1  0  0  0  0
  7 10  1  0  0  0  0
 10 11  1  0  0  0  0
 10 12  1  0  0  0  0
 10 13  1  0  0  0  0
 13 14  1  0  0  0  0
 13 15  1  0  0  0  0
 13 16  1  0  0  0  0
 16 17  1  0  0  0  0
 16 18  1  0  0  0  0
 16 19  1  0  0  0  0
 19 20  1  0  0  0  0
 19 21  1  0  0  0  0
 19 22  1  0  0  0  0
 22 23  1  0  0  0  0
 22 24  1  0  0  0  0
 22 25  1  0  0  0  0
M  END
> <VM2 Rank>
177

> <Conf_Id>
1254

> <Probability>
0.00

> <Sum Probability>
99.99

> <Delta G>
6.440

> <G>
-1.522

> <E>
-27.047

> <-TS>
25.525

> <U+W>
-47.615

> <U>
12.524

> <W>
-60.139

> <W(PB)>
-62.516

> <W(SA)>
2.377

> <Valence>
11.399

> <Coulomb>
0.532

> <VdW>
0.593

> <VdW6>
-11.287

> <VdW12>
11.880

> <Bond>
0.261

> <Angle>
3.786

> <Pdih>
7.352

> <Idih>
0.001

> <Tether>
0.000

$$$$
VeraChem MOL file


 25 24  0  0  0  0  0  0  0  0999 V2000     
   20.5902   19.2957   26.9238 C   0  0  0  0  0  0  0  0  0  0  0  0
   21.6090   19.9028   26.6585 O   0  5  0  0  0  0  0  0  0  0  0  0
   19.9938   19.4114   27.9766 O   0  0  0  0  0  0  0  0  0  0  0  0
   20.0409   18.3157   25.8905 C   0  0  0  0  0  0  0  0  0  0  0  0
   19.8242   17.3786   26.4164 H   0  0  0  0  0  0  0  0  0  0  0  0
   20.8346   18.0951   25.1696 H   0  0  0  0  0  0  0  0  0  0  0  0
   18.7549   18.8122   25.1730 C   0  0  0  0  0  0  0  0  0  0  0  0
   18.3004   17.9867   24.6087 H   0  0  0  0  0  0  0  0  0  0  0  0
   18.0217   19.0900   25.9429 H   0  0  0  0  0  0  0  0  0  0  0  0
   18.9809   20.0273   24.2358 C   0  0  0  0  0  0  0  0  0  0  0  0
   19.8280   20.6322   24.5868 H   0  0  0  0  0  0  0  0  0  0  0  0
   18.1006   20.6806   24.3064 H   0  0  0  0  0  0  0  0  0  0  0  0
   19.1743   19.6665   22.7413 C   0  0  0  0  0  0  0  0  0  0  0  0
   18.2794   19.1479   22.3716 H   0  0  0  0  0  0  0  0  0  0  0  0
   19.2420   20.6048   22.1767 H   0  0  0  0  0  0  0  0  0  0  0  0
   20.4246   18.8009   22.4547 C   0  0  0  0  0  0  0  0  0  0  0  0
   20.3146   17.8348   22.9631 H   0  0  0  0  0  0  0  0  0  0  0  0
   21.3164   19.2828   22.8783 H   0  0  0  0  0  0  0  0  0  0  0  0
   20.6494   18.5216   20.9500 C   0  0  0  0  0  0  0  0  0  0  0  0
   21.4528   17.7791   20.8476 H   0  0  0  0  0  0  0  0  0  0  0  0
   19.7484   18.0647   20.5181 H   0  0  0  0  0  0  0  0  0  0  0  0
   21.0349   19.7800   20.1419 C   0  0  0  0  0  0  0  0  0  0  0  0
   21.9139   20.2726   20.5776 H   0  0  0  0  0  0  0  0  0  0  0  0
   21.2779   19.5106   19.1060 H   0  0  0  0  0  0  0  0  0  0  0  0
   20.2132   20.5059   20.1109 H   0  0  0  0  0  0  0  0  0  0  0  0
  1  2  1  0  0  0  0
  1  3  2  0  0  0  0
  1  4  1  0  0  0  0
  4  5  1  0  0  0  0
  4  6  1  0  0  0  0
  4  7  1  0  0  0  0
  7  8  1  0  0  0  0
  7  9  1  0  0  0  0
  7 10  1  0  0  0  0
 10 11  1  0  0  0  0
 10 12  1  0  0  0  0
 10 13  1  0  0  0  0
 13 14  1  0  0  0  0
 13 15  1  0  0  0  0
 13 16  1  0  0  0  0
 16 17  1  0  0  0  0
 16 18  1  0  0  0  0
 16 19  1  0  0  0  0
 19 20  1  0  0  0  0
 19 21  1  0  0  0  0
 19 22  1  0  0  0  0
 22 23  1  0  0  0  0
 22 24  1  0  0  0  0
 22 25  1  0  0  0  0
M  END
> <VM2 Rank>
178

> <Conf_Id>
1345

> <Probability>
0.00

> <Sum Probability>
99.99

> <Delta G>
6.444

> <G>
-1.519

> <E>
-26.726

> <-TS>
25.208

> <U+W>
-47.294

> <U>
12.779

> <W>
-60.073

> <W(PB)>
-62.478

> <W(SA)>
2.405

> <Valence>
11.506

> <Coulomb>
0.274

> <VdW>
0.999

> <VdW6>
-10.780

> <VdW12>
11.778

> <Bond>
0.274

> <Angle>
3.484

> <Pdih>
7.747

> <Idih>
0.001

> <Tether>
0.000

$$$$
VeraChem MOL file


 25 24  0  0  0  0  0  0  0  0999 V2000     
   20.0750   19.5092   27.1067 C   0  0  0  0  0  0  0  0  0  0  0  0
   21.1523   19.1510   27.5405 O   0  5  0  0  0  0  0  0  0  0  0  0
   19.0124   19.2133   27.6171 O   0  0  0  0  0  0  0  0  0  0  0  0
   20.0538   20.3953   25.8643 C   0  0  0  0  0  0  0  0  0  0  0  0
   21.0463   20.8441   25.7370 H   0  0  0  0  0  0  0  0  0  0  0  0
   19.3563   21.2180   26.0609 H   0  0  0  0  0  0  0  0  0  0  0  0
   19.6305   19.6567   24.5680 C   0  0  0  0  0  0  0  0  0  0  0  0
   18.6500   19.1856   24.7232 H   0  0  0  0  0  0  0  0  0  0  0  0
   19.4975   20.3975   23.7718 H   0  0  0  0  0  0  0  0  0  0  0  0
   20.6600   18.5863   24.1312 C   0  0  0  0  0  0  0  0  0  0  0  0
   20.7524   17.8474   24.9391 H   0  0  0  0  0  0  0  0  0  0  0  0
   21.6548   19.0381   24.0178 H   0  0  0  0  0  0  0  0  0  0  0  0
   20.2631   17.8378   22.8329 C   0  0  0  0  0  0  0  0  0  0  0  0
   20.5889   16.7937   22.9355 H   0  0  0  0  0  0  0  0  0  0  0  0
   19.1709   17.7933   22.7317 H   0  0  0  0  0  0  0  0  0  0  0  0
   20.9128   18.3942   21.5383 C   0  0  0  0  0  0  0  0  0  0  0  0
   20.6750   17.7154   20.7081 H   0  0  0  0  0  0  0  0  0  0  0  0
   22.0052   18.3604   21.6486 H   0  0  0  0  0  0  0  0  0  0  0  0
   20.4988   19.8292   21.1348 C   0  0  0  0  0  0  0  0  0  0  0  0
   20.7830   20.5401   21.9209 H   0  0  0  0  0  0  0  0  0  0  0  0
   21.0737   20.1202   20.2450 H   0  0  0  0  0  0  0  0  0  0  0  0
   18.9942   19.9609   20.8122 C   0  0  0  0  0  0  0  0  0  0  0  0
   18.7021   19.2639   20.0161 H   0  0  0  0  0  0  0  0  0  0  0  0
   18.3743   19.7531   21.6928 H   0  0  0  0  0  0  0  0  0  0  0  0
   18.7616   20.9785   20.4728 H   0  0  0  0  0  0  0  0  0  0  0  0
  1  2  1  0  0  0  0
  1  3  2  0  0  0  0
  1  4  1  0  0  0  0
  4  5  1  0  0  0  0
  4  6  1  0  0  0  0
  4  7  1  0  0  0  0
  7  8  1  0  0  0  0
  7  9  1  0  0  0  0
  7 10  1  0  0  0  0
 10 11  1  0  0  0  0
 10 12  1  0  0  0  0
 10 13  1  0  0  0  0
 13 14  1  0  0  0  0
 13 15  1  0  0  0  0
 13 16  1  0  0  0  0
 16 17  1  0  0  0  0
 16 18  1  0  0  0  0
 16 19  1  0  0  0  0
 19 20  1  0  0  0  0
 19 21  1  0  0  0  0
 19 22  1  0  0  0  0
 22 23  1  0  0  0  0
 22 24  1  0  0  0  0
 22 25  1  0  0  0  0
M  END
> <VM2 Rank>
179

> <Conf_Id>
287

> <Probability>
0.00

> <Sum Probability>
100.00

> <Delta G>
6.483

> <G>
-1.479

> <E>
-26.984

> <-TS>
25.506

> <U+W>
-47.552

> <U>
12.398

> <W>
-59.950

> <W(PB)>
-62.336

> <W(SA)>
2.386

> <Valence>
11.447

> <Coulomb>
0.281

> <VdW>
0.670

> <VdW6>
-11.120

> <VdW12>
11.790

> <Bond>
0.259

> <Angle>
3.688

> <Pdih>
7.499

> <Idih>
0.001

> <Tether>
0.000

$$$$
VeraChem MOL file


 25 24  0  0  0  0  0  0  0  0999 V2000     
   19.9917   19.2320   26.9982 C   0  0  0  0  0  0  0  0  0  0  0  0
   20.6100   18.4739   27.7196 O   0  5  0  0  0  0  0  0  0  0  0  0
   18.7784   19.2588   26.9336 O   0  0  0  0  0  0  0  0  0  0  0  0
   20.7836   20.2230   26.1497 C   0  0  0  0  0  0  0  0  0  0  0  0
   21.4951   20.7255   26.8152 H   0  0  0  0  0  0  0  0  0  0  0  0
   20.1001   20.9980   25.7849 H   0  0  0  0  0  0  0  0  0  0  0  0
   21.5559   19.5727   24.9693 C   0  0  0  0  0  0  0  0  0  0  0  0
   22.1439   20.3447   24.4549 H   0  0  0  0  0  0  0  0  0  0  0  0
   22.2807   18.8538   25.3756 H   0  0  0  0  0  0  0  0  0  0  0  0
   20.6582   18.8461   23.9377 C   0  0  0  0  0  0  0  0  0  0  0  0
   20.1056   18.0369   24.4345 H   0  0  0  0  0  0  0  0  0  0  0  0
   21.3063   18.3605   23.1987 H   0  0  0  0  0  0  0  0  0  0  0  0
   19.6581   19.7875   23.2221 C   0  0  0  0  0  0  0  0  0  0  0  0
   18.9322   20.1494   23.9624 H   0  0  0  0  0  0  0  0  0  0  0  0
   20.1761   20.6760   22.8367 H   0  0  0  0  0  0  0  0  0  0  0  0
   18.8746   19.0917   22.0801 C   0  0  0  0  0  0  0  0  0  0  0  0
   17.8500   19.4880   22.0781 H   0  0  0  0  0  0  0  0  0  0  0  0
   18.7781   18.0167   22.2846 H   0  0  0  0  0  0  0  0  0  0  0  0
   19.4633   19.3148   20.6649 C   0  0  0  0  0  0  0  0  0  0  0  0
   18.7896   18.8536   19.9297 H   0  0  0  0  0  0  0  0  0  0  0  0
   19.4765   20.3896   20.4376 H   0  0  0  0  0  0  0  0  0  0  0  0
   20.8793   18.7335   20.4709 C   0  0  0  0  0  0  0  0  0  0  0  0
   21.6146   19.2700   21.0836 H   0  0  0  0  0  0  0  0  0  0  0  0
   20.9089   17.6700   20.7414 H   0  0  0  0  0  0  0  0  0  0  0  0
   21.1918   18.8253   19.4227 H   0  0  0  0  0  0  0  0  0  0  0  0
  1  2  1  0  0  0  0
  1  3  2  0  0  0  0
  1  4  1  0  0  0  0
  4  5  1  0  0  0  0
  4  6  1  0  0  0  0
  4  7  1  0  0  0  0
  7  8  1  0  0  0  0
  7  9  1  0  0  0  0
  7 10  1  0  0  0  0
 10 11  1  0  0  0  0
 10 12  1  0  0  0  0
 10 13  1  0  0  0  0
 13 14  1  0  0  0  0
 13 15  1  0  0  0  0
 13 16  1  0  0  0  0
 16 17  1  0  0  0  0
 16 18  1  0  0  0  0
 16 19  1  0  0  0  0
 19 20  1  0  0  0  0
 19 21  1  0  0  0  0
 19 22  1  0  0  0  0
 22 23  1  0  0  0  0
 22 24  1  0  0  0  0
 22 25  1  0  0  0  0
M  END
> <VM2 Rank>
180

> <Conf_Id>
735

> <Probability>
0.00

> <Sum Probability>
100.00

> <Delta G>
6.507

> <G>
-1.455

> <E>
-26.716

> <-TS>
25.261

> <U+W>
-47.284

> <U>
12.991

> <W>
-60.275

> <W(PB)>
-62.676

> <W(SA)>
2.402

> <Valence>
11.321

> <Coulomb>
0.926

> <VdW>
0.744

> <VdW6>
-11.101

> <VdW12>
11.845

> <Bond>
0.264

> <Angle>
3.450

> <Pdih>
7.605

> <Idih>
0.001

> <Tether>
0.000

$$$$
VeraChem MOL file


 25 24  0  0  0  0  0  0  0  0999 V2000     
   20.5004   19.0840   26.7732 C   0  0  0  0  0  0  0  0  0  0  0  0
   21.4464   19.8470   26.7789 O   0  5  0  0  0  0  0  0  0  0  0  0
   19.8024   18.8715   27.7454 O   0  0  0  0  0  0  0  0  0  0  0  0
   20.1855   18.3304   25.4842 C   0  0  0  0  0  0  0  0  0  0  0  0
   20.0728   17.2715   25.7442 H   0  0  0  0  0  0  0  0  0  0  0  0
   21.0550   18.3974   24.8212 H   0  0  0  0  0  0  0  0  0  0  0  0
   18.9014   18.8224   24.7613 C   0  0  0  0  0  0  0  0  0  0  0  0
   18.6840   18.1714   23.9057 H   0  0  0  0  0  0  0  0  0  0  0  0
   18.0502   18.7073   25.4464 H   0  0  0  0  0  0  0  0  0  0  0  0
   18.9602   20.2973   24.2920 C   0  0  0  0  0  0  0  0  0  0  0  0
   19.0758   20.9430   25.1733 H   0  0  0  0  0  0  0  0  0  0  0  0
   17.9902   20.5657   23.8521 H   0  0  0  0  0  0  0  0  0  0  0  0
   20.0821   20.6447   23.2783 C   0  0  0  0  0  0  0  0  0  0  0  0
   20.0414   21.7298   23.1125 H   0  0  0  0  0  0  0  0  0  0  0  0
   21.0718   20.4556   23.7146 H   0  0  0  0  0  0  0  0  0  0  0  0
   19.9508   19.9520   21.8974 C   0  0  0  0  0  0  0  0  0  0  0  0
   20.3060   20.6506   21.1276 H   0  0  0  0  0  0  0  0  0  0  0  0
   18.8933   19.7600   21.6703 H   0  0  0  0  0  0  0  0  0  0  0  0
   20.7713   18.6475   21.7733 C   0  0  0  0  0  0  0  0  0  0  0  0
   21.8280   18.8543   21.9915 H   0  0  0  0  0  0  0  0  0  0  0  0
   20.4352   17.9092   22.5101 H   0  0  0  0  0  0  0  0  0  0  0  0
   20.6526   18.0373   20.3621 C   0  0  0  0  0  0  0  0  0  0  0  0
   21.0209   18.7356   19.5992 H   0  0  0  0  0  0  0  0  0  0  0  0
   21.2420   17.1141   20.2892 H   0  0  0  0  0  0  0  0  0  0  0  0
   19.6085   17.7922   20.1275 H   0  0  0  0  0  0  0  0  0  0  0  0
  1  2  1  0  0  0  0
  1  3  2  0  0  0  0
  1  4  1  0  0  0  0
  4  5  1  0  0  0  0
  4  6  1  0  0  0  0
  4  7  1  0  0  0  0
  7  8  1  0  0  0  0
  7  9  1  0  0  0  0
  7 10  1  0  0  0  0
 10 11  1  0  0  0  0
 10 12  1  0  0  0  0
 10 13  1  0  0  0  0
 13 14  1  0  0  0  0
 13 15  1  0  0  0  0
 13 16  1  0  0  0  0
 16 17  1  0  0  0  0
 16 18  1  0  0  0  0
 16 19  1  0  0  0  0
 19 20  1  0  0  0  0
 19 21  1  0  0  0  0
 19 22  1  0  0  0  0
 22 23  1  0  0  0  0
 22 24  1  0  0  0  0
 22 25  1  0  0  0  0
M  END
> <VM2 Rank>
181

> <Conf_Id>
814

> <Probability>
0.00

> <Sum Probability>
100.00

> <Delta G>
6.539

> <G>
-1.424

> <E>
-26.982

> <-TS>
25.558

> <U+W>
-47.549

> <U>
12.713

> <W>
-60.262

> <W(PB)>
-62.653

> <W(SA)>
2.391

> <Valence>
11.394

> <Coulomb>
0.936

> <VdW>
0.383

> <VdW6>
-11.631

> <VdW12>
12.013

> <Bond>
0.274

> <Angle>
3.833

> <Pdih>
7.286

> <Idih>
0.001

> <Tether>
0.000

$$$$
VeraChem MOL file


 25 24  0  0  0  0  0  0  0  0999 V2000     
   19.8312   19.0417   26.7808 C   0  0  0  0  0  0  0  0  0  0  0  0
   20.5725   18.9204   27.7365 O   0  5  0  0  0  0  0  0  0  0  0  0
   18.7968   19.6792   26.8094 O   0  0  0  0  0  0  0  0  0  0  0  0
   20.2089   18.3318   25.4839 C   0  0  0  0  0  0  0  0  0  0  0  0
   19.3229   18.2876   24.8412 H   0  0  0  0  0  0  0  0  0  0  0  0
   20.4603   17.2961   25.7398 H   0  0  0  0  0  0  0  0  0  0  0  0
   21.4037   18.9808   24.7325 C   0  0  0  0  0  0  0  0  0  0  0  0
   22.2782   18.9750   25.3976 H   0  0  0  0  0  0  0  0  0  0  0  0
   21.6818   18.3612   23.8711 H   0  0  0  0  0  0  0  0  0  0  0  0
   21.1486   20.4358   24.2668 C   0  0  0  0  0  0  0  0  0  0  0  0
   22.0667   20.8238   23.8051 H   0  0  0  0  0  0  0  0  0  0  0  0
   20.9728   21.0631   25.1514 H   0  0  0  0  0  0  0  0  0  0  0  0
   19.9689   20.6375   23.2796 C   0  0  0  0  0  0  0  0  0  0  0  0
   19.0212   20.3257   23.7383 H   0  0  0  0  0  0  0  0  0  0  0  0
   19.8686   21.7189   23.1145 H   0  0  0  0  0  0  0  0  0  0  0  0
   20.1548   19.9648   21.8950 C   0  0  0  0  0  0  0  0  0  0  0  0
   21.2225   19.9075   21.6434 H   0  0  0  0  0  0  0  0  0  0  0  0
   19.6967   20.6120   21.1346 H   0  0  0  0  0  0  0  0  0  0  0  0
   19.5027   18.5671   21.7879 C   0  0  0  0  0  0  0  0  0  0  0  0
   19.9461   17.8781   22.5157 H   0  0  0  0  0  0  0  0  0  0  0  0
   18.4337   18.6394   22.0308 H   0  0  0  0  0  0  0  0  0  0  0  0
   19.6648   17.9747   20.3735 C   0  0  0  0  0  0  0  0  0  0  0  0
   19.1939   18.6199   19.6204 H   0  0  0  0  0  0  0  0  0  0  0  0
   20.7259   17.8631   20.1145 H   0  0  0  0  0  0  0  0  0  0  0  0
   19.1951   16.9845   20.3128 H   0  0  0  0  0  0  0  0  0  0  0  0
  1  2  1  0  0  0  0
  1  3  2  0  0  0  0
  1  4  1  0  0  0  0
  4  5  1  0  0  0  0
  4  6  1  0  0  0  0
  4  7  1  0  0  0  0
  7  8  1  0  0  0  0
  7  9  1  0  0  0  0
  7 10  1  0  0  0  0
 10 11  1  0  0  0  0
 10 12  1  0  0  0  0
 10 13  1  0  0  0  0
 13 14  1  0  0  0  0
 13 15  1  0  0  0  0
 13 16  1  0  0  0  0
 16 17  1  0  0  0  0
 16 18  1  0  0  0  0
 16 19  1  0  0  0  0
 19 20  1  0  0  0  0
 19 21  1  0  0  0  0
 19 22  1  0  0  0  0
 22 23  1  0  0  0  0
 22 24  1  0  0  0  0
 22 25  1  0  0  0  0
M  END
> <VM2 Rank>
182

> <Conf_Id>
830

> <Probability>
0.00

> <Sum Probability>
100.00

> <Delta G>
6.565

> <G>
-1.397

> <E>
-26.955

> <-TS>
25.558

> <U+W>
-47.523

> <U>
12.713

> <W>
-60.236

> <W(PB)>
-62.605

> <W(SA)>
2.369

> <Valence>
11.394

> <Coulomb>
0.936

> <VdW>
0.383

> <VdW6>
-11.631

> <VdW12>
12.014

> <Bond>
0.274

> <Angle>
3.833

> <Pdih>
7.286

> <Idih>
0.001

> <Tether>
0.000

$$$$
VeraChem MOL file


 25 24  0  0  0  0  0  0  0  0999 V2000     
   19.9875   18.9570   26.8710 C   0  0  0  0  0  0  0  0  0  0  0  0
   20.7994   18.2792   27.4701 O   0  5  0  0  0  0  0  0  0  0  0  0
   18.8256   18.6355   26.7178 O   0  0  0  0  0  0  0  0  0  0  0  0
   20.4473   20.2988   26.3077 C   0  0  0  0  0  0  0  0  0  0  0  0
   20.9585   20.8329   27.1171 H   0  0  0  0  0  0  0  0  0  0  0  0
   19.5635   20.8950   26.0550 H   0  0  0  0  0  0  0  0  0  0  0  0
   21.4018   20.1823   25.0876 C   0  0  0  0  0  0  0  0  0  0  0  0
   21.7257   21.1873   24.7851 H   0  0  0  0  0  0  0  0  0  0  0  0
   22.3094   19.6495   25.4036 H   0  0  0  0  0  0  0  0  0  0  0  0
   20.7988   19.4502   23.8631 C   0  0  0  0  0  0  0  0  0  0  0  0
   20.4898   18.4358   24.1500 H   0  0  0  0  0  0  0  0  0  0  0  0
   21.5939   19.3371   23.1157 H   0  0  0  0  0  0  0  0  0  0  0  0
   19.6053   20.1977   23.2220 C   0  0  0  0  0  0  0  0  0  0  0  0
   18.8250   20.3536   23.9776 H   0  0  0  0  0  0  0  0  0  0  0  0
   19.9297   21.1962   22.8992 H   0  0  0  0  0  0  0  0  0  0  0  0
   18.9593   19.4538   22.0260 C   0  0  0  0  0  0  0  0  0  0  0  0
   18.0966   20.0479   21.6948 H   0  0  0  0  0  0  0  0  0  0  0  0
   18.5473   18.4920   22.3611 H   0  0  0  0  0  0  0  0  0  0  0  0
   19.8951   19.2431   20.8094 C   0  0  0  0  0  0  0  0  0  0  0  0
   19.3108   19.3766   19.8885 H   0  0  0  0  0  0  0  0  0  0  0  0
   20.6756   20.0162   20.7901 H   0  0  0  0  0  0  0  0  0  0  0  0
   20.5329   17.8363   20.7711 C   0  0  0  0  0  0  0  0  0  0  0  0
   19.7597   17.0596   20.7077 H   0  0  0  0  0  0  0  0  0  0  0  0
   21.1846   17.7336   19.8939 H   0  0  0  0  0  0  0  0  0  0  0  0
   21.1376   17.6381   21.6635 H   0  0  0  0  0  0  0  0  0  0  0  0
  1  2  1  0  0  0  0
  1  3  2  0  0  0  0
  1  4  1  0  0  0  0
  4  5  1  0  0  0  0
  4  6  1  0  0  0  0
  4  7  1  0  0  0  0
  7  8  1  0  0  0  0
  7  9  1  0  0  0  0
  7 10  1  0  0  0  0
 10 11  1  0  0  0  0
 10 12  1  0  0  0  0
 10 13  1  0  0  0  0
 13 14  1  0  0  0  0
 13 15  1  0  0  0  0
 13 16  1  0  0  0  0
 16 17  1  0  0  0  0
 16 18  1  0  0  0  0
 16 19  1  0  0  0  0
 19 20  1  0  0  0  0
 19 21  1  0  0  0  0
 19 22  1  0  0  0  0
 22 23  1  0  0  0  0
 22 24  1  0  0  0  0
 22 25  1  0  0  0  0
M  END
> <VM2 Rank>
183

> <Conf_Id>
547

> <Probability>
0.00

> <Sum Probability>
100.00

> <Delta G>
6.593

> <G>
-1.370

> <E>
-26.477

> <-TS>
25.107

> <U+W>
-47.044

> <U>
13.601

> <W>
-60.645

> <W(PB)>
-63.053

> <W(SA)>
2.407

> <Valence>
11.436

> <Coulomb>
1.346

> <VdW>
0.819

> <VdW6>
-10.981

> <VdW12>
11.799

> <Bond>
0.269

> <Angle>
3.574

> <Pdih>
7.592

> <Idih>
0.001

> <Tether>
0.000

$$$$
VeraChem MOL file


 25 24  0  0  0  0  0  0  0  0999 V2000     
   20.0916   19.8293   26.7357 C   0  0  0  0  0  0  0  0  0  0  0  0
   21.0738   20.5394   26.8261 O   0  5  0  0  0  0  0  0  0  0  0  0
   18.9528   20.2379   26.8513 O   0  0  0  0  0  0  0  0  0  0  0  0
   20.3033   18.3375   26.4925 C   0  0  0  0  0  0  0  0  0  0  0  0
   19.3922   17.8021   26.7860 H   0  0  0  0  0  0  0  0  0  0  0  0
   21.0991   18.0046   27.1691 H   0  0  0  0  0  0  0  0  0  0  0  0
   20.6850   17.9862   25.0311 C   0  0  0  0  0  0  0  0  0  0  0  0
   21.5853   18.5492   24.7533 H   0  0  0  0  0  0  0  0  0  0  0  0
   20.9501   16.9217   24.9789 H   0  0  0  0  0  0  0  0  0  0  0  0
   19.5367   18.2756   24.0340 C   0  0  0  0  0  0  0  0  0  0  0  0
   19.2781   19.3409   24.0651 H   0  0  0  0  0  0  0  0  0  0  0  0
   18.6404   17.7327   24.3630 H   0  0  0  0  0  0  0  0  0  0  0  0
   19.8654   17.8444   22.5822 C   0  0  0  0  0  0  0  0  0  0  0  0
   20.2271   16.8074   22.6031 H   0  0  0  0  0  0  0  0  0  0  0  0
   18.9410   17.8232   21.9892 H   0  0  0  0  0  0  0  0  0  0  0  0
   20.9176   18.7298   21.8621 C   0  0  0  0  0  0  0  0  0  0  0  0
   21.5207   18.0809   21.2126 H   0  0  0  0  0  0  0  0  0  0  0  0
   21.6214   19.1658   22.5817 H   0  0  0  0  0  0  0  0  0  0  0  0
   20.3178   19.8486   20.9750 C   0  0  0  0  0  0  0  0  0  0  0  0
   21.1390   20.3532   20.4476 H   0  0  0  0  0  0  0  0  0  0  0  0
   19.6817   19.4026   20.1980 H   0  0  0  0  0  0  0  0  0  0  0  0
   19.5091   20.9053   21.7559 C   0  0  0  0  0  0  0  0  0  0  0  0
   18.5886   20.4738   22.1682 H   0  0  0  0  0  0  0  0  0  0  0  0
   20.0995   21.3210   22.5830 H   0  0  0  0  0  0  0  0  0  0  0  0
   19.2198   21.7331   21.0958 H   0  0  0  0  0  0  0  0  0  0  0  0
  1  2  1  0  0  0  0
  1  3  2  0  0  0  0
  1  4  1  0  0  0  0
  4  5  1  0  0  0  0
  4  6  1  0  0  0  0
  4  7  1  0  0  0  0
  7  8  1  0  0  0  0
  7  9  1  0  0  0  0
  7 10  1  0  0  0  0
 10 11  1  0  0  0  0
 10 12  1  0  0  0  0
 10 13  1  0  0  0  0
 13 14  1  0  0  0  0
 13 15  1  0  0  0  0
 13 16  1  0  0  0  0
 16 17  1  0  0  0  0
 16 18  1  0  0  0  0
 16 19  1  0  0  0  0
 19 20  1  0  0  0  0
 19 21  1  0  0  0  0
 19 22  1  0  0  0  0
 22 23  1  0  0  0  0
 22 24  1  0  0  0  0
 22 25  1  0  0  0  0
M  END
> <VM2 Rank>
184

> <Conf_Id>
572

> <Probability>
0.00

> <Sum Probability>
100.00

> <Delta G>
6.641

> <G>
-1.322

> <E>
-26.452

> <-TS>
25.131

> <U+W>
-47.020

> <U>
13.848

> <W>
-60.868

> <W(PB)>
-63.247

> <W(SA)>
2.378

> <Valence>
11.487

> <Coulomb>
1.558

> <VdW>
0.803

> <VdW6>
-10.837

> <VdW12>
11.640

> <Bond>
0.263

> <Angle>
3.374

> <Pdih>
7.849

> <Idih>
0.001

> <Tether>
0.000

$$$$
VeraChem MOL file


 25 24  0  0  0  0  0  0  0  0999 V2000     
   20.3579   18.9803   26.8668 C   0  0  0  0  0  0  0  0  0  0  0  0
   21.5472   18.8069   26.6864 O   0  5  0  0  0  0  0  0  0  0  0  0
   19.6515   18.2068   27.4834 O   0  0  0  0  0  0  0  0  0  0  0  0
   19.7206   20.2530   26.3161 C   0  0  0  0  0  0  0  0  0  0  0  0
   20.5166   20.9550   26.0440 H   0  0  0  0  0  0  0  0  0  0  0  0
   19.1651   20.7198   27.1378 H   0  0  0  0  0  0  0  0  0  0  0  0
   18.7604   20.0158   25.1181 C   0  0  0  0  0  0  0  0  0  0  0  0
   17.9345   19.3737   25.4541 H   0  0  0  0  0  0  0  0  0  0  0  0
   18.3061   20.9718   24.8246 H   0  0  0  0  0  0  0  0  0  0  0  0
   19.4223   19.3635   23.8790 C   0  0  0  0  0  0  0  0  0  0  0  0
   18.6307   19.1504   23.1499 H   0  0  0  0  0  0  0  0  0  0  0  0
   19.8628   18.3963   24.1572 H   0  0  0  0  0  0  0  0  0  0  0  0
   20.4973   20.2541   23.2117 C   0  0  0  0  0  0  0  0  0  0  0  0
   20.0427   21.2034   22.8978 H   0  0  0  0  0  0  0  0  0  0  0  0
   21.2691   20.5079   23.9493 H   0  0  0  0  0  0  0  0  0  0  0  0
   21.2039   19.5955   22.0000 C   0  0  0  0  0  0  0  0  0  0  0  0
   21.7411   18.6936   22.3242 H   0  0  0  0  0  0  0  0  0  0  0  0
   21.9773   20.2927   21.6499 H   0  0  0  0  0  0  0  0  0  0  0  0
   20.2742   19.2670   20.8050 C   0  0  0  0  0  0  0  0  0  0  0  0
   19.4025   19.9358   20.8048 H   0  0  0  0  0  0  0  0  0  0  0  0
   20.8157   19.4715   19.8711 H   0  0  0  0  0  0  0  0  0  0  0  0
   19.8176   17.7911   20.7795 C   0  0  0  0  0  0  0  0  0  0  0  0
   20.6806   17.1176   20.6972 H   0  0  0  0  0  0  0  0  0  0  0  0
   19.2633   17.5199   21.6852 H   0  0  0  0  0  0  0  0  0  0  0  0
   19.1640   17.6060   19.9173 H   0  0  0  0  0  0  0  0  0  0  0  0
  1  2  1  0  0  0  0
  1  3  2  0  0  0  0
  1  4  1  0  0  0  0
  4  5  1  0  0  0  0
  4  6  1  0  0  0  0
  4  7  1  0  0  0  0
  7  8  1  0  0  0  0
  7  9  1  0  0  0  0
  7 10  1  0  0  0  0
 10 11  1  0  0  0  0
 10 12  1  0  0  0  0
 10 13  1  0  0  0  0
 13 14  1  0  0  0  0
 13 15  1  0  0  0  0
 13 16  1  0  0  0  0
 16 17  1  0  0  0  0
 16 18  1  0  0  0  0
 16 19  1  0  0  0  0
 19 20  1  0  0  0  0
 19 21  1  0  0  0  0
 19 22  1  0  0  0  0
 22 23  1  0  0  0  0
 22 24  1  0  0  0  0
 22 25  1  0  0  0  0
M  END
> <VM2 Rank>
185

> <Conf_Id>
220

> <Probability>
0.00

> <Sum Probability>
100.00

> <Delta G>
6.657

> <G>
-1.305

> <E>
-26.412

> <-TS>
25.107

> <U+W>
-46.980

> <U>
13.601

> <W>
-60.580

> <W(PB)>
-63.002

> <W(SA)>
2.421

> <Valence>
11.436

> <Coulomb>
1.346

> <VdW>
0.819

> <VdW6>
-10.981

> <VdW12>
11.799

> <Bond>
0.269

> <Angle>
3.573

> <Pdih>
7.592

> <Idih>
0.001

> <Tether>
0.000

$$$$
VeraChem MOL file


 25 24  0  0  0  0  0  0  0  0999 V2000     
   19.6764   19.1277   26.6446 C   0  0  0  0  0  0  0  0  0  0  0  0
   19.8254   18.1056   27.2855 O   0  5  0  0  0  0  0  0  0  0  0  0
   18.5918   19.5501   26.2949 O   0  0  0  0  0  0  0  0  0  0  0  0
   20.9183   19.9406   26.2895 C   0  0  0  0  0  0  0  0  0  0  0  0
   21.4872   20.0872   27.2149 H   0  0  0  0  0  0  0  0  0  0  0  0
   20.6028   20.9365   25.9579 H   0  0  0  0  0  0  0  0  0  0  0  0
   21.8314   19.2731   25.2249 C   0  0  0  0  0  0  0  0  0  0  0  0
   22.7259   19.8931   25.0778 H   0  0  0  0  0  0  0  0  0  0  0  0
   22.1859   18.3099   25.6173 H   0  0  0  0  0  0  0  0  0  0  0  0
   21.1464   19.0327   23.8572 C   0  0  0  0  0  0  0  0  0  0  0  0
   20.2863   18.3649   23.9968 H   0  0  0  0  0  0  0  0  0  0  0  0
   21.8517   18.5065   23.1998 H   0  0  0  0  0  0  0  0  0  0  0  0
   20.6849   20.3367   23.1655 C   0  0  0  0  0  0  0  0  0  0  0  0
   19.8608   20.7852   23.7366 H   0  0  0  0  0  0  0  0  0  0  0  0
   21.5088   21.0628   23.1853 H   0  0  0  0  0  0  0  0  0  0  0  0
   20.2349   20.1495   21.6947 C   0  0  0  0  0  0  0  0  0  0  0  0
   21.0720   19.7788   21.0874 H   0  0  0  0  0  0  0  0  0  0  0  0
   19.9937   21.1439   21.2949 H   0  0  0  0  0  0  0  0  0  0  0  0
   18.9928   19.2423   21.5092 C   0  0  0  0  0  0  0  0  0  0  0  0
   18.3529   19.2868   22.4016 H   0  0  0  0  0  0  0  0  0  0  0  0
   18.3898   19.6385   20.6805 H   0  0  0  0  0  0  0  0  0  0  0  0
   19.3506   17.7757   21.1801 C   0  0  0  0  0  0  0  0  0  0  0  0
   19.9300   17.3071   21.9835 H   0  0  0  0  0  0  0  0  0  0  0  0
   18.4389   17.1819   21.0355 H   0  0  0  0  0  0  0  0  0  0  0  0
   19.9406   17.7153   20.2564 H   0  0  0  0  0  0  0  0  0  0  0  0
  1  2  1  0  0  0  0
  1  3  2  0  0  0  0
  1  4  1  0  0  0  0
  4  5  1  0  0  0  0
  4  6  1  0  0  0  0
  4  7  1  0  0  0  0
  7  8  1  0  0  0  0
  7  9  1  0  0  0  0
  7 10  1  0  0  0  0
 10 11  1  0  0  0  0
 10 12  1  0  0  0  0
 10 13  1  0  0  0  0
 13 14  1  0  0  0  0
 13 15  1  0  0  0  0
 13 16  1  0  0  0  0
 16 17  1  0  0  0  0
 16 18  1  0  0  0  0
 16 19  1  0  0  0  0
 19 20  1  0  0  0  0
 19 21  1  0  0  0  0
 19 22  1  0  0  0  0
 22 23  1  0  0  0  0
 22 24  1  0  0  0  0
 22 25  1  0  0  0  0
M  END
> <VM2 Rank>
186

> <Conf_Id>
550

> <Probability>
0.00

> <Sum Probability>
100.00

> <Delta G>
6.706

> <G>
-1.257

> <E>
-26.500

> <-TS>
25.243

> <U+W>
-47.067

> <U>
13.833

> <W>
-60.900

> <W(PB)>
-63.271

> <W(SA)>
2.371

> <Valence>
11.236

> <Coulomb>
1.973

> <VdW>
0.624

> <VdW6>
-11.283

> <VdW12>
11.907

> <Bond>
0.259

> <Angle>
3.439

> <Pdih>
7.536

> <Idih>
0.002

> <Tether>
0.000

$$$$
VeraChem MOL file


 25 24  0  0  0  0  0  0  0  0999 V2000     
   20.3988   19.8082   26.4842 C   0  0  0  0  0  0  0  0  0  0  0  0
   21.2981   20.4821   26.0222 O   0  5  0  0  0  0  0  0  0  0  0  0
   20.4721   19.2365   27.5547 O   0  0  0  0  0  0  0  0  0  0  0  0
   19.0877   19.7157   25.7062 C   0  0  0  0  0  0  0  0  0  0  0  0
   19.1471   20.3600   24.8224 H   0  0  0  0  0  0  0  0  0  0  0  0
   18.3066   20.1423   26.3458 H   0  0  0  0  0  0  0  0  0  0  0  0
   18.6830   18.2722   25.3034 C   0  0  0  0  0  0  0  0  0  0  0  0
   18.5834   17.6711   26.2178 H   0  0  0  0  0  0  0  0  0  0  0  0
   17.6852   18.2935   24.8449 H   0  0  0  0  0  0  0  0  0  0  0  0
   19.6680   17.5544   24.3453 C   0  0  0  0  0  0  0  0  0  0  0  0
   19.3316   16.5128   24.2509 H   0  0  0  0  0  0  0  0  0  0  0  0
   20.6692   17.5023   24.7946 H   0  0  0  0  0  0  0  0  0  0  0  0
   19.7399   18.1613   22.9204 C   0  0  0  0  0  0  0  0  0  0  0  0
   19.8445   17.3394   22.1993 H   0  0  0  0  0  0  0  0  0  0  0  0
   18.7919   18.6596   22.6808 H   0  0  0  0  0  0  0  0  0  0  0  0
   20.9330   19.1286   22.7211 C   0  0  0  0  0  0  0  0  0  0  0  0
   21.8610   18.6108   22.9988 H   0  0  0  0  0  0  0  0  0  0  0  0
   20.8499   19.9876   23.3970 H   0  0  0  0  0  0  0  0  0  0  0  0
   21.0727   19.6375   21.2674 C   0  0  0  0  0  0  0  0  0  0  0  0
   22.0077   20.2082   21.1829 H   0  0  0  0  0  0  0  0  0  0  0  0
   21.1667   18.7842   20.5818 H   0  0  0  0  0  0  0  0  0  0  0  0
   19.8998   20.5374   20.8211 C   0  0  0  0  0  0  0  0  0  0  0  0
   19.7680   21.3809   21.5113 H   0  0  0  0  0  0  0  0  0  0  0  0
   20.0887   20.9459   19.8200 H   0  0  0  0  0  0  0  0  0  0  0  0
   18.9579   19.9767   20.7787 H   0  0  0  0  0  0  0  0  0  0  0  0
  1  2  1  0  0  0  0
  1  3  2  0  0  0  0
  1  4  1  0  0  0  0
  4  5  1  0  0  0  0
  4  6  1  0  0  0  0
  4  7  1  0  0  0  0
  7  8  1  0  0  0  0
  7  9  1  0  0  0  0
  7 10  1  0  0  0  0
 10 11  1  0  0  0  0
 10 12  1  0  0  0  0
 10 13  1  0  0  0  0
 13 14  1  0  0  0  0
 13 15  1  0  0  0  0
 13 16  1  0  0  0  0
 16 17  1  0  0  0  0
 16 18  1  0  0  0  0
 16 19  1  0  0  0  0
 19 20  1  0  0  0  0
 19 21  1  0  0  0  0
 19 22  1  0  0  0  0
 22 23  1  0  0  0  0
 22 24  1  0  0  0  0
 22 25  1  0  0  0  0
M  END
> <VM2 Rank>
187

> <Conf_Id>
851

> <Probability>
0.00

> <Sum Probability>
100.00

> <Delta G>
6.826

> <G>
-1.137

> <E>
-26.350

> <-TS>
25.213

> <U+W>
-46.917

> <U>
13.928

> <W>
-60.845

> <W(PB)>
-63.223

> <W(SA)>
2.378

> <Valence>
11.622

> <Coulomb>
1.812

> <VdW>
0.493

> <VdW6>
-11.533

> <VdW12>
12.026

> <Bond>
0.265

> <Angle>
3.635

> <Pdih>
7.718

> <Idih>
0.004

> <Tether>
0.000

$$$$
VeraChem MOL file


 25 24  0  0  0  0  0  0  0  0999 V2000     
   19.8330   19.7716   26.4908 C   0  0  0  0  0  0  0  0  0  0  0  0
   19.8583   19.1967   27.5618 O   0  5  0  0  0  0  0  0  0  0  0  0
   18.8443   20.3241   26.0508 O   0  0  0  0  0  0  0  0  0  0  0  0
   21.1269   19.8470   25.6827 C   0  0  0  0  0  0  0  0  0  0  0  0
   21.8614   20.3709   26.3050 H   0  0  0  0  0  0  0  0  0  0  0  0
   20.9651   20.4771   24.8017 H   0  0  0  0  0  0  0  0  0  0  0  0
   21.7039   18.4667   25.2684 C   0  0  0  0  0  0  0  0  0  0  0  0
   22.6799   18.6151   24.7871 H   0  0  0  0  0  0  0  0  0  0  0  0
   21.9009   17.8846   26.1793 H   0  0  0  0  0  0  0  0  0  0  0  0
   20.7973   17.6272   24.3322 C   0  0  0  0  0  0  0  0  0  0  0  0
   19.8216   17.4479   24.8044 H   0  0  0  0  0  0  0  0  0  0  0  0
   21.2620   16.6372   24.2284 H   0  0  0  0  0  0  0  0  0  0  0  0
   20.6152   18.2179   22.9103 C   0  0  0  0  0  0  0  0  0  0  0  0
   21.4859   18.8330   22.6495 H   0  0  0  0  0  0  0  0  0  0  0  0
   20.6000   17.3882   22.1905 H   0  0  0  0  0  0  0  0  0  0  0  0
   19.3039   19.0243   22.7401 C   0  0  0  0  0  0  0  0  0  0  0  0
   19.2922   19.8880   23.4149 H   0  0  0  0  0  0  0  0  0  0  0  0
   18.4564   18.3925   23.0388 H   0  0  0  0  0  0  0  0  0  0  0  0
   19.0664   19.5085   21.2907 C   0  0  0  0  0  0  0  0  0  0  0  0
   19.0661   18.6489   20.6064 H   0  0  0  0  0  0  0  0  0  0  0  0
   18.0643   19.9549   21.2288 H   0  0  0  0  0  0  0  0  0  0  0  0
   20.1039   20.5501   20.8181 C   0  0  0  0  0  0  0  0  0  0  0  0
   21.1085   20.1142   20.7530 H   0  0  0  0  0  0  0  0  0  0  0  0
   19.8410   20.9293   19.8222 H   0  0  0  0  0  0  0  0  0  0  0  0
   20.1431   21.4047   21.5061 H   0  0  0  0  0  0  0  0  0  0  0  0
  1  2  1  0  0  0  0
  1  3  2  0  0  0  0
  1  4  1  0  0  0  0
  4  5  1  0  0  0  0
  4  6  1  0  0  0  0
  4  7  1  0  0  0  0
  7  8  1  0  0  0  0
  7  9  1  0  0  0  0
  7 10  1  0  0  0  0
 10 11  1  0  0  0  0
 10 12  1  0  0  0  0
 10 13  1  0  0  0  0
 13 14  1  0  0  0  0
 13 15  1  0  0  0  0
 13 16  1  0  0  0  0
 16 17  1  0  0  0  0
 16 18  1  0  0  0  0
 16 19  1  0  0  0  0
 19 20  1  0  0  0  0
 19 21  1  0  0  0  0
 19 22  1  0  0  0  0
 22 23  1  0  0  0  0
 22 24  1  0  0  0  0
 22 25  1  0  0  0  0
M  END
> <VM2 Rank>
188

> <Conf_Id>
519

> <Probability>
0.00

> <Sum Probability>
100.00

> <Delta G>
6.856

> <G>
-1.107

> <E>
-26.319

> <-TS>
25.213

> <U+W>
-46.887

> <U>
13.927

> <W>
-60.814

> <W(PB)>
-63.177

> <W(SA)>
2.362

> <Valence>
11.622

> <Coulomb>
1.812

> <VdW>
0.493

> <VdW6>
-11.533

> <VdW12>
12.026

> <Bond>
0.265

> <Angle>
3.636

> <Pdih>
7.716

> <Idih>
0.004

> <Tether>
0.000

$$$$
VeraChem MOL file


 25 24  0  0  0  0  0  0  0  0999 V2000     
   20.3459   19.8952   26.2535 C   0  0  0  0  0  0  0  0  0  0  0  0
   19.3849   20.6394   26.2750 O   0  5  0  0  0  0  0  0  0  0  0  0
   21.4929   20.2830   26.1454 O   0  0  0  0  0  0  0  0  0  0  0  0
   20.1084   18.4042   26.4863 C   0  0  0  0  0  0  0  0  0  0  0  0
   19.6360   18.3186   27.4717 H   0  0  0  0  0  0  0  0  0  0  0  0
   21.0770   17.8949   26.5577 H   0  0  0  0  0  0  0  0  0  0  0  0
   19.2060   17.7041   25.4315 C   0  0  0  0  0  0  0  0  0  0  0  0
   18.7860   16.8011   25.8946 H   0  0  0  0  0  0  0  0  0  0  0  0
   18.3434   18.3397   25.1919 H   0  0  0  0  0  0  0  0  0  0  0  0
   19.9408   17.2638   24.1381 C   0  0  0  0  0  0  0  0  0  0  0  0
   19.2420   16.6847   23.5190 H   0  0  0  0  0  0  0  0  0  0  0  0
   20.7474   16.5692   24.4091 H   0  0  0  0  0  0  0  0  0  0  0  0
   20.5375   18.4016   23.2732 C   0  0  0  0  0  0  0  0  0  0  0  0
   21.3006   18.9468   23.8424 H   0  0  0  0  0  0  0  0  0  0  0  0
   21.0637   17.9395   22.4285 H   0  0  0  0  0  0  0  0  0  0  0  0
   19.4753   19.3907   22.7333 C   0  0  0  0  0  0  0  0  0  0  0  0
   18.9471   19.8536   23.5767 H   0  0  0  0  0  0  0  0  0  0  0  0
   18.7199   18.8447   22.1523 H   0  0  0  0  0  0  0  0  0  0  0  0
   20.0763   20.5242   21.8698 C   0  0  0  0  0  0  0  0  0  0  0  0
   19.2845   21.2521   21.6455 H   0  0  0  0  0  0  0  0  0  0  0  0
   20.8384   21.0643   22.4488 H   0  0  0  0  0  0  0  0  0  0  0  0
   20.6851   20.0279   20.5400 C   0  0  0  0  0  0  0  0  0  0  0  0
   19.9496   19.4543   19.9611 H   0  0  0  0  0  0  0  0  0  0  0  0
   21.0095   20.8780   19.9261 H   0  0  0  0  0  0  0  0  0  0  0  0
   21.5611   19.3906   20.7127 H   0  0  0  0  0  0  0  0  0  0  0  0
  1  2  1  0  0  0  0
  1  3  2  0  0  0  0
  1  4  1  0  0  0  0
  4  5  1  0  0  0  0
  4  6  1  0  0  0  0
  4  7  1  0  0  0  0
  7  8  1  0  0  0  0
  7  9  1  0  0  0  0
  7 10  1  0  0  0  0
 10 11  1  0  0  0  0
 10 12  1  0  0  0  0
 10 13  1  0  0  0  0
 13 14  1  0  0  0  0
 13 15  1  0  0  0  0
 13 16  1  0  0  0  0
 16 17  1  0  0  0  0
 16 18  1  0  0  0  0
 16 19  1  0  0  0  0
 19 20  1  0  0  0  0
 19 21  1  0  0  0  0
 19 22  1  0  0  0  0
 22 23  1  0  0  0  0
 22 24  1  0  0  0  0
 22 25  1  0  0  0  0
M  END
> <VM2 Rank>
189

> <Conf_Id>
1296

> <Probability>
0.00

> <Sum Probability>
100.00

> <Delta G>
6.859

> <G>
-1.103

> <E>
-26.914

> <-TS>
25.810

> <U+W>
-47.481

> <U>
13.610

> <W>
-61.091

> <W(PB)>
-63.445

> <W(SA)>
2.354

> <Valence>
10.665

> <Coulomb>
2.595

> <VdW>
0.350

> <VdW6>
-12.152

> <VdW12>
12.502

> <Bond>
0.280

> <Angle>
4.003

> <Pdih>
6.364

> <Idih>
0.017

> <Tether>
0.000

$$$$
VeraChem MOL file


 25 24  0  0  0  0  0  0  0  0999 V2000     
   20.3223   19.8344   26.5550 C   0  0  0  0  0  0  0  0  0  0  0  0
   21.3540   20.4703   26.4653 O   0  5  0  0  0  0  0  0  0  0  0  0
   19.2543   20.3241   26.8659 O   0  0  0  0  0  0  0  0  0  0  0  0
   20.3799   18.3316   26.2946 C   0  0  0  0  0  0  0  0  0  0  0  0
   19.5131   17.8598   26.7727 H   0  0  0  0  0  0  0  0  0  0  0  0
   21.2719   17.9446   26.8011 H   0  0  0  0  0  0  0  0  0  0  0  0
   20.4345   17.9562   24.7911 C   0  0  0  0  0  0  0  0  0  0  0  0
   21.2921   18.4619   24.3288 H   0  0  0  0  0  0  0  0  0  0  0  0
   20.6163   16.8772   24.6980 H   0  0  0  0  0  0  0  0  0  0  0  0
   19.1293   18.3189   24.0427 C   0  0  0  0  0  0  0  0  0  0  0  0
   18.9377   19.3974   24.1066 H   0  0  0  0  0  0  0  0  0  0  0  0
   18.2847   17.8345   24.5511 H   0  0  0  0  0  0  0  0  0  0  0  0
   19.1266   17.8724   22.5609 C   0  0  0  0  0  0  0  0  0  0  0  0
   19.2415   16.7806   22.5237 H   0  0  0  0  0  0  0  0  0  0  0  0
   18.1376   18.0839   22.1324 H   0  0  0  0  0  0  0  0  0  0  0  0
   20.2100   18.5146   21.6542 C   0  0  0  0  0  0  0  0  0  0  0  0
   20.1182   18.0506   20.6628 H   0  0  0  0  0  0  0  0  0  0  0  0
   21.2165   18.2530   22.0055 H   0  0  0  0  0  0  0  0  0  0  0  0
   20.0805   20.0481   21.4718 C   0  0  0  0  0  0  0  0  0  0  0  0
   20.3850   20.3034   20.4475 H   0  0  0  0  0  0  0  0  0  0  0  0
   19.0296   20.3554   21.5630 H   0  0  0  0  0  0  0  0  0  0  0  0
   20.9616   20.8633   22.4445 C   0  0  0  0  0  0  0  0  0  0  0  0
   20.6725   20.7060   23.4900 H   0  0  0  0  0  0  0  0  0  0  0  0
   22.0189   20.5877   22.3404 H   0  0  0  0  0  0  0  0  0  0  0  0
   20.8724   21.9368   22.2344 H   0  0  0  0  0  0  0  0  0  0  0  0
  1  2  1  0  0  0  0
  1  3  2  0  0  0  0
  1  4  1  0  0  0  0
  4  5  1  0  0  0  0
  4  6  1  0  0  0  0
  4  7  1  0  0  0  0
  7  8  1  0  0  0  0
  7  9  1  0  0  0  0
  7 10  1  0  0  0  0
 10 11  1  0  0  0  0
 10 12  1  0  0  0  0
 10 13  1  0  0  0  0
 13 14  1  0  0  0  0
 13 15  1  0  0  0  0
 13 16  1  0  0  0  0
 16 17  1  0  0  0  0
 16 18  1  0  0  0  0
 16 19  1  0  0  0  0
 19 20  1  0  0  0  0
 19 21  1  0  0  0  0
 19 22  1  0  0  0  0
 22 23  1  0  0  0  0
 22 24  1  0  0  0  0
 22 25  1  0  0  0  0
M  END
> <VM2 Rank>
190

> <Conf_Id>
553

> <Probability>
0.00

> <Sum Probability>
100.00

> <Delta G>
6.983

> <G>
-0.979

> <E>
-26.700

> <-TS>
25.721

> <U+W>
-47.268

> <U>
13.894

> <W>
-61.162

> <W(PB)>
-63.483

> <W(SA)>
2.321

> <Valence>
11.359

> <Coulomb>
2.378

> <VdW>
0.157

> <VdW6>
-11.937

> <VdW12>
12.094

> <Bond>
0.256

> <Angle>
3.730

> <Pdih>
7.371

> <Idih>
0.001

> <Tether>
0.000

$$$$
VeraChem MOL file


 25 24  0  0  0  0  0  0  0  0999 V2000     
   19.9755   19.8896   26.4475 C   0  0  0  0  0  0  0  0  0  0  0  0
   20.8998   20.2693   27.1398 O   0  5  0  0  0  0  0  0  0  0  0  0
   19.1646   20.6381   25.9387 O   0  0  0  0  0  0  0  0  0  0  0  0
   19.8023   18.3872   26.2404 C   0  0  0  0  0  0  0  0  0  0  0  0
   18.8227   18.2064   25.7837 H   0  0  0  0  0  0  0  0  0  0  0  0
   19.7714   17.9243   27.2335 H   0  0  0  0  0  0  0  0  0  0  0  0
   20.9295   17.7258   25.4007 C   0  0  0  0  0  0  0  0  0  0  0  0
   21.8856   17.8649   25.9242 H   0  0  0  0  0  0  0  0  0  0  0  0
   20.7583   16.6419   25.3566 H   0  0  0  0  0  0  0  0  0  0  0  0
   21.0649   18.2811   23.9617 C   0  0  0  0  0  0  0  0  0  0  0  0
   21.9411   17.8134   23.4927 H   0  0  0  0  0  0  0  0  0  0  0  0
   21.2797   19.3555   24.0041 H   0  0  0  0  0  0  0  0  0  0  0  0
   19.8205   18.0115   23.0793 C   0  0  0  0  0  0  0  0  0  0  0  0
   19.6174   16.9321   23.0938 H   0  0  0  0  0  0  0  0  0  0  0  0
   18.9321   18.4988   23.5018 H   0  0  0  0  0  0  0  0  0  0  0  0
   20.0056   18.4562   21.6057 C   0  0  0  0  0  0  0  0  0  0  0  0
   19.4781   17.7377   20.9637 H   0  0  0  0  0  0  0  0  0  0  0  0
   21.0636   18.3924   21.3174 H   0  0  0  0  0  0  0  0  0  0  0  0
   19.4509   19.8653   21.2802 C   0  0  0  0  0  0  0  0  0  0  0  0
   19.5682   20.0459   20.2029 H   0  0  0  0  0  0  0  0  0  0  0  0
   18.3708   19.8906   21.4805 H   0  0  0  0  0  0  0  0  0  0  0  0
   20.1395   21.0101   22.0519 C   0  0  0  0  0  0  0  0  0  0  0  0
   19.9010   20.9639   23.1225 H   0  0  0  0  0  0  0  0  0  0  0  0
   21.2299   20.9658   21.9344 H   0  0  0  0  0  0  0  0  0  0  0  0
   19.7971   21.9843   21.6803 H   0  0  0  0  0  0  0  0  0  0  0  0
  1  2  1  0  0  0  0
  1  3  2  0  0  0  0
  1  4  1  0  0  0  0
  4  5  1  0  0  0  0
  4  6  1  0  0  0  0
  4  7  1  0  0  0  0
  7  8  1  0  0  0  0
  7  9  1  0  0  0  0
  7 10  1  0  0  0  0
 10 11  1  0  0  0  0
 10 12  1  0  0  0  0
 10 13  1  0  0  0  0
 13 14  1  0  0  0  0
 13 15  1  0  0  0  0
 13 16  1  0  0  0  0
 16 17  1  0  0  0  0
 16 18  1  0  0  0  0
 16 19  1  0  0  0  0
 19 20  1  0  0  0  0
 19 21  1  0  0  0  0
 19 22  1  0  0  0  0
 22 23  1  0  0  0  0
 22 24  1  0  0  0  0
 22 25  1  0  0  0  0
M  END
> <VM2 Rank>
191

> <Conf_Id>
1092

> <Probability>
0.00

> <Sum Probability>
100.00

> <Delta G>
7.124

> <G>
-0.839

> <E>
-26.244

> <-TS>
25.406

> <U+W>
-46.812

> <U>
14.340

> <W>
-61.152

> <W(PB)>
-63.489

> <W(SA)>
2.337

> <Valence>
11.265

> <Coulomb>
2.677

> <VdW>
0.398

> <VdW6>
-11.679

> <VdW12>
12.077

> <Bond>
0.271

> <Angle>
3.497

> <Pdih>
7.495

> <Idih>
0.002

> <Tether>
0.000

$$$$
VeraChem MOL file


 25 24  0  0  0  0  0  0  0  0999 V2000     
   19.9211   19.6953   27.0873 C   0  0  0  0  0  0  0  0  0  0  0  0
   20.9444   20.0347   27.6480 O   0  5  0  0  0  0  0  0  0  0  0  0
   18.8811   19.4590   27.6699 O   0  0  0  0  0  0  0  0  0  0  0  0
   19.9493   19.5351   25.5717 C   0  0  0  0  0  0  0  0  0  0  0  0
   20.6500   20.2764   25.1711 H   0  0  0  0  0  0  0  0  0  0  0  0
   18.9533   19.7810   25.1849 H   0  0  0  0  0  0  0  0  0  0  0  0
   20.3587   18.1082   25.1261 C   0  0  0  0  0  0  0  0  0  0  0  0
   21.3749   17.8938   25.4848 H   0  0  0  0  0  0  0  0  0  0  0  0
   19.6985   17.3821   25.6205 H   0  0  0  0  0  0  0  0  0  0  0  0
   20.2882   17.8779   23.5955 C   0  0  0  0  0  0  0  0  0  0  0  0
   19.2566   18.0151   23.2479 H   0  0  0  0  0  0  0  0  0  0  0  0
   20.5323   16.8241   23.4046 H   0  0  0  0  0  0  0  0  0  0  0  0
   21.2656   18.7581   22.7724 C   0  0  0  0  0  0  0  0  0  0  0  0
   22.1430   18.9919   23.3907 H   0  0  0  0  0  0  0  0  0  0  0  0
   21.6525   18.1761   21.9249 H   0  0  0  0  0  0  0  0  0  0  0  0
   20.6474   20.0772   22.2370 C   0  0  0  0  0  0  0  0  0  0  0  0
   21.4292   20.8487   22.2431 H   0  0  0  0  0  0  0  0  0  0  0  0
   19.8616   20.4400   22.9110 H   0  0  0  0  0  0  0  0  0  0  0  0
   20.0921   19.9814   20.7945 C   0  0  0  0  0  0  0  0  0  0  0  0
   19.7696   20.9822   20.4758 H   0  0  0  0  0  0  0  0  0  0  0  0
   20.8976   19.6851   20.1085 H   0  0  0  0  0  0  0  0  0  0  0  0
   18.9049   19.0072   20.6435 C   0  0  0  0  0  0  0  0  0  0  0  0
   18.0944   19.2651   21.3373 H   0  0  0  0  0  0  0  0  0  0  0  0
   18.5025   19.0468   19.6231 H   0  0  0  0  0  0  0  0  0  0  0  0
   19.2136   17.9726   20.8393 H   0  0  0  0  0  0  0  0  0  0  0  0
  1  2  1  0  0  0  0
  1  3  2  0  0  0  0
  1  4  1  0  0  0  0
  4  5  1  0  0  0  0
  4  6  1  0  0  0  0
  4  7  1  0  0  0  0
  7  8  1  0  0  0  0
  7  9  1  0  0  0  0
  7 10  1  0  0  0  0
 10 11  1  0  0  0  0
 10 12  1  0  0  0  0
 10 13  1  0  0  0  0
 13 14  1  0  0  0  0
 13 15  1  0  0  0  0
 13 16  1  0  0  0  0
 16 17  1  0  0  0  0
 16 18  1  0  0  0  0
 16 19  1  0  0  0  0
 19 20  1  0  0  0  0
 19 21  1  0  0  0  0
 19 22  1  0  0  0  0
 22 23  1  0  0  0  0
 22 24  1  0  0  0  0
 22 25  1  0  0  0  0
M  END
> <VM2 Rank>
192

> <Conf_Id>
6

> <Probability>
0.00

> <Sum Probability>
100.00

> <Delta G>
7.264

> <G>
-0.698

> <E>
-25.926

> <-TS>
25.227

> <U+W>
-46.493

> <U>
13.064

> <W>
-59.557

> <W(PB)>
-61.926

> <W(SA)>
2.369

> <Valence>
13.064

> <Coulomb>
-1.007

> <VdW>
1.008

> <VdW6>
-10.968

> <VdW12>
11.976

> <Bond>
0.280

> <Angle>
3.439

> <Pdih>
9.344

> <Idih>
0.001

> <Tether>
0.000

$$$$
VeraChem MOL file


 25 24  0  0  0  0  0  0  0  0999 V2000     
   20.4924   19.0555   26.5285 C   0  0  0  0  0  0  0  0  0  0  0  0
   21.6441   19.4422   26.4840 O   0  5  0  0  0  0  0  0  0  0  0  0
   20.1755   17.9279   26.8537 O   0  0  0  0  0  0  0  0  0  0  0  0
   19.3812   20.0699   26.2668 C   0  0  0  0  0  0  0  0  0  0  0  0
   19.5250   20.8784   26.9929 H   0  0  0  0  0  0  0  0  0  0  0  0
   18.4144   19.6078   26.5000 H   0  0  0  0  0  0  0  0  0  0  0  0
   19.3594   20.6755   24.8352 C   0  0  0  0  0  0  0  0  0  0  0  0
   18.8068   21.6235   24.8803 H   0  0  0  0  0  0  0  0  0  0  0  0
   20.3779   20.9411   24.5221 H   0  0  0  0  0  0  0  0  0  0  0  0
   18.6718   19.7863   23.7665 C   0  0  0  0  0  0  0  0  0  0  0  0
   18.5499   20.3731   22.8466 H   0  0  0  0  0  0  0  0  0  0  0  0
   17.6527   19.5513   24.1019 H   0  0  0  0  0  0  0  0  0  0  0  0
   19.3993   18.4611   23.4221 C   0  0  0  0  0  0  0  0  0  0  0  0
   19.4020   17.8079   24.3036 H   0  0  0  0  0  0  0  0  0  0  0  0
   18.8103   17.9236   22.6678 H   0  0  0  0  0  0  0  0  0  0  0  0
   20.8554   18.6192   22.9098 C   0  0  0  0  0  0  0  0  0  0  0  0
   21.2589   17.6217   22.6903 H   0  0  0  0  0  0  0  0  0  0  0  0
   21.4826   19.0201   23.7168 H   0  0  0  0  0  0  0  0  0  0  0  0
   21.0203   19.5125   21.6556 C   0  0  0  0  0  0  0  0  0  0  0  0
   20.7012   20.5391   21.8788 H   0  0  0  0  0  0  0  0  0  0  0  0
   22.0888   19.5734   21.4077 H   0  0  0  0  0  0  0  0  0  0  0  0
   20.2536   18.9839   20.4240 C   0  0  0  0  0  0  0  0  0  0  0  0
   20.4695   19.6014   19.5426 H   0  0  0  0  0  0  0  0  0  0  0  0
   20.5449   17.9509   20.1938 H   0  0  0  0  0  0  0  0  0  0  0  0
   19.1692   19.0074   20.5894 H   0  0  0  0  0  0  0  0  0  0  0  0
  1  2  1  0  0  0  0
  1  3  2  0  0  0  0
  1  4  1  0  0  0  0
  4  5  1  0  0  0  0
  4  6  1  0  0  0  0
  4  7  1  0  0  0  0
  7  8  1  0  0  0  0
  7  9  1  0  0  0  0
  7 10  1  0  0  0  0
 10 11  1  0  0  0  0
 10 12  1  0  0  0  0
 10 13  1  0  0  0  0
 13 14  1  0  0  0  0
 13 15  1  0  0  0  0
 13 16  1  0  0  0  0
 16 17  1  0  0  0  0
 16 18  1  0  0  0  0
 16 19  1  0  0  0  0
 19 20  1  0  0  0  0
 19 21  1  0  0  0  0
 19 22  1  0  0  0  0
 22 23  1  0  0  0  0
 22 24  1  0  0  0  0
 22 25  1  0  0  0  0
M  END
> <VM2 Rank>
193

> <Conf_Id>
235

> <Probability>
0.00

> <Sum Probability>
100.00

> <Delta G>
7.279

> <G>
-0.683

> <E>
-26.968

> <-TS>
26.285

> <U+W>
-47.536

> <U>
13.324

> <W>
-60.860

> <W(PB)>
-63.186

> <W(SA)>
2.325

> <Valence>
10.989

> <Coulomb>
2.085

> <VdW>
0.250

> <VdW6>
-13.144

> <VdW12>
13.394

> <Bond>
0.321

> <Angle>
4.359

> <Pdih>
6.292

> <Idih>
0.016

> <Tether>
0.000

$$$$
VeraChem MOL file


 25 24  0  0  0  0  0  0  0  0999 V2000     
   20.1818   18.8955   27.1063 C   0  0  0  0  0  0  0  0  0  0  0  0
   21.2009   19.2480   27.6667 O   0  5  0  0  0  0  0  0  0  0  0  0
   19.1943   18.4984   27.6927 O   0  0  0  0  0  0  0  0  0  0  0  0
   20.1315   18.9764   25.5849 C   0  0  0  0  0  0  0  0  0  0  0  0
   19.4770   18.1746   25.2230 H   0  0  0  0  0  0  0  0  0  0  0  0
   21.1399   18.7737   25.2068 H   0  0  0  0  0  0  0  0  0  0  0  0
   19.6280   20.3499   25.0730 C   0  0  0  0  0  0  0  0  0  0  0  0
   18.6600   20.5682   25.5449 H   0  0  0  0  0  0  0  0  0  0  0  0
   20.3178   21.1369   25.4078 H   0  0  0  0  0  0  0  0  0  0  0  0
   19.4568   20.4286   23.5350 C   0  0  0  0  0  0  0  0  0  0  0  0
   19.0359   21.4146   23.2957 H   0  0  0  0  0  0  0  0  0  0  0  0
   18.7089   19.6953   23.2081 H   0  0  0  0  0  0  0  0  0  0  0  0
   20.7764   20.2587   22.7368 C   0  0  0  0  0  0  0  0  0  0  0  0
   20.7581   20.9199   21.8598 H   0  0  0  0  0  0  0  0  0  0  0  0
   21.6144   20.6134   23.3522 H   0  0  0  0  0  0  0  0  0  0  0  0
   21.0614   18.8072   22.2672 C   0  0  0  0  0  0  0  0  0  0  0  0
   20.6307   18.0804   22.9670 H   0  0  0  0  0  0  0  0  0  0  0  0
   22.1474   18.6452   22.2954 H   0  0  0  0  0  0  0  0  0  0  0  0
   20.5765   18.4955   20.8297 C   0  0  0  0  0  0  0  0  0  0  0  0
   21.0624   19.1797   20.1205 H   0  0  0  0  0  0  0  0  0  0  0  0
   20.9099   17.4843   20.5588 H   0  0  0  0  0  0  0  0  0  0  0  0
   19.0455   18.5758   20.6537 C   0  0  0  0  0  0  0  0  0  0  0  0
   18.6828   19.6009   20.8008 H   0  0  0  0  0  0  0  0  0  0  0  0
   18.7579   18.2632   19.6417 H   0  0  0  0  0  0  0  0  0  0  0  0
   18.5328   17.9200   21.3692 H   0  0  0  0  0  0  0  0  0  0  0  0
  1  2  1  0  0  0  0
  1  3  2  0  0  0  0
  1  4  1  0  0  0  0
  4  5  1  0  0  0  0
  4  6  1  0  0  0  0
  4  7  1  0  0  0  0
  7  8  1  0  0  0  0
  7  9  1  0  0  0  0
  7 10  1  0  0  0  0
 10 11  1  0  0  0  0
 10 12  1  0  0  0  0
 10 13  1  0  0  0  0
 13 14  1  0  0  0  0
 13 15  1  0  0  0  0
 13 16  1  0  0  0  0
 16 17  1  0  0  0  0
 16 18  1  0  0  0  0
 16 19  1  0  0  0  0
 19 20  1  0  0  0  0
 19 21  1  0  0  0  0
 19 22  1  0  0  0  0
 22 23  1  0  0  0  0
 22 24  1  0  0  0  0
 22 25  1  0  0  0  0
M  END
> <VM2 Rank>
194

> <Conf_Id>
5

> <Probability>
0.00

> <Sum Probability>
100.00

> <Delta G>
7.289

> <G>
-0.673

> <E>
-25.900

> <-TS>
25.227

> <U+W>
-46.468

> <U>
13.064

> <W>
-59.532

> <W(PB)>
-61.933

> <W(SA)>
2.401

> <Valence>
13.064

> <Coulomb>
-1.008

> <VdW>
1.008

> <VdW6>
-10.968

> <VdW12>
11.977

> <Bond>
0.280

> <Angle>
3.438

> <Pdih>
9.345

> <Idih>
0.001

> <Tether>
0.000

$$$$
VeraChem MOL file


 25 24  0  0  0  0  0  0  0  0999 V2000     
   20.5776   19.5634   27.0228 C   0  0  0  0  0  0  0  0  0  0  0  0
   21.6604   20.1127   26.9723 O   0  5  0  0  0  0  0  0  0  0  0  0
   19.7402   19.8026   27.8703 O   0  0  0  0  0  0  0  0  0  0  0  0
   20.2446   18.5283   25.9542 C   0  0  0  0  0  0  0  0  0  0  0  0
   19.6167   17.7551   26.4128 H   0  0  0  0  0  0  0  0  0  0  0  0
   21.1793   18.0461   25.6440 H   0  0  0  0  0  0  0  0  0  0  0  0
   19.5280   19.1412   24.7260 C   0  0  0  0  0  0  0  0  0  0  0  0
   18.6008   19.6300   25.0552 H   0  0  0  0  0  0  0  0  0  0  0  0
   20.1605   19.9279   24.2978 H   0  0  0  0  0  0  0  0  0  0  0  0
   19.1975   18.0693   23.6607 C   0  0  0  0  0  0  0  0  0  0  0  0
   18.5186   17.3356   24.1164 H   0  0  0  0  0  0  0  0  0  0  0  0
   20.0997   17.5113   23.3770 H   0  0  0  0  0  0  0  0  0  0  0  0
   18.5140   18.6516   22.3988 C   0  0  0  0  0  0  0  0  0  0  0  0
   17.7750   17.9174   22.0501 H   0  0  0  0  0  0  0  0  0  0  0  0
   17.9368   19.5496   22.6584 H   0  0  0  0  0  0  0  0  0  0  0  0
   19.4591   18.9530   21.2053 C   0  0  0  0  0  0  0  0  0  0  0  0
   18.8249   19.2282   20.3515 H   0  0  0  0  0  0  0  0  0  0  0  0
   19.9833   18.0373   20.8995 H   0  0  0  0  0  0  0  0  0  0  0  0
   20.4740   20.1014   21.4268 C   0  0  0  0  0  0  0  0  0  0  0  0
   20.6180   20.6278   20.4733 H   0  0  0  0  0  0  0  0  0  0  0  0
   20.0633   20.8450   22.1228 H   0  0  0  0  0  0  0  0  0  0  0  0
   21.8576   19.6105   21.9086 C   0  0  0  0  0  0  0  0  0  0  0  0
   22.3058   18.9267   21.1762 H   0  0  0  0  0  0  0  0  0  0  0  0
   22.5418   20.4588   22.0387 H   0  0  0  0  0  0  0  0  0  0  0  0
   21.7936   19.0834   22.8670 H   0  0  0  0  0  0  0  0  0  0  0  0
  1  2  1  0  0  0  0
  1  3  2  0  0  0  0
  1  4  1  0  0  0  0
  4  5  1  0  0  0  0
  4  6  1  0  0  0  0
  4  7  1  0  0  0  0
  7  8  1  0  0  0  0
  7  9  1  0  0  0  0
  7 10  1  0  0  0  0
 10 11  1  0  0  0  0
 10 12  1  0  0  0  0
 10 13  1  0  0  0  0
 13 14  1  0  0  0  0
 13 15  1  0  0  0  0
 13 16  1  0  0  0  0
 16 17  1  0  0  0  0
 16 18  1  0  0  0  0
 16 19  1  0  0  0  0
 19 20  1  0  0  0  0
 19 21  1  0  0  0  0
 19 22  1  0  0  0  0
 22 23  1  0  0  0  0
 22 24  1  0  0  0  0
 22 25  1  0  0  0  0
M  END
> <VM2 Rank>
195

> <Conf_Id>
251

> <Probability>
0.00

> <Sum Probability>
100.00

> <Delta G>
7.313

> <G>
-0.650

> <E>
-25.904

> <-TS>
25.254

> <U+W>
-46.472

> <U>
13.593

> <W>
-60.064

> <W(PB)>
-62.446

> <W(SA)>
2.382

> <Valence>
13.121

> <Coulomb>
-0.198

> <VdW>
0.669

> <VdW6>
-10.627

> <VdW12>
11.296

> <Bond>
0.238

> <Angle>
3.709

> <Pdih>
9.174

> <Idih>
0.000

> <Tether>
0.000

$$$$
VeraChem MOL file


 25 24  0  0  0  0  0  0  0  0999 V2000     
   20.1304   19.7185   26.5188 C   0  0  0  0  0  0  0  0  0  0  0  0
   21.0789   20.4772   26.4691 O   0  5  0  0  0  0  0  0  0  0  0  0
   19.0067   20.0685   26.8229 O   0  0  0  0  0  0  0  0  0  0  0  0
   20.3860   18.2299   26.2935 C   0  0  0  0  0  0  0  0  0  0  0  0
   19.4717   17.6715   26.5282 H   0  0  0  0  0  0  0  0  0  0  0  0
   21.1350   17.9301   27.0355 H   0  0  0  0  0  0  0  0  0  0  0  0
   20.9009   17.8523   24.8760 C   0  0  0  0  0  0  0  0  0  0  0  0
   21.6789   18.5582   24.5566 H   0  0  0  0  0  0  0  0  0  0  0  0
   21.3987   16.8760   24.9490 H   0  0  0  0  0  0  0  0  0  0  0  0
   19.7941   17.7308   23.7963 C   0  0  0  0  0  0  0  0  0  0  0  0
   19.0412   17.0082   24.1389 H   0  0  0  0  0  0  0  0  0  0  0  0
   20.2328   17.2905   22.8913 H   0  0  0  0  0  0  0  0  0  0  0  0
   19.0772   19.0512   23.4136 C   0  0  0  0  0  0  0  0  0  0  0  0
   18.3157   18.8296   22.6547 H   0  0  0  0  0  0  0  0  0  0  0  0
   18.5187   19.4263   24.2802 H   0  0  0  0  0  0  0  0  0  0  0  0
   20.0040   20.1788   22.8871 C   0  0  0  0  0  0  0  0  0  0  0  0
   20.6706   20.5077   23.6951 H   0  0  0  0  0  0  0  0  0  0  0  0
   19.3860   21.0526   22.6405 H   0  0  0  0  0  0  0  0  0  0  0  0
   20.8596   19.8067   21.6511 C   0  0  0  0  0  0  0  0  0  0  0  0
   21.4918   20.6668   21.3917 H   0  0  0  0  0  0  0  0  0  0  0  0
   21.5477   18.9884   21.9011 H   0  0  0  0  0  0  0  0  0  0  0  0
   20.0153   19.4201   20.4175 C   0  0  0  0  0  0  0  0  0  0  0  0
   19.4465   18.4991   20.5968 H   0  0  0  0  0  0  0  0  0  0  0  0
   19.3069   20.2184   20.1609 H   0  0  0  0  0  0  0  0  0  0  0  0
   20.6620   19.2483   19.5476 H   0  0  0  0  0  0  0  0  0  0  0  0
  1  2  1  0  0  0  0
  1  3  2  0  0  0  0
  1  4  1  0  0  0  0
  4  5  1  0  0  0  0
  4  6  1  0  0  0  0
  4  7  1  0  0  0  0
  7  8  1  0  0  0  0
  7  9  1  0  0  0  0
  7 10  1  0  0  0  0
 10 11  1  0  0  0  0
 10 12  1  0  0  0  0
 10 13  1  0  0  0  0
 13 14  1  0  0  0  0
 13 15  1  0  0  0  0
 13 16  1  0  0  0  0
 16 17  1  0  0  0  0
 16 18  1  0  0  0  0
 16 19  1  0  0  0  0
 19 20  1  0  0  0  0
 19 21  1  0  0  0  0
 19 22  1  0  0  0  0
 22 23  1  0  0  0  0
 22 24  1  0  0  0  0
 22 25  1  0  0  0  0
M  END
> <VM2 Rank>
196

> <Conf_Id>
812

> <Probability>
0.00

> <Sum Probability>
100.00

> <Delta G>
7.360

> <G>
-0.603

> <E>
-26.888

> <-TS>
26.285

> <U+W>
-47.455

> <U>
13.323

> <W>
-60.779

> <W(PB)>
-63.096

> <W(SA)>
2.317

> <Valence>
10.989

> <Coulomb>
2.084

> <VdW>
0.250

> <VdW6>
-13.143

> <VdW12>
13.393

> <Bond>
0.321

> <Angle>
4.360

> <Pdih>
6.292

> <Idih>
0.016

> <Tether>
0.000

$$$$
VeraChem MOL file


 25 24  0  0  0  0  0  0  0  0999 V2000     
   19.4532   19.3091   26.5975 C   0  0  0  0  0  0  0  0  0  0  0  0
   19.7956   19.1401   27.7513 O   0  5  0  0  0  0  0  0  0  0  0  0
   18.4940   19.9798   26.2712 O   0  0  0  0  0  0  0  0  0  0  0  0
   20.2884   18.6630   25.4982 C   0  0  0  0  0  0  0  0  0  0  0  0
   19.6103   18.3740   24.6897 H   0  0  0  0  0  0  0  0  0  0  0  0
   20.7186   17.7373   25.8986 H   0  0  0  0  0  0  0  0  0  0  0  0
   21.4174   19.5922   24.9789 C   0  0  0  0  0  0  0  0  0  0  0  0
   21.0022   20.5538   24.6485 H   0  0  0  0  0  0  0  0  0  0  0  0
   22.0767   19.8237   25.8269 H   0  0  0  0  0  0  0  0  0  0  0  0
   22.2691   18.9585   23.8510 C   0  0  0  0  0  0  0  0  0  0  0  0
   22.3169   17.8683   23.9775 H   0  0  0  0  0  0  0  0  0  0  0  0
   23.3014   19.3146   23.9718 H   0  0  0  0  0  0  0  0  0  0  0  0
   21.8305   19.3080   22.4042 C   0  0  0  0  0  0  0  0  0  0  0  0
   21.8523   20.3964   22.2564 H   0  0  0  0  0  0  0  0  0  0  0  0
   22.5953   18.9039   21.7269 H   0  0  0  0  0  0  0  0  0  0  0  0
   20.4609   18.7345   21.9631 C   0  0  0  0  0  0  0  0  0  0  0  0
   20.2512   17.8003   22.5004 H   0  0  0  0  0  0  0  0  0  0  0  0
   20.5251   18.4630   20.9005 H   0  0  0  0  0  0  0  0  0  0  0  0
   19.2942   19.7361   22.1282 C   0  0  0  0  0  0  0  0  0  0  0  0
   19.2199   20.0768   23.1681 H   0  0  0  0  0  0  0  0  0  0  0  0
   19.4889   20.6298   21.5197 H   0  0  0  0  0  0  0  0  0  0  0  0
   17.9498   19.1127   21.7024 C   0  0  0  0  0  0  0  0  0  0  0  0
   17.1341   19.8383   21.8173 H   0  0  0  0  0  0  0  0  0  0  0  0
   17.9777   18.7964   20.6516 H   0  0  0  0  0  0  0  0  0  0  0  0
   17.7121   18.2362   22.3193 H   0  0  0  0  0  0  0  0  0  0  0  0
  1  2  1  0  0  0  0
  1  3  2  0  0  0  0
  1  4  1  0  0  0  0
  4  5  1  0  0  0  0
  4  6  1  0  0  0  0
  4  7  1  0  0  0  0
  7  8  1  0  0  0  0
  7  9  1  0  0  0  0
  7 10  1  0  0  0  0
 10 11  1  0  0  0  0
 10 12  1  0  0  0  0
 10 13  1  0  0  0  0
 13 14  1  0  0  0  0
 13 15  1  0  0  0  0
 13 16  1  0  0  0  0
 16 17  1  0  0  0  0
 16 18  1  0  0  0  0
 16 19  1  0  0  0  0
 19 20  1  0  0  0  0
 19 21  1  0  0  0  0
 19 22  1  0  0  0  0
 22 23  1  0  0  0  0
 22 24  1  0  0  0  0
 22 25  1  0  0  0  0
M  END
> <VM2 Rank>
197

> <Conf_Id>
1065

> <Probability>
0.00

> <Sum Probability>
100.00

> <Delta G>
7.446

> <G>
-0.517

> <E>
-25.853

> <-TS>
25.336

> <U+W>
-46.420

> <U>
13.989

> <W>
-60.409

> <W(PB)>
-62.777

> <W(SA)>
2.367

> <Valence>
13.108

> <Coulomb>
0.471

> <VdW>
0.410

> <VdW6>
-11.098

> <VdW12>
11.508

> <Bond>
0.254

> <Angle>
3.732

> <Pdih>
9.121

> <Idih>
0.001

> <Tether>
0.000

$$$$
VeraChem MOL file


 25 24  0  0  0  0  0  0  0  0999 V2000     
   19.7737   18.6890   26.2712 C   0  0  0  0  0  0  0  0  0  0  0  0
   20.6088   18.1918   27.0018 O   0  5  0  0  0  0  0  0  0  0  0  0
   18.8761   18.0553   25.7522 O   0  0  0  0  0  0  0  0  0  0  0  0
   19.8145   20.1998   26.0476 C   0  0  0  0  0  0  0  0  0  0  0  0
   19.5962   20.6701   27.0131 H   0  0  0  0  0  0  0  0  0  0  0  0
   18.9985   20.4832   25.3738 H   0  0  0  0  0  0  0  0  0  0  0  0
   21.1706   20.7366   25.5145 C   0  0  0  0  0  0  0  0  0  0  0  0
   21.1407   21.8344   25.4964 H   0  0  0  0  0  0  0  0  0  0  0  0
   21.9595   20.4670   26.2303 H   0  0  0  0  0  0  0  0  0  0  0  0
   21.5740   20.2152   24.1119 C   0  0  0  0  0  0  0  0  0  0  0  0
   21.6380   19.1199   24.1244 H   0  0  0  0  0  0  0  0  0  0  0  0
   22.5941   20.5688   23.9097 H   0  0  0  0  0  0  0  0  0  0  0  0
   20.6598   20.7105   22.9593 C   0  0  0  0  0  0  0  0  0  0  0  0
   20.1771   21.6524   23.2533 H   0  0  0  0  0  0  0  0  0  0  0  0
   21.2848   20.9585   22.0907 H   0  0  0  0  0  0  0  0  0  0  0  0
   19.5776   19.6987   22.5070 C   0  0  0  0  0  0  0  0  0  0  0  0
   18.8637   20.2214   21.8562 H   0  0  0  0  0  0  0  0  0  0  0  0
   19.0033   19.3427   23.3708 H   0  0  0  0  0  0  0  0  0  0  0  0
   20.1570   18.4905   21.7357 C   0  0  0  0  0  0  0  0  0  0  0  0
   20.7395   18.8451   20.8743 H   0  0  0  0  0  0  0  0  0  0  0  0
   20.8464   17.9254   22.3761 H   0  0  0  0  0  0  0  0  0  0  0  0
   19.0408   17.5466   21.2449 C   0  0  0  0  0  0  0  0  0  0  0  0
   18.4616   17.1541   22.0913 H   0  0  0  0  0  0  0  0  0  0  0  0
   18.3510   18.0701   20.5702 H   0  0  0  0  0  0  0  0  0  0  0  0
   19.4665   16.6938   20.7006 H   0  0  0  0  0  0  0  0  0  0  0  0
  1  2  1  0  0  0  0
  1  3  2  0  0  0  0
  1  4  1  0  0  0  0
  4  5  1  0  0  0  0
  4  6  1  0  0  0  0
  4  7  1  0  0  0  0
  7  8  1  0  0  0  0
  7  9  1  0  0  0  0
  7 10  1  0  0  0  0
 10 11  1  0  0  0  0
 10 12  1  0  0  0  0
 10 13  1  0  0  0  0
 13 14  1  0  0  0  0
 13 15  1  0  0  0  0
 13 16  1  0  0  0  0
 16 17  1  0  0  0  0
 16 18  1  0  0  0  0
 16 19  1  0  0  0  0
 19 20  1  0  0  0  0
 19 21  1  0  0  0  0
 19 22  1  0  0  0  0
 22 23  1  0  0  0  0
 22 24  1  0  0  0  0
 22 25  1  0  0  0  0
M  END
> <VM2 Rank>
198

> <Conf_Id>
539

> <Probability>
0.00

> <Sum Probability>
100.00

> <Delta G>
7.547

> <G>
-0.416

> <E>
-25.618

> <-TS>
25.202

> <U+W>
-46.185

> <U>
15.106

> <W>
-61.292

> <W(PB)>
-63.639

> <W(SA)>
2.348

> <Valence>
11.933

> <Coulomb>
2.761

> <VdW>
0.412

> <VdW6>
-11.606

> <VdW12>
12.018

> <Bond>
0.273

> <Angle>
3.594

> <Pdih>
8.060

> <Idih>
0.006

> <Tether>
0.000

$$$$
VeraChem MOL file


 25 24  0  0  0  0  0  0  0  0999 V2000     
   20.0821   19.0290   26.8806 C   0  0  0  0  0  0  0  0  0  0  0  0
   20.4740   17.8838   26.9908 O   0  5  0  0  0  0  0  0  0  0  0  0
   18.9944   19.4059   27.2711 O   0  0  0  0  0  0  0  0  0  0  0  0
   21.0329   20.0604   26.2764 C   0  0  0  0  0  0  0  0  0  0  0  0
   21.9836   19.5704   26.0339 H   0  0  0  0  0  0  0  0  0  0  0  0
   21.2473   20.7832   27.0721 H   0  0  0  0  0  0  0  0  0  0  0  0
   20.4866   20.8222   25.0359 C   0  0  0  0  0  0  0  0  0  0  0  0
   19.4413   21.1159   25.2046 H   0  0  0  0  0  0  0  0  0  0  0  0
   21.0513   21.7596   24.9416 H   0  0  0  0  0  0  0  0  0  0  0  0
   20.6158   20.0607   23.6929 C   0  0  0  0  0  0  0  0  0  0  0  0
   21.6581   19.7495   23.5408 H   0  0  0  0  0  0  0  0  0  0  0  0
   20.3790   20.7687   22.8891 H   0  0  0  0  0  0  0  0  0  0  0  0
   19.6797   18.8355   23.5687 C   0  0  0  0  0  0  0  0  0  0  0  0
   19.8977   18.1262   24.3757 H   0  0  0  0  0  0  0  0  0  0  0  0
   18.6381   19.1546   23.7095 H   0  0  0  0  0  0  0  0  0  0  0  0
   19.8093   18.0703   22.2273 C   0  0  0  0  0  0  0  0  0  0  0  0
   19.1450   17.1970   22.2804 H   0  0  0  0  0  0  0  0  0  0  0  0
   20.8252   17.6653   22.1231 H   0  0  0  0  0  0  0  0  0  0  0  0
   19.4264   18.8916   20.9706 C   0  0  0  0  0  0  0  0  0  0  0  0
   18.8879   18.2363   20.2722 H   0  0  0  0  0  0  0  0  0  0  0  0
   18.7251   19.6939   21.2382 H   0  0  0  0  0  0  0  0  0  0  0  0
   20.6516   19.4746   20.2316 C   0  0  0  0  0  0  0  0  0  0  0  0
   21.3164   18.6722   19.8861 H   0  0  0  0  0  0  0  0  0  0  0  0
   20.3326   20.0483   19.3518 H   0  0  0  0  0  0  0  0  0  0  0  0
   21.2357   20.1430   20.8745 H   0  0  0  0  0  0  0  0  0  0  0  0
  1  2  1  0  0  0  0
  1  3  2  0  0  0  0
  1  4  1  0  0  0  0
  4  5  1  0  0  0  0
  4  6  1  0  0  0  0
  4  7  1  0  0  0  0
  7  8  1  0  0  0  0
  7  9  1  0  0  0  0
  7 10  1  0  0  0  0
 10 11  1  0  0  0  0
 10 12  1  0  0  0  0
 10 13  1  0  0  0  0
 13 14  1  0  0  0  0
 13 15  1  0  0  0  0
 13 16  1  0  0  0  0
 16 17  1  0  0  0  0
 16 18  1  0  0  0  0
 16 19  1  0  0  0  0
 19 20  1  0  0  0  0
 19 21  1  0  0  0  0
 19 22  1  0  0  0  0
 22 23  1  0  0  0  0
 22 24  1  0  0  0  0
 22 25  1  0  0  0  0
M  END
> <VM2 Rank>
199

> <Conf_Id>
85

> <Probability>
0.00

> <Sum Probability>
100.00

> <Delta G>
7.650

> <G>
-0.312

> <E>
-25.489

> <-TS>
25.177

> <U+W>
-46.057

> <U>
14.423

> <W>
-60.479

> <W(PB)>
-62.879

> <W(SA)>
2.400

> <Valence>
12.698

> <Coulomb>
0.771

> <VdW>
0.953

> <VdW6>
-11.273

> <VdW12>
12.226

> <Bond>
0.285

> <Angle>
4.019

> <Pdih>
8.388

> <Idih>
0.006

> <Tether>
0.000

$$$$
VeraChem MOL file


 25 24  0  0  0  0  0  0  0  0999 V2000     
   19.7320   19.0125   26.6077 C   0  0  0  0  0  0  0  0  0  0  0  0
   20.3543   19.0063   27.6520 O   0  5  0  0  0  0  0  0  0  0  0  0
   18.6303   19.5107   26.4851 O   0  0  0  0  0  0  0  0  0  0  0  0
   20.3591   18.3325   25.3941 C   0  0  0  0  0  0  0  0  0  0  0  0
   19.5764   18.1666   24.6458 H   0  0  0  0  0  0  0  0  0  0  0  0
   20.6988   17.3409   25.7145 H   0  0  0  0  0  0  0  0  0  0  0  0
   21.5536   19.1120   24.7785 C   0  0  0  0  0  0  0  0  0  0  0  0
   22.3297   19.2251   25.5478 H   0  0  0  0  0  0  0  0  0  0  0  0
   22.0124   18.5176   23.9790 H   0  0  0  0  0  0  0  0  0  0  0  0
   21.1871   20.5165   24.2380 C   0  0  0  0  0  0  0  0  0  0  0  0
   22.1018   21.0042   23.8748 H   0  0  0  0  0  0  0  0  0  0  0  0
   20.8335   21.1339   25.0752 H   0  0  0  0  0  0  0  0  0  0  0  0
   20.1179   20.5560   23.1145 C   0  0  0  0  0  0  0  0  0  0  0  0
   19.1670   20.1475   23.4760 H   0  0  0  0  0  0  0  0  0  0  0  0
   19.9128   21.6145   22.9050 H   0  0  0  0  0  0  0  0  0  0  0  0
   20.5491   19.8908   21.7790 C   0  0  0  0  0  0  0  0  0  0  0  0
   21.6361   19.9909   21.6574 H   0  0  0  0  0  0  0  0  0  0  0  0
   20.1059   20.4567   20.9484 H   0  0  0  0  0  0  0  0  0  0  0  0
   20.1474   18.4038   21.6108 C   0  0  0  0  0  0  0  0  0  0  0  0
   20.6265   18.0164   20.7012 H   0  0  0  0  0  0  0  0  0  0  0  0
   20.5361   17.7995   22.4380 H   0  0  0  0  0  0  0  0  0  0  0  0
   18.6222   18.1928   21.4864 C   0  0  0  0  0  0  0  0  0  0  0  0
   18.2080   18.7940   20.6667 H   0  0  0  0  0  0  0  0  0  0  0  0
   18.3973   17.1388   21.2783 H   0  0  0  0  0  0  0  0  0  0  0  0
   18.0995   18.4663   22.4109 H   0  0  0  0  0  0  0  0  0  0  0  0
  1  2  1  0  0  0  0
  1  3  2  0  0  0  0
  1  4  1  0  0  0  0
  4  5  1  0  0  0  0
  4  6  1  0  0  0  0
  4  7  1  0  0  0  0
  7  8  1  0  0  0  0
  7  9  1  0  0  0  0
  7 10  1  0  0  0  0
 10 11  1  0  0  0  0
 10 12  1  0  0  0  0
 10 13  1  0  0  0  0
 13 14  1  0  0  0  0
 13 15  1  0  0  0  0
 13 16  1  0  0  0  0
 16 17  1  0  0  0  0
 16 18  1  0  0  0  0
 16 19  1  0  0  0  0
 19 20  1  0  0  0  0
 19 21  1  0  0  0  0
 19 22  1  0  0  0  0
 22 23  1  0  0  0  0
 22 24  1  0  0  0  0
 22 25  1  0  0  0  0
M  END
> <VM2 Rank>
200

> <Conf_Id>
552

> <Probability>
0.00

> <Sum Probability>
100.00

> <Delta G>
7.724

> <G>
-0.239

> <E>
-26.056

> <-TS>
25.817

> <U+W>
-46.624

> <U>
14.175

> <W>
-60.798

> <W(PB)>
-63.135

> <W(SA)>
2.337

> <Valence>
12.070

> <Coulomb>
1.751

> <VdW>
0.353

> <VdW6>
-12.458

> <VdW12>
12.811

> <Bond>
0.325

> <Angle>
4.280

> <Pdih>
7.464

> <Idih>
0.001

> <Tether>
0.000

$$$$
VeraChem MOL file


 25 24  0  0  0  0  0  0  0  0999 V2000     
   19.7463   19.6320   26.5291 C   0  0  0  0  0  0  0  0  0  0  0  0
   20.6533   20.1517   27.1498 O   0  5  0  0  0  0  0  0  0  0  0  0
   18.7163   20.2080   26.2388 O   0  0  0  0  0  0  0  0  0  0  0  0
   19.8763   18.1570   26.1544 C   0  0  0  0  0  0  0  0  0  0  0  0
   18.9596   17.8373   25.6440 H   0  0  0  0  0  0  0  0  0  0  0  0
   19.9196   17.6020   27.0986 H   0  0  0  0  0  0  0  0  0  0  0  0
   21.1227   17.7962   25.2979 C   0  0  0  0  0  0  0  0  0  0  0  0
   22.0139   18.2968   25.7014 H   0  0  0  0  0  0  0  0  0  0  0  0
   21.3068   16.7188   25.4062 H   0  0  0  0  0  0  0  0  0  0  0  0
   20.9793   18.0996   23.7858 C   0  0  0  0  0  0  0  0  0  0  0  0
   20.0870   17.5949   23.3974 H   0  0  0  0  0  0  0  0  0  0  0  0
   21.8352   17.6477   23.2664 H   0  0  0  0  0  0  0  0  0  0  0  0
   20.9391   19.6107   23.4483 C   0  0  0  0  0  0  0  0  0  0  0  0
   20.0547   20.0855   23.8907 H   0  0  0  0  0  0  0  0  0  0  0  0
   21.8111   20.0894   23.9143 H   0  0  0  0  0  0  0  0  0  0  0  0
   20.9733   19.9014   21.9257 C   0  0  0  0  0  0  0  0  0  0  0  0
   21.5241   19.1115   21.3974 H   0  0  0  0  0  0  0  0  0  0  0  0
   21.5503   20.8229   21.7682 H   0  0  0  0  0  0  0  0  0  0  0  0
   19.5834   20.1068   21.2738 C   0  0  0  0  0  0  0  0  0  0  0  0
   19.0792   20.9621   21.7446 H   0  0  0  0  0  0  0  0  0  0  0  0
   19.7300   20.3787   20.2194 H   0  0  0  0  0  0  0  0  0  0  0  0
   18.6629   18.8706   21.3424 C   0  0  0  0  0  0  0  0  0  0  0  0
   18.3473   18.6712   22.3740 H   0  0  0  0  0  0  0  0  0  0  0  0
   17.7562   19.0337   20.7458 H   0  0  0  0  0  0  0  0  0  0  0  0
   19.1701   17.9787   20.9524 H   0  0  0  0  0  0  0  0  0  0  0  0
  1  2  1  0  0  0  0
  1  3  2  0  0  0  0
  1  4  1  0  0  0  0
  4  5  1  0  0  0  0
  4  6  1  0  0  0  0
  4  7  1  0  0  0  0
  7  8  1  0  0  0  0
  7  9  1  0  0  0  0
  7 10  1  0  0  0  0
 10 11  1  0  0  0  0
 10 12  1  0  0  0  0
 10 13  1  0  0  0  0
 13 14  1  0  0  0  0
 13 15  1  0  0  0  0
 13 16  1  0  0  0  0
 16 17  1  0  0  0  0
 16 18  1  0  0  0  0
 16 19  1  0  0  0  0
 19 20  1  0  0  0  0
 19 21  1  0  0  0  0
 19 22  1  0  0  0  0
 22 23  1  0  0  0  0
 22 24  1  0  0  0  0
 22 25  1  0  0  0  0
M  END
> <VM2 Rank>
201

> <Conf_Id>
428

> <Probability>
0.00

> <Sum Probability>
100.00

> <Delta G>
7.741

> <G>
-0.221

> <E>
-25.443

> <-TS>
25.221

> <U+W>
-46.010

> <U>
15.042

> <W>
-61.052

> <W(PB)>
-63.403

> <W(SA)>
2.351

> <Valence>
12.413

> <Coulomb>
1.927

> <VdW>
0.702

> <VdW6>
-11.648

> <VdW12>
12.350

> <Bond>
0.287

> <Angle>
3.936

> <Pdih>
8.183

> <Idih>
0.007

> <Tether>
0.000

$$$$
VeraChem MOL file


 25 24  0  0  0  0  0  0  0  0999 V2000     
   20.5036   19.6801   26.5211 C   0  0  0  0  0  0  0  0  0  0  0  0
   21.4449   20.3826   26.2086 O   0  5  0  0  0  0  0  0  0  0  0  0
   19.5523   20.0804   27.1634 O   0  0  0  0  0  0  0  0  0  0  0  0
   20.5543   18.2003   26.1462 C   0  0  0  0  0  0  0  0  0  0  0  0
   20.6042   17.6451   27.0900 H   0  0  0  0  0  0  0  0  0  0  0  0
   21.4922   17.9998   25.6141 H   0  0  0  0  0  0  0  0  0  0  0  0
   19.3445   17.6827   25.3182 C   0  0  0  0  0  0  0  0  0  0  0  0
   19.3016   16.5908   25.4288 H   0  0  0  0  0  0  0  0  0  0  0  0
   18.4065   18.0662   25.7430 H   0  0  0  0  0  0  0  0  0  0  0  0
   19.4131   18.0001   23.8037 C   0  0  0  0  0  0  0  0  0  0  0  0
   18.6093   17.4431   23.3036 H   0  0  0  0  0  0  0  0  0  0  0  0
   20.3527   17.6117   23.3937 H   0  0  0  0  0  0  0  0  0  0  0  0
   19.2543   19.5038   23.4681 C   0  0  0  0  0  0  0  0  0  0  0  0
   18.3403   19.8693   23.9557 H   0  0  0  0  0  0  0  0  0  0  0  0
   20.0821   20.0869   23.8902 H   0  0  0  0  0  0  0  0  0  0  0  0
   19.1473   19.7862   21.9474 C   0  0  0  0  0  0  0  0  0  0  0  0
   18.4554   20.6275   21.8054 H   0  0  0  0  0  0  0  0  0  0  0  0
   18.6877   18.9327   21.4309 H   0  0  0  0  0  0  0  0  0  0  0  0
   20.4843   20.1641   21.2627 C   0  0  0  0  0  0  0  0  0  0  0  0
   20.2793   20.4144   20.2127 H   0  0  0  0  0  0  0  0  0  0  0  0
   20.8881   21.0765   21.7230 H   0  0  0  0  0  0  0  0  0  0  0  0
   21.5543   19.0536   21.3066 C   0  0  0  0  0  0  0  0  0  0  0  0
   21.1540   18.1045   20.9273 H   0  0  0  0  0  0  0  0  0  0  0  0
   22.4186   19.3287   20.6886 H   0  0  0  0  0  0  0  0  0  0  0  0
   21.9174   18.8966   22.3299 H   0  0  0  0  0  0  0  0  0  0  0  0
  1  2  1  0  0  0  0
  1  3  2  0  0  0  0
  1  4  1  0  0  0  0
  4  5  1  0  0  0  0
  4  6  1  0  0  0  0
  4  7  1  0  0  0  0
  7  8  1  0  0  0  0
  7  9  1  0  0  0  0
  7 10  1  0  0  0  0
 10 11  1  0  0  0  0
 10 12  1  0  0  0  0
 10 13  1  0  0  0  0
 13 14  1  0  0  0  0
 13 15  1  0  0  0  0
 13 16  1  0  0  0  0
 16 17  1  0  0  0  0
 16 18  1  0  0  0  0
 16 19  1  0  0  0  0
 19 20  1  0  0  0  0
 19 21  1  0  0  0  0
 19 22  1  0  0  0  0
 22 23  1  0  0  0  0
 22 24  1  0  0  0  0
 22 25  1  0  0  0  0
M  END
> <VM2 Rank>
202

> <Conf_Id>
719

> <Probability>
0.00

> <Sum Probability>
100.00

> <Delta G>
7.743

> <G>
-0.219

> <E>
-25.441

> <-TS>
25.223

> <U+W>
-46.009

> <U>
15.039

> <W>
-61.048

> <W(PB)>
-63.409

> <W(SA)>
2.361

> <Valence>
12.413

> <Coulomb>
1.923

> <VdW>
0.703

> <VdW6>
-11.648

> <VdW12>
12.352

> <Bond>
0.287

> <Angle>
3.936

> <Pdih>
8.182

> <Idih>
0.007

> <Tether>
0.000

$$$$
VeraChem MOL file


 25 24  0  0  0  0  0  0  0  0999 V2000     
   19.8120   19.1682   26.7596 C   0  0  0  0  0  0  0  0  0  0  0  0
   19.7458   17.9769   26.9915 O   0  5  0  0  0  0  0  0  0  0  0  0
   18.8696   19.9272   26.8757 O   0  0  0  0  0  0  0  0  0  0  0  0
   21.1689   19.7515   26.3696 C   0  0  0  0  0  0  0  0  0  0  0  0
   21.9153   18.9480   26.3677 H   0  0  0  0  0  0  0  0  0  0  0  0
   21.4511   20.4401   27.1743 H   0  0  0  0  0  0  0  0  0  0  0  0
   21.1971   20.5161   25.0162 C   0  0  0  0  0  0  0  0  0  0  0  0
   20.3197   21.1732   24.9392 H   0  0  0  0  0  0  0  0  0  0  0  0
   22.0721   21.1800   25.0193 H   0  0  0  0  0  0  0  0  0  0  0  0
   21.2941   19.6134   23.7614 C   0  0  0  0  0  0  0  0  0  0  0  0
   22.1838   18.9735   23.8363 H   0  0  0  0  0  0  0  0  0  0  0  0
   21.4592   20.2588   22.8905 H   0  0  0  0  0  0  0  0  0  0  0  0
   20.0444   18.7314   23.5227 C   0  0  0  0  0  0  0  0  0  0  0  0
   20.0034   17.9670   24.3090 H   0  0  0  0  0  0  0  0  0  0  0  0
   19.1277   19.3282   23.6249 H   0  0  0  0  0  0  0  0  0  0  0  0
   20.0597   18.0082   22.1519 C   0  0  0  0  0  0  0  0  0  0  0  0
   19.6197   17.0107   22.2872 H   0  0  0  0  0  0  0  0  0  0  0  0
   21.0938   17.8363   21.8232 H   0  0  0  0  0  0  0  0  0  0  0  0
   19.2573   18.7241   21.0371 C   0  0  0  0  0  0  0  0  0  0  0  0
   19.2622   18.0894   20.1403 H   0  0  0  0  0  0  0  0  0  0  0  0
   18.2060   18.8161   21.3428 H   0  0  0  0  0  0  0  0  0  0  0  0
   19.8040   20.1169   20.6604 C   0  0  0  0  0  0  0  0  0  0  0  0
   20.8679   20.0638   20.3954 H   0  0  0  0  0  0  0  0  0  0  0  0
   19.2600   20.5226   19.7977 H   0  0  0  0  0  0  0  0  0  0  0  0
   19.6859   20.8258   21.4896 H   0  0  0  0  0  0  0  0  0  0  0  0
  1  2  1  0  0  0  0
  1  3  2  0  0  0  0
  1  4  1  0  0  0  0
  4  5  1  0  0  0  0
  4  6  1  0  0  0  0
  4  7  1  0  0  0  0
  7  8  1  0  0  0  0
  7  9  1  0  0  0  0
  7 10  1  0  0  0  0
 10 11  1  0  0  0  0
 10 12  1  0  0  0  0
 10 13  1  0  0  0  0
 13 14  1  0  0  0  0
 13 15  1  0  0  0  0
 13 16  1  0  0  0  0
 16 17  1  0  0  0  0
 16 18  1  0  0  0  0
 16 19  1  0  0  0  0
 19 20  1  0  0  0  0
 19 21  1  0  0  0  0
 19 22  1  0  0  0  0
 22 23  1  0  0  0  0
 22 24  1  0  0  0  0
 22 25  1  0  0  0  0
M  END
> <VM2 Rank>
203

> <Conf_Id>
1109

> <Probability>
0.00

> <Sum Probability>
100.00

> <Delta G>
7.754

> <G>
-0.208

> <E>
-25.654

> <-TS>
25.446

> <U+W>
-46.222

> <U>
14.482

> <W>
-60.703

> <W(PB)>
-63.082

> <W(SA)>
2.379

> <Valence>
12.477

> <Coulomb>
1.221

> <VdW>
0.784

> <VdW6>
-11.566

> <VdW12>
12.350

> <Bond>
0.279

> <Angle>
3.852

> <Pdih>
8.338

> <Idih>
0.007

> <Tether>
0.000

$$$$
VeraChem MOL file


 25 24  0  0  0  0  0  0  0  0999 V2000     
   20.1285   19.6624   26.7470 C   0  0  0  0  0  0  0  0  0  0  0  0
   21.1875   20.2288   26.9340 O   0  5  0  0  0  0  0  0  0  0  0  0
   19.0474   20.2047   26.8689 O   0  0  0  0  0  0  0  0  0  0  0  0
   20.1583   18.1727   26.4101 C   0  0  0  0  0  0  0  0  0  0  0  0
   19.6702   17.6579   27.2457 H   0  0  0  0  0  0  0  0  0  0  0  0
   21.2003   17.8309   26.3964 H   0  0  0  0  0  0  0  0  0  0  0  0
   19.4445   17.7783   25.0865 C   0  0  0  0  0  0  0  0  0  0  0  0
   19.2087   16.7066   25.1341 H   0  0  0  0  0  0  0  0  0  0  0  0
   18.4786   18.2971   25.0131 H   0  0  0  0  0  0  0  0  0  0  0  0
   20.2753   18.0220   23.8022 C   0  0  0  0  0  0  0  0  0  0  0  0
   19.7385   17.5705   22.9595 H   0  0  0  0  0  0  0  0  0  0  0  0
   21.2307   17.4850   23.8746 H   0  0  0  0  0  0  0  0  0  0  0  0
   20.5463   19.5165   23.5025 C   0  0  0  0  0  0  0  0  0  0  0  0
   19.6227   20.1025   23.6048 H   0  0  0  0  0  0  0  0  0  0  0  0
   21.2410   19.9022   24.2594 H   0  0  0  0  0  0  0  0  0  0  0  0
   21.1775   19.7552   22.1071 C   0  0  0  0  0  0  0  0  0  0  0  0
   21.7595   18.8766   21.7968 H   0  0  0  0  0  0  0  0  0  0  0  0
   21.9013   20.5768   22.1958 H   0  0  0  0  0  0  0  0  0  0  0  0
   20.1656   20.1430   21.0004 C   0  0  0  0  0  0  0  0  0  0  0  0
   19.6482   21.0698   21.2845 H   0  0  0  0  0  0  0  0  0  0  0  0
   20.7230   20.3716   20.0816 H   0  0  0  0  0  0  0  0  0  0  0  0
   19.1222   19.0504   20.6872 C   0  0  0  0  0  0  0  0  0  0  0  0
   18.5060   19.3429   19.8273 H   0  0  0  0  0  0  0  0  0  0  0  0
   19.6105   18.0974   20.4456 H   0  0  0  0  0  0  0  0  0  0  0  0
   18.4484   18.8912   21.5385 H   0  0  0  0  0  0  0  0  0  0  0  0
  1  2  1  0  0  0  0
  1  3  2  0  0  0  0
  1  4  1  0  0  0  0
  4  5  1  0  0  0  0
  4  6  1  0  0  0  0
  4  7  1  0  0  0  0
  7  8  1  0  0  0  0
  7  9  1  0  0  0  0
  7 10  1  0  0  0  0
 10 11  1  0  0  0  0
 10 12  1  0  0  0  0
 10 13  1  0  0  0  0
 13 14  1  0  0  0  0
 13 15  1  0  0  0  0
 13 16  1  0  0  0  0
 16 17  1  0  0  0  0
 16 18  1  0  0  0  0
 16 19  1  0  0  0  0
 19 20  1  0  0  0  0
 19 21  1  0  0  0  0
 19 22  1  0  0  0  0
 22 23  1  0  0  0  0
 22 24  1  0  0  0  0
 22 25  1  0  0  0  0
M  END
> <VM2 Rank>
204

> <Conf_Id>
389

> <Probability>
0.00

> <Sum Probability>
100.00

> <Delta G>
7.779

> <G>
-0.183

> <E>
-25.628

> <-TS>
25.445

> <U+W>
-46.196

> <U>
14.480

> <W>
-60.676

> <W(PB)>
-63.040

> <W(SA)>
2.363

> <Valence>
12.477

> <Coulomb>
1.220

> <VdW>
0.784

> <VdW6>
-11.565

> <VdW12>
12.349

> <Bond>
0.279

> <Angle>
3.853

> <Pdih>
8.338

> <Idih>
0.007

> <Tether>
0.000

$$$$
VeraChem MOL file


 25 24  0  0  0  0  0  0  0  0999 V2000     
   20.1503   18.5075   26.0159 C   0  0  0  0  0  0  0  0  0  0  0  0
   21.1502   17.8344   25.8588 O   0  5  0  0  0  0  0  0  0  0  0  0
   19.0222   18.0567   25.9680 O   0  0  0  0  0  0  0  0  0  0  0  0
   20.3246   19.9712   26.4174 C   0  0  0  0  0  0  0  0  0  0  0  0
   21.3935   20.1826   26.5406 H   0  0  0  0  0  0  0  0  0  0  0  0
   19.8686   20.0740   27.4089 H   0  0  0  0  0  0  0  0  0  0  0  0
   19.6766   21.0061   25.4547 C   0  0  0  0  0  0  0  0  0  0  0  0
   18.6772   20.6656   25.1529 H   0  0  0  0  0  0  0  0  0  0  0  0
   19.5142   21.9343   26.0189 H   0  0  0  0  0  0  0  0  0  0  0  0
   20.5341   21.3610   24.2118 C   0  0  0  0  0  0  0  0  0  0  0  0
   21.5056   21.7476   24.5487 H   0  0  0  0  0  0  0  0  0  0  0  0
   20.0499   22.1902   23.6781 H   0  0  0  0  0  0  0  0  0  0  0  0
   20.7784   20.2062   23.2099 C   0  0  0  0  0  0  0  0  0  0  0  0
   21.4233   20.5791   22.4030 H   0  0  0  0  0  0  0  0  0  0  0  0
   21.3418   19.4043   23.7016 H   0  0  0  0  0  0  0  0  0  0  0  0
   19.4756   19.6450   22.5895 C   0  0  0  0  0  0  0  0  0  0  0  0
   18.8845   20.4767   22.1832 H   0  0  0  0  0  0  0  0  0  0  0  0
   18.8609   19.1747   23.3684 H   0  0  0  0  0  0  0  0  0  0  0  0
   19.7287   18.6188   21.4608 C   0  0  0  0  0  0  0  0  0  0  0  0
   18.7660   18.3554   21.0016 H   0  0  0  0  0  0  0  0  0  0  0  0
   20.3361   19.0780   20.6687 H   0  0  0  0  0  0  0  0  0  0  0  0
   20.4124   17.3271   21.9592 C   0  0  0  0  0  0  0  0  0  0  0  0
   19.8424   16.8747   22.7819 H   0  0  0  0  0  0  0  0  0  0  0  0
   20.4835   16.5903   21.1489 H   0  0  0  0  0  0  0  0  0  0  0  0
   21.4293   17.5261   22.3200 H   0  0  0  0  0  0  0  0  0  0  0  0
  1  2  1  0  0  0  0
  1  3  2  0  0  0  0
  1  4  1  0  0  0  0
  4  5  1  0  0  0  0
  4  6  1  0  0  0  0
  4  7  1  0  0  0  0
  7  8  1  0  0  0  0
  7  9  1  0  0  0  0
  7 10  1  0  0  0  0
 10 11  1  0  0  0  0
 10 12  1  0  0  0  0
 10 13  1  0  0  0  0
 13 14  1  0  0  0  0
 13 15  1  0  0  0  0
 13 16  1  0  0  0  0
 16 17  1  0  0  0  0
 16 18  1  0  0  0  0
 16 19  1  0  0  0  0
 19 20  1  0  0  0  0
 19 21  1  0  0  0  0
 19 22  1  0  0  0  0
 22 23  1  0  0  0  0
 22 24  1  0  0  0  0
 22 25  1  0  0  0  0
M  END
> <VM2 Rank>
205

> <Conf_Id>
236

> <Probability>
0.00

> <Sum Probability>
100.00

> <Delta G>
7.891

> <G>
-0.071

> <E>
-25.961

> <-TS>
25.890

> <U+W>
-46.529

> <U>
14.294

> <W>
-60.823

> <W(PB)>
-63.131

> <W(SA)>
2.308

> <Valence>
10.557

> <Coulomb>
3.764

> <VdW>
-0.028

> <VdW6>
-12.698

> <VdW12>
12.670

> <Bond>
0.274

> <Angle>
3.852

> <Pdih>
6.410

> <Idih>
0.022

> <Tether>
0.000

$$$$
VeraChem MOL file


 25 24  0  0  0  0  0  0  0  0999 V2000     
   20.6004   19.3234   26.6156 C   0  0  0  0  0  0  0  0  0  0  0  0
   21.6607   19.8742   26.3928 O   0  5  0  0  0  0  0  0  0  0  0  0
   20.5076   18.2141   27.1036 O   0  0  0  0  0  0  0  0  0  0  0  0
   19.3157   20.0879   26.3108 C   0  0  0  0  0  0  0  0  0  0  0  0
   19.4161   21.0751   26.7769 H   0  0  0  0  0  0  0  0  0  0  0  0
   18.4815   19.5872   26.8167 H   0  0  0  0  0  0  0  0  0  0  0  0
   18.9977   20.2685   24.8003 C   0  0  0  0  0  0  0  0  0  0  0  0
   18.1807   20.9976   24.7159 H   0  0  0  0  0  0  0  0  0  0  0  0
   19.8602   20.7183   24.2926 H   0  0  0  0  0  0  0  0  0  0  0  0
   18.5515   18.9655   24.0863 C   0  0  0  0  0  0  0  0  0  0  0  0
   17.9098   19.2211   23.2321 H   0  0  0  0  0  0  0  0  0  0  0  0
   17.9132   18.3897   24.7703 H   0  0  0  0  0  0  0  0  0  0  0  0
   19.7120   18.0614   23.5926 C   0  0  0  0  0  0  0  0  0  0  0  0
   20.5990   18.1800   24.2267 H   0  0  0  0  0  0  0  0  0  0  0  0
   19.4019   17.0142   23.7094 H   0  0  0  0  0  0  0  0  0  0  0  0
   20.1017   18.2729   22.1080 C   0  0  0  0  0  0  0  0  0  0  0  0
   19.2314   18.0718   21.4687 H   0  0  0  0  0  0  0  0  0  0  0  0
   20.8602   17.5247   21.8404 H   0  0  0  0  0  0  0  0  0  0  0  0
   20.6556   19.6804   21.7964 C   0  0  0  0  0  0  0  0  0  0  0  0
   19.8750   20.4342   21.9636 H   0  0  0  0  0  0  0  0  0  0  0  0
   21.4828   19.9128   22.4815 H   0  0  0  0  0  0  0  0  0  0  0  0
   21.1500   19.7857   20.3395 C   0  0  0  0  0  0  0  0  0  0  0  0
   20.3347   19.5826   19.6329 H   0  0  0  0  0  0  0  0  0  0  0  0
   21.5342   20.7931   20.1336 H   0  0  0  0  0  0  0  0  0  0  0  0
   21.9586   19.0687   20.1459 H   0  0  0  0  0  0  0  0  0  0  0  0
  1  2  1  0  0  0  0
  1  3  2  0  0  0  0
  1  4  1  0  0  0  0
  4  5  1  0  0  0  0
  4  6  1  0  0  0  0
  4  7  1  0  0  0  0
  7  8  1  0  0  0  0
  7  9  1  0  0  0  0
  7 10  1  0  0  0  0
 10 11  1  0  0  0  0
 10 12  1  0  0  0  0
 10 13  1  0  0  0  0
 13 14  1  0  0  0  0
 13 15  1  0  0  0  0
 13 16  1  0  0  0  0
 16 17  1  0  0  0  0
 16 18  1  0  0  0  0
 16 19  1  0  0  0  0
 19 20  1  0  0  0  0
 19 21  1  0  0  0  0
 19 22  1  0  0  0  0
 22 23  1  0  0  0  0
 22 24  1  0  0  0  0
 22 25  1  0  0  0  0
M  END
> <VM2 Rank>
206

> <Conf_Id>
370

> <Probability>
0.00

> <Sum Probability>
100.00

> <Delta G>
7.920

> <G>
-0.043

> <E>
-25.284

> <-TS>
25.242

> <U+W>
-45.852

> <U>
14.998

> <W>
-60.848

> <W(PB)>
-63.214

> <W(SA)>
2.366

> <Valence>
12.645

> <Coulomb>
1.771

> <VdW>
0.582

> <VdW6>
-11.471

> <VdW12>
12.053

> <Bond>
0.285

> <Angle>
3.669

> <Pdih>
8.687

> <Idih>
0.004

> <Tether>
0.000

$$$$
VeraChem MOL file


 25 24  0  0  0  0  0  0  0  0999 V2000     
   20.5466   19.7384   26.4805 C   0  0  0  0  0  0  0  0  0  0  0  0
   21.5137   20.2838   25.9866 O   0  5  0  0  0  0  0  0  0  0  0  0
   20.5605   19.2080   27.5742 O   0  0  0  0  0  0  0  0  0  0  0  0
   19.2327   19.7469   25.7031 C   0  0  0  0  0  0  0  0  0  0  0  0
   19.3118   20.4788   24.8936 H   0  0  0  0  0  0  0  0  0  0  0  0
   18.4585   20.1180   26.3845 H   0  0  0  0  0  0  0  0  0  0  0  0
   18.8111   18.3540   25.1593 C   0  0  0  0  0  0  0  0  0  0  0  0
   18.7956   17.6520   26.0046 H   0  0  0  0  0  0  0  0  0  0  0  0
   17.7788   18.3988   24.7873 H   0  0  0  0  0  0  0  0  0  0  0  0
   19.7418   17.7832   24.0569 C   0  0  0  0  0  0  0  0  0  0  0  0
   19.7826   16.6932   24.1861 H   0  0  0  0  0  0  0  0  0  0  0  0
   20.7736   18.1313   24.1969 H   0  0  0  0  0  0  0  0  0  0  0  0
   19.2644   18.0539   22.6058 C   0  0  0  0  0  0  0  0  0  0  0  0
   19.8892   17.4729   21.9153 H   0  0  0  0  0  0  0  0  0  0  0  0
   18.2489   17.6522   22.4883 H   0  0  0  0  0  0  0  0  0  0  0  0
   19.2628   19.5381   22.1591 C   0  0  0  0  0  0  0  0  0  0  0  0
   18.5562   20.1034   22.7794 H   0  0  0  0  0  0  0  0  0  0  0  0
   18.8656   19.5939   21.1367 H   0  0  0  0  0  0  0  0  0  0  0  0
   20.6463   20.2343   22.1895 C   0  0  0  0  0  0  0  0  0  0  0  0
   20.5138   21.2888   21.9115 H   0  0  0  0  0  0  0  0  0  0  0  0
   21.0501   20.2376   23.2105 H   0  0  0  0  0  0  0  0  0  0  0  0
   21.6730   19.5932   21.2309 C   0  0  0  0  0  0  0  0  0  0  0  0
   22.6034   20.1753   21.2204 H   0  0  0  0  0  0  0  0  0  0  0  0
   21.9239   18.5715   21.5423 H   0  0  0  0  0  0  0  0  0  0  0  0
   21.2842   19.5566   20.2050 H   0  0  0  0  0  0  0  0  0  0  0  0
  1  2  1  0  0  0  0
  1  3  2  0  0  0  0
  1  4  1  0  0  0  0
  4  5  1  0  0  0  0
  4  6  1  0  0  0  0
  4  7  1  0  0  0  0
  7  8  1  0  0  0  0
  7  9  1  0  0  0  0
  7 10  1  0  0  0  0
 10 11  1  0  0  0  0
 10 12  1  0  0  0  0
 10 13  1  0  0  0  0
 13 14  1  0  0  0  0
 13 15  1  0  0  0  0
 13 16  1  0  0  0  0
 16 17  1  0  0  0  0
 16 18  1  0  0  0  0
 16 19  1  0  0  0  0
 19 20  1  0  0  0  0
 19 21  1  0  0  0  0
 19 22  1  0  0  0  0
 22 23  1  0  0  0  0
 22 24  1  0  0  0  0
 22 25  1  0  0  0  0
M  END
> <VM2 Rank>
207

> <Conf_Id>
795

> <Probability>
0.00

> <Sum Probability>
100.00

> <Delta G>
7.955

> <G>
-0.007

> <E>
-26.051

> <-TS>
26.044

> <U+W>
-46.619

> <U>
14.321

> <W>
-60.940

> <W(PB)>
-63.291

> <W(SA)>
2.351

> <Valence>
12.007

> <Coulomb>
1.983

> <VdW>
0.331

> <VdW6>
-12.568

> <VdW12>
12.899

> <Bond>
0.318

> <Angle>
4.087

> <Pdih>
7.600

> <Idih>
0.002

> <Tether>
0.000

$$$$
VeraChem MOL file


 25 24  0  0  0  0  0  0  0  0999 V2000     
   20.3088   19.7405   26.6069 C   0  0  0  0  0  0  0  0  0  0  0  0
   21.1951   20.5405   26.3794 O   0  5  0  0  0  0  0  0  0  0  0  0
   19.2259   20.0481   27.0652 O   0  0  0  0  0  0  0  0  0  0  0  0
   20.5906   18.2634   26.3494 C   0  0  0  0  0  0  0  0  0  0  0  0
   19.8236   17.6664   26.8573 H   0  0  0  0  0  0  0  0  0  0  0  0
   21.5427   18.0318   26.8411 H   0  0  0  0  0  0  0  0  0  0  0  0
   20.6806   17.8602   24.8510 C   0  0  0  0  0  0  0  0  0  0  0  0
   21.4096   18.5009   24.3394 H   0  0  0  0  0  0  0  0  0  0  0  0
   21.0854   16.8404   24.8034 H   0  0  0  0  0  0  0  0  0  0  0  0
   19.3179   17.8689   24.1094 C   0  0  0  0  0  0  0  0  0  0  0  0
   18.5442   17.4872   24.7894 H   0  0  0  0  0  0  0  0  0  0  0  0
   19.3538   17.1544   23.2758 H   0  0  0  0  0  0  0  0  0  0  0  0
   18.8788   19.2550   23.5675 C   0  0  0  0  0  0  0  0  0  0  0  0
   17.7867   19.3273   23.6608 H   0  0  0  0  0  0  0  0  0  0  0  0
   19.2831   20.0648   24.1868 H   0  0  0  0  0  0  0  0  0  0  0  0
   19.2406   19.5058   22.0819 C   0  0  0  0  0  0  0  0  0  0  0  0
   18.8048   20.4673   21.7781 H   0  0  0  0  0  0  0  0  0  0  0  0
   18.7645   18.7398   21.4547 H   0  0  0  0  0  0  0  0  0  0  0  0
   20.7586   19.5328   21.7991 C   0  0  0  0  0  0  0  0  0  0  0  0
   21.2482   20.2488   22.4738 H   0  0  0  0  0  0  0  0  0  0  0  0
   21.1939   18.5457   22.0031 H   0  0  0  0  0  0  0  0  0  0  0  0
   21.0562   19.9190   20.3361 C   0  0  0  0  0  0  0  0  0  0  0  0
   20.5986   19.2034   19.6406 H   0  0  0  0  0  0  0  0  0  0  0  0
   20.6655   20.9189   20.1061 H   0  0  0  0  0  0  0  0  0  0  0  0
   22.1381   19.9273   20.1510 H   0  0  0  0  0  0  0  0  0  0  0  0
  1  2  1  0  0  0  0
  1  3  2  0  0  0  0
  1  4  1  0  0  0  0
  4  5  1  0  0  0  0
  4  6  1  0  0  0  0
  4  7  1  0  0  0  0
  7  8  1  0  0  0  0
  7  9  1  0  0  0  0
  7 10  1  0  0  0  0
 10 11  1  0  0  0  0
 10 12  1  0  0  0  0
 10 13  1  0  0  0  0
 13 14  1  0  0  0  0
 13 15  1  0  0  0  0
 13 16  1  0  0  0  0
 16 17  1  0  0  0  0
 16 18  1  0  0  0  0
 16 19  1  0  0  0  0
 19 20  1  0  0  0  0
 19 21  1  0  0  0  0
 19 22  1  0  0  0  0
 22 23  1  0  0  0  0
 22 24  1  0  0  0  0
 22 25  1  0  0  0  0
M  END
> <VM2 Rank>
208

> <Conf_Id>
497

> <Probability>
0.00

> <Sum Probability>
100.00

> <Delta G>
7.976

> <G>
0.014

> <E>
-25.228

> <-TS>
25.241

> <U+W>
-45.795

> <U>
14.996

> <W>
-60.792

> <W(PB)>
-63.171

> <W(SA)>
2.379

> <Valence>
12.645

> <Coulomb>
1.769

> <VdW>
0.582

> <VdW6>
-11.471

> <VdW12>
12.053

> <Bond>
0.285

> <Angle>
3.668

> <Pdih>
8.689

> <Idih>
0.003

> <Tether>
0.000

$$$$
VeraChem MOL file


 25 24  0  0  0  0  0  0  0  0999 V2000     
   19.8832   19.8948   26.6882 C   0  0  0  0  0  0  0  0  0  0  0  0
   20.0483   19.5080   27.8284 O   0  5  0  0  0  0  0  0  0  0  0  0
   19.0135   20.6782   26.3620 O   0  0  0  0  0  0  0  0  0  0  0  0
   20.8063   19.3511   25.6039 C   0  0  0  0  0  0  0  0  0  0  0  0
   21.7909   19.1758   26.0533 H   0  0  0  0  0  0  0  0  0  0  0  0
   20.9358   20.1342   24.8510 H   0  0  0  0  0  0  0  0  0  0  0  0
   20.2737   18.0418   24.9642 C   0  0  0  0  0  0  0  0  0  0  0  0
   20.2012   17.2861   25.7586 H   0  0  0  0  0  0  0  0  0  0  0  0
   19.2511   18.1851   24.5900 H   0  0  0  0  0  0  0  0  0  0  0  0
   21.1843   17.4902   23.8392 C   0  0  0  0  0  0  0  0  0  0  0  0
   21.1433   16.3933   23.8837 H   0  0  0  0  0  0  0  0  0  0  0  0
   22.2328   17.7541   24.0340 H   0  0  0  0  0  0  0  0  0  0  0  0
   20.7883   17.9054   22.3974 C   0  0  0  0  0  0  0  0  0  0  0  0
   21.4291   17.3375   21.7094 H   0  0  0  0  0  0  0  0  0  0  0  0
   19.7648   17.5734   22.1839 H   0  0  0  0  0  0  0  0  0  0  0  0
   20.9608   19.4105   22.0642 C   0  0  0  0  0  0  0  0  0  0  0  0
   21.2942   19.5048   21.0217 H   0  0  0  0  0  0  0  0  0  0  0  0
   21.7757   19.8282   22.6698 H   0  0  0  0  0  0  0  0  0  0  0  0
   19.6816   20.2672   22.2391 C   0  0  0  0  0  0  0  0  0  0  0  0
   19.2451   20.1148   23.2338 H   0  0  0  0  0  0  0  0  0  0  0  0
   19.9608   21.3283   22.1860 H   0  0  0  0  0  0  0  0  0  0  0  0
   18.6131   19.9867   21.1594 C   0  0  0  0  0  0  0  0  0  0  0  0
   17.7569   20.6622   21.2835 H   0  0  0  0  0  0  0  0  0  0  0  0
   19.0216   20.1422   20.1524 H   0  0  0  0  0  0  0  0  0  0  0  0
   18.2366   18.9585   21.2216 H   0  0  0  0  0  0  0  0  0  0  0  0
  1  2  1  0  0  0  0
  1  3  2  0  0  0  0
  1  4  1  0  0  0  0
  4  5  1  0  0  0  0
  4  6  1  0  0  0  0
  4  7  1  0  0  0  0
  7  8  1  0  0  0  0
  7  9  1  0  0  0  0
  7 10  1  0  0  0  0
 10 11  1  0  0  0  0
 10 12  1  0  0  0  0
 10 13  1  0  0  0  0
 13 14  1  0  0  0  0
 13 15  1  0  0  0  0
 13 16  1  0  0  0  0
 16 17  1  0  0  0  0
 16 18  1  0  0  0  0
 16 19  1  0  0  0  0
 19 20  1  0  0  0  0
 19 21  1  0  0  0  0
 19 22  1  0  0  0  0
 22 23  1  0  0  0  0
 22 24  1  0  0  0  0
 22 25  1  0  0  0  0
M  END
> <VM2 Rank>
209

> <Conf_Id>
1080

> <Probability>
0.00

> <Sum Probability>
100.00

> <Delta G>
8.271

> <G>
0.309

> <E>
-25.090

> <-TS>
25.399

> <U+W>
-45.658

> <U>
14.721

> <W>
-60.379

> <W(PB)>
-62.728

> <W(SA)>
2.349

> <Valence>
13.814

> <Coulomb>
0.250

> <VdW>
0.657

> <VdW6>
-11.450

> <VdW12>
12.108

> <Bond>
0.297

> <Angle>
3.965

> <Pdih>
9.552

> <Idih>
0.001

> <Tether>
0.000

$$$$
VeraChem MOL file


 25 24  0  0  0  0  0  0  0  0999 V2000     
   19.8825   19.8490   26.5631 C   0  0  0  0  0  0  0  0  0  0  0  0
   20.4720   19.8002   27.6250 O   0  5  0  0  0  0  0  0  0  0  0  0
   18.6727   19.7889   26.4630 O   0  0  0  0  0  0  0  0  0  0  0  0
   20.7076   20.0187   25.2904 C   0  0  0  0  0  0  0  0  0  0  0  0
   21.4237   20.8280   25.4741 H   0  0  0  0  0  0  0  0  0  0  0  0
   20.0421   20.3650   24.4940 H   0  0  0  0  0  0  0  0  0  0  0  0
   21.4777   18.7384   24.8621 C   0  0  0  0  0  0  0  0  0  0  0  0
   22.1996   18.9786   24.0707 H   0  0  0  0  0  0  0  0  0  0  0  0
   22.0765   18.4037   25.7205 H   0  0  0  0  0  0  0  0  0  0  0  0
   20.5688   17.5680   24.4062 C   0  0  0  0  0  0  0  0  0  0  0  0
   19.6161   17.5858   24.9527 H   0  0  0  0  0  0  0  0  0  0  0  0
   21.0592   16.6308   24.7028 H   0  0  0  0  0  0  0  0  0  0  0  0
   20.3018   17.4816   22.8801 C   0  0  0  0  0  0  0  0  0  0  0  0
   21.2513   17.3895   22.3354 H   0  0  0  0  0  0  0  0  0  0  0  0
   19.7653   16.5405   22.6974 H   0  0  0  0  0  0  0  0  0  0  0  0
   19.4510   18.6315   22.2862 C   0  0  0  0  0  0  0  0  0  0  0  0
   18.7759   19.0358   23.0524 H   0  0  0  0  0  0  0  0  0  0  0  0
   18.8028   18.2155   21.5029 H   0  0  0  0  0  0  0  0  0  0  0  0
   20.3015   19.7570   21.6532 C   0  0  0  0  0  0  0  0  0  0  0  0
   21.0115   20.1615   22.3840 H   0  0  0  0  0  0  0  0  0  0  0  0
   20.9011   19.3445   20.8302 H   0  0  0  0  0  0  0  0  0  0  0  0
   19.4174   20.9007   21.1168 C   0  0  0  0  0  0  0  0  0  0  0  0
   20.0349   21.6872   20.6640 H   0  0  0  0  0  0  0  0  0  0  0  0
   18.7209   20.5335   20.3518 H   0  0  0  0  0  0  0  0  0  0  0  0
   18.8303   21.3543   21.9260 H   0  0  0  0  0  0  0  0  0  0  0  0
  1  2  1  0  0  0  0
  1  3  2  0  0  0  0
  1  4  1  0  0  0  0
  4  5  1  0  0  0  0
  4  6  1  0  0  0  0
  4  7  1  0  0  0  0
  7  8  1  0  0  0  0
  7  9  1  0  0  0  0
  7 10  1  0  0  0  0
 10 11  1  0  0  0  0
 10 12  1  0  0  0  0
 10 13  1  0  0  0  0
 13 14  1  0  0  0  0
 13 15  1  0  0  0  0
 13 16  1  0  0  0  0
 16 17  1  0  0  0  0
 16 18  1  0  0  0  0
 16 19  1  0  0  0  0
 19 20  1  0  0  0  0
 19 21  1  0  0  0  0
 19 22  1  0  0  0  0
 22 23  1  0  0  0  0
 22 24  1  0  0  0  0
 22 25  1  0  0  0  0
M  END
> <VM2 Rank>
210

> <Conf_Id>
816

> <Probability>
0.00

> <Sum Probability>
100.00

> <Delta G>
8.589

> <G>
0.627

> <E>
-25.038

> <-TS>
25.665

> <U+W>
-45.606

> <U>
15.110

> <W>
-60.715

> <W(PB)>
-63.079

> <W(SA)>
2.364

> <Valence>
13.452

> <Coulomb>
1.187

> <VdW>
0.471

> <VdW6>
-11.724

> <VdW12>
12.194

> <Bond>
0.286

> <Angle>
3.937

> <Pdih>
9.228

> <Idih>
0.001

> <Tether>
0.000

$$$$
VeraChem MOL file


 25 24  0  0  0  0  0  0  0  0999 V2000     
   20.5497   19.9041   26.0258 C   0  0  0  0  0  0  0  0  0  0  0  0
   21.5576   20.4175   25.5814 O   0  5  0  0  0  0  0  0  0  0  0  0
   19.6015   20.5435   26.4389 O   0  0  0  0  0  0  0  0  0  0  0  0
   20.5352   18.3830   26.1855 C   0  0  0  0  0  0  0  0  0  0  0  0
   20.7464   18.1883   27.2432 H   0  0  0  0  0  0  0  0  0  0  0  0
   21.3703   17.9567   25.6169 H   0  0  0  0  0  0  0  0  0  0  0  0
   19.2053   17.6741   25.8002 C   0  0  0  0  0  0  0  0  0  0  0  0
   19.1655   16.7169   26.3374 H   0  0  0  0  0  0  0  0  0  0  0  0
   18.3494   18.2569   26.1678 H   0  0  0  0  0  0  0  0  0  0  0  0
   19.0269   17.3691   24.2907 C   0  0  0  0  0  0  0  0  0  0  0  0
   18.0974   16.7942   24.1784 H   0  0  0  0  0  0  0  0  0  0  0  0
   19.8295   16.7037   23.9444 H   0  0  0  0  0  0  0  0  0  0  0  0
   18.9305   18.6173   23.3789 C   0  0  0  0  0  0  0  0  0  0  0  0
   18.1472   18.4448   22.6282 H   0  0  0  0  0  0  0  0  0  0  0  0
   18.6056   19.4897   23.9623 H   0  0  0  0  0  0  0  0  0  0  0  0
   20.2514   18.9244   22.6366 C   0  0  0  0  0  0  0  0  0  0  0  0
   20.5149   18.0739   21.9934 H   0  0  0  0  0  0  0  0  0  0  0  0
   21.0706   19.0400   23.3569 H   0  0  0  0  0  0  0  0  0  0  0  0
   20.1406   20.2026   21.7797 C   0  0  0  0  0  0  0  0  0  0  0  0
   19.3208   20.0954   21.0561 H   0  0  0  0  0  0  0  0  0  0  0  0
   19.8898   21.0562   22.4250 H   0  0  0  0  0  0  0  0  0  0  0  0
   21.4542   20.4983   21.0283 C   0  0  0  0  0  0  0  0  0  0  0  0
   21.3588   21.4112   20.4263 H   0  0  0  0  0  0  0  0  0  0  0  0
   22.2837   20.6420   21.7334 H   0  0  0  0  0  0  0  0  0  0  0  0
   21.7159   19.6724   20.3540 H   0  0  0  0  0  0  0  0  0  0  0  0
  1  2  1  0  0  0  0
  1  3  2  0  0  0  0
  1  4  1  0  0  0  0
  4  5  1  0  0  0  0
  4  6  1  0  0  0  0
  4  7  1  0  0  0  0
  7  8  1  0  0  0  0
  7  9  1  0  0  0  0
  7 10  1  0  0  0  0
 10 11  1  0  0  0  0
 10 12  1  0  0  0  0
 10 13  1  0  0  0  0
 13 14  1  0  0  0  0
 13 15  1  0  0  0  0
 13 16  1  0  0  0  0
 16 17  1  0  0  0  0
 16 18  1  0  0  0  0
 16 19  1  0  0  0  0
 19 20  1  0  0  0  0
 19 21  1  0  0  0  0
 19 22  1  0  0  0  0
 22 23  1  0  0  0  0
 22 24  1  0  0  0  0
 22 25  1  0  0  0  0
M  END
> <VM2 Rank>
211

> <Conf_Id>
805

> <Probability>
0.00

> <Sum Probability>
100.00

> <Delta G>
8.700

> <G>
0.737

> <E>
-24.793

> <-TS>
25.530

> <U+W>
-45.360

> <U>
15.897

> <W>
-61.258

> <W(PB)>
-63.625

> <W(SA)>
2.368

> <Valence>
12.566

> <Coulomb>
3.123

> <VdW>
0.208

> <VdW6>
-11.860

> <VdW12>
12.068

> <Bond>
0.250

> <Angle>
3.828

> <Pdih>
8.467

> <Idih>
0.021

> <Tether>
0.000

$$$$
VeraChem MOL file


 25 24  0  0  0  0  0  0  0  0999 V2000     
   19.4069   18.9841   26.0302 C   0  0  0  0  0  0  0  0  0  0  0  0
   18.6882   18.1074   25.5925 O   0  5  0  0  0  0  0  0  0  0  0  0
   18.9867   20.0487   26.4409 O   0  0  0  0  0  0  0  0  0  0  0  0
   20.8969   18.6741   26.1841 C   0  0  0  0  0  0  0  0  0  0  0  0
   21.1324   17.7651   25.6178 H   0  0  0  0  0  0  0  0  0  0  0  0
   21.0469   18.4302   27.2420 H   0  0  0  0  0  0  0  0  0  0  0  0
   21.8715   19.8205   25.7900 C   0  0  0  0  0  0  0  0  0  0  0  0
   21.4866   20.7825   26.1558 H   0  0  0  0  0  0  0  0  0  0  0  0
   22.8176   19.6570   26.3234 H   0  0  0  0  0  0  0  0  0  0  0  0
   22.2005   19.9241   24.2785 C   0  0  0  0  0  0  0  0  0  0  0  0
   22.6777   18.9966   23.9334 H   0  0  0  0  0  0  0  0  0  0  0  0
   22.9600   20.7090   24.1598 H   0  0  0  0  0  0  0  0  0  0  0  0
   20.9975   20.2813   23.3710 C   0  0  0  0  0  0  0  0  0  0  0  0
   20.2173   20.7872   23.9561 H   0  0  0  0  0  0  0  0  0  0  0  0
   21.3297   21.0069   22.6161 H   0  0  0  0  0  0  0  0  0  0  0  0
   20.4120   19.0537   22.6361 C   0  0  0  0  0  0  0  0  0  0  0  0
   20.1276   18.2807   23.3605 H   0  0  0  0  0  0  0  0  0  0  0  0
   21.1836   18.6123   21.9908 H   0  0  0  0  0  0  0  0  0  0  0  0
   19.1829   19.4316   21.7835 C   0  0  0  0  0  0  0  0  0  0  0  0
   18.4055   19.8612   22.4308 H   0  0  0  0  0  0  0  0  0  0  0  0
   19.4592   20.2069   21.0557 H   0  0  0  0  0  0  0  0  0  0  0  0
   18.6100   18.2086   21.0393 C   0  0  0  0  0  0  0  0  0  0  0  0
   18.2958   17.4316   21.7488 H   0  0  0  0  0  0  0  0  0  0  0  0
   17.7357   18.4945   20.4403 H   0  0  0  0  0  0  0  0  0  0  0  0
   19.3578   17.7741   20.3631 H   0  0  0  0  0  0  0  0  0  0  0  0
  1  2  1  0  0  0  0
  1  3  2  0  0  0  0
  1  4  1  0  0  0  0
  4  5  1  0  0  0  0
  4  6  1  0  0  0  0
  4  7  1  0  0  0  0
  7  8  1  0  0  0  0
  7  9  1  0  0  0  0
  7 10  1  0  0  0  0
 10 11  1  0  0  0  0
 10 12  1  0  0  0  0
 10 13  1  0  0  0  0
 13 14  1  0  0  0  0
 13 15  1  0  0  0  0
 13 16  1  0  0  0  0
 16 17  1  0  0  0  0
 16 18  1  0  0  0  0
 16 19  1  0  0  0  0
 19 20  1  0  0  0  0
 19 21  1  0  0  0  0
 19 22  1  0  0  0  0
 22 23  1  0  0  0  0
 22 24  1  0  0  0  0
 22 25  1  0  0  0  0
M  END
> <VM2 Rank>
212

> <Conf_Id>
661

> <Probability>
0.00

> <Sum Probability>
100.00

> <Delta G>
8.759

> <G>
0.796

> <E>
-24.735

> <-TS>
25.531

> <U+W>
-45.302

> <U>
15.899

> <W>
-61.201

> <W(PB)>
-63.554

> <W(SA)>
2.353

> <Valence>
12.566

> <Coulomb>
3.124

> <VdW>
0.208

> <VdW6>
-11.861

> <VdW12>
12.069

> <Bond>
0.251

> <Angle>
3.828

> <Pdih>
8.466

> <Idih>
0.022

> <Tether>
0.000

$$$$
VeraChem MOL file


 25 24  0  0  0  0  0  0  0  0999 V2000     
   20.6055   19.7109   26.3111 C   0  0  0  0  0  0  0  0  0  0  0  0
   21.6105   20.2842   25.9394 O   0  5  0  0  0  0  0  0  0  0  0  0
   19.7413   20.2447   26.9794 O   0  0  0  0  0  0  0  0  0  0  0  0
   20.4829   18.2156   26.0159 C   0  0  0  0  0  0  0  0  0  0  0  0
   20.7028   17.7012   26.9583 H   0  0  0  0  0  0  0  0  0  0  0  0
   21.2705   17.9254   25.3101 H   0  0  0  0  0  0  0  0  0  0  0  0
   19.0950   17.7430   25.4966 C   0  0  0  0  0  0  0  0  0  0  0  0
   18.9977   16.6721   25.7203 H   0  0  0  0  0  0  0  0  0  0  0  0
   18.2936   18.2394   26.0613 H   0  0  0  0  0  0  0  0  0  0  0  0
   18.8620   17.9254   23.9749 C   0  0  0  0  0  0  0  0  0  0  0  0
   17.8971   17.4613   23.7293 H   0  0  0  0  0  0  0  0  0  0  0  0
   19.6150   17.3545   23.4171 H   0  0  0  0  0  0  0  0  0  0  0  0
   18.8202   19.3999   23.4961 C   0  0  0  0  0  0  0  0  0  0  0  0
   17.9883   19.5254   22.7899 H   0  0  0  0  0  0  0  0  0  0  0  0
   18.5863   20.0573   24.3444 H   0  0  0  0  0  0  0  0  0  0  0  0
   20.1235   19.8801   22.8116 C   0  0  0  0  0  0  0  0  0  0  0  0
   20.9907   19.6285   23.4348 H   0  0  0  0  0  0  0  0  0  0  0  0
   20.0994   20.9761   22.7440 H   0  0  0  0  0  0  0  0  0  0  0  0
   20.3140   19.2967   21.3925 C   0  0  0  0  0  0  0  0  0  0  0  0
   20.3621   18.2009   21.4340 H   0  0  0  0  0  0  0  0  0  0  0  0
   19.4473   19.5532   20.7681 H   0  0  0  0  0  0  0  0  0  0  0  0
   21.5980   19.8336   20.7285 C   0  0  0  0  0  0  0  0  0  0  0  0
   21.7192   19.4114   19.7225 H   0  0  0  0  0  0  0  0  0  0  0  0
   21.5648   20.9270   20.6358 H   0  0  0  0  0  0  0  0  0  0  0  0
   22.4851   19.5665   21.3178 H   0  0  0  0  0  0  0  0  0  0  0  0
  1  2  1  0  0  0  0
  1  3  2  0  0  0  0
  1  4  1  0  0  0  0
  4  5  1  0  0  0  0
  4  6  1  0  0  0  0
  4  7  1  0  0  0  0
  7  8  1  0  0  0  0
  7  9  1  0  0  0  0
  7 10  1  0  0  0  0
 10 11  1  0  0  0  0
 10 12  1  0  0  0  0
 10 13  1  0  0  0  0
 13 14  1  0  0  0  0
 13 15  1  0  0  0  0
 13 16  1  0  0  0  0
 16 17  1  0  0  0  0
 16 18  1  0  0  0  0
 16 19  1  0  0  0  0
 19 20  1  0  0  0  0
 19 21  1  0  0  0  0
 19 22  1  0  0  0  0
 22 23  1  0  0  0  0
 22 24  1  0  0  0  0
 22 25  1  0  0  0  0
M  END
> <VM2 Rank>
213

> <Conf_Id>
1321

> <Probability>
0.00

> <Sum Probability>
100.00

> <Delta G>
8.875

> <G>
0.913

> <E>
-24.675

> <-TS>
25.588

> <U+W>
-45.243

> <U>
15.873

> <W>
-61.116

> <W(PB)>
-63.490

> <W(SA)>
2.374

> <Valence>
13.259

> <Coulomb>
2.064

> <VdW>
0.550

> <VdW6>
-12.090

> <VdW12>
12.639

> <Bond>
0.288

> <Angle>
3.907

> <Pdih>
9.048

> <Idih>
0.017

> <Tether>
0.000

$$$$
VeraChem MOL file


 25 24  0  0  0  0  0  0  0  0999 V2000     
   19.5811   19.1013   26.3001 C   0  0  0  0  0  0  0  0  0  0  0  0
   19.8999   18.1024   26.9156 O   0  5  0  0  0  0  0  0  0  0  0  0
   18.4455   19.3267   25.9311 O   0  0  0  0  0  0  0  0  0  0  0  0
   20.6490   20.1621   26.0389 C   0  0  0  0  0  0  0  0  0  0  0  0
   20.9439   20.5640   27.0150 H   0  0  0  0  0  0  0  0  0  0  0  0
   20.2004   20.9959   25.4897 H   0  0  0  0  0  0  0  0  0  0  0  0
   21.9128   19.6426   25.3020 C   0  0  0  0  0  0  0  0  0  0  0  0
   22.6330   20.4653   25.1995 H   0  0  0  0  0  0  0  0  0  0  0  0
   22.3994   18.8929   25.9412 H   0  0  0  0  0  0  0  0  0  0  0  0
   21.6618   19.0063   23.9104 C   0  0  0  0  0  0  0  0  0  0  0  0
   20.9762   18.1552   23.9995 H   0  0  0  0  0  0  0  0  0  0  0  0
   22.6155   18.5731   23.5797 H   0  0  0  0  0  0  0  0  0  0  0  0
   21.1945   19.9949   22.8078 C   0  0  0  0  0  0  0  0  0  0  0  0
   21.6440   20.9803   22.9897 H   0  0  0  0  0  0  0  0  0  0  0  0
   21.6092   19.6636   21.8470 H   0  0  0  0  0  0  0  0  0  0  0  0
   19.6587   20.1578   22.6427 C   0  0  0  0  0  0  0  0  0  0  0  0
   19.4755   20.8972   21.8515 H   0  0  0  0  0  0  0  0  0  0  0  0
   19.2267   20.5886   23.5525 H   0  0  0  0  0  0  0  0  0  0  0  0
   18.8783   18.8655   22.2936 C   0  0  0  0  0  0  0  0  0  0  0  0
   18.9177   18.1596   23.1335 H   0  0  0  0  0  0  0  0  0  0  0  0
   17.8174   19.1239   22.1726 H   0  0  0  0  0  0  0  0  0  0  0  0
   19.3714   18.1744   21.0038 C   0  0  0  0  0  0  0  0  0  0  0  0
   20.3907   17.7866   21.1252 H   0  0  0  0  0  0  0  0  0  0  0  0
   18.7216   17.3271   20.7497 H   0  0  0  0  0  0  0  0  0  0  0  0
   19.3653   18.8726   20.1568 H   0  0  0  0  0  0  0  0  0  0  0  0
  1  2  1  0  0  0  0
  1  3  2  0  0  0  0
  1  4  1  0  0  0  0
  4  5  1  0  0  0  0
  4  6  1  0  0  0  0
  4  7  1  0  0  0  0
  7  8  1  0  0  0  0
  7  9  1  0  0  0  0
  7 10  1  0  0  0  0
 10 11  1  0  0  0  0
 10 12  1  0  0  0  0
 10 13  1  0  0  0  0
 13 14  1  0  0  0  0
 13 15  1  0  0  0  0
 13 16  1  0  0  0  0
 16 17  1  0  0  0  0
 16 18  1  0  0  0  0
 16 19  1  0  0  0  0
 19 20  1  0  0  0  0
 19 21  1  0  0  0  0
 19 22  1  0  0  0  0
 22 23  1  0  0  0  0
 22 24  1  0  0  0  0
 22 25  1  0  0  0  0
M  END
> <VM2 Rank>
214

> <Conf_Id>
556

> <Probability>
0.00

> <Sum Probability>
100.00

> <Delta G>
9.028

> <G>
1.066

> <E>
-24.547

> <-TS>
25.613

> <U+W>
-45.114

> <U>
15.840

> <W>
-60.954

> <W(PB)>
-63.258

> <W(SA)>
2.304

> <Valence>
12.341

> <Coulomb>
3.290

> <VdW>
0.209

> <VdW6>
-12.905

> <VdW12>
13.114

> <Bond>
0.344

> <Angle>
4.718

> <Pdih>
7.272

> <Idih>
0.007

> <Tether>
0.000

$$$$
VeraChem MOL file


 25 24  0  0  0  0  0  0  0  0999 V2000     
   19.9708   19.8325   26.5372 C   0  0  0  0  0  0  0  0  0  0  0  0
   21.0746   20.2285   26.8566 O   0  5  0  0  0  0  0  0  0  0  0  0
   18.9950   20.5522   26.4548 O   0  0  0  0  0  0  0  0  0  0  0  0
   19.7891   18.3423   26.2621 C   0  0  0  0  0  0  0  0  0  0  0  0
   18.8558   18.0309   26.7459 H   0  0  0  0  0  0  0  0  0  0  0  0
   20.6007   17.7939   26.7554 H   0  0  0  0  0  0  0  0  0  0  0  0
   19.7356   17.9814   24.7549 C   0  0  0  0  0  0  0  0  0  0  0  0
   19.4541   16.9247   24.6538 H   0  0  0  0  0  0  0  0  0  0  0  0
   18.9392   18.5621   24.2744 H   0  0  0  0  0  0  0  0  0  0  0  0
   21.0892   18.2146   24.0404 C   0  0  0  0  0  0  0  0  0  0  0  0
   21.8475   17.5973   24.5409 H   0  0  0  0  0  0  0  0  0  0  0  0
   21.4212   19.2546   24.1598 H   0  0  0  0  0  0  0  0  0  0  0  0
   21.0635   17.8349   22.5388 C   0  0  0  0  0  0  0  0  0  0  0  0
   22.0438   17.4089   22.2855 H   0  0  0  0  0  0  0  0  0  0  0  0
   20.3380   17.0293   22.3617 H   0  0  0  0  0  0  0  0  0  0  0  0
   20.8062   19.0078   21.5560 C   0  0  0  0  0  0  0  0  0  0  0  0
   20.9477   18.6163   20.5394 H   0  0  0  0  0  0  0  0  0  0  0  0
   21.5758   19.7813   21.6835 H   0  0  0  0  0  0  0  0  0  0  0  0
   19.3950   19.6413   21.6246 C   0  0  0  0  0  0  0  0  0  0  0  0
   19.0952   19.9369   20.6097 H   0  0  0  0  0  0  0  0  0  0  0  0
   18.6575   18.8966   21.9522 H   0  0  0  0  0  0  0  0  0  0  0  0
   19.3340   20.8985   22.5205 C   0  0  0  0  0  0  0  0  0  0  0  0
   20.0097   21.6782   22.1461 H   0  0  0  0  0  0  0  0  0  0  0  0
   18.3176   21.3123   22.5338 H   0  0  0  0  0  0  0  0  0  0  0  0
   19.6167   20.6771   23.5561 H   0  0  0  0  0  0  0  0  0  0  0  0
  1  2  1  0  0  0  0
  1  3  2  0  0  0  0
  1  4  1  0  0  0  0
  4  5  1  0  0  0  0
  4  6  1  0  0  0  0
  4  7  1  0  0  0  0
  7  8  1  0  0  0  0
  7  9  1  0  0  0  0
  7 10  1  0  0  0  0
 10 11  1  0  0  0  0
 10 12  1  0  0  0  0
 10 13  1  0  0  0  0
 13 14  1  0  0  0  0
 13 15  1  0  0  0  0
 13 16  1  0  0  0  0
 16 17  1  0  0  0  0
 16 18  1  0  0  0  0
 16 19  1  0  0  0  0
 19 20  1  0  0  0  0
 19 21  1  0  0  0  0
 19 22  1  0  0  0  0
 22 23  1  0  0  0  0
 22 24  1  0  0  0  0
 22 25  1  0  0  0  0
M  END
> <VM2 Rank>
215

> <Conf_Id>
750

> <Probability>
0.00

> <Sum Probability>
100.00

> <Delta G>
9.364

> <G>
1.402

> <E>
-24.454

> <-TS>
25.856

> <U+W>
-45.022

> <U>
16.130

> <W>
-61.151

> <W(PB)>
-63.489

> <W(SA)>
2.338

> <Valence>
13.421

> <Coulomb>
2.540

> <VdW>
0.169

> <VdW6>
-12.055

> <VdW12>
12.224

> <Bond>
0.261

> <Angle>
3.880

> <Pdih>
9.278

> <Idih>
0.002

> <Tether>
0.000

$$$$
VeraChem MOL file


 25 24  0  0  0  0  0  0  0  0999 V2000     
   20.2515   19.9761   26.0898 C   0  0  0  0  0  0  0  0  0  0  0  0
   21.2412   20.6411   25.8540 O   0  5  0  0  0  0  0  0  0  0  0  0
   19.1479   20.4543   26.2660 O   0  0  0  0  0  0  0  0  0  0  0  0
   20.4353   18.4781   26.3202 C   0  0  0  0  0  0  0  0  0  0  0  0
   19.5339   18.0790   26.8003 H   0  0  0  0  0  0  0  0  0  0  0  0
   21.2468   18.3770   27.0503 H   0  0  0  0  0  0  0  0  0  0  0  0
   20.7913   17.6452   25.0560 C   0  0  0  0  0  0  0  0  0  0  0  0
   21.5327   18.1701   24.4426 H   0  0  0  0  0  0  0  0  0  0  0  0
   21.2932   16.7297   25.3970 H   0  0  0  0  0  0  0  0  0  0  0  0
   19.5718   17.2069   24.2060 C   0  0  0  0  0  0  0  0  0  0  0  0
   18.8549   16.7005   24.8665 H   0  0  0  0  0  0  0  0  0  0  0  0
   19.8997   16.4424   23.4886 H   0  0  0  0  0  0  0  0  0  0  0  0
   18.8217   18.3209   23.4303 C   0  0  0  0  0  0  0  0  0  0  0  0
   17.8885   17.8760   23.0591 H   0  0  0  0  0  0  0  0  0  0  0  0
   18.5069   19.1283   24.1023 H   0  0  0  0  0  0  0  0  0  0  0  0
   19.5797   18.8894   22.2026 C   0  0  0  0  0  0  0  0  0  0  0  0
   18.8392   19.1309   21.4280 H   0  0  0  0  0  0  0  0  0  0  0  0
   20.2330   18.1199   21.7695 H   0  0  0  0  0  0  0  0  0  0  0  0
   20.3893   20.1712   22.5010 C   0  0  0  0  0  0  0  0  0  0  0  0
   19.7340   20.9261   22.9576 H   0  0  0  0  0  0  0  0  0  0  0  0
   21.1823   19.9651   23.2281 H   0  0  0  0  0  0  0  0  0  0  0  0
   21.0233   20.7508   21.2201 C   0  0  0  0  0  0  0  0  0  0  0  0
   20.2528   21.0132   20.4834 H   0  0  0  0  0  0  0  0  0  0  0  0
   21.5956   21.6589   21.4500 H   0  0  0  0  0  0  0  0  0  0  0  0
   21.7073   20.0265   20.7589 H   0  0  0  0  0  0  0  0  0  0  0  0
  1  2  1  0  0  0  0
  1  3  2  0  0  0  0
  1  4  1  0  0  0  0
  4  5  1  0  0  0  0
  4  6  1  0  0  0  0
  4  7  1  0  0  0  0
  7  8  1  0  0  0  0
  7  9  1  0  0  0  0
  7 10  1  0  0  0  0
 10 11  1  0  0  0  0
 10 12  1  0  0  0  0
 10 13  1  0  0  0  0
 13 14  1  0  0  0  0
 13 15  1  0  0  0  0
 13 16  1  0  0  0  0
 16 17  1  0  0  0  0
 16 18  1  0  0  0  0
 16 19  1  0  0  0  0
 19 20  1  0  0  0  0
 19 21  1  0  0  0  0
 19 22  1  0  0  0  0
 22 23  1  0  0  0  0
 22 24  1  0  0  0  0
 22 25  1  0  0  0  0
M  END
> <VM2 Rank>
216

> <Conf_Id>
232

> <Probability>
0.00

> <Sum Probability>
100.00

> <Delta G>
9.431

> <G>
1.469

> <E>
-24.052

> <-TS>
25.521

> <U+W>
-44.620

> <U>
16.564

> <W>
-61.184

> <W(PB)>
-63.523

> <W(SA)>
2.339

> <Valence>
13.506

> <Coulomb>
3.140

> <VdW>
-0.081

> <VdW6>
-12.474

> <VdW12>
12.394

> <Bond>
0.291

> <Angle>
4.744

> <Pdih>
8.442

> <Idih>
0.029

> <Tether>
0.000

$$$$
VeraChem MOL file


 25 24  0  0  0  0  0  0  0  0999 V2000     
   19.9767   19.9533   26.1351 C   0  0  0  0  0  0  0  0  0  0  0  0
   19.0548   20.6964   25.8612 O   0  5  0  0  0  0  0  0  0  0  0  0
   21.0988   20.3471   26.3891 O   0  0  0  0  0  0  0  0  0  0  0  0
   19.6715   18.4625   26.2885 C   0  0  0  0  0  0  0  0  0  0  0  0
   18.6692   18.2602   25.8923 H   0  0  0  0  0  0  0  0  0  0  0  0
   19.6246   18.2727   27.3669 H   0  0  0  0  0  0  0  0  0  0  0  0
   20.7073   17.4919   25.6525 C   0  0  0  0  0  0  0  0  0  0  0  0
   21.7270   17.8466   25.8567 H   0  0  0  0  0  0  0  0  0  0  0  0
   20.6211   16.5239   26.1643 H   0  0  0  0  0  0  0  0  0  0  0  0
   20.5333   17.2337   24.1335 C   0  0  0  0  0  0  0  0  0  0  0  0
   19.5481   16.7885   23.9377 H   0  0  0  0  0  0  0  0  0  0  0  0
   21.2663   16.4686   23.8433 H   0  0  0  0  0  0  0  0  0  0  0  0
   20.7530   18.4735   23.2317 C   0  0  0  0  0  0  0  0  0  0  0  0
   21.3711   19.2171   23.7529 H   0  0  0  0  0  0  0  0  0  0  0  0
   21.3281   18.1625   22.3498 H   0  0  0  0  0  0  0  0  0  0  0  0
   19.4259   19.1116   22.7542 C   0  0  0  0  0  0  0  0  0  0  0  0
   18.7713   19.2873   23.6166 H   0  0  0  0  0  0  0  0  0  0  0  0
   18.8919   18.4064   22.1031 H   0  0  0  0  0  0  0  0  0  0  0  0
   19.6242   20.4531   22.0117 C   0  0  0  0  0  0  0  0  0  0  0  0
   18.6376   20.8859   21.7964 H   0  0  0  0  0  0  0  0  0  0  0  0
   20.1371   21.1659   22.6726 H   0  0  0  0  0  0  0  0  0  0  0  0
   20.4077   20.3110   20.6886 C   0  0  0  0  0  0  0  0  0  0  0  0
   19.9278   19.5804   20.0245 H   0  0  0  0  0  0  0  0  0  0  0  0
   20.4477   21.2727   20.1610 H   0  0  0  0  0  0  0  0  0  0  0  0
   21.4405   19.9873   20.8685 H   0  0  0  0  0  0  0  0  0  0  0  0
  1  2  1  0  0  0  0
  1  3  2  0  0  0  0
  1  4  1  0  0  0  0
  4  5  1  0  0  0  0
  4  6  1  0  0  0  0
  4  7  1  0  0  0  0
  7  8  1  0  0  0  0
  7  9  1  0  0  0  0
  7 10  1  0  0  0  0
 10 11  1  0  0  0  0
 10 12  1  0  0  0  0
 10 13  1  0  0  0  0
 13 14  1  0  0  0  0
 13 15  1  0  0  0  0
 13 16  1  0  0  0  0
 16 17  1  0  0  0  0
 16 18  1  0  0  0  0
 16 19  1  0  0  0  0
 19 20  1  0  0  0  0
 19 21  1  0  0  0  0
 19 22  1  0  0  0  0
 22 23  1  0  0  0  0
 22 24  1  0  0  0  0
 22 25  1  0  0  0  0
M  END
> <VM2 Rank>
217

> <Conf_Id>
1264

> <Probability>
0.00

> <Sum Probability>
100.00

> <Delta G>
9.545

> <G>
1.583

> <E>
-24.137

> <-TS>
25.720

> <U+W>
-44.705

> <U>
16.285

> <W>
-60.990

> <W(PB)>
-63.345

> <W(SA)>
2.355

> <Valence>
13.053

> <Coulomb>
2.894

> <VdW>
0.338

> <VdW6>
-12.523

> <VdW12>
12.861

> <Bond>
0.282

> <Angle>
4.009

> <Pdih>
8.740

> <Idih>
0.022

> <Tether>
0.000

$$$$
VeraChem MOL file


 25 24  0  0  0  0  0  0  0  0999 V2000     
   20.3479   19.9344   26.1345 C   0  0  0  0  0  0  0  0  0  0  0  0
   21.3405   20.5793   25.8590 O   0  5  0  0  0  0  0  0  0  0  0  0
   19.2725   20.4408   26.3906 O   0  0  0  0  0  0  0  0  0  0  0  0
   20.4995   18.4201   26.2877 C   0  0  0  0  0  0  0  0  0  0  0  0
   20.5285   18.2267   27.3661 H   0  0  0  0  0  0  0  0  0  0  0  0
   21.4751   18.1164   25.8899 H   0  0  0  0  0  0  0  0  0  0  0  0
   19.3688   17.5605   25.6537 C   0  0  0  0  0  0  0  0  0  0  0  0
   19.3564   16.5888   26.1656 H   0  0  0  0  0  0  0  0  0  0  0  0
   18.3910   18.0175   25.8597 H   0  0  0  0  0  0  0  0  0  0  0  0
   19.5127   17.2858   24.1345 C   0  0  0  0  0  0  0  0  0  0  0  0
   18.7048   16.5996   23.8457 H   0  0  0  0  0  0  0  0  0  0  0  0
   20.4468   16.7423   23.9370 H   0  0  0  0  0  0  0  0  0  0  0  0
   19.4192   18.5416   23.2328 C   0  0  0  0  0  0  0  0  0  0  0  0
   18.8138   18.2911   22.3521 H   0  0  0  0  0  0  0  0  0  0  0  0
   18.8812   19.3444   23.7551 H   0  0  0  0  0  0  0  0  0  0  0  0
   20.8037   19.0409   22.7530 C   0  0  0  0  0  0  0  0  0  0  0  0
   21.2616   18.2850   22.1008 H   0  0  0  0  0  0  0  0  0  0  0  0
   21.4744   19.1485   23.6141 H   0  0  0  0  0  0  0  0  0  0  0  0
   20.7423   20.3958   22.0110 C   0  0  0  0  0  0  0  0  0  0  0  0
   20.3061   21.1571   22.6729 H   0  0  0  0  0  0  0  0  0  0  0  0
   21.7675   20.7256   21.7939 H   0  0  0  0  0  0  0  0  0  0  0  0
   19.9459   20.3349   20.6893 C   0  0  0  0  0  0  0  0  0  0  0  0
   18.8858   20.1183   20.8711 H   0  0  0  0  0  0  0  0  0  0  0  0
   20.0032   21.2959   20.1620 H   0  0  0  0  0  0  0  0  0  0  0  0
   20.3475   19.5594   20.0242 H   0  0  0  0  0  0  0  0  0  0  0  0
  1  2  1  0  0  0  0
  1  3  2  0  0  0  0
  1  4  1  0  0  0  0
  4  5  1  0  0  0  0
  4  6  1  0  0  0  0
  4  7  1  0  0  0  0
  7  8  1  0  0  0  0
  7  9  1  0  0  0  0
  7 10  1  0  0  0  0
 10 11  1  0  0  0  0
 10 12  1  0  0  0  0
 10 13  1  0  0  0  0
 13 14  1  0  0  0  0
 13 15  1  0  0  0  0
 13 16  1  0  0  0  0
 16 17  1  0  0  0  0
 16 18  1  0  0  0  0
 16 19  1  0  0  0  0
 19 20  1  0  0  0  0
 19 21  1  0  0  0  0
 19 22  1  0  0  0  0
 22 23  1  0  0  0  0
 22 24  1  0  0  0  0
 22 25  1  0  0  0  0
M  END
> <VM2 Rank>
218

> <Conf_Id>
562

> <Probability>
0.00

> <Sum Probability>
100.00

> <Delta G>
9.574

> <G>
1.612

> <E>
-24.109

> <-TS>
25.721

> <U+W>
-44.676

> <U>
16.285

> <W>
-60.961

> <W(PB)>
-63.329

> <W(SA)>
2.368

> <Valence>
13.053

> <Coulomb>
2.894

> <VdW>
0.338

> <VdW6>
-12.523

> <VdW12>
12.861

> <Bond>
0.282

> <Angle>
4.009

> <Pdih>
8.740

> <Idih>
0.021

> <Tether>
0.000

$$$$
VeraChem MOL file


 25 24  0  0  0  0  0  0  0  0999 V2000     
   19.6681   19.1251   26.4758 C   0  0  0  0  0  0  0  0  0  0  0  0
   20.2545   18.2122   27.0246 O   0  5  0  0  0  0  0  0  0  0  0  0
   18.4624   19.1476   26.3243 O   0  0  0  0  0  0  0  0  0  0  0  0
   20.4669   20.3583   26.0526 C   0  0  0  0  0  0  0  0  0  0  0  0
   20.7157   20.8906   26.9777 H   0  0  0  0  0  0  0  0  0  0  0  0
   19.8154   21.0241   25.4739 H   0  0  0  0  0  0  0  0  0  0  0  0
   21.7790   20.0740   25.2671 C   0  0  0  0  0  0  0  0  0  0  0  0
   22.4440   20.9385   25.3967 H   0  0  0  0  0  0  0  0  0  0  0  0
   22.3082   19.2212   25.7143 H   0  0  0  0  0  0  0  0  0  0  0  0
   21.5998   19.8473   23.7441 C   0  0  0  0  0  0  0  0  0  0  0  0
   22.6013   19.7648   23.3006 H   0  0  0  0  0  0  0  0  0  0  0  0
   21.1502   20.7394   23.2914 H   0  0  0  0  0  0  0  0  0  0  0  0
   20.8027   18.5716   23.3660 C   0  0  0  0  0  0  0  0  0  0  0  0
   21.3266   18.0461   22.5580 H   0  0  0  0  0  0  0  0  0  0  0  0
   20.8093   17.8708   24.2116 H   0  0  0  0  0  0  0  0  0  0  0  0
   19.3367   18.8379   22.9343 C   0  0  0  0  0  0  0  0  0  0  0  0
   18.8274   19.4148   23.7160 H   0  0  0  0  0  0  0  0  0  0  0  0
   18.8073   17.8772   22.8780 H   0  0  0  0  0  0  0  0  0  0  0  0
   19.1687   19.5767   21.5822 C   0  0  0  0  0  0  0  0  0  0  0  0
   18.0984   19.7655   21.4218 H   0  0  0  0  0  0  0  0  0  0  0  0
   19.6475   20.5634   21.6206 H   0  0  0  0  0  0  0  0  0  0  0  0
   19.7143   18.7834   20.3749 C   0  0  0  0  0  0  0  0  0  0  0  0
   19.2760   17.7778   20.3343 H   0  0  0  0  0  0  0  0  0  0  0  0
   19.4694   19.2971   19.4363 H   0  0  0  0  0  0  0  0  0  0  0  0
   20.8057   18.6833   20.4221 H   0  0  0  0  0  0  0  0  0  0  0  0
  1  2  1  0  0  0  0
  1  3  2  0  0  0  0
  1  4  1  0  0  0  0
  4  5  1  0  0  0  0
  4  6  1  0  0  0  0
  4  7  1  0  0  0  0
  7  8  1  0  0  0  0
  7  9  1  0  0  0  0
  7 10  1  0  0  0  0
 10 11  1  0  0  0  0
 10 12  1  0  0  0  0
 10 13  1  0  0  0  0
 13 14  1  0  0  0  0
 13 15  1  0  0  0  0
 13 16  1  0  0  0  0
 16 17  1  0  0  0  0
 16 18  1  0  0  0  0
 16 19  1  0  0  0  0
 19 20  1  0  0  0  0
 19 21  1  0  0  0  0
 19 22  1  0  0  0  0
 22 23  1  0  0  0  0
 22 24  1  0  0  0  0
 22 25  1  0  0  0  0
M  END
> <VM2 Rank>
219

> <Conf_Id>
1097

> <Probability>
0.00

> <Sum Probability>
100.00

> <Delta G>
9.638

> <G>
1.676

> <E>
-23.846

> <-TS>
25.522

> <U+W>
-44.413

> <U>
16.438

> <W>
-60.852

> <W(PB)>
-63.192

> <W(SA)>
2.340

> <Valence>
13.852

> <Coulomb>
1.849

> <VdW>
0.737

> <VdW6>
-12.634

> <VdW12>
13.371

> <Bond>
0.340

> <Angle>
4.371

> <Pdih>
9.124

> <Idih>
0.017

> <Tether>
0.000

$$$$
VeraChem MOL file


 25 24  0  0  0  0  0  0  0  0999 V2000     
   20.4528   18.9971   26.7508 C   0  0  0  0  0  0  0  0  0  0  0  0
   21.5599   19.4983   26.7330 O   0  5  0  0  0  0  0  0  0  0  0  0
   19.7541   18.9464   27.7441 O   0  0  0  0  0  0  0  0  0  0  0  0
   19.9188   18.3743   25.4638 C   0  0  0  0  0  0  0  0  0  0  0  0
   19.5315   17.3816   25.7208 H   0  0  0  0  0  0  0  0  0  0  0  0
   20.7613   18.2149   24.7843 H   0  0  0  0  0  0  0  0  0  0  0  0
   18.7957   19.2028   24.7802 C   0  0  0  0  0  0  0  0  0  0  0  0
   18.3238   18.6133   23.9832 H   0  0  0  0  0  0  0  0  0  0  0  0
   18.0085   19.3813   25.5258 H   0  0  0  0  0  0  0  0  0  0  0  0
   19.2622   20.5694   24.2158 C   0  0  0  0  0  0  0  0  0  0  0  0
   20.0751   20.9823   24.8283 H   0  0  0  0  0  0  0  0  0  0  0  0
   18.4274   21.2756   24.3221 H   0  0  0  0  0  0  0  0  0  0  0  0
   19.6729   20.5687   22.7195 C   0  0  0  0  0  0  0  0  0  0  0  0
   18.8333   20.2227   22.1040 H   0  0  0  0  0  0  0  0  0  0  0  0
   19.8379   21.6149   22.4280 H   0  0  0  0  0  0  0  0  0  0  0  0
   20.9653   19.7792   22.3853 C   0  0  0  0  0  0  0  0  0  0  0  0
   21.6264   19.7722   23.2622 H   0  0  0  0  0  0  0  0  0  0  0  0
   21.5194   20.3206   21.6064 H   0  0  0  0  0  0  0  0  0  0  0  0
   20.7285   18.3304   21.8908 C   0  0  0  0  0  0  0  0  0  0  0  0
   21.6881   17.7956   21.8987 H   0  0  0  0  0  0  0  0  0  0  0  0
   20.0686   17.7906   22.5804 H   0  0  0  0  0  0  0  0  0  0  0  0
   20.1428   18.2674   20.4629 C   0  0  0  0  0  0  0  0  0  0  0  0
   20.7919   18.7904   19.7487 H   0  0  0  0  0  0  0  0  0  0  0  0
   20.0499   17.2248   20.1323 H   0  0  0  0  0  0  0  0  0  0  0  0
   19.1456   18.7215   20.4153 H   0  0  0  0  0  0  0  0  0  0  0  0
  1  2  1  0  0  0  0
  1  3  2  0  0  0  0
  1  4  1  0  0  0  0
  4  5  1  0  0  0  0
  4  6  1  0  0  0  0
  4  7  1  0  0  0  0
  7  8  1  0  0  0  0
  7  9  1  0  0  0  0
  7 10  1  0  0  0  0
 10 11  1  0  0  0  0
 10 12  1  0  0  0  0
 10 13  1  0  0  0  0
 13 14  1  0  0  0  0
 13 15  1  0  0  0  0
 13 16  1  0  0  0  0
 16 17  1  0  0  0  0
 16 18  1  0  0  0  0
 16 19  1  0  0  0  0
 19 20  1  0  0  0  0
 19 21  1  0  0  0  0
 19 22  1  0  0  0  0
 22 23  1  0  0  0  0
 22 24  1  0  0  0  0
 22 25  1  0  0  0  0
M  END
> <VM2 Rank>
220

> <Conf_Id>
548

> <Probability>
0.00

> <Sum Probability>
100.00

> <Delta G>
9.668

> <G>
1.706

> <E>
-23.981

> <-TS>
25.687

> <U+W>
-44.549

> <U>
15.771

> <W>
-60.320

> <W(PB)>
-62.675

> <W(SA)>
2.355

> <Valence>
14.167

> <Coulomb>
0.909

> <VdW>
0.696

> <VdW6>
-12.061

> <VdW12>
12.757

> <Bond>
0.324

> <Angle>
4.148

> <Pdih>
9.694

> <Idih>
0.001

> <Tether>
0.000

$$$$
VeraChem MOL file


 25 24  0  0  0  0  0  0  0  0999 V2000     
   19.8273   19.7041   26.4603 C   0  0  0  0  0  0  0  0  0  0  0  0
   20.8053   20.2149   26.9714 O   0  5  0  0  0  0  0  0  0  0  0  0
   18.7776   20.2933   26.2937 O   0  0  0  0  0  0  0  0  0  0  0  0
   19.8779   18.2166   26.1097 C   0  0  0  0  0  0  0  0  0  0  0  0
   18.9698   17.9495   25.5560 H   0  0  0  0  0  0  0  0  0  0  0  0
   19.8323   17.6786   27.0634 H   0  0  0  0  0  0  0  0  0  0  0  0
   21.1400   17.7510   25.3291 C   0  0  0  0  0  0  0  0  0  0  0  0
   22.0369   18.2345   25.7406 H   0  0  0  0  0  0  0  0  0  0  0  0
   21.2715   16.6758   25.5104 H   0  0  0  0  0  0  0  0  0  0  0  0
   21.0811   17.9618   23.7944 C   0  0  0  0  0  0  0  0  0  0  0  0
   20.2326   17.4036   23.3804 H   0  0  0  0  0  0  0  0  0  0  0  0
   21.9779   17.4986   23.3610 H   0  0  0  0  0  0  0  0  0  0  0  0
   21.0430   19.4451   23.3428 C   0  0  0  0  0  0  0  0  0  0  0  0
   21.4183   20.0849   24.1527 H   0  0  0  0  0  0  0  0  0  0  0  0
   21.7508   19.5883   22.5170 H   0  0  0  0  0  0  0  0  0  0  0  0
   19.6411   19.9445   22.9049 C   0  0  0  0  0  0  0  0  0  0  0  0
   19.6762   21.0366   22.7942 H   0  0  0  0  0  0  0  0  0  0  0  0
   18.9191   19.7480   23.7071 H   0  0  0  0  0  0  0  0  0  0  0  0
   19.1010   19.3297   21.5886 C   0  0  0  0  0  0  0  0  0  0  0  0
   19.0093   18.2402   21.6818 H   0  0  0  0  0  0  0  0  0  0  0  0
   18.0822   19.7063   21.4233 H   0  0  0  0  0  0  0  0  0  0  0  0
   19.9587   19.6729   20.3512 C   0  0  0  0  0  0  0  0  0  0  0  0
   20.0948   20.7579   20.2553 H   0  0  0  0  0  0  0  0  0  0  0  0
   20.9488   19.2039   20.4079 H   0  0  0  0  0  0  0  0  0  0  0  0
   19.4731   19.3109   19.4358 H   0  0  0  0  0  0  0  0  0  0  0  0
  1  2  1  0  0  0  0
  1  3  2  0  0  0  0
  1  4  1  0  0  0  0
  4  5  1  0  0  0  0
  4  6  1  0  0  0  0
  4  7  1  0  0  0  0
  7  8  1  0  0  0  0
  7  9  1  0  0  0  0
  7 10  1  0  0  0  0
 10 11  1  0  0  0  0
 10 12  1  0  0  0  0
 10 13  1  0  0  0  0
 13 14  1  0  0  0  0
 13 15  1  0  0  0  0
 13 16  1  0  0  0  0
 16 17  1  0  0  0  0
 16 18  1  0  0  0  0
 16 19  1  0  0  0  0
 19 20  1  0  0  0  0
 19 21  1  0  0  0  0
 19 22  1  0  0  0  0
 22 23  1  0  0  0  0
 22 24  1  0  0  0  0
 22 25  1  0  0  0  0
M  END
> <VM2 Rank>
221

> <Conf_Id>
275

> <Probability>
0.00

> <Sum Probability>
100.00

> <Delta G>
9.731

> <G>
1.769

> <E>
-23.754

> <-TS>
25.522

> <U+W>
-44.321

> <U>
16.437

> <W>
-60.759

> <W(PB)>
-63.109

> <W(SA)>
2.351

> <Valence>
13.852

> <Coulomb>
1.849

> <VdW>
0.737

> <VdW6>
-12.634

> <VdW12>
13.371

> <Bond>
0.340

> <Angle>
4.370

> <Pdih>
9.125

> <Idih>
0.017

> <Tether>
0.000

$$$$
VeraChem MOL file


 25 24  0  0  0  0  0  0  0  0999 V2000     
   19.6198   19.0139   26.3825 C   0  0  0  0  0  0  0  0  0  0  0  0
   20.0685   18.1114   27.0624 O   0  5  0  0  0  0  0  0  0  0  0  0
   18.4609   19.0664   26.0211 O   0  0  0  0  0  0  0  0  0  0  0  0
   20.5444   20.1745   26.0187 C   0  0  0  0  0  0  0  0  0  0  0  0
   20.8149   20.6714   26.9573 H   0  0  0  0  0  0  0  0  0  0  0  0
   19.9822   20.9076   25.4293 H   0  0  0  0  0  0  0  0  0  0  0  0
   21.8399   19.7546   25.2724 C   0  0  0  0  0  0  0  0  0  0  0  0
   22.5073   20.6232   25.1923 H   0  0  0  0  0  0  0  0  0  0  0  0
   22.3756   19.0173   25.8863 H   0  0  0  0  0  0  0  0  0  0  0  0
   21.6116   19.1568   23.8608 C   0  0  0  0  0  0  0  0  0  0  0  0
   20.9503   18.2835   23.9280 H   0  0  0  0  0  0  0  0  0  0  0  0
   22.5765   18.7749   23.5010 H   0  0  0  0  0  0  0  0  0  0  0  0
   21.0802   20.1769   22.8186 C   0  0  0  0  0  0  0  0  0  0  0  0
   21.3759   21.1896   23.1241 H   0  0  0  0  0  0  0  0  0  0  0  0
   21.5799   20.0058   21.8555 H   0  0  0  0  0  0  0  0  0  0  0  0
   19.5449   20.1370   22.6019 C   0  0  0  0  0  0  0  0  0  0  0  0
   19.2046   21.1563   22.3747 H   0  0  0  0  0  0  0  0  0  0  0  0
   19.0305   19.8485   23.5269 H   0  0  0  0  0  0  0  0  0  0  0  0
   19.0871   19.2188   21.4415 C   0  0  0  0  0  0  0  0  0  0  0  0
   18.0031   19.3382   21.3082 H   0  0  0  0  0  0  0  0  0  0  0  0
   19.5512   19.5513   20.5028 H   0  0  0  0  0  0  0  0  0  0  0  0
   19.3956   17.7237   21.6662 C   0  0  0  0  0  0  0  0  0  0  0  0
   20.4772   17.5405   21.6842 H   0  0  0  0  0  0  0  0  0  0  0  0
   18.9682   17.3739   22.6152 H   0  0  0  0  0  0  0  0  0  0  0  0
   18.9683   17.1167   20.8577 H   0  0  0  0  0  0  0  0  0  0  0  0
  1  2  1  0  0  0  0
  1  3  2  0  0  0  0
  1  4  1  0  0  0  0
  4  5  1  0  0  0  0
  4  6  1  0  0  0  0
  4  7  1  0  0  0  0
  7  8  1  0  0  0  0
  7  9  1  0  0  0  0
  7 10  1  0  0  0  0
 10 11  1  0  0  0  0
 10 12  1  0  0  0  0
 10 13  1  0  0  0  0
 13 14  1  0  0  0  0
 13 15  1  0  0  0  0
 13 16  1  0  0  0  0
 16 17  1  0  0  0  0
 16 18  1  0  0  0  0
 16 19  1  0  0  0  0
 19 20  1  0  0  0  0
 19 21  1  0  0  0  0
 19 22  1  0  0  0  0
 22 23  1  0  0  0  0
 22 24  1  0  0  0  0
 22 25  1  0  0  0  0
M  END
> <VM2 Rank>
222

> <Conf_Id>
843

> <Probability>
0.00

> <Sum Probability>
100.00

> <Delta G>
9.836

> <G>
1.874

> <E>
-23.693

> <-TS>
25.567

> <U+W>
-44.261

> <U>
16.886

> <W>
-61.146

> <W(PB)>
-63.471

> <W(SA)>
2.324

> <Valence>
13.780

> <Coulomb>
2.628

> <VdW>
0.477

> <VdW6>
-12.511

> <VdW12>
12.988

> <Bond>
0.309

> <Angle>
3.804

> <Pdih>
9.661

> <Idih>
0.006

> <Tether>
0.000

$$$$
